MODEL 1
REMARK minimizedAffinity 0.0919374451
REMARK minimizedRMSD -1
REMARK  0 active torsions:
REMARK  status: ('A' for Active; 'I' for Inactive)
ROOT
ATOM      1  O1  BZF d   1      -4.247  -5.167   2.046  0.00  0.00    -0.204 OA
ATOM      2  C2  BZF d   1      -3.760  -6.000   1.058  0.00  0.00     0.174 A 
ATOM      3  C3  BZF d   1      -4.073  -5.525  -0.165  0.00  0.00    -0.012 A 
ATOM      4  C3A BZF d   1      -4.722  -4.273   0.072  0.00  0.00    -0.107 A 
ATOM      5  C4  BZF d   1      -5.250  -3.319  -0.750  0.00  0.00     0.055 A 
ATOM      6  C5  BZF d   1      -5.878  -2.247  -0.199  0.00  0.00    -0.016 A 
ATOM      7  C6  BZF d   1      -6.000  -2.099   1.167  0.00  0.00     0.022 A 
ATOM      8  C7  BZF d   1      -5.487  -3.017   2.023  0.00  0.00     0.029 A 
ATOM      9  C7A BZF d   1      -4.823  -4.085   1.470  0.00  0.00     0.058 A 
ENDROOT
TORSDOF 0
ENDMDL
