MODEL 1
REMARK minimizedAffinity 3.51233983
REMARK minimizedRMSD -1
REMARK  0 active torsions:
REMARK  status: ('A' for Active; 'I' for Inactive)
ROOT
ATOM      1  O1  BZF d   1      -6.000  -2.828   1.290  0.00  0.00    -0.204 OA
ATOM      2  C2  BZF d   1      -5.999  -2.040   0.155  0.00  0.00     0.174 A 
ATOM      3  C3  BZF d   1      -5.245  -2.598  -0.814  0.00  0.00    -0.012 A 
ATOM      4  C3A BZF d   1      -4.817  -3.855  -0.281  0.00  0.00    -0.107 A 
ATOM      5  C4  BZF d   1      -4.055  -4.874  -0.776  0.00  0.00     0.055 A 
ATOM      6  C5  BZF d   1      -3.764  -5.931   0.027  0.00  0.00    -0.016 A 
ATOM      7  C6  BZF d   1      -4.213  -6.000   1.329  0.00  0.00     0.022 A 
ATOM      8  C7  BZF d   1      -4.977  -5.016   1.863  0.00  0.00     0.029 A 
ATOM      9  C7A BZF d   1      -5.301  -3.962   1.044  0.00  0.00     0.058 A 
ENDROOT
TORSDOF 0
ENDMDL
