MODEL 1
REMARK minimizedAffinity 12.4692945
REMARK minimizedRMSD -1
REMARK  0 active torsions:
REMARK  status: ('A' for Active; 'I' for Inactive)
ROOT
ATOM      1  O1  BZF d   1       1.031   3.701  -1.914  0.00  0.00    -0.204 OA
ATOM      2  C2  BZF d   1       1.298   2.364  -1.694  0.00  0.00     0.174 A 
ATOM      3  C3  BZF d   1       2.116   1.876  -2.649  0.00  0.00    -0.012 A 
ATOM      4  C3A BZF d   1       2.450   3.000  -3.469  0.00  0.00    -0.107 A 
ATOM      5  C4  BZF d   1       3.240   3.155  -4.571  0.00  0.00     0.055 A 
ATOM      6  C5  BZF d   1       3.296   4.370  -5.178  0.00  0.00    -0.016 A 
ATOM      7  C6  BZF d   1       2.571   5.448  -4.713  0.00  0.00     0.022 A 
ATOM      8  C7  BZF d   1       1.776   5.343  -3.620  0.00  0.00     0.029 A 
ATOM      9  C7A BZF d   1       1.744   4.125  -2.985  0.00  0.00     0.058 A 
ENDROOT
TORSDOF 0
ENDMDL
