MODEL 1
REMARK minimizedAffinity 17.8069897
REMARK minimizedRMSD -1
REMARK  0 active torsions:
REMARK  status: ('A' for Active; 'I' for Inactive)
ROOT
ATOM      1  O1  BZF d   1       2.231  -1.603  -4.079  0.00  0.00    -0.204 OA
ATOM      2  C2  BZF d   1       1.127  -0.906  -3.629  0.00  0.00     0.174 A 
ATOM      3  C3  BZF d   1       1.215   0.398  -3.963  0.00  0.00    -0.012 A 
ATOM      4  C3A BZF d   1       2.407   0.505  -4.747  0.00  0.00    -0.107 A 
ATOM      5  C4  BZF d   1       3.023   1.546  -5.381  0.00  0.00     0.055 A 
ATOM      6  C5  BZF d   1       4.213   1.331  -6.000  0.00  0.00    -0.016 A 
ATOM      7  C6  BZF d   1       4.818   0.091  -6.000  0.00  0.00     0.022 A 
ATOM      8  C7  BZF d   1       4.243  -0.973  -5.389  0.00  0.00     0.029 A 
ATOM      9  C7A BZF d   1       3.023  -0.766  -4.791  0.00  0.00     0.058 A 
ENDROOT
TORSDOF 0
ENDMDL
