MODEL 1
REMARK minimizedAffinity 14.9174948
REMARK minimizedRMSD -1
REMARK  0 active torsions:
REMARK  status: ('A' for Active; 'I' for Inactive)
ROOT
ATOM      1  O1  BZF d   1       3.375  -0.392  -3.802  0.00  0.00    -0.204 OA
ATOM      2  C2  BZF d   1       3.502   0.983  -3.811  0.00  0.00     0.174 A 
ATOM      3  C3  BZF d   1       2.532   1.549  -4.558  0.00  0.00    -0.012 A 
ATOM      4  C3A BZF d   1       1.695   0.465  -4.971  0.00  0.00    -0.107 A 
ATOM      5  C4  BZF d   1       0.556   0.391  -5.721  0.00  0.00     0.055 A 
ATOM      6  C5  BZF d   1       0.027  -0.829  -6.000  0.00  0.00    -0.016 A 
ATOM      7  C6  BZF d   1       0.612  -1.995  -5.550  0.00  0.00     0.022 A 
ATOM      8  C7  BZF d   1       1.740  -1.972  -4.799  0.00  0.00     0.029 A 
ATOM      9  C7A BZF d   1       2.259  -0.739  -4.487  0.00  0.00     0.058 A 
ENDROOT
TORSDOF 0
ENDMDL
