MODEL 1
REMARK minimizedAffinity 6.68675232
REMARK minimizedRMSD -1
REMARK  0 active torsions:
REMARK  status: ('A' for Active; 'I' for Inactive)
ROOT
ATOM      1  O1  BZF d   1      -6.000  -2.478  -3.849  0.00  0.00    -0.204 OA
ATOM      2  C2  BZF d   1      -5.070  -1.459  -3.782  0.00  0.00     0.174 A 
ATOM      3  C3  BZF d   1      -3.920  -1.819  -4.387  0.00  0.00    -0.012 A 
ATOM      4  C3A BZF d   1      -4.177  -3.112  -4.943  0.00  0.00    -0.107 A 
ATOM      5  C4  BZF d   1      -3.425  -3.985  -5.677  0.00  0.00     0.055 A 
ATOM      6  C5  BZF d   1      -3.948  -5.197  -6.000  0.00  0.00    -0.016 A 
ATOM      7  C6  BZF d   1      -5.215  -5.571  -5.602  0.00  0.00     0.022 A 
ATOM      8  C7  BZF d   1      -6.000  -4.737  -4.877  0.00  0.00     0.029 A 
ATOM      9  C7A BZF d   1      -5.487  -3.499  -4.577  0.00  0.00     0.058 A 
ENDROOT
TORSDOF 0
ENDMDL
