MODEL 1
REMARK minimizedAffinity 8.01067162
REMARK minimizedRMSD -1
REMARK  0 active torsions:
REMARK  status: ('A' for Active; 'I' for Inactive)
ROOT
ATOM      1  O1  BZF d   1       4.404  -5.691   1.883  0.00  0.00    -0.204 OA
ATOM      2  C2  BZF d   1       5.151  -6.000   3.004  0.00  0.00     0.174 A 
ATOM      3  C3  BZF d   1       4.377  -6.000   4.109  0.00  0.00    -0.012 A 
ATOM      4  C3A BZF d   1       3.047  -5.761   3.637  0.00  0.00    -0.107 A 
ATOM      5  C4  BZF d   1       1.835  -5.664   4.258  0.00  0.00     0.055 A 
ATOM      6  C5  BZF d   1       0.738  -5.351   3.519  0.00  0.00    -0.016 A 
ATOM      7  C6  BZF d   1       0.819  -5.124   2.160  0.00  0.00     0.022 A 
ATOM      8  C7  BZF d   1       1.999  -5.214   1.500  0.00  0.00     0.029 A 
ATOM      9  C7A BZF d   1       3.103  -5.562   2.239  0.00  0.00     0.058 A 
ENDROOT
TORSDOF 0
ENDMDL
