MODEL 1
REMARK minimizedAffinity 5.96486187
REMARK minimizedRMSD -1
REMARK  0 active torsions:
REMARK  status: ('A' for Active; 'I' for Inactive)
ROOT
ATOM      1  O1  BZF d   1      -2.971  -2.039   0.517  0.00  0.00    -0.204 OA
ATOM      2  C2  BZF d   1      -4.292  -2.259   0.178  0.00  0.00     0.174 A 
ATOM      3  C3  BZF d   1      -5.022  -1.138   0.347  0.00  0.00    -0.012 A 
ATOM      4  C3A BZF d   1      -4.082  -0.131   0.733  0.00  0.00    -0.107 A 
ATOM      5  C4  BZF d   1      -4.198   1.197   1.029  0.00  0.00     0.055 A 
ATOM      6  C5  BZF d   1      -3.098   1.880   1.442  0.00  0.00    -0.016 A 
ATOM      7  C6  BZF d   1      -1.870   1.266   1.576  0.00  0.00     0.022 A 
ATOM      8  C7  BZF d   1      -1.705  -0.049   1.289  0.00  0.00     0.029 A 
ATOM      9  C7A BZF d   1      -2.808  -0.734   0.840  0.00  0.00     0.058 A 
ENDROOT
TORSDOF 0
ENDMDL
