MODEL 1
REMARK minimizedAffinity 13.0616875
REMARK minimizedRMSD -1
REMARK  0 active torsions:
REMARK  status: ('A' for Active; 'I' for Inactive)
ROOT
ATOM      1  O1  BZF d   1      -5.106  -0.448   0.501  0.00  0.00    -0.204 OA
ATOM      2  C2  BZF d   1      -4.790  -1.793   0.508  0.00  0.00     0.174 A 
ATOM      3  C3  BZF d   1      -3.475  -1.974   0.748  0.00  0.00    -0.012 A 
ATOM      4  C3A BZF d   1      -2.953  -0.664   0.991  0.00  0.00    -0.107 A 
ATOM      5  C4  BZF d   1      -1.710  -0.192   1.302  0.00  0.00     0.055 A 
ATOM      6  C5  BZF d   1      -1.520   1.150   1.402  0.00  0.00    -0.016 A 
ATOM      7  C6  BZF d   1      -2.547   2.047   1.193  0.00  0.00     0.022 A 
ATOM      8  C7  BZF d   1      -3.798   1.625   0.887  0.00  0.00     0.029 A 
ATOM      9  C7A BZF d   1      -4.002   0.269   0.818  0.00  0.00     0.058 A 
ENDROOT
TORSDOF 0
ENDMDL
