MODEL 1
REMARK minimizedAffinity 12.9605141
REMARK minimizedRMSD -1
REMARK  0 active torsions:
REMARK  status: ('A' for Active; 'I' for Inactive)
ROOT
ATOM      1  O1  BZF d   1       1.532   3.753  -1.350  0.00  0.00    -0.204 OA
ATOM      2  C2  BZF d   1       1.786   2.408  -1.165  0.00  0.00     0.174 A 
ATOM      3  C3  BZF d   1       2.662   1.955  -2.085  0.00  0.00    -0.012 A 
ATOM      4  C3A BZF d   1       3.047   3.109  -2.838  0.00  0.00    -0.107 A 
ATOM      5  C4  BZF d   1       3.905   3.306  -3.882  0.00  0.00     0.055 A 
ATOM      6  C5  BZF d   1       3.998   4.543  -4.436  0.00  0.00    -0.016 A 
ATOM      7  C6  BZF d   1       3.244   5.603  -3.977  0.00  0.00     0.022 A 
ATOM      8  C7  BZF d   1       2.382   5.458  -2.941  0.00  0.00     0.029 A 
ATOM      9  C7A BZF d   1       2.311   4.217  -2.357  0.00  0.00     0.058 A 
ENDROOT
TORSDOF 0
ENDMDL
