MODEL 1
REMARK minimizedAffinity 1.76861632
REMARK minimizedRMSD -1
REMARK  0 active torsions:
REMARK  status: ('A' for Active; 'I' for Inactive)
ROOT
ATOM      1  O1  BZF d   1      -4.156   0.161   0.809  0.00  0.00    -0.204 OA
ATOM      2  C2  BZF d   1      -2.955   0.754   1.148  0.00  0.00     0.174 A 
ATOM      3  C3  BZF d   1      -1.934  -0.115   1.002  0.00  0.00    -0.012 A 
ATOM      4  C3A BZF d   1      -2.522  -1.298   0.455  0.00  0.00    -0.107 A 
ATOM      5  C4  BZF d   1      -2.017  -2.509   0.075  0.00  0.00     0.055 A 
ATOM      6  C5  BZF d   1      -2.870  -3.476  -0.352  0.00  0.00    -0.016 A 
ATOM      7  C6  BZF d   1      -4.233  -3.270  -0.406  0.00  0.00     0.022 A 
ATOM      8  C7  BZF d   1      -4.781  -2.085  -0.043  0.00  0.00     0.029 A 
ATOM      9  C7A BZF d   1      -3.918  -1.094   0.357  0.00  0.00     0.058 A 
ENDROOT
TORSDOF 0
ENDMDL
