MODEL 1
REMARK minimizedAffinity -5.69504547
REMARK minimizedRMSD -1
REMARK  0 active torsions:
REMARK  status: ('A' for Active; 'I' for Inactive)
ROOT
ATOM      1  C   UNL d   1       0.266  -1.475   0.200  0.00  0.00     0.078 C 
ATOM      2  C1  UNL d   1       0.703  -0.496  -0.849  0.00  0.00    -0.077 A 
ATOM      3  C2  UNL d   1       0.093   0.759  -0.963  0.00  0.00    -0.001 A 
ATOM      4  C3  UNL d   1       0.504   1.656  -1.950  0.00  0.00     0.003 A 
ATOM      5  C4  UNL d   1       1.526   1.308  -2.830  0.00  0.00    -0.005 A 
ATOM      6  C5  UNL d   1       2.139   0.061  -2.725  0.00  0.00     0.003 A 
ATOM      7  C6  UNL d   1       1.729  -0.838  -1.739  0.00  0.00    -0.001 A 
ENDROOT
TORSDOF 0
ENDMDL
