MODEL 1
REMARK minimizedAffinity -4.9694643
REMARK minimizedRMSD -1
REMARK  0 active torsions:
REMARK  status: ('A' for Active; 'I' for Inactive)
ROOT
ATOM      1  C   UNL d   1       0.398   2.370  -2.147  0.00  0.00     0.078 C 
ATOM      2  C1  UNL d   1       0.552   0.978  -1.613  0.00  0.00    -0.077 A 
ATOM      3  C2  UNL d   1      -0.288   0.496  -0.601  0.00  0.00    -0.001 A 
ATOM      4  C3  UNL d   1      -0.127  -0.799  -0.107  0.00  0.00     0.003 A 
ATOM      5  C4  UNL d   1       0.875  -1.623  -0.616  0.00  0.00    -0.005 A 
ATOM      6  C5  UNL d   1       1.717  -1.152  -1.622  0.00  0.00     0.003 A 
ATOM      7  C6  UNL d   1       1.557   0.143  -2.117  0.00  0.00    -0.001 A 
ENDROOT
TORSDOF 0
ENDMDL
