MODEL 1
REMARK minimizedAffinity -5.32176161
REMARK minimizedRMSD -1
REMARK  0 active torsions:
REMARK  status: ('A' for Active; 'I' for Inactive)
ROOT
ATOM      1  C   UNL d   1       1.143   2.262  -2.262  0.00  0.00     0.078 C 
ATOM      2  C1  UNL d   1       1.139   0.949  -1.539  0.00  0.00    -0.077 A 
ATOM      3  C2  UNL d   1       2.144  -0.001  -1.762  0.00  0.00    -0.001 A 
ATOM      4  C3  UNL d   1       2.122  -1.224  -1.090  0.00  0.00     0.003 A 
ATOM      5  C4  UNL d   1       1.096  -1.509  -0.190  0.00  0.00    -0.005 A 
ATOM      6  C5  UNL d   1       0.091  -0.571   0.037  0.00  0.00     0.003 A 
ATOM      7  C6  UNL d   1       0.111   0.652  -0.634  0.00  0.00    -0.001 A 
ENDROOT
TORSDOF 0
ENDMDL
