MODEL 1
REMARK minimizedAffinity -4.17047071
REMARK minimizedRMSD -1
REMARK  0 active torsions:
REMARK  status: ('A' for Active; 'I' for Inactive)
ROOT
ATOM      1  C   UNL d   1      -0.878   0.429   0.929  0.00  0.00     0.078 C 
ATOM      2  C1  UNL d   1       0.137   0.238  -0.159  0.00  0.00    -0.077 A 
ATOM      3  C2  UNL d   1       0.995  -0.868  -0.159  0.00  0.00    -0.001 A 
ATOM      4  C3  UNL d   1       1.941  -1.027  -1.172  0.00  0.00     0.003 A 
ATOM      5  C4  UNL d   1       2.039  -0.084  -2.193  0.00  0.00    -0.005 A 
ATOM      6  C5  UNL d   1       1.191   1.022  -2.200  0.00  0.00     0.003 A 
ATOM      7  C6  UNL d   1       0.244   1.183  -1.187  0.00  0.00    -0.001 A 
ENDROOT
TORSDOF 0
ENDMDL
