MODEL 1
REMARK minimizedAffinity -4.77250624
REMARK minimizedRMSD -1
REMARK  0 active torsions:
REMARK  status: ('A' for Active; 'I' for Inactive)
ROOT
ATOM      1  C   UNL d   1      -0.895   0.509   0.670  0.00  0.00     0.078 C 
ATOM      2  C1  UNL d   1       0.288  -0.035  -0.072  0.00  0.00    -0.077 A 
ATOM      3  C2  UNL d   1       0.208  -1.247  -0.769  0.00  0.00    -0.001 A 
ATOM      4  C3  UNL d   1       1.321  -1.747  -1.447  0.00  0.00     0.003 A 
ATOM      5  C4  UNL d   1       2.522  -1.041  -1.435  0.00  0.00    -0.005 A 
ATOM      6  C5  UNL d   1       2.612   0.165  -0.743  0.00  0.00     0.003 A 
ATOM      7  C6  UNL d   1       1.501   0.666  -0.064  0.00  0.00    -0.001 A 
ENDROOT
TORSDOF 0
ENDMDL
