MODEL 1
REMARK minimizedAffinity -5.34567881
REMARK minimizedRMSD -1
REMARK  0 active torsions:
REMARK  status: ('A' for Active; 'I' for Inactive)
ROOT
ATOM      1  C   UNL d   1       2.667   0.770  -2.478  0.00  0.00     0.078 C 
ATOM      2  C1  UNL d   1       1.759   0.055  -1.524  0.00  0.00    -0.077 A 
ATOM      3  C2  UNL d   1       1.874  -1.325  -1.316  0.00  0.00    -0.001 A 
ATOM      4  C3  UNL d   1       1.015  -1.980  -0.432  0.00  0.00     0.003 A 
ATOM      5  C4  UNL d   1       0.034  -1.263   0.251  0.00  0.00    -0.005 A 
ATOM      6  C5  UNL d   1      -0.090   0.110   0.049  0.00  0.00     0.003 A 
ATOM      7  C6  UNL d   1       0.768   0.766  -0.835  0.00  0.00    -0.001 A 
ENDROOT
TORSDOF 0
ENDMDL
