MODEL 1
REMARK minimizedAffinity -3.62528682
REMARK minimizedRMSD -1
REMARK  0 active torsions:
REMARK  status: ('A' for Active; 'I' for Inactive)
ROOT
ATOM      1  C   UNL d   1      -0.816  -0.396   0.313  0.00  0.00     0.078 C 
ATOM      2  C1  UNL d   1       0.368  -0.891  -0.464  0.00  0.00    -0.077 A 
ATOM      3  C2  UNL d   1       0.984  -2.107  -0.143  0.00  0.00    -0.001 A 
ATOM      4  C3  UNL d   1       2.091  -2.550  -0.869  0.00  0.00     0.003 A 
ATOM      5  C4  UNL d   1       2.592  -1.783  -1.919  0.00  0.00    -0.005 A 
ATOM      6  C5  UNL d   1       1.986  -0.571  -2.244  0.00  0.00     0.003 A 
ATOM      7  C6  UNL d   1       0.880  -0.126  -1.520  0.00  0.00    -0.001 A 
ENDROOT
TORSDOF 0
ENDMDL
