MODEL 1
REMARK minimizedAffinity -2.21422029
REMARK minimizedRMSD -1
REMARK  0 active torsions:
REMARK  status: ('A' for Active; 'I' for Inactive)
ROOT
ATOM      1  C   UNL d   1      -1.252   0.714   0.387  0.00  0.00     0.078 C 
ATOM      2  C1  UNL d   1      -0.265  -0.301  -0.105  0.00  0.00    -0.077 A 
ATOM      3  C2  UNL d   1       0.871   0.088  -0.826  0.00  0.00    -0.001 A 
ATOM      4  C3  UNL d   1       1.777  -0.869  -1.287  0.00  0.00     0.003 A 
ATOM      5  C4  UNL d   1       1.556  -2.221  -1.033  0.00  0.00    -0.005 A 
ATOM      6  C5  UNL d   1       0.427  -2.618  -0.318  0.00  0.00     0.003 A 
ATOM      7  C6  UNL d   1      -0.480  -1.663   0.143  0.00  0.00    -0.001 A 
ENDROOT
TORSDOF 0
ENDMDL
