MODEL 1
REMARK minimizedAffinity -3.96875572
REMARK minimizedRMSD -1
REMARK  0 active torsions:
REMARK  status: ('A' for Active; 'I' for Inactive)
ROOT
ATOM      1  C   UNL d   1      -1.441   0.343   0.427  0.00  0.00     0.078 C 
ATOM      2  C1  UNL d   1      -0.155  -0.188  -0.132  0.00  0.00    -0.077 A 
ATOM      3  C2  UNL d   1      -0.004  -1.548  -0.430  0.00  0.00    -0.001 A 
ATOM      4  C3  UNL d   1       1.202  -2.029  -0.941  0.00  0.00     0.003 A 
ATOM      5  C4  UNL d   1       2.268  -1.158  -1.158  0.00  0.00    -0.005 A 
ATOM      6  C5  UNL d   1       2.128   0.197  -0.862  0.00  0.00     0.003 A 
ATOM      7  C6  UNL d   1       0.923   0.680  -0.351  0.00  0.00    -0.001 A 
ENDROOT
TORSDOF 0
ENDMDL
