MODEL 1
REMARK minimizedAffinity -5.25204611
REMARK minimizedRMSD -1
REMARK  0 active torsions:
REMARK  status: ('A' for Active; 'I' for Inactive)
ROOT
ATOM      1  C   UNL d   1      -1.032   0.323   0.492  0.00  0.00     0.078 C 
ATOM      2  C1  UNL d   1       0.157  -0.131  -0.302  0.00  0.00    -0.077 A 
ATOM      3  C2  UNL d   1       0.491  -1.488  -0.386  0.00  0.00    -0.001 A 
ATOM      4  C3  UNL d   1       1.606  -1.896  -1.120  0.00  0.00     0.003 A 
ATOM      5  C4  UNL d   1       2.396  -0.953  -1.775  0.00  0.00    -0.005 A 
ATOM      6  C5  UNL d   1       2.073   0.400  -1.695  0.00  0.00     0.003 A 
ATOM      7  C6  UNL d   1       0.958   0.809  -0.961  0.00  0.00    -0.001 A 
ENDROOT
TORSDOF 0
ENDMDL
