MODEL 1
REMARK minimizedAffinity -4.93134689
REMARK minimizedRMSD -1
REMARK  0 active torsions:
REMARK  status: ('A' for Active; 'I' for Inactive)
ROOT
ATOM      1  C   UNL d   1      -0.942   0.161  -0.302  0.00  0.00     0.078 C 
ATOM      2  C1  UNL d   1       0.453  -0.162  -0.745  0.00  0.00    -0.077 A 
ATOM      3  C2  UNL d   1       0.733  -1.342  -1.446  0.00  0.00    -0.001 A 
ATOM      4  C3  UNL d   1       2.038  -1.634  -1.843  0.00  0.00     0.003 A 
ATOM      5  C4  UNL d   1       3.075  -0.752  -1.544  0.00  0.00    -0.005 A 
ATOM      6  C5  UNL d   1       2.807   0.423  -0.845  0.00  0.00     0.003 A 
ATOM      7  C6  UNL d   1       1.502   0.717  -0.447  0.00  0.00    -0.001 A 
ENDROOT
TORSDOF 0
ENDMDL
