MODEL 1
REMARK minimizedAffinity -4.88806915
REMARK minimizedRMSD -1
REMARK  0 active torsions:
REMARK  status: ('A' for Active; 'I' for Inactive)
ROOT
ATOM      1  C   UNL d   1      -2.969  -2.183   4.220  0.00  0.00     0.078 C 
ATOM      2  C1  UNL d   1      -2.661  -0.885   3.535  0.00  0.00    -0.077 A 
ATOM      3  C2  UNL d   1      -2.416   0.279   4.273  0.00  0.00    -0.001 A 
ATOM      4  C3  UNL d   1      -2.140   1.483   3.622  0.00  0.00     0.003 A 
ATOM      5  C4  UNL d   1      -2.108   1.534   2.230  0.00  0.00    -0.005 A 
ATOM      6  C5  UNL d   1      -2.353   0.381   1.487  0.00  0.00     0.003 A 
ATOM      7  C6  UNL d   1      -2.629  -0.824   2.136  0.00  0.00    -0.001 A 
ENDROOT
TORSDOF 0
ENDMDL
