MODEL 1
REMARK minimizedAffinity -4.94264936
REMARK minimizedRMSD -1
REMARK  0 active torsions:
REMARK  status: ('A' for Active; 'I' for Inactive)
ROOT
ATOM      1  C   UNL d   1      -1.322   0.388   0.469  0.00  0.00     0.078 C 
ATOM      2  C1  UNL d   1      -0.086  -0.039  -0.266  0.00  0.00    -0.077 A 
ATOM      3  C2  UNL d   1       0.874   0.897  -0.669  0.00  0.00    -0.001 A 
ATOM      4  C3  UNL d   1       2.014   0.486  -1.361  0.00  0.00     0.003 A 
ATOM      5  C4  UNL d   1       2.204  -0.862  -1.657  0.00  0.00    -0.005 A 
ATOM      6  C5  UNL d   1       1.254  -1.801  -1.262  0.00  0.00     0.003 A 
ATOM      7  C6  UNL d   1       0.113  -1.392  -0.570  0.00  0.00    -0.001 A 
ENDROOT
TORSDOF 0
ENDMDL
