MODEL 1
REMARK minimizedAffinity 6.4916048
REMARK minimizedRMSD -1
REMARK  0 active torsions:
REMARK  status: ('A' for Active; 'I' for Inactive)
ROOT
ATOM      1  C   UNL d   1      -1.311  -0.918   1.103  0.00  0.00     0.078 C 
ATOM      2  C1  UNL d   1      -0.296  -1.480   0.153  0.00  0.00    -0.077 A 
ATOM      3  C2  UNL d   1       1.012  -1.751   0.573  0.00  0.00    -0.001 A 
ATOM      4  C3  UNL d   1       1.949  -2.265  -0.324  0.00  0.00     0.003 A 
ATOM      5  C4  UNL d   1       1.589  -2.511  -1.648  0.00  0.00    -0.005 A 
ATOM      6  C5  UNL d   1       0.290  -2.243  -2.075  0.00  0.00     0.003 A 
ATOM      7  C6  UNL d   1      -0.648  -1.729  -1.179  0.00  0.00    -0.001 A 
ENDROOT
TORSDOF 0
ENDMDL
