MODEL 1
REMARK minimizedAffinity -0.205126271
REMARK minimizedRMSD -1
REMARK  0 active torsions:
REMARK  status: ('A' for Active; 'I' for Inactive)
ROOT
ATOM      1  C   UNL d   1      -0.598  -0.953  -0.225  0.00  0.00     0.078 C 
ATOM      2  C1  UNL d   1      -0.927  -0.064   0.936  0.00  0.00    -0.077 A 
ATOM      3  C2  UNL d   1      -0.277   1.164   1.111  0.00  0.00    -0.001 A 
ATOM      4  C3  UNL d   1      -0.586   1.977   2.202  0.00  0.00     0.003 A 
ATOM      5  C4  UNL d   1      -1.545   1.571   3.128  0.00  0.00    -0.005 A 
ATOM      6  C5  UNL d   1      -2.195   0.350   2.964  0.00  0.00     0.003 A 
ATOM      7  C6  UNL d   1      -1.887  -0.465   1.873  0.00  0.00    -0.001 A 
ENDROOT
TORSDOF 0
ENDMDL
