MODEL 1
REMARK minimizedAffinity -4.73851871
REMARK minimizedRMSD -1
REMARK  0 active torsions:
REMARK  status: ('A' for Active; 'I' for Inactive)
ROOT
ATOM      1  C   UNL d   1       3.474  -0.301  -1.498  0.00  0.00     0.078 C 
ATOM      2  C1  UNL d   1       2.098  -0.483  -0.929  0.00  0.00    -0.077 A 
ATOM      3  C2  UNL d   1       1.367   0.610  -0.447  0.00  0.00    -0.001 A 
ATOM      4  C3  UNL d   1       0.092   0.425   0.089  0.00  0.00     0.003 A 
ATOM      5  C4  UNL d   1      -0.464  -0.851   0.148  0.00  0.00    -0.005 A 
ATOM      6  C5  UNL d   1       0.256  -1.945  -0.328  0.00  0.00     0.003 A 
ATOM      7  C6  UNL d   1       1.532  -1.762  -0.864  0.00  0.00    -0.001 A 
ENDROOT
TORSDOF 0
ENDMDL
