MODEL 1
REMARK minimizedAffinity -1.20547068
REMARK minimizedRMSD -1
REMARK  0 active torsions:
REMARK  status: ('A' for Active; 'I' for Inactive)
ROOT
ATOM      1  C   UNL d   1      -1.116   0.330   1.039  0.00  0.00     0.078 C 
ATOM      2  C1  UNL d   1      -0.154  -0.507   0.250  0.00  0.00    -0.077 A 
ATOM      3  C2  UNL d   1      -0.042  -1.884   0.477  0.00  0.00    -0.001 A 
ATOM      4  C3  UNL d   1       0.864  -2.649  -0.258  0.00  0.00     0.003 A 
ATOM      5  C4  UNL d   1       1.667  -2.046  -1.224  0.00  0.00    -0.005 A 
ATOM      6  C5  UNL d   1       1.564  -0.676  -1.456  0.00  0.00     0.003 A 
ATOM      7  C6  UNL d   1       0.658   0.091  -0.722  0.00  0.00    -0.001 A 
ENDROOT
TORSDOF 0
ENDMDL
