MODEL 1
REMARK minimizedAffinity 2.45713425
REMARK minimizedRMSD -1
REMARK  0 active torsions:
REMARK  status: ('A' for Active; 'I' for Inactive)
ROOT
ATOM      1  C   UNL d   1      -2.763   0.297   3.742  0.00  0.00     0.078 C 
ATOM      2  C1  UNL d   1      -3.888  -0.690   3.661  0.00  0.00    -0.077 A 
ATOM      3  C2  UNL d   1      -4.677  -0.791   2.508  0.00  0.00    -0.001 A 
ATOM      4  C3  UNL d   1      -5.727  -1.708   2.450  0.00  0.00     0.003 A 
ATOM      5  C4  UNL d   1      -6.000  -2.530   3.542  0.00  0.00    -0.005 A 
ATOM      6  C5  UNL d   1      -5.222  -2.435   4.694  0.00  0.00     0.003 A 
ATOM      7  C6  UNL d   1      -4.171  -1.519   4.754  0.00  0.00    -0.001 A 
ENDROOT
TORSDOF 0
ENDMDL
