MODEL 1
REMARK minimizedAffinity 16.5272388
REMARK minimizedRMSD -1
REMARK  2 active torsions:
REMARK  status: ('A' for Active; 'I' for Inactive)
REMARK    1  A    between atoms: C2'_3  and  C1'_4 
REMARK    2  A    between atoms: C1'_4  and  C1_5 
ROOT
ATOM      1  C1  I4B d   1       4.051  -0.191  -4.366  0.00  0.00    -0.075 A 
ATOM      2  C2  I4B d   1       5.408  -0.092  -4.545  0.00  0.00     0.003 A 
ATOM      3  C3  I4B d   1       5.998   1.159  -4.845  0.00  0.00     0.002 A 
ATOM      4  C4  I4B d   1       5.194   2.269  -5.006  0.00  0.00    -0.004 A 
ATOM      5  C5  I4B d   1       3.821   2.172  -4.801  0.00  0.00     0.002 A 
ATOM      6  C6  I4B d   1       3.246   0.937  -4.467  0.00  0.00     0.003 A 
ENDROOT
BRANCH   1   7
ATOM      7  C1' I4B d   1       3.457  -1.534  -4.082  0.00  0.00     0.060 C 
BRANCH   7   8
ATOM      8  C2' I4B d   1       4.182  -2.123  -2.889  0.00  0.00    -0.013 C 
ATOM      9  C4' I4B d   1       3.491  -1.765  -1.600  0.00  0.00     0.013 C 
ATOM     10  C3' I4B d   1       4.246  -3.609  -3.074  0.00  0.00     0.013 C 
ENDBRANCH   7   8
ENDBRANCH   1   7
TORSDOF 2
ENDMDL
