MODEL 1
REMARK minimizedAffinity 16.2477436
REMARK minimizedRMSD -1
REMARK  2 active torsions:
REMARK  status: ('A' for Active; 'I' for Inactive)
REMARK    1  A    between atoms: C2'_3  and  C1'_4 
REMARK    2  A    between atoms: C1'_4  and  C1_5 
ROOT
ATOM      1  C1  I4B d   1      -3.562   1.336   4.850  0.00  0.00    -0.075 A 
ATOM      2  C2  I4B d   1      -4.429   0.595   5.613  0.00  0.00     0.003 A 
ATOM      3  C3  I4B d   1      -5.680   1.135   5.999  0.00  0.00     0.002 A 
ATOM      4  C4  I4B d   1      -5.999   2.430   5.646  0.00  0.00    -0.004 A 
ATOM      5  C5  I4B d   1      -5.128   3.172   4.853  0.00  0.00     0.002 A 
ATOM      6  C6  I4B d   1      -3.908   2.618   4.441  0.00  0.00     0.003 A 
ENDROOT
BRANCH   1   7
ATOM      7  C1' I4B d   1      -2.236   0.747   4.487  0.00  0.00     0.060 C 
BRANCH   7   8
ATOM      8  C2' I4B d   1      -2.296  -0.742   4.764  0.00  0.00    -0.013 C 
ATOM      9  C4' I4B d   1      -2.258  -1.536   3.485  0.00  0.00     0.013 C 
ATOM     10  C3' I4B d   1      -1.141  -1.093   5.654  0.00  0.00     0.013 C 
ENDBRANCH   7   8
ENDBRANCH   1   7
TORSDOF 2
ENDMDL
