MODEL 1
REMARK minimizedAffinity 13.3435364
REMARK minimizedRMSD -1
REMARK  2 active torsions:
REMARK  status: ('A' for Active; 'I' for Inactive)
REMARK    1  A    between atoms: C2'_3  and  C1'_4 
REMARK    2  A    between atoms: C1'_4  and  C1_5 
ROOT
ATOM      1  C1  I4B d   1      -2.305  -1.986   3.501  0.00  0.00    -0.075 A 
ATOM      2  C2  I4B d   1      -2.243  -0.636   3.263  0.00  0.00     0.003 A 
ATOM      3  C3  I4B d   1      -2.543   0.284   4.296  0.00  0.00     0.002 A 
ATOM      4  C4  I4B d   1      -2.947  -0.186   5.529  0.00  0.00    -0.004 A 
ATOM      5  C5  I4B d   1      -2.988  -1.555   5.775  0.00  0.00     0.002 A 
ATOM      6  C6  I4B d   1      -2.653  -2.462   4.759  0.00  0.00     0.003 A 
ENDROOT
BRANCH   1   7
ATOM      7  C1' I4B d   1      -2.014  -2.930   2.378  0.00  0.00     0.060 C 
BRANCH   7   8
ATOM      8  C2' I4B d   1      -1.876  -2.116   1.107  0.00  0.00    -0.013 C 
ATOM      9  C4' I4B d   1      -0.706  -2.585   0.283  0.00  0.00     0.013 C 
ATOM     10  C3' I4B d   1      -3.160  -2.233   0.341  0.00  0.00     0.013 C 
ENDBRANCH   7   8
ENDBRANCH   1   7
TORSDOF 2
ENDMDL
