MODEL 1
REMARK minimizedAffinity 1.13417935
REMARK minimizedRMSD -1
REMARK  2 active torsions:
REMARK  status: ('A' for Active; 'I' for Inactive)
REMARK    1  A    between atoms: C2'_3  and  C1'_4 
REMARK    2  A    between atoms: C1'_4  and  C1_5 
ROOT
ATOM      1  C1  I4B d   1       4.249  -2.565   5.358  0.00  0.00    -0.075 A 
ATOM      2  C2  I4B d   1       3.429  -1.503   5.647  0.00  0.00     0.003 A 
ATOM      3  C3  I4B d   1       2.075  -1.722   5.998  0.00  0.00     0.002 A 
ATOM      4  C4  I4B d   1       1.573  -3.007   5.999  0.00  0.00    -0.004 A 
ATOM      5  C5  I4B d   1       2.411  -4.085   5.728  0.00  0.00     0.002 A 
ATOM      6  C6  I4B d   1       3.761  -3.864   5.418  0.00  0.00     0.003 A 
ENDROOT
BRANCH   1   7
ATOM      7  C1' I4B d   1       5.665  -2.295   4.959  0.00  0.00     0.060 C 
BRANCH   7   8
ATOM      8  C2' I4B d   1       5.999  -3.195   3.787  0.00  0.00    -0.013 C 
ATOM      9  C4' I4B d   1       5.990  -4.645   4.193  0.00  0.00     0.013 C 
ATOM     10  C3' I4B d   1       5.001  -2.930   2.700  0.00  0.00     0.013 C 
ENDBRANCH   7   8
ENDBRANCH   1   7
TORSDOF 2
ENDMDL
