MODEL 1
REMARK minimizedAffinity 6.52428341
REMARK minimizedRMSD -1
REMARK  2 active torsions:
REMARK  status: ('A' for Active; 'I' for Inactive)
REMARK    1  A    between atoms: C2'_3  and  C1'_4 
REMARK    2  A    between atoms: C1'_4  and  C1_5 
ROOT
ATOM      1  C1  I4B d   1       4.457  -2.988  -4.636  0.00  0.00    -0.075 A 
ATOM      2  C2  I4B d   1       3.545  -4.013  -4.672  0.00  0.00     0.003 A 
ATOM      3  C3  I4B d   1       3.859  -5.222  -5.339  0.00  0.00     0.002 A 
ATOM      4  C4  I4B d   1       5.068  -5.343  -5.994  0.00  0.00    -0.004 A 
ATOM      5  C5  I4B d   1       6.000  -4.311  -5.937  0.00  0.00     0.002 A 
ATOM      6  C6  I4B d   1       5.698  -3.130  -5.243  0.00  0.00     0.003 A 
ENDROOT
BRANCH   1   7
ATOM      7  C1' I4B d   1       4.080  -1.712  -3.951  0.00  0.00     0.060 C 
BRANCH   7   8
ATOM      8  C2' I4B d   1       5.329  -0.865  -3.820  0.00  0.00    -0.013 C 
ATOM      9  C4' I4B d   1       5.010   0.601  -3.947  0.00  0.00     0.013 C 
ATOM     10  C3' I4B d   1       5.958  -1.170  -2.493  0.00  0.00     0.013 C 
ENDBRANCH   7   8
ENDBRANCH   1   7
TORSDOF 2
ENDMDL
