MODEL 1
REMARK minimizedAffinity 12.8255434
REMARK minimizedRMSD -1
REMARK  2 active torsions:
REMARK  status: ('A' for Active; 'I' for Inactive)
REMARK    1  A    between atoms: C2'_3  and  C1'_4 
REMARK    2  A    between atoms: C1'_4  and  C1_5 
ROOT
ATOM      1  C1  I4B d   1       4.193  -2.885   4.939  0.00  0.00    -0.075 A 
ATOM      2  C2  I4B d   1       5.516  -3.023   5.276  0.00  0.00     0.003 A 
ATOM      3  C3  I4B d   1       6.000  -4.255   5.778  0.00  0.00     0.002 A 
ATOM      4  C4  I4B d   1       5.121  -5.302   5.972  0.00  0.00    -0.004 A 
ATOM      5  C5  I4B d   1       3.784  -5.168   5.608  0.00  0.00     0.002 A 
ATOM      6  C6  I4B d   1       3.319  -3.956   5.076  0.00  0.00     0.003 A 
ENDROOT
BRANCH   1   7
ATOM      7  C1' I4B d   1       3.709  -1.559   4.444  0.00  0.00     0.060 C 
BRANCH   7   8
ATOM      8  C2' I4B d   1       3.065  -1.773   3.089  0.00  0.00    -0.013 C 
ATOM      9  C4' I4B d   1       4.023  -1.453   1.973  0.00  0.00     0.013 C 
ATOM     10  C3' I4B d   1       2.605  -3.199   3.016  0.00  0.00     0.013 C 
ENDBRANCH   7   8
ENDBRANCH   1   7
TORSDOF 2
ENDMDL
