MODEL 1
REMARK minimizedAffinity 4.10257912
REMARK minimizedRMSD -1
REMARK  2 active torsions:
REMARK  status: ('A' for Active; 'I' for Inactive)
REMARK    1  A    between atoms: C2'_3  and  C1'_4 
REMARK    2  A    between atoms: C1'_4  and  C1_5 
ROOT
ATOM      1  C1  I4B d   1       5.432  -2.672  -4.597  0.00  0.00    -0.075 A 
ATOM      2  C2  I4B d   1       5.996  -3.404  -3.582  0.00  0.00     0.003 A 
ATOM      3  C3  I4B d   1       6.000  -2.903  -2.258  0.00  0.00     0.002 A 
ATOM      4  C4  I4B d   1       5.476  -1.652  -2.003  0.00  0.00    -0.004 A 
ATOM      5  C5  I4B d   1       4.883  -0.921  -3.029  0.00  0.00     0.002 A 
ATOM      6  C6  I4B d   1       4.850  -1.439  -4.332  0.00  0.00     0.003 A 
ENDROOT
BRANCH   1   7
ATOM      7  C1' I4B d   1       5.475  -3.217  -5.989  0.00  0.00     0.060 C 
BRANCH   7   8
ATOM      8  C2' I4B d   1       4.896  -4.617  -5.961  0.00  0.00    -0.013 C 
ATOM      9  C4' I4B d   1       5.983  -5.658  -5.996  0.00  0.00     0.013 C 
ATOM     10  C3' I4B d   1       4.060  -4.747  -4.722  0.00  0.00     0.013 C 
ENDBRANCH   7   8
ENDBRANCH   1   7
TORSDOF 2
ENDMDL
