MODEL 1
REMARK minimizedAffinity 15.5565214
REMARK minimizedRMSD -1
REMARK  2 active torsions:
REMARK  status: ('A' for Active; 'I' for Inactive)
REMARK    1  A    between atoms: C2'_3  and  C1'_4 
REMARK    2  A    between atoms: C1'_4  and  C1_5 
ROOT
ATOM      1  C1  I4B d   1      -1.032   2.907   1.077  0.00  0.00    -0.075 A 
ATOM      2  C2  I4B d   1      -1.446   1.601   0.995  0.00  0.00     0.003 A 
ATOM      3  C3  I4B d   1      -2.641   1.274   0.309  0.00  0.00     0.002 A 
ATOM      4  C4  I4B d   1      -3.412   2.283  -0.232  0.00  0.00    -0.004 A 
ATOM      5  C5  I4B d   1      -2.979   3.604  -0.167  0.00  0.00     0.002 A 
ATOM      6  C6  I4B d   1      -1.775   3.918   0.480  0.00  0.00     0.003 A 
ENDROOT
BRANCH   1   7
ATOM      7  C1' I4B d   1       0.218   3.221   1.836  0.00  0.00     0.060 C 
BRANCH   7   8
ATOM      8  C2' I4B d   1       0.904   4.383   1.147  0.00  0.00    -0.013 C 
ATOM      9  C4' I4B d   1       0.909   5.609   2.021  0.00  0.00     0.013 C 
ATOM     10  C3' I4B d   1       2.301   3.958   0.802  0.00  0.00     0.013 C 
ENDBRANCH   7   8
ENDBRANCH   1   7
TORSDOF 2
ENDMDL
