MODEL 1
REMARK minimizedAffinity 6.73423576
REMARK minimizedRMSD -1
REMARK  2 active torsions:
REMARK  status: ('A' for Active; 'I' for Inactive)
REMARK    1  A    between atoms: C2'_3  and  C1'_4 
REMARK    2  A    between atoms: C1'_4  and  C1_5 
ROOT
ATOM      1  C1  I4B d   1       4.909  -2.934  -5.693  0.00  0.00    -0.075 A 
ATOM      2  C2  I4B d   1       5.999  -3.748  -5.875  0.00  0.00     0.003 A 
ATOM      3  C3  I4B d   1       5.830  -5.148  -6.000  0.00  0.00     0.002 A 
ATOM      4  C4  I4B d   1       4.568  -5.693  -5.886  0.00  0.00    -0.004 A 
ATOM      5  C5  I4B d   1       3.461  -4.864  -5.723  0.00  0.00     0.002 A 
ATOM      6  C6  I4B d   1       3.631  -3.475  -5.638  0.00  0.00     0.003 A 
ENDROOT
BRANCH   1   7
ATOM      7  C1' I4B d   1       5.127  -1.463  -5.532  0.00  0.00     0.060 C 
BRANCH   7   8
ATOM      8  C2' I4B d   1       4.639  -1.066  -4.153  0.00  0.00    -0.013 C 
ATOM      9  C4' I4B d   1       5.584  -1.545  -3.082  0.00  0.00     0.013 C 
ATOM     10  C3' I4B d   1       4.499   0.427  -4.124  0.00  0.00     0.013 C 
ENDBRANCH   7   8
ENDBRANCH   1   7
TORSDOF 2
ENDMDL
