MODEL 1
REMARK minimizedAffinity 5.93078613
REMARK minimizedRMSD -1
REMARK  2 active torsions:
REMARK  status: ('A' for Active; 'I' for Inactive)
REMARK    1  A    between atoms: C2'_3  and  C1'_4 
REMARK    2  A    between atoms: C1'_4  and  C1_5 
ROOT
ATOM      1  C1  I4B d   1      -2.735  -3.793  -4.113  0.00  0.00    -0.075 A 
ATOM      2  C2  I4B d   1      -4.101  -3.855  -4.002  0.00  0.00     0.003 A 
ATOM      3  C3  I4B d   1      -4.806  -4.981  -4.493  0.00  0.00     0.002 A 
ATOM      4  C4  I4B d   1      -4.113  -5.992  -5.129  0.00  0.00    -0.004 A 
ATOM      5  C5  I4B d   1      -2.726  -5.937  -5.220  0.00  0.00     0.002 A 
ATOM      6  C6  I4B d   1      -2.030  -4.837  -4.698  0.00  0.00     0.003 A 
ENDROOT
BRANCH   1   7
ATOM      7  C1' I4B d   1      -2.026  -2.574  -3.613  0.00  0.00     0.060 C 
BRANCH   7   8
ATOM      8  C2' I4B d   1      -0.583  -2.654  -4.068  0.00  0.00    -0.013 C 
ATOM      9  C4' I4B d   1      -0.351  -1.813  -5.296  0.00  0.00     0.013 C 
ATOM     10  C3' I4B d   1       0.287  -2.204  -2.932  0.00  0.00     0.013 C 
ENDBRANCH   7   8
ENDBRANCH   1   7
TORSDOF 2
ENDMDL
