MODEL 1
REMARK minimizedAffinity 1.54270244
REMARK minimizedRMSD -1
REMARK  2 active torsions:
REMARK  status: ('A' for Active; 'I' for Inactive)
REMARK    1  A    between atoms: C2'_3  and  C1'_4 
REMARK    2  A    between atoms: C1'_4  and  C1_5 
ROOT
ATOM      1  C1  I4B d   1       0.205  -2.796  -2.821  0.00  0.00    -0.075 A 
ATOM      2  C2  I4B d   1      -0.361  -3.763  -3.614  0.00  0.00     0.003 A 
ATOM      3  C3  I4B d   1       0.446  -4.528  -4.490  0.00  0.00     0.002 A 
ATOM      4  C4  I4B d   1       1.797  -4.260  -4.579  0.00  0.00    -0.004 A 
ATOM      5  C5  I4B d   1       2.372  -3.294  -3.758  0.00  0.00     0.002 A 
ATOM      6  C6  I4B d   1       1.574  -2.566  -2.865  0.00  0.00     0.003 A 
ENDROOT
BRANCH   1   7
ATOM      7  C1' I4B d   1      -0.682  -1.984  -1.931  0.00  0.00     0.060 C 
BRANCH   7   8
ATOM      8  C2' I4B d   1      -1.383  -2.933  -0.980  0.00  0.00    -0.013 C 
ATOM      9  C4' I4B d   1      -0.917  -2.727   0.437  0.00  0.00     0.013 C 
ATOM     10  C3' I4B d   1      -2.860  -2.704  -1.103  0.00  0.00     0.013 C 
ENDBRANCH   7   8
ENDBRANCH   1   7
TORSDOF 2
ENDMDL
