MODEL 1
REMARK minimizedAffinity -1.52923381
REMARK minimizedRMSD -1
REMARK  2 active torsions:
REMARK  status: ('A' for Active; 'I' for Inactive)
REMARK    1  A    between atoms: C2'_3  and  C1'_4 
REMARK    2  A    between atoms: C1'_4  and  C1_5 
ROOT
ATOM      1  C1  I4B d   1      -0.834  -0.747   0.372  0.00  0.00    -0.075 A 
ATOM      2  C2  I4B d   1       0.223  -1.100  -0.430  0.00  0.00     0.003 A 
ATOM      3  C3  I4B d   1       0.962  -0.105  -1.115  0.00  0.00     0.002 A 
ATOM      4  C4  I4B d   1       0.581   1.217  -1.010  0.00  0.00    -0.004 A 
ATOM      5  C5  I4B d   1      -0.476   1.575  -0.178  0.00  0.00     0.002 A 
ATOM      6  C6  I4B d   1      -1.181   0.589   0.527  0.00  0.00     0.003 A 
ENDROOT
BRANCH   1   7
ATOM      7  C1' I4B d   1      -1.613  -1.826   1.055  0.00  0.00     0.060 C 
BRANCH   7   8
ATOM      8  C2' I4B d   1      -1.933  -2.892   0.027  0.00  0.00    -0.013 C 
ATOM      9  C4' I4B d   1      -0.891  -3.979   0.025  0.00  0.00     0.013 C 
ATOM     10  C3' I4B d   1      -3.291  -3.445   0.341  0.00  0.00     0.013 C 
ENDBRANCH   7   8
ENDBRANCH   1   7
TORSDOF 2
ENDMDL
