MODEL 1
REMARK minimizedAffinity 8.47205067
REMARK minimizedRMSD -1
REMARK  2 active torsions:
REMARK  status: ('A' for Active; 'I' for Inactive)
REMARK    1  A    between atoms: C2'_3  and  C1'_4 
REMARK    2  A    between atoms: C1'_4  and  C1_5 
ROOT
ATOM      1  C1  I4B d   1      -2.612   5.258   2.655  0.00  0.00    -0.075 A 
ATOM      2  C2  I4B d   1      -2.698   4.496   3.793  0.00  0.00     0.003 A 
ATOM      3  C3  I4B d   1      -3.900   4.463   4.541  0.00  0.00     0.002 A 
ATOM      4  C4  I4B d   1      -4.968   5.242   4.144  0.00  0.00    -0.004 A 
ATOM      5  C5  I4B d   1      -4.887   5.997   2.977  0.00  0.00     0.002 A 
ATOM      6  C6  I4B d   1      -3.706   5.995   2.221  0.00  0.00     0.003 A 
ENDROOT
BRANCH   1   7
ATOM      7  C1' I4B d   1      -1.317   5.295   1.908  0.00  0.00     0.060 C 
BRANCH   7   8
ATOM      8  C2' I4B d   1      -0.413   4.227   2.489  0.00  0.00    -0.013 C 
ATOM      9  C4' I4B d   1       0.272   3.442   1.402  0.00  0.00     0.013 C 
ATOM     10  C3' I4B d   1       0.587   4.902   3.381  0.00  0.00     0.013 C 
ENDBRANCH   7   8
ENDBRANCH   1   7
TORSDOF 2
ENDMDL
