MODEL 1
REMARK minimizedAffinity 10.735034
REMARK minimizedRMSD -1
REMARK  0 active torsions:
REMARK  status: ('A' for Active; 'I' for Inactive)
ROOT
ATOM      1  C   UNL d   1      -2.318  -3.735   1.088  0.00  0.00     0.023 A 
ATOM      2  C1  UNL d   1      -2.401  -2.672   1.988  0.00  0.00     0.003 A 
ATOM      3  C2  UNL d   1      -1.254  -2.215   2.639  0.00  0.00     0.048 A 
ATOM      4  C3  UNL d   1      -0.026  -2.825   2.386  0.00  0.00     0.023 A 
ATOM      5  C4  UNL d   1       0.063  -3.888   1.485  0.00  0.00     0.048 A 
ATOM      6  C5  UNL d   1      -1.087  -4.342   0.837  0.00  0.00     0.003 A 
ATOM      7  I   UNL d   1       1.684  -2.147   3.354  0.00  0.00    -0.146 I 
ENDROOT
TORSDOF 0
ENDMDL
