MODEL 1
REMARK minimizedAffinity 11.2365303
REMARK minimizedRMSD -1
REMARK  0 active torsions:
REMARK  status: ('A' for Active; 'I' for Inactive)
ROOT
ATOM      1  C   UNL d   1      -5.237   1.375   0.682  0.00  0.00     0.023 A 
ATOM      2  C1  UNL d   1      -4.912   0.074   0.300  0.00  0.00     0.003 A 
ATOM      3  C2  UNL d   1      -5.131  -0.344  -1.015  0.00  0.00     0.048 A 
ATOM      4  C3  UNL d   1      -5.674   0.545  -1.942  0.00  0.00     0.023 A 
ATOM      5  C4  UNL d   1      -5.999   1.849  -1.563  0.00  0.00     0.048 A 
ATOM      6  C5  UNL d   1      -5.780   2.262  -0.248  0.00  0.00     0.003 A 
ATOM      7  I   UNL d   1      -5.999  -0.074  -3.899  0.00  0.00    -0.146 I 
ENDROOT
TORSDOF 0
ENDMDL
