MODEL 1
REMARK minimizedAffinity 6.83062363
REMARK minimizedRMSD -1
REMARK  0 active torsions:
REMARK  status: ('A' for Active; 'I' for Inactive)
ROOT
ATOM      1  C   UNL d   1      -0.556  -0.026   4.747  0.00  0.00     0.023 A 
ATOM      2  C1  UNL d   1       0.332  -1.041   4.389  0.00  0.00     0.003 A 
ATOM      3  C2  UNL d   1       0.136  -1.757   3.207  0.00  0.00     0.048 A 
ATOM      4  C3  UNL d   1      -0.949  -1.453   2.386  0.00  0.00     0.023 A 
ATOM      5  C4  UNL d   1      -1.840  -0.437   2.739  0.00  0.00     0.048 A 
ATOM      6  C5  UNL d   1      -1.640   0.276   3.923  0.00  0.00     0.003 A 
ATOM      7  I   UNL d   1      -1.243  -2.517   0.625  0.00  0.00    -0.146 I 
ENDROOT
TORSDOF 0
ENDMDL
