MODEL 1
REMARK minimizedAffinity 8.8811779
REMARK minimizedRMSD -1
REMARK  0 active torsions:
REMARK  status: ('A' for Active; 'I' for Inactive)
ROOT
ATOM      1  C   UNL d   1       5.730   4.940   0.758  0.00  0.00     0.023 A 
ATOM      2  C1  UNL d   1       5.998   3.663   0.265  0.00  0.00     0.003 A 
ATOM      3  C2  UNL d   1       5.938   3.416  -1.108  0.00  0.00     0.048 A 
ATOM      4  C3  UNL d   1       5.609   4.451  -1.983  0.00  0.00     0.023 A 
ATOM      5  C4  UNL d   1       5.341   5.730  -1.495  0.00  0.00     0.048 A 
ATOM      6  C5  UNL d   1       5.401   5.973  -0.121  0.00  0.00     0.003 A 
ATOM      7  I   UNL d   1       5.519   4.085  -4.027  0.00  0.00    -0.146 I 
ENDROOT
TORSDOF 0
ENDMDL
