MODEL 1
REMARK minimizedAffinity 15.1586552
REMARK minimizedRMSD -1
REMARK  0 active torsions:
REMARK  status: ('A' for Active; 'I' for Inactive)
ROOT
ATOM      1  C   UNL d   1       4.154   4.296  -4.753  0.00  0.00     0.023 A 
ATOM      2  C1  UNL d   1       5.447   4.755  -4.500  0.00  0.00     0.003 A 
ATOM      3  C2  UNL d   1       5.978   4.672  -3.211  0.00  0.00     0.048 A 
ATOM      4  C3  UNL d   1       5.211   4.129  -2.181  0.00  0.00     0.023 A 
ATOM      5  C4  UNL d   1       3.918   3.667  -2.430  0.00  0.00     0.048 A 
ATOM      6  C5  UNL d   1       3.391   3.753  -3.720  0.00  0.00     0.003 A 
ATOM      7  I   UNL d   1       6.000   4.005  -0.262  0.00  0.00    -0.146 I 
ENDROOT
TORSDOF 0
ENDMDL
