MODEL 1
REMARK minimizedAffinity 11.4403973
REMARK minimizedRMSD -1
REMARK  0 active torsions:
REMARK  status: ('A' for Active; 'I' for Inactive)
ROOT
ATOM      1  C   UNL d   1       4.945   1.773   1.771  0.00  0.00     0.023 A 
ATOM      2  C1  UNL d   1       4.130   1.713   0.641  0.00  0.00     0.003 A 
ATOM      3  C2  UNL d   1       4.242   2.686  -0.355  0.00  0.00     0.048 A 
ATOM      4  C3  UNL d   1       5.173   3.715  -0.214  0.00  0.00     0.023 A 
ATOM      5  C4  UNL d   1       5.991   3.778   0.915  0.00  0.00     0.048 A 
ATOM      6  C5  UNL d   1       5.874   2.804   1.908  0.00  0.00     0.003 A 
ATOM      7  I   UNL d   1       5.342   5.163  -1.695  0.00  0.00    -0.146 I 
ENDROOT
TORSDOF 0
ENDMDL
