MODEL 1
REMARK minimizedAffinity 14.6507854
REMARK minimizedRMSD -1
REMARK  0 active torsions:
REMARK  status: ('A' for Active; 'I' for Inactive)
ROOT
ATOM      1  C   UNL d   1      -2.135   0.736   4.373  0.00  0.00     0.023 A 
ATOM      2  C1  UNL d   1      -1.254   0.419   5.408  0.00  0.00     0.003 A 
ATOM      3  C2  UNL d   1      -0.119  -0.351   5.148  0.00  0.00     0.048 A 
ATOM      4  C3  UNL d   1       0.130  -0.801   3.852  0.00  0.00     0.023 A 
ATOM      5  C4  UNL d   1      -0.748  -0.486   2.814  0.00  0.00     0.048 A 
ATOM      6  C5  UNL d   1      -1.882   0.284   3.078  0.00  0.00     0.003 A 
ATOM      7  I   UNL d   1       1.819  -1.948   3.463  0.00  0.00    -0.146 I 
ENDROOT
TORSDOF 0
ENDMDL
