MODEL 1
REMARK minimizedAffinity 21.9719238
REMARK minimizedRMSD -1
REMARK  0 active torsions:
REMARK  status: ('A' for Active; 'I' for Inactive)
ROOT
ATOM      1  C   UNL d   1      -2.256   5.999  -5.305  0.00  0.00     0.023 A 
ATOM      2  C1  UNL d   1      -2.377   5.685  -3.952  0.00  0.00     0.003 A 
ATOM      3  C2  UNL d   1      -1.331   5.041  -3.287  0.00  0.00     0.048 A 
ATOM      4  C3  UNL d   1      -0.167   4.716  -3.982  0.00  0.00     0.023 A 
ATOM      5  C4  UNL d   1      -0.041   5.030  -5.336  0.00  0.00     0.048 A 
ATOM      6  C5  UNL d   1      -1.090   5.672  -5.997  0.00  0.00     0.003 A 
ATOM      7  I   UNL d   1       1.391   3.758  -2.995  0.00  0.00    -0.146 I 
ENDROOT
TORSDOF 0
ENDMDL
