MODEL 1
REMARK minimizedAffinity 14.8373976
REMARK minimizedRMSD -1
REMARK  0 active torsions:
REMARK  status: ('A' for Active; 'I' for Inactive)
ROOT
ATOM      1  C   UNL d   1       3.159   4.504  -2.124  0.00  0.00     0.023 A 
ATOM      2  C1  UNL d   1       4.458   4.599  -2.622  0.00  0.00     0.003 A 
ATOM      3  C2  UNL d   1       4.837   3.845  -3.735  0.00  0.00     0.048 A 
ATOM      4  C3  UNL d   1       3.912   2.998  -4.344  0.00  0.00     0.023 A 
ATOM      5  C4  UNL d   1       2.610   2.900  -3.849  0.00  0.00     0.048 A 
ATOM      6  C5  UNL d   1       2.236   3.656  -2.736  0.00  0.00     0.003 A 
ATOM      7  I   UNL d   1       4.473   1.875  -6.000  0.00  0.00    -0.146 I 
ENDROOT
TORSDOF 0
ENDMDL
