MODEL 1
REMARK minimizedAffinity 16.3127346
REMARK minimizedRMSD -1
REMARK  0 active torsions:
REMARK  status: ('A' for Active; 'I' for Inactive)
ROOT
ATOM      1  C   UNL d   1       4.311   4.122  -2.623  0.00  0.00     0.023 A 
ATOM      2  C1  UNL d   1       4.240   5.334  -1.936  0.00  0.00     0.003 A 
ATOM      3  C2  UNL d   1       2.998   5.873  -1.594  0.00  0.00     0.048 A 
ATOM      4  C3  UNL d   1       1.831   5.194  -1.941  0.00  0.00     0.023 A 
ATOM      5  C4  UNL d   1       1.896   3.981  -2.628  0.00  0.00     0.048 A 
ATOM      6  C5  UNL d   1       3.141   3.446  -2.968  0.00  0.00     0.003 A 
ATOM      7  I   UNL d   1      -0.019   5.994  -1.433  0.00  0.00    -0.146 I 
ENDROOT
TORSDOF 0
ENDMDL
