MODEL 1
REMARK minimizedAffinity 14.1942329
REMARK minimizedRMSD -1
REMARK  0 active torsions:
REMARK  status: ('A' for Active; 'I' for Inactive)
ROOT
ATOM      1  C   UNL d   1      -5.980   5.214   4.422  0.00  0.00     0.023 A 
ATOM      2  C1  UNL d   1      -5.960   4.704   5.720  0.00  0.00     0.003 A 
ATOM      3  C2  UNL d   1      -5.960   3.324   5.930  0.00  0.00     0.048 A 
ATOM      4  C3  UNL d   1      -5.978   2.459   4.837  0.00  0.00     0.023 A 
ATOM      5  C4  UNL d   1      -5.997   2.964   3.536  0.00  0.00     0.048 A 
ATOM      6  C5  UNL d   1      -5.999   4.345   3.331  0.00  0.00     0.003 A 
ATOM      7  I   UNL d   1      -5.977   0.403   5.146  0.00  0.00    -0.146 I 
ENDROOT
TORSDOF 0
ENDMDL
