MODEL 1
REMARK minimizedAffinity 5.87373734
REMARK minimizedRMSD -1
REMARK  0 active torsions:
REMARK  status: ('A' for Active; 'I' for Inactive)
ROOT
ATOM      1  C   UNL d   1       2.402   0.800  -0.693  0.00  0.00     0.023 A 
ATOM      2  C1  UNL d   1       3.714   0.978  -1.134  0.00  0.00     0.003 A 
ATOM      3  C2  UNL d   1       4.583   1.811  -0.427  0.00  0.00     0.048 A 
ATOM      4  C3  UNL d   1       4.135   2.462   0.722  0.00  0.00     0.023 A 
ATOM      5  C4  UNL d   1       2.824   2.286   1.168  0.00  0.00     0.048 A 
ATOM      6  C5  UNL d   1       1.958   1.453   0.457  0.00  0.00     0.003 A 
ATOM      7  I   UNL d   1       5.427   3.702   1.777  0.00  0.00    -0.146 I 
ENDROOT
TORSDOF 0
ENDMDL
