MODEL 1
REMARK minimizedAffinity 11.6656313
REMARK minimizedRMSD -1
REMARK  0 active torsions:
REMARK  status: ('A' for Active; 'I' for Inactive)
ROOT
ATOM      1  C   UNL d   1      -2.234  -0.881   0.983  0.00  0.00     0.023 A 
ATOM      2  C1  UNL d   1      -1.226  -0.718   1.933  0.00  0.00     0.003 A 
ATOM      3  C2  UNL d   1      -1.516  -0.136   3.169  0.00  0.00     0.048 A 
ATOM      4  C3  UNL d   1      -2.817   0.281   3.448  0.00  0.00     0.023 A 
ATOM      5  C4  UNL d   1      -3.830   0.119   2.500  0.00  0.00     0.048 A 
ATOM      6  C5  UNL d   1      -3.534  -0.463   1.266  0.00  0.00     0.003 A 
ATOM      7  I   UNL d   1      -3.252   1.148   5.286  0.00  0.00    -0.146 I 
ENDROOT
TORSDOF 0
ENDMDL
