MODEL 1
REMARK minimizedAffinity 7.89315748
REMARK minimizedRMSD -1
REMARK  0 active torsions:
REMARK  status: ('A' for Active; 'I' for Inactive)
ROOT
ATOM      1  C   UNL d   1       4.296   2.682  -4.530  0.00  0.00     0.023 A 
ATOM      2  C1  UNL d   1       3.463   2.709  -3.411  0.00  0.00     0.003 A 
ATOM      3  C2  UNL d   1       3.855   3.402  -2.264  0.00  0.00     0.048 A 
ATOM      4  C3  UNL d   1       5.081   4.065  -2.242  0.00  0.00     0.023 A 
ATOM      5  C4  UNL d   1       5.918   4.041  -3.359  0.00  0.00     0.048 A 
ATOM      6  C5  UNL d   1       5.522   3.347  -4.503  0.00  0.00     0.003 A 
ATOM      7  I   UNL d   1       5.666   5.097  -0.535  0.00  0.00    -0.146 I 
ENDROOT
TORSDOF 0
ENDMDL
