MODEL 1
REMARK minimizedAffinity 8.44091892
REMARK minimizedRMSD -1
REMARK  0 active torsions:
REMARK  status: ('A' for Active; 'I' for Inactive)
ROOT
ATOM      1  C   UNL d   1       2.199   0.909  -0.205  0.00  0.00     0.023 A 
ATOM      2  C1  UNL d   1       3.420   1.089  -0.855  0.00  0.00     0.003 A 
ATOM      3  C2  UNL d   1       4.381   1.945  -0.313  0.00  0.00     0.048 A 
ATOM      4  C3  UNL d   1       4.115   2.617   0.880  0.00  0.00     0.023 A 
ATOM      5  C4  UNL d   1       2.895   2.439   1.534  0.00  0.00     0.048 A 
ATOM      6  C5  UNL d   1       1.937   1.583   0.988  0.00  0.00     0.003 A 
ATOM      7  I   UNL d   1       5.544   3.892   1.688  0.00  0.00    -0.146 I 
ENDROOT
TORSDOF 0
ENDMDL
