MODEL 1
REMARK minimizedAffinity 5.58540964
REMARK minimizedRMSD -1
REMARK  0 active torsions:
REMARK  status: ('A' for Active; 'I' for Inactive)
ROOT
ATOM      1  C   UNL d   1       1.538   3.178  -0.758  0.00  0.00     0.023 A 
ATOM      2  C1  UNL d   1       1.448   4.306  -1.574  0.00  0.00     0.003 A 
ATOM      3  C2  UNL d   1       1.997   4.285  -2.858  0.00  0.00     0.048 A 
ATOM      4  C3  UNL d   1       2.634   3.134  -3.320  0.00  0.00     0.023 A 
ATOM      5  C4  UNL d   1       2.725   2.003  -2.507  0.00  0.00     0.048 A 
ATOM      6  C5  UNL d   1       2.175   2.028  -1.224  0.00  0.00     0.003 A 
ATOM      7  I   UNL d   1       3.452   3.101  -5.230  0.00  0.00    -0.146 I 
ENDROOT
TORSDOF 0
ENDMDL
