MODEL 1
REMARK minimizedAffinity 14.0844383
REMARK minimizedRMSD -1
REMARK  0 active torsions:
REMARK  status: ('A' for Active; 'I' for Inactive)
ROOT
ATOM      1  C   UNL d   1      -3.433  -4.893   1.865  0.00  0.00     0.023 A 
ATOM      2  C1  UNL d   1      -2.475  -3.884   1.961  0.00  0.00     0.003 A 
ATOM      3  C2  UNL d   1      -2.631  -2.701   1.236  0.00  0.00     0.048 A 
ATOM      4  C3  UNL d   1      -3.747  -2.533   0.417  0.00  0.00     0.023 A 
ATOM      5  C4  UNL d   1      -4.709  -3.540   0.319  0.00  0.00     0.048 A 
ATOM      6  C5  UNL d   1      -4.548  -4.722   1.045  0.00  0.00     0.003 A 
ATOM      7  I   UNL d   1      -3.981  -0.773  -0.663  0.00  0.00    -0.146 I 
ENDROOT
TORSDOF 0
ENDMDL
