MODEL 1
REMARK minimizedAffinity 13.8795118
REMARK minimizedRMSD -1
REMARK  0 active torsions:
REMARK  status: ('A' for Active; 'I' for Inactive)
ROOT
ATOM      1  C   UNL d   1       4.921  -6.000   0.613  0.00  0.00     0.023 A 
ATOM      2  C1  UNL d   1       3.723  -5.585   0.032  0.00  0.00     0.003 A 
ATOM      3  C2  UNL d   1       3.601  -4.289  -0.471  0.00  0.00     0.048 A 
ATOM      4  C3  UNL d   1       4.682  -3.411  -0.391  0.00  0.00     0.023 A 
ATOM      5  C4  UNL d   1       5.883  -3.822   0.189  0.00  0.00     0.048 A 
ATOM      6  C5  UNL d   1       6.000  -5.119   0.692  0.00  0.00     0.003 A 
ATOM      7  I   UNL d   1       4.503  -1.481  -1.140  0.00  0.00    -0.146 I 
ENDROOT
TORSDOF 0
ENDMDL
