MODEL 1
REMARK minimizedAffinity 6.78727007
REMARK minimizedRMSD -1
REMARK  0 active torsions:
REMARK  status: ('A' for Active; 'I' for Inactive)
ROOT
ATOM      1  C4' PXY d   1       3.534   2.639   2.988  0.00  0.00     0.077 C 
ATOM      2  C1' PXY d   1       1.235  -2.378   1.269  0.00  0.00     0.077 C 
ATOM      3  C1  PXY d   1       1.844  -1.061   1.709  0.00  0.00    -0.082 A 
ATOM      4  C2  PXY d   1       1.991  -0.807   2.999  0.00  0.00     0.003 A 
ATOM      5  C3  PXY d   1       2.511   0.392   3.414  0.00  0.00     0.003 A 
ATOM      6  C4  PXY d   1       2.933   1.319   2.499  0.00  0.00    -0.082 A 
ATOM      7  C5  PXY d   1       2.796   1.062   1.181  0.00  0.00     0.003 A 
ATOM      8  C6  PXY d   1       2.228  -0.144   0.780  0.00  0.00     0.003 A 
ENDROOT
TORSDOF 0
ENDMDL
