MODEL 1
REMARK minimizedAffinity 8.76386833
REMARK minimizedRMSD -1
REMARK  0 active torsions:
REMARK  status: ('A' for Active; 'I' for Inactive)
ROOT
ATOM      1  C4' PXY d   1      -1.000  -5.624  -0.748  0.00  0.00     0.077 C 
ATOM      2  C1' PXY d   1       4.159  -5.990  -3.330  0.00  0.00     0.077 C 
ATOM      3  C1  PXY d   1       2.811  -5.901  -2.642  0.00  0.00    -0.082 A 
ATOM      4  C2  PXY d   1       1.718  -5.717  -3.366  0.00  0.00     0.003 A 
ATOM      5  C3  PXY d   1       0.495  -5.603  -2.759  0.00  0.00     0.003 A 
ATOM      6  C4  PXY d   1       0.381  -5.730  -1.400  0.00  0.00    -0.082 A 
ATOM      7  C5  PXY d   1       1.490  -5.927  -0.655  0.00  0.00     0.003 A 
ATOM      8  C6  PXY d   1       2.727  -6.000  -1.288  0.00  0.00     0.003 A 
ENDROOT
TORSDOF 0
ENDMDL
