MODEL 1
REMARK minimizedAffinity 17.7878227
REMARK minimizedRMSD -1
REMARK  0 active torsions:
REMARK  status: ('A' for Active; 'I' for Inactive)
ROOT
ATOM      1  C4' PXY d   1      -0.000  -2.940   2.043  0.00  0.00     0.077 C 
ATOM      2  C1' PXY d   1       4.261  -3.104   5.946  0.00  0.00     0.077 C 
ATOM      3  C1  PXY d   1       3.145  -3.074   4.920  0.00  0.00    -0.082 A 
ATOM      4  C2  PXY d   1       2.864  -1.943   4.293  0.00  0.00     0.003 A 
ATOM      5  C3  PXY d   1       1.837  -1.891   3.386  0.00  0.00     0.003 A 
ATOM      6  C4  PXY d   1       1.124  -3.019   3.079  0.00  0.00    -0.082 A 
ATOM      7  C5  PXY d   1       1.412  -4.179   3.708  0.00  0.00     0.003 A 
ATOM      8  C6  PXY d   1       2.432  -4.202   4.655  0.00  0.00     0.003 A 
ENDROOT
TORSDOF 0
ENDMDL
