MODEL 1
REMARK minimizedAffinity 16.4507313
REMARK minimizedRMSD -1
REMARK  0 active torsions:
REMARK  status: ('A' for Active; 'I' for Inactive)
ROOT
ATOM      1  C4' PXY d   1       5.737   0.756  -6.000  0.00  0.00     0.077 C 
ATOM      2  C1' PXY d   1       1.468  -2.247  -3.516  0.00  0.00     0.077 C 
ATOM      3  C1  PXY d   1       2.594  -1.471  -4.168  0.00  0.00    -0.082 A 
ATOM      4  C2  PXY d   1       2.690  -0.166  -3.970  0.00  0.00     0.003 A 
ATOM      5  C3  PXY d   1       3.684   0.557  -4.578  0.00  0.00     0.003 A 
ATOM      6  C4  PXY d   1       4.621  -0.070  -5.354  0.00  0.00    -0.082 A 
ATOM      7  C5  PXY d   1       4.537  -1.403  -5.553  0.00  0.00     0.003 A 
ATOM      8  C6  PXY d   1       3.496  -2.112  -4.960  0.00  0.00     0.003 A 
ENDROOT
TORSDOF 0
ENDMDL
