MODEL 1
REMARK minimizedAffinity 12.7828808
REMARK minimizedRMSD -1
REMARK  0 active torsions:
REMARK  status: ('A' for Active; 'I' for Inactive)
ROOT
ATOM      1  C4' PXY d   1       2.250  -4.997   2.624  0.00  0.00     0.077 C 
ATOM      2  C1' PXY d   1       0.756   0.473   1.500  0.00  0.00     0.077 C 
ATOM      3  C1  PXY d   1       1.154  -0.958   1.805  0.00  0.00    -0.082 A 
ATOM      4  C2  PXY d   1       1.156  -1.857   0.835  0.00  0.00     0.003 A 
ATOM      5  C3  PXY d   1       1.483  -3.162   1.100  0.00  0.00     0.003 A 
ATOM      6  C4  PXY d   1       1.864  -3.539   2.360  0.00  0.00    -0.082 A 
ATOM      7  C5  PXY d   1       1.875  -2.625   3.353  0.00  0.00     0.003 A 
ATOM      8  C6  PXY d   1       1.500  -1.314   3.072  0.00  0.00     0.003 A 
ENDROOT
TORSDOF 0
ENDMDL
