MODEL 1
REMARK minimizedAffinity 13.3210049
REMARK minimizedRMSD -1
REMARK  0 active torsions:
REMARK  status: ('A' for Active; 'I' for Inactive)
ROOT
ATOM      1  C4' PXY d   1      -0.678   0.227   0.811  0.00  0.00     0.077 C 
ATOM      2  C1' PXY d   1       3.652  -2.210   3.765  0.00  0.00     0.077 C 
ATOM      3  C1  PXY d   1       2.523  -1.559   2.991  0.00  0.00    -0.082 A 
ATOM      4  C2  PXY d   1       1.315  -2.099   3.019  0.00  0.00     0.003 A 
ATOM      5  C3  PXY d   1       0.290  -1.542   2.299  0.00  0.00     0.003 A 
ATOM      6  C4  PXY d   1       0.490  -0.390   1.585  0.00  0.00    -0.082 A 
ATOM      7  C5  PXY d   1       1.717   0.172   1.561  0.00  0.00     0.003 A 
ATOM      8  C6  PXY d   1       2.754  -0.432   2.265  0.00  0.00     0.003 A 
ENDROOT
TORSDOF 0
ENDMDL
