MODEL 1
REMARK minimizedAffinity 8.08108139
REMARK minimizedRMSD -1
REMARK  0 active torsions:
REMARK  status: ('A' for Active; 'I' for Inactive)
ROOT
ATOM      1  C4' PXY d   1      -5.999  -5.954  -5.596  0.00  0.00     0.077 C 
ATOM      2  C1' PXY d   1      -3.715  -0.816  -4.255  0.00  0.00     0.077 C 
ATOM      3  C1  PXY d   1      -4.317  -2.165  -4.594  0.00  0.00    -0.082 A 
ATOM      4  C2  PXY d   1      -3.890  -2.823  -5.660  0.00  0.00     0.003 A 
ATOM      5  C3  PXY d   1      -4.447  -4.029  -5.999  0.00  0.00     0.003 A 
ATOM      6  C4  PXY d   1      -5.413  -4.593  -5.210  0.00  0.00    -0.082 A 
ATOM      7  C5  PXY d   1      -5.846  -3.933  -4.115  0.00  0.00     0.003 A 
ATOM      8  C6  PXY d   1      -5.298  -2.690  -3.811  0.00  0.00     0.003 A 
ENDROOT
TORSDOF 0
ENDMDL
