MODEL 1
REMARK minimizedAffinity -3.07619882
REMARK minimizedRMSD -1
REMARK  0 active torsions:
REMARK  status: ('A' for Active; 'I' for Inactive)
ROOT
ATOM      1  N1  IND d   1      -0.493   1.033  -0.642  0.00  0.00    -0.196 N 
ATOM      2  C2  IND d   1      -0.293  -0.265  -0.262  0.00  0.00     0.054 A 
ATOM      3  C3  IND d   1       0.640  -0.331   0.714  0.00  0.00    -0.031 A 
ATOM      4  C4  IND d   1       1.894   1.573   1.910  0.00  0.00     0.051 A 
ATOM      5  C5  IND d   1       2.073   2.927   1.885  0.00  0.00    -0.031 A 
ATOM      6  C6  IND d   1       1.390   3.736   0.999  0.00  0.00     0.015 A 
ATOM      7  C7  IND d   1       0.491   3.220   0.111  0.00  0.00    -0.016 A 
ATOM      8  C8  IND d   1       0.311   1.844   0.129  0.00  0.00    -0.047 A 
ATOM      9  C9  IND d   1       1.033   1.013   0.996  0.00  0.00    -0.096 A 
ATOM     10  HN1 IND d   1      -1.030   1.298  -1.258  0.00  0.00     0.298 HD
ENDROOT
TORSDOF 0
ENDMDL
