MODEL 1
REMARK minimizedAffinity -4.03070164
REMARK minimizedRMSD -1
REMARK  0 active torsions:
REMARK  status: ('A' for Active; 'I' for Inactive)
ROOT
ATOM      1  N1  IND d   1      -0.116  -1.195  -2.219  0.00  0.00    -0.196 N 
ATOM      2  C2  IND d   1       0.286   0.112  -2.246  0.00  0.00     0.054 A 
ATOM      3  C3  IND d   1       0.032   0.707  -1.059  0.00  0.00    -0.031 A 
ATOM      4  C4  IND d   1      -0.941  -0.301   1.101  0.00  0.00     0.051 A 
ATOM      5  C5  IND d   1      -1.491  -1.447   1.602  0.00  0.00    -0.031 A 
ATOM      6  C6  IND d   1      -1.610  -2.592   0.841  0.00  0.00     0.015 A 
ATOM      7  C7  IND d   1      -1.172  -2.636  -0.452  0.00  0.00    -0.016 A 
ATOM      8  C8  IND d   1      -0.620  -1.472  -0.967  0.00  0.00    -0.047 A 
ATOM      9  C9  IND d   1      -0.535  -0.295  -0.213  0.00  0.00    -0.096 A 
ATOM     10  HN1 IND d   1      -0.062  -1.750  -2.873  0.00  0.00     0.298 HD
ENDROOT
TORSDOF 0
ENDMDL
