MODEL 1
REMARK minimizedAffinity -1.41274214
REMARK minimizedRMSD -1
REMARK  0 active torsions:
REMARK  status: ('A' for Active; 'I' for Inactive)
ROOT
ATOM      1  N1  IND d   1       0.651   0.194  -0.192  0.00  0.00    -0.196 N 
ATOM      2  C2  IND d   1      -0.291   0.855   0.546  0.00  0.00     0.054 A 
ATOM      3  C3  IND d   1      -1.177  -0.022   1.071  0.00  0.00    -0.031 A 
ATOM      4  C4  IND d   1      -1.212  -2.592   0.931  0.00  0.00     0.051 A 
ATOM      5  C5  IND d   1      -0.578  -3.648   0.338  0.00  0.00    -0.031 A 
ATOM      6  C6  IND d   1       0.522  -3.473  -0.476  0.00  0.00     0.015 A 
ATOM      7  C7  IND d   1       1.038  -2.232  -0.720  0.00  0.00    -0.016 A 
ATOM      8  C8  IND d   1       0.393  -1.157  -0.125  0.00  0.00    -0.047 A 
ATOM      9  C9  IND d   1      -0.750  -1.324   0.668  0.00  0.00    -0.096 A 
ATOM     10  HN1 IND d   1       1.297   0.561  -0.626  0.00  0.00     0.298 HD
ENDROOT
TORSDOF 0
ENDMDL
