MODEL 1
REMARK minimizedAffinity -0.473854601
REMARK minimizedRMSD -1
REMARK  0 active torsions:
REMARK  status: ('A' for Active; 'I' for Inactive)
ROOT
ATOM      1  N1  IND d   1      -0.234  -2.383  -0.595  0.00  0.00    -0.196 N 
ATOM      2  C2  IND d   1      -0.918  -2.992   0.420  0.00  0.00     0.054 A 
ATOM      3  C3  IND d   1      -1.381  -2.070   1.295  0.00  0.00    -0.031 A 
ATOM      4  C4  IND d   1      -1.219   0.497   1.204  0.00  0.00     0.051 A 
ATOM      5  C5  IND d   1      -0.658   1.516   0.487  0.00  0.00    -0.031 A 
ATOM      6  C6  IND d   1       0.086   1.283  -0.652  0.00  0.00     0.015 A 
ATOM      7  C7  IND d   1       0.288   0.017  -1.125  0.00  0.00    -0.016 A 
ATOM      8  C8  IND d   1      -0.275  -1.020  -0.395  0.00  0.00    -0.047 A 
ATOM      9  C9  IND d   1      -0.995  -0.793   0.785  0.00  0.00    -0.096 A 
ATOM     10  HN1 IND d   1       0.156  -2.783  -1.248  0.00  0.00     0.298 HD
ENDROOT
TORSDOF 0
ENDMDL
