MODEL 1
REMARK minimizedAffinity -3.11702442
REMARK minimizedRMSD -1
REMARK  0 active torsions:
REMARK  status: ('A' for Active; 'I' for Inactive)
ROOT
ATOM      1  N1  IND d   1      -0.575  -2.311   0.769  0.00  0.00    -0.196 N 
ATOM      2  C2  IND d   1       0.334  -3.010   0.025  0.00  0.00     0.054 A 
ATOM      3  C3  IND d   1       1.012  -2.176  -0.794  0.00  0.00    -0.031 A 
ATOM      4  C4  IND d   1       0.865   0.386  -1.007  0.00  0.00     0.051 A 
ATOM      5  C5  IND d   1       0.154   1.464  -0.561  0.00  0.00    -0.031 A 
ATOM      6  C6  IND d   1      -0.854   1.338   0.372  0.00  0.00     0.015 A 
ATOM      7  C7  IND d   1      -1.183   0.124   0.905  0.00  0.00    -0.016 A 
ATOM      8  C8  IND d   1      -0.469  -0.975   0.449  0.00  0.00    -0.047 A 
ATOM      9  C9  IND d   1       0.527  -0.858  -0.530  0.00  0.00    -0.096 A 
ATOM     10  HN1 IND d   1      -1.121  -2.648   1.341  0.00  0.00     0.298 HD
ENDROOT
TORSDOF 0
ENDMDL
