MODEL 1
REMARK minimizedAffinity 2.53966045
REMARK minimizedRMSD -1
REMARK  0 active torsions:
REMARK  status: ('A' for Active; 'I' for Inactive)
ROOT
ATOM      1  N1  IND d   1       0.004  -1.630  -2.304  0.00  0.00    -0.196 N 
ATOM      2  C2  IND d   1       0.606  -0.404  -2.350  0.00  0.00     0.054 A 
ATOM      3  C3  IND d   1       0.574   0.182  -1.132  0.00  0.00    -0.031 A 
ATOM      4  C4  IND d   1      -0.324  -0.733   1.100  0.00  0.00     0.051 A 
ATOM      5  C5  IND d   1      -0.999  -1.794   1.635  0.00  0.00    -0.031 A 
ATOM      6  C6  IND d   1      -1.378  -2.878   0.870  0.00  0.00     0.015 A 
ATOM      7  C7  IND d   1      -1.087  -2.947  -0.462  0.00  0.00    -0.016 A 
ATOM      8  C8  IND d   1      -0.409  -1.868  -1.011  0.00  0.00    -0.047 A 
ATOM      9  C9  IND d   1      -0.058  -0.746  -0.249  0.00  0.00    -0.096 A 
ATOM     10  HN1 IND d   1      -0.100  -2.164  -2.971  0.00  0.00     0.298 HD
ENDROOT
TORSDOF 0
ENDMDL
