MODEL 1
REMARK minimizedAffinity -2.51919317
REMARK minimizedRMSD -1
REMARK  0 active torsions:
REMARK  status: ('A' for Active; 'I' for Inactive)
ROOT
ATOM      1  N1  IND d   1       0.574   0.179  -2.123  0.00  0.00    -0.196 N 
ATOM      2  C2  IND d   1       0.599   1.340  -1.401  0.00  0.00     0.054 A 
ATOM      3  C3  IND d   1       0.105   1.133  -0.160  0.00  0.00    -0.031 A 
ATOM      4  C4  IND d   1      -0.708  -1.052   0.934  0.00  0.00     0.051 A 
ATOM      5  C5  IND d   1      -0.954  -2.367   0.658  0.00  0.00    -0.031 A 
ATOM      6  C6  IND d   1      -0.697  -2.913  -0.583  0.00  0.00     0.015 A 
ATOM      7  C7  IND d   1      -0.169  -2.163  -1.595  0.00  0.00    -0.016 A 
ATOM      8  C8  IND d   1       0.076  -0.825  -1.321  0.00  0.00    -0.047 A 
ATOM      9  C9  IND d   1      -0.224  -0.255  -0.077  0.00  0.00    -0.096 A 
ATOM     10  HN1 IND d   1       0.826   0.091  -2.940  0.00  0.00     0.298 HD
ENDROOT
TORSDOF 0
ENDMDL
