MODEL 1
REMARK minimizedAffinity -3.02531147
REMARK minimizedRMSD -1
REMARK  0 active torsions:
REMARK  status: ('A' for Active; 'I' for Inactive)
ROOT
ATOM      1  N1  IND d   1      -0.029   0.764  -1.860  0.00  0.00    -0.196 N 
ATOM      2  C2  IND d   1       0.498  -0.209  -2.663  0.00  0.00     0.054 A 
ATOM      3  C3  IND d   1       0.376  -1.420  -2.075  0.00  0.00    -0.031 A 
ATOM      4  C4  IND d   1      -0.746  -2.051   0.154  0.00  0.00     0.051 A 
ATOM      5  C5  IND d   1      -1.337  -1.501   1.256  0.00  0.00    -0.031 A 
ATOM      6  C6  IND d   1      -1.529  -0.140   1.377  0.00  0.00     0.015 A 
ATOM      7  C7  IND d   1      -1.145   0.724   0.391  0.00  0.00    -0.016 A 
ATOM      8  C8  IND d   1      -0.538   0.169  -0.727  0.00  0.00    -0.047 A 
ATOM      9  C9  IND d   1      -0.302  -1.207  -0.836  0.00  0.00    -0.096 A 
ATOM     10  HN1 IND d   1      -0.041   1.606  -2.034  0.00  0.00     0.298 HD
ENDROOT
TORSDOF 0
ENDMDL
