MODEL 1
REMARK minimizedAffinity 0.925707161
REMARK minimizedRMSD -1
REMARK  0 active torsions:
REMARK  status: ('A' for Active; 'I' for Inactive)
ROOT
ATOM      1  N1  IND d   1       0.406   0.897  -1.379  0.00  0.00    -0.196 N 
ATOM      2  C2  IND d   1       0.274   1.805  -0.366  0.00  0.00     0.054 A 
ATOM      3  C3  IND d   1      -0.295   1.226   0.714  0.00  0.00    -0.031 A 
ATOM      4  C4  IND d   1      -0.996  -1.225   1.077  0.00  0.00     0.051 A 
ATOM      5  C5  IND d   1      -1.105  -2.422   0.426  0.00  0.00    -0.031 A 
ATOM      6  C6  IND d   1      -0.705  -2.577  -0.885  0.00  0.00     0.015 A 
ATOM      7  C7  IND d   1      -0.169  -1.540  -1.594  0.00  0.00    -0.016 A 
ATOM      8  C8  IND d   1      -0.063  -0.322  -0.939  0.00  0.00    -0.047 A 
ATOM      9  C9  IND d   1      -0.506  -0.147   0.378  0.00  0.00    -0.096 A 
ATOM     10  HN1 IND d   1       0.728   1.059  -2.160  0.00  0.00     0.298 HD
ENDROOT
TORSDOF 0
ENDMDL
