MODEL 1
REMARK minimizedAffinity -3.33763981
REMARK minimizedRMSD -1
REMARK  0 active torsions:
REMARK  status: ('A' for Active; 'I' for Inactive)
ROOT
ATOM      1  N1  IND d   1      -0.125   1.210  -0.800  0.00  0.00    -0.196 N 
ATOM      2  C2  IND d   1      -0.327   0.029  -0.141  0.00  0.00     0.054 A 
ATOM      3  C3  IND d   1       0.389   0.002   1.006  0.00  0.00    -0.031 A 
ATOM      4  C4  IND d   1       1.876   1.825   2.049  0.00  0.00     0.051 A 
ATOM      5  C5  IND d   1       2.397   3.064   1.799  0.00  0.00    -0.031 A 
ATOM      6  C6  IND d   1       2.094   3.764   0.648  0.00  0.00     0.015 A 
ATOM      7  C7  IND d   1       1.248   3.252  -0.294  0.00  0.00    -0.016 A 
ATOM      8  C8  IND d   1       0.724   1.992  -0.047  0.00  0.00    -0.047 A 
ATOM      9  C9  IND d   1       1.060   1.259   1.098  0.00  0.00    -0.096 A 
ATOM     10  HN1 IND d   1      -0.471   1.427  -1.556  0.00  0.00     0.298 HD
ENDROOT
TORSDOF 0
ENDMDL
