MODEL 1
REMARK minimizedAffinity -4.22594023
REMARK minimizedRMSD -1
REMARK  0 active torsions:
REMARK  status: ('A' for Active; 'I' for Inactive)
ROOT
ATOM      1  N1  IND d   1       0.298  -1.319  -2.392  0.00  0.00    -0.196 N 
ATOM      2  C2  IND d   1       0.080  -2.631  -2.709  0.00  0.00     0.054 A 
ATOM      3  C3  IND d   1      -0.405  -3.299  -1.638  0.00  0.00    -0.031 A 
ATOM      4  C4  IND d   1      -1.014  -2.416   0.702  0.00  0.00     0.051 A 
ATOM      5  C5  IND d   1      -0.957  -1.292   1.478  0.00  0.00    -0.031 A 
ATOM      6  C6  IND d   1      -0.472  -0.095   0.993  0.00  0.00     0.015 A 
ATOM      7  C7  IND d   1      -0.034   0.026  -0.296  0.00  0.00    -0.016 A 
ATOM      8  C8  IND d   1      -0.084  -1.115  -1.084  0.00  0.00    -0.047 A 
ATOM      9  C9  IND d   1      -0.536  -2.343  -0.584  0.00  0.00    -0.096 A 
ATOM     10  HN1 IND d   1       0.619  -0.722  -2.921  0.00  0.00     0.298 HD
ENDROOT
TORSDOF 0
ENDMDL
