MODEL 1
REMARK minimizedAffinity -2.28243899
REMARK minimizedRMSD -1
REMARK  0 active torsions:
REMARK  status: ('A' for Active; 'I' for Inactive)
ROOT
ATOM      1  N1  IND d   1       0.120  -2.003  -1.212  0.00  0.00    -0.196 N 
ATOM      2  C2  IND d   1      -0.341  -2.948  -0.338  0.00  0.00     0.054 A 
ATOM      3  C3  IND d   1      -0.809  -2.360   0.786  0.00  0.00    -0.031 A 
ATOM      4  C4  IND d   1      -1.011   0.141   1.362  0.00  0.00     0.051 A 
ATOM      5  C5  IND d   1      -0.689   1.383   0.893  0.00  0.00    -0.031 A 
ATOM      6  C6  IND d   1      -0.070   1.564  -0.328  0.00  0.00     0.015 A 
ATOM      7  C7  IND d   1       0.240   0.505  -1.133  0.00  0.00    -0.016 A 
ATOM      8  C8  IND d   1      -0.080  -0.758  -0.657  0.00  0.00    -0.047 A 
ATOM      9  C9  IND d   1      -0.668  -0.951   0.599  0.00  0.00    -0.096 A 
ATOM     10  HN1 IND d   1       0.475  -2.160  -1.979  0.00  0.00     0.298 HD
ENDROOT
TORSDOF 0
ENDMDL
