MODEL 1
REMARK minimizedAffinity -1.7815336
REMARK minimizedRMSD -1
REMARK  0 active torsions:
REMARK  status: ('A' for Active; 'I' for Inactive)
ROOT
ATOM      1  N1  IND d   1       1.455   0.423  -0.062  0.00  0.00    -0.196 N 
ATOM      2  C2  IND d   1       0.168  -0.014   0.085  0.00  0.00     0.054 A 
ATOM      3  C3  IND d   1      -0.606   0.966   0.601  0.00  0.00    -0.031 A 
ATOM      4  C4  IND d   1       0.007   3.398   1.184  0.00  0.00     0.051 A 
ATOM      5  C5  IND d   1       1.070   4.253   1.255  0.00  0.00    -0.031 A 
ATOM      6  C6  IND d   1       2.342   3.869   0.881  0.00  0.00     0.015 A 
ATOM      7  C7  IND d   1       2.596   2.612   0.409  0.00  0.00    -0.016 A 
ATOM      8  C8  IND d   1       1.519   1.739   0.342  0.00  0.00    -0.047 A 
ATOM      9  C9  IND d   1       0.235   2.110   0.760  0.00  0.00    -0.096 A 
ATOM     10  HN1 IND d   1       2.113  -0.045  -0.357  0.00  0.00     0.298 HD
ENDROOT
TORSDOF 0
ENDMDL
