MODEL 1
REMARK minimizedAffinity -0.155358925
REMARK minimizedRMSD -1
REMARK  0 active torsions:
REMARK  status: ('A' for Active; 'I' for Inactive)
ROOT
ATOM      1  N1  IND d   1       0.773   0.016  -0.283  0.00  0.00    -0.196 N 
ATOM      2  C2  IND d   1       0.525   1.352  -0.133  0.00  0.00     0.054 A 
ATOM      3  C3  IND d   1      -0.680   1.544   0.450  0.00  0.00    -0.031 A 
ATOM      4  C4  IND d   1      -2.364  -0.190   1.334  0.00  0.00     0.051 A 
ATOM      5  C5  IND d   1      -2.595  -1.536   1.390  0.00  0.00    -0.031 A 
ATOM      6  C6  IND d   1      -1.696  -2.452   0.884  0.00  0.00     0.015 A 
ATOM      7  C7  IND d   1      -0.522  -2.054   0.310  0.00  0.00    -0.016 A 
ATOM      8  C8  IND d   1      -0.287  -0.688   0.245  0.00  0.00    -0.047 A 
ATOM      9  C9  IND d   1      -1.215   0.248   0.719  0.00  0.00    -0.096 A 
ATOM     10  HN1 IND d   1       1.473  -0.326  -0.646  0.00  0.00     0.298 HD
ENDROOT
TORSDOF 0
ENDMDL
