MODEL 1
REMARK minimizedAffinity -0.0192808881
REMARK minimizedRMSD -1
REMARK  0 active torsions:
REMARK  status: ('A' for Active; 'I' for Inactive)
ROOT
ATOM      1  N1  IND d   1       0.422  -0.085  -1.298  0.00  0.00    -0.196 N 
ATOM      2  C2  IND d   1       0.406   1.192  -0.813  0.00  0.00     0.054 A 
ATOM      3  C3  IND d   1      -0.233   1.235   0.378  0.00  0.00    -0.031 A 
ATOM      4  C4  IND d   1      -1.240  -0.687   1.763  0.00  0.00     0.051 A 
ATOM      5  C5  IND d   1      -1.500  -2.028   1.715  0.00  0.00    -0.031 A 
ATOM      6  C6  IND d   1      -1.123  -2.806   0.640  0.00  0.00     0.015 A 
ATOM      7  C7  IND d   1      -0.458  -2.272  -0.427  0.00  0.00    -0.016 A 
ATOM      8  C8  IND d   1      -0.198  -0.909  -0.385  0.00  0.00    -0.047 A 
ATOM      9  C9  IND d   1      -0.617  -0.107   0.684  0.00  0.00    -0.096 A 
ATOM     10  HN1 IND d   1       0.763  -0.333  -2.048  0.00  0.00     0.298 HD
ENDROOT
TORSDOF 0
ENDMDL
