MODEL 1
REMARK minimizedAffinity -4.12949467
REMARK minimizedRMSD -1
REMARK  0 active torsions:
REMARK  status: ('A' for Active; 'I' for Inactive)
ROOT
ATOM      1  N1  IND d   1      -0.836  -0.786   1.145  0.00  0.00    -0.196 N 
ATOM      2  C2  IND d   1      -0.794  -2.148   1.032  0.00  0.00     0.054 A 
ATOM      3  C3  IND d   1      -0.408  -2.504  -0.214  0.00  0.00    -0.031 A 
ATOM      4  C4  IND d   1       0.302  -1.019  -2.194  0.00  0.00     0.051 A 
ATOM      5  C5  IND d   1       0.391   0.288  -2.582  0.00  0.00    -0.031 A 
ATOM      6  C6  IND d   1       0.072   1.325  -1.729  0.00  0.00     0.015 A 
ATOM      7  C7  IND d   1      -0.339   1.093  -0.447  0.00  0.00    -0.016 A 
ATOM      8  C8  IND d   1      -0.438  -0.234  -0.052  0.00  0.00    -0.047 A 
ATOM      9  C9  IND d   1      -0.156  -1.291  -0.926  0.00  0.00    -0.096 A 
ATOM     10  HN1 IND d   1      -1.072  -0.348   1.847  0.00  0.00     0.298 HD
ENDROOT
TORSDOF 0
ENDMDL
