MODEL 1
REMARK minimizedAffinity -3.58931327
REMARK minimizedRMSD -1
REMARK  0 active torsions:
REMARK  status: ('A' for Active; 'I' for Inactive)
ROOT
ATOM      1  N1  IND d   1       0.692   0.239  -3.131  0.00  0.00    -0.196 N 
ATOM      2  C2  IND d   1       0.986  -0.981  -3.672  0.00  0.00     0.054 A 
ATOM      3  C3  IND d   1       0.777  -1.961  -2.765  0.00  0.00    -0.031 A 
ATOM      4  C4  IND d   1      -0.144  -1.799  -0.366  0.00  0.00     0.051 A 
ATOM      5  C5  IND d   1      -0.521  -0.892   0.584  0.00  0.00    -0.031 A 
ATOM      6  C6  IND d   1      -0.515   0.466   0.339  0.00  0.00     0.015 A 
ATOM      7  C7  IND d   1      -0.142   0.969  -0.875  0.00  0.00    -0.016 A 
ATOM      8  C8  IND d   1       0.249   0.051  -1.840  0.00  0.00    -0.047 A 
ATOM      9  C9  IND d   1       0.286  -1.325  -1.583  0.00  0.00    -0.096 A 
ATOM     10  HN1 IND d   1       0.771   0.997  -3.529  0.00  0.00     0.298 HD
ENDROOT
TORSDOF 0
ENDMDL
