MODEL 1
REMARK minimizedAffinity -5.11251593
REMARK minimizedRMSD -1
REMARK  0 active torsions:
REMARK  status: ('A' for Active; 'I' for Inactive)
ROOT
ATOM      1  N1  IND d   1       0.100   0.010  -1.211  0.00  0.00    -0.196 N 
ATOM      2  C2  IND d   1       0.182   0.590   0.023  0.00  0.00     0.054 A 
ATOM      3  C3  IND d   1       0.036  -0.341   0.992  0.00  0.00    -0.031 A 
ATOM      4  C4  IND d   1      -0.245  -2.891   0.780  0.00  0.00     0.051 A 
ATOM      5  C5  IND d   1      -0.412  -3.883  -0.145  0.00  0.00    -0.031 A 
ATOM      6  C6  IND d   1      -0.415  -3.623  -1.501  0.00  0.00     0.015 A 
ATOM      7  C7  IND d   1      -0.238  -2.358  -1.983  0.00  0.00    -0.016 A 
ATOM      8  C8  IND d   1      -0.075  -1.347  -1.047  0.00  0.00    -0.047 A 
ATOM      9  C9  IND d   1      -0.113  -1.599   0.331  0.00  0.00    -0.096 A 
ATOM     10  HN1 IND d   1       0.150   0.422  -1.964  0.00  0.00     0.298 HD
ENDROOT
TORSDOF 0
ENDMDL
