MODEL 1
REMARK minimizedAffinity -4.87095118
REMARK minimizedRMSD -1
REMARK  3 active torsions:
REMARK  status: ('A' for Active; 'I' for Inactive)
REMARK    1  A    between atoms: C3'_2  and  C2'_3 
REMARK    2  A    between atoms: C2'_3  and  C1'_4 
REMARK    3  A    between atoms: C1'_4  and  C1_5 
ROOT
ATOM      1  C1  N4B d   1      -1.153  -2.789  -1.138  0.00  0.00    -0.075 A 
ATOM      2  C2  N4B d   1      -2.113  -2.873  -0.106  0.00  0.00     0.002 A 
ATOM      3  C3  N4B d   1      -3.353  -3.406  -0.364  0.00  0.00     0.002 A 
ATOM      4  C4  N4B d   1      -3.660  -3.840  -1.644  0.00  0.00    -0.004 A 
ATOM      5  C5  N4B d   1      -2.718  -3.778  -2.629  0.00  0.00     0.002 A 
ATOM      6  C6  N4B d   1      -1.467  -3.250  -2.384  0.00  0.00     0.002 A 
ENDROOT
BRANCH   1   7
ATOM      7  C1' N4B d   1       0.186  -2.136  -0.925  0.00  0.00     0.057 C 
BRANCH   7   8
ATOM      8  C2' N4B d   1       0.020  -0.621  -0.988  0.00  0.00     0.009 C 
BRANCH   8   9
ATOM      9  C3' N4B d   1       0.050   0.012   0.392  0.00  0.00     0.004 C 
ATOM     10  C4' N4B d   1      -1.250   0.662   0.762  0.00  0.00     0.003 C 
ENDBRANCH   8   9
ENDBRANCH   7   8
ENDBRANCH   1   7
TORSDOF 3
ENDMDL
