MODEL 1
REMARK minimizedAffinity -3.84670568
REMARK minimizedRMSD -1
REMARK  3 active torsions:
REMARK  status: ('A' for Active; 'I' for Inactive)
REMARK    1  A    between atoms: C3'_2  and  C2'_3 
REMARK    2  A    between atoms: C2'_3  and  C1'_4 
REMARK    3  A    between atoms: C1'_4  and  C1_5 
ROOT
ATOM      1  C1  N4B d   1      -0.066  -0.099   0.038  0.00  0.00    -0.075 A 
ATOM      2  C2  N4B d   1      -0.870  -0.325   1.178  0.00  0.00     0.002 A 
ATOM      3  C3  N4B d   1      -1.288  -1.597   1.482  0.00  0.00     0.002 A 
ATOM      4  C4  N4B d   1      -0.933  -2.652   0.654  0.00  0.00    -0.004 A 
ATOM      5  C5  N4B d   1      -0.136  -2.429  -0.430  0.00  0.00     0.002 A 
ATOM      6  C6  N4B d   1       0.295  -1.156  -0.746  0.00  0.00     0.002 A 
ENDROOT
BRANCH   1   7
ATOM      7  C1' N4B d   1       0.344   1.286  -0.382  0.00  0.00     0.057 C 
BRANCH   7   8
ATOM      8  C2' N4B d   1       0.059   2.260   0.757  0.00  0.00     0.009 C 
BRANCH   8   9
ATOM      9  C3' N4B d   1       0.955   3.486   0.694  0.00  0.00     0.004 C 
ATOM     10  C4' N4B d   1       2.352   3.162   0.257  0.00  0.00     0.003 C 
ENDBRANCH   8   9
ENDBRANCH   7   8
ENDBRANCH   1   7
TORSDOF 3
ENDMDL
