MODEL 1
REMARK minimizedAffinity -4.63492632
REMARK minimizedRMSD -1
REMARK  3 active torsions:
REMARK  status: ('A' for Active; 'I' for Inactive)
REMARK    1  A    between atoms: C3'_2  and  C2'_3 
REMARK    2  A    between atoms: C2'_3  and  C1'_4 
REMARK    3  A    between atoms: C1'_4  and  C1_5 
ROOT
ATOM      1  C1  N4B d   1      -0.770  -0.900   0.727  0.00  0.00    -0.075 A 
ATOM      2  C2  N4B d   1      -0.678  -2.309   0.738  0.00  0.00     0.002 A 
ATOM      3  C3  N4B d   1      -0.195  -2.974  -0.363  0.00  0.00     0.002 A 
ATOM      4  C4  N4B d   1       0.182  -2.256  -1.487  0.00  0.00    -0.004 A 
ATOM      5  C5  N4B d   1       0.114  -0.893  -1.480  0.00  0.00     0.002 A 
ATOM      6  C6  N4B d   1      -0.365  -0.211  -0.380  0.00  0.00     0.002 A 
ENDROOT
BRANCH   1   7
ATOM      7  C1' N4B d   1      -1.372  -0.135   1.873  0.00  0.00     0.057 C 
BRANCH   7   8
ATOM      8  C2' N4B d   1      -2.710   0.454   1.435  0.00  0.00     0.009 C 
BRANCH   8   9
ATOM      9  C3' N4B d   1      -3.529   0.945   2.617  0.00  0.00     0.004 C 
ATOM     10  C4' N4B d   1      -3.124   0.303   3.911  0.00  0.00     0.003 C 
ENDBRANCH   8   9
ENDBRANCH   7   8
ENDBRANCH   1   7
TORSDOF 3
ENDMDL
