MODEL 1
REMARK minimizedAffinity 2.92938733
REMARK minimizedRMSD -1
REMARK  3 active torsions:
REMARK  status: ('A' for Active; 'I' for Inactive)
REMARK    1  A    between atoms: C3'_2  and  C2'_3 
REMARK    2  A    between atoms: C2'_3  and  C1'_4 
REMARK    3  A    between atoms: C1'_4  and  C1_5 
ROOT
ATOM      1  C1  N4B d   1      -0.881  -1.130   0.344  0.00  0.00    -0.075 A 
ATOM      2  C2  N4B d   1       0.489  -1.350   0.077  0.00  0.00     0.002 A 
ATOM      3  C3  N4B d   1       0.976  -2.631   0.002  0.00  0.00     0.002 A 
ATOM      4  C4  N4B d   1       0.122  -3.704   0.208  0.00  0.00    -0.004 A 
ATOM      5  C5  N4B d   1      -1.204  -3.484   0.440  0.00  0.00     0.002 A 
ATOM      6  C6  N4B d   1      -1.709  -2.201   0.515  0.00  0.00     0.002 A 
ENDROOT
BRANCH   1   7
ATOM      7  C1' N4B d   1      -1.443   0.254   0.521  0.00  0.00     0.057 C 
BRANCH   7   8
ATOM      8  C2' N4B d   1      -2.193   0.324   1.848  0.00  0.00     0.009 C 
BRANCH   8   9
ATOM      9  C3' N4B d   1      -3.558   0.974   1.696  0.00  0.00     0.004 C 
ATOM     10  C4' N4B d   1      -4.084   1.528   2.986  0.00  0.00     0.003 C 
ENDBRANCH   8   9
ENDBRANCH   7   8
ENDBRANCH   1   7
TORSDOF 3
ENDMDL
