MODEL 1
REMARK minimizedAffinity 2.62709045
REMARK minimizedRMSD -1
REMARK  3 active torsions:
REMARK  status: ('A' for Active; 'I' for Inactive)
REMARK    1  A    between atoms: C3'_2  and  C2'_3 
REMARK    2  A    between atoms: C2'_3  and  C1'_4 
REMARK    3  A    between atoms: C1'_4  and  C1_5 
ROOT
ATOM      1  C1  N4B d   1      -1.255  -2.477   0.324  0.00  0.00    -0.075 A 
ATOM      2  C2  N4B d   1      -0.334  -3.544   0.226  0.00  0.00     0.002 A 
ATOM      3  C3  N4B d   1       0.860  -3.362  -0.428  0.00  0.00     0.002 A 
ATOM      4  C4  N4B d   1       1.146  -2.134  -1.005  0.00  0.00    -0.004 A 
ATOM      5  C5  N4B d   1       0.263  -1.102  -0.884  0.00  0.00     0.002 A 
ATOM      6  C6  N4B d   1      -0.940  -1.269  -0.226  0.00  0.00     0.002 A 
ENDROOT
BRANCH   1   7
ATOM      7  C1' N4B d   1      -2.609  -2.653   0.954  0.00  0.00     0.057 C 
BRANCH   7   8
ATOM      8  C2' N4B d   1      -3.292  -3.872   0.342  0.00  0.00     0.009 C 
BRANCH   8   9
ATOM      9  C3' N4B d   1      -4.382  -3.479  -0.641  0.00  0.00     0.004 C 
ATOM     10  C4' N4B d   1      -3.966  -3.657  -2.071  0.00  0.00     0.003 C 
ENDBRANCH   8   9
ENDBRANCH   7   8
ENDBRANCH   1   7
TORSDOF 3
ENDMDL
