MODEL 1
REMARK minimizedAffinity -5.22497654
REMARK minimizedRMSD -1
REMARK  3 active torsions:
REMARK  status: ('A' for Active; 'I' for Inactive)
REMARK    1  A    between atoms: C3'_2  and  C2'_3 
REMARK    2  A    between atoms: C2'_3  and  C1'_4 
REMARK    3  A    between atoms: C1'_4  and  C1_5 
ROOT
ATOM      1  C1  N4B d   1      -0.120  -0.546   0.207  0.00  0.00    -0.075 A 
ATOM      2  C2  N4B d   1      -0.690  -1.203   1.320  0.00  0.00     0.002 A 
ATOM      3  C3  N4B d   1      -0.645  -2.573   1.406  0.00  0.00     0.002 A 
ATOM      4  C4  N4B d   1      -0.055  -3.305   0.387  0.00  0.00    -0.004 A 
ATOM      5  C5  N4B d   1       0.516  -2.662  -0.672  0.00  0.00     0.002 A 
ATOM      6  C6  N4B d   1       0.482  -1.285  -0.770  0.00  0.00     0.002 A 
ENDROOT
BRANCH   1   7
ATOM      7  C1' N4B d   1      -0.220   0.944   0.027  0.00  0.00     0.057 C 
BRANCH   7   8
ATOM      8  C2' N4B d   1       1.184   1.532  -0.067  0.00  0.00     0.009 C 
BRANCH   8   9
ATOM      9  C3' N4B d   1       1.328   2.797   0.763  0.00  0.00     0.004 C 
ATOM     10  C4' N4B d   1       2.722   3.348   0.745  0.00  0.00     0.003 C 
ENDBRANCH   8   9
ENDBRANCH   7   8
ENDBRANCH   1   7
TORSDOF 3
ENDMDL
