MODEL 1
REMARK minimizedAffinity -6.57631922
REMARK minimizedRMSD -1
REMARK  3 active torsions:
REMARK  status: ('A' for Active; 'I' for Inactive)
REMARK    1  A    between atoms: C3'_2  and  C2'_3 
REMARK    2  A    between atoms: C2'_3  and  C1'_4 
REMARK    3  A    between atoms: C1'_4  and  C1_5 
ROOT
ATOM      1  C1  N4B d   1      -0.158  -0.378   0.066  0.00  0.00    -0.075 A 
ATOM      2  C2  N4B d   1      -0.972  -0.716   1.170  0.00  0.00     0.002 A 
ATOM      3  C3  N4B d   1      -0.863  -1.956   1.749  0.00  0.00     0.002 A 
ATOM      4  C4  N4B d   1       0.036  -2.878   1.233  0.00  0.00    -0.004 A 
ATOM      5  C5  N4B d   1       0.836  -2.535   0.183  0.00  0.00     0.002 A 
ATOM      6  C6  N4B d   1       0.740  -1.290  -0.407  0.00  0.00     0.002 A 
ENDROOT
BRANCH   1   7
ATOM      7  C1' N4B d   1      -0.303   0.934  -0.655  0.00  0.00     0.057 C 
BRANCH   7   8
ATOM      8  C2' N4B d   1       0.063   2.070   0.295  0.00  0.00     0.009 C 
BRANCH   8   9
ATOM      9  C3' N4B d   1       1.562   2.317   0.336  0.00  0.00     0.004 C 
ATOM     10  C4' N4B d   1       1.944   3.414   1.284  0.00  0.00     0.003 C 
ENDBRANCH   8   9
ENDBRANCH   7   8
ENDBRANCH   1   7
TORSDOF 3
ENDMDL
