MODEL 1
REMARK minimizedAffinity -5.1072998
REMARK minimizedRMSD -1
REMARK  3 active torsions:
REMARK  status: ('A' for Active; 'I' for Inactive)
REMARK    1  A    between atoms: C3'_2  and  C2'_3 
REMARK    2  A    between atoms: C2'_3  and  C1'_4 
REMARK    3  A    between atoms: C1'_4  and  C1_5 
ROOT
ATOM      1  C1  N4B d   1       0.120  -0.173   0.379  0.00  0.00    -0.075 A 
ATOM      2  C2  N4B d   1      -1.080  -0.578   1.004  0.00  0.00     0.002 A 
ATOM      3  C3  N4B d   1      -1.313  -1.910   1.245  0.00  0.00     0.002 A 
ATOM      4  C4  N4B d   1      -0.373  -2.852   0.854  0.00  0.00    -0.004 A 
ATOM      5  C5  N4B d   1       0.795  -2.451   0.274  0.00  0.00     0.002 A 
ATOM      6  C6  N4B d   1       1.044  -1.115   0.030  0.00  0.00     0.002 A 
ENDROOT
BRANCH   1   7
ATOM      7  C1' N4B d   1       0.381   1.263   0.017  0.00  0.00     0.057 C 
BRANCH   7   8
ATOM      8  C2' N4B d   1       1.800   1.636   0.437  0.00  0.00     0.009 C 
BRANCH   8   9
ATOM      9  C3' N4B d   1       1.854   2.995   1.112  0.00  0.00     0.004 C 
ATOM     10  C4' N4B d   1       0.525   3.690   1.127  0.00  0.00     0.003 C 
ENDBRANCH   8   9
ENDBRANCH   7   8
ENDBRANCH   1   7
TORSDOF 3
ENDMDL
