MODEL 1
REMARK minimizedAffinity -5.6814785
REMARK minimizedRMSD -1
REMARK  3 active torsions:
REMARK  status: ('A' for Active; 'I' for Inactive)
REMARK    1  A    between atoms: C3'_2  and  C2'_3 
REMARK    2  A    between atoms: C2'_3  and  C1'_4 
REMARK    3  A    between atoms: C1'_4  and  C1_5 
ROOT
ATOM      1  C1  N4B d   1      -0.109  -0.880  -0.263  0.00  0.00    -0.075 A 
ATOM      2  C2  N4B d   1      -0.222  -1.469   1.016  0.00  0.00     0.002 A 
ATOM      3  C3  N4B d   1      -0.088  -2.828   1.160  0.00  0.00     0.002 A 
ATOM      4  C4  N4B d   1       0.139  -3.617   0.042  0.00  0.00    -0.004 A 
ATOM      5  C5  N4B d   1       0.272  -3.038  -1.186  0.00  0.00     0.002 A 
ATOM      6  C6  N4B d   1       0.144  -1.673  -1.345  0.00  0.00     0.002 A 
ENDROOT
BRANCH   1   7
ATOM      7  C1' N4B d   1      -0.333   0.591  -0.482  0.00  0.00     0.057 C 
BRANCH   7   8
ATOM      8  C2' N4B d   1       0.221   1.365   0.711  0.00  0.00     0.009 C 
BRANCH   8   9
ATOM      9  C3' N4B d   1       1.650   1.823   0.477  0.00  0.00     0.004 C 
ATOM     10  C4' N4B d   1       2.008   3.041   1.275  0.00  0.00     0.003 C 
ENDBRANCH   8   9
ENDBRANCH   7   8
ENDBRANCH   1   7
TORSDOF 3
ENDMDL
