MODEL 1
REMARK minimizedAffinity -5.39696693
REMARK minimizedRMSD -1
REMARK  3 active torsions:
REMARK  status: ('A' for Active; 'I' for Inactive)
REMARK    1  A    between atoms: C3'_2  and  C2'_3 
REMARK    2  A    between atoms: C2'_3  and  C1'_4 
REMARK    3  A    between atoms: C1'_4  and  C1_5 
ROOT
ATOM      1  C1  N4B d   1      -0.138   0.007  -0.162  0.00  0.00    -0.075 A 
ATOM      2  C2  N4B d   1       0.622  -1.038  -0.732  0.00  0.00     0.002 A 
ATOM      3  C3  N4B d   1       0.319  -2.346  -0.440  0.00  0.00     0.002 A 
ATOM      4  C4  N4B d   1      -0.723  -2.630   0.430  0.00  0.00    -0.004 A 
ATOM      5  C5  N4B d   1      -1.468  -1.616   0.956  0.00  0.00     0.002 A 
ATOM      6  C6  N4B d   1      -1.178  -0.298   0.668  0.00  0.00     0.002 A 
ENDROOT
BRANCH   1   7
ATOM      7  C1' N4B d   1       0.209   1.453  -0.384  0.00  0.00     0.057 C 
BRANCH   7   8
ATOM      8  C2' N4B d   1       1.349   1.844   0.551  0.00  0.00     0.009 C 
BRANCH   8   9
ATOM      9  C3' N4B d   1       2.164   3.002   0.001  0.00  0.00     0.004 C 
ATOM     10  C4' N4B d   1       2.517   4.014   1.050  0.00  0.00     0.003 C 
ENDBRANCH   8   9
ENDBRANCH   7   8
ENDBRANCH   1   7
TORSDOF 3
ENDMDL
