MODEL 1
REMARK minimizedAffinity 7.81446409
REMARK minimizedRMSD -1
REMARK  0 active torsions:
REMARK  status: ('A' for Active; 'I' for Inactive)
ROOT
ATOM      1  C   UNL d   1       1.221  -2.144   3.550  0.00  0.00     0.078 C 
ATOM      2  C1  UNL d   1       0.132  -2.689   2.675  0.00  0.00    -0.077 A 
ATOM      3  C2  UNL d   1      -1.166  -2.166   2.729  0.00  0.00    -0.001 A 
ATOM      4  C3  UNL d   1      -2.172  -2.690   1.916  0.00  0.00     0.003 A 
ATOM      5  C4  UNL d   1      -1.892  -3.741   1.044  0.00  0.00    -0.005 A 
ATOM      6  C5  UNL d   1      -0.604  -4.269   0.985  0.00  0.00     0.003 A 
ATOM      7  C6  UNL d   1       0.404  -3.746   1.798  0.00  0.00    -0.001 A 
ENDROOT
TORSDOF 0
ENDMDL
