MODEL 1
REMARK minimizedAffinity 3.26972055
REMARK minimizedRMSD -1
REMARK  0 active torsions:
REMARK  status: ('A' for Active; 'I' for Inactive)
ROOT
ATOM      1  C   UNL d   1      -1.451  -2.226   0.968  0.00  0.00     0.078 C 
ATOM      2  C1  UNL d   1      -1.082  -1.508   2.232  0.00  0.00    -0.077 A 
ATOM      3  C2  UNL d   1       0.071  -1.852   2.948  0.00  0.00    -0.001 A 
ATOM      4  C3  UNL d   1       0.397  -1.182   4.128  0.00  0.00     0.003 A 
ATOM      5  C4  UNL d   1      -0.426  -0.163   4.604  0.00  0.00    -0.005 A 
ATOM      6  C5  UNL d   1      -1.577   0.185   3.900  0.00  0.00     0.003 A 
ATOM      7  C6  UNL d   1      -1.905  -0.484   2.719  0.00  0.00    -0.001 A 
ENDROOT
TORSDOF 0
ENDMDL
