MODEL 1
REMARK minimizedAffinity 7.11678934
REMARK minimizedRMSD -1
REMARK  0 active torsions:
REMARK  status: ('A' for Active; 'I' for Inactive)
ROOT
ATOM      1  C   UNL d   1      -5.994   0.026  -3.763  0.00  0.00     0.078 C 
ATOM      2  C1  UNL d   1      -5.755   0.492  -2.359  0.00  0.00    -0.077 A 
ATOM      3  C2  UNL d   1      -5.302  -0.392  -1.372  0.00  0.00    -0.001 A 
ATOM      4  C3  UNL d   1      -5.093   0.054  -0.066  0.00  0.00     0.003 A 
ATOM      5  C4  UNL d   1      -5.335   1.385   0.266  0.00  0.00    -0.005 A 
ATOM      6  C5  UNL d   1      -5.787   2.272  -0.709  0.00  0.00     0.003 A 
ATOM      7  C6  UNL d   1      -5.997   1.828  -2.015  0.00  0.00    -0.001 A 
ENDROOT
TORSDOF 0
ENDMDL
