MODEL 1
REMARK minimizedAffinity 12.0257635
REMARK minimizedRMSD -1
REMARK  0 active torsions:
REMARK  status: ('A' for Active; 'I' for Inactive)
ROOT
ATOM      1  C   UNL d   1       2.782   1.379  -0.043  0.00  0.00     0.078 C 
ATOM      2  C1  UNL d   1       3.904   2.321   0.276  0.00  0.00    -0.077 A 
ATOM      3  C2  UNL d   1       4.950   2.531  -0.631  0.00  0.00    -0.001 A 
ATOM      4  C3  UNL d   1       5.993   3.404  -0.316  0.00  0.00     0.003 A 
ATOM      5  C4  UNL d   1       6.000   4.073   0.906  0.00  0.00    -0.005 A 
ATOM      6  C5  UNL d   1       4.964   3.870   1.815  0.00  0.00     0.003 A 
ATOM      7  C6  UNL d   1       3.921   2.997   1.503  0.00  0.00    -0.001 A 
ENDROOT
TORSDOF 0
ENDMDL
