MODEL 1
REMARK minimizedAffinity 2.57833385
REMARK minimizedRMSD -1
REMARK  0 active torsions:
REMARK  status: ('A' for Active; 'I' for Inactive)
ROOT
ATOM      1  C   UNL d   1       4.875   2.222   2.026  0.00  0.00     0.078 C 
ATOM      2  C1  UNL d   1       5.029   3.529   1.308  0.00  0.00    -0.077 A 
ATOM      3  C2  UNL d   1       5.859   3.642   0.186  0.00  0.00    -0.001 A 
ATOM      4  C3  UNL d   1       6.000   4.867  -0.467  0.00  0.00     0.003 A 
ATOM      5  C4  UNL d   1       5.315   5.989  -0.005  0.00  0.00    -0.005 A 
ATOM      6  C5  UNL d   1       4.488   5.887   1.112  0.00  0.00     0.003 A 
ATOM      7  C6  UNL d   1       4.346   4.663   1.766  0.00  0.00    -0.001 A 
ENDROOT
TORSDOF 0
ENDMDL
