MODEL 1
REMARK minimizedAffinity 9.4945488
REMARK minimizedRMSD -1
REMARK  0 active torsions:
REMARK  status: ('A' for Active; 'I' for Inactive)
ROOT
ATOM      1  C   UNL d   1       6.000   4.541  -0.748  0.00  0.00     0.078 C 
ATOM      2  C1  UNL d   1       5.459   3.423   0.093  0.00  0.00    -0.077 A 
ATOM      3  C2  UNL d   1       4.644   2.431  -0.465  0.00  0.00    -0.001 A 
ATOM      4  C3  UNL d   1       4.139   1.402   0.331  0.00  0.00     0.003 A 
ATOM      5  C4  UNL d   1       4.444   1.355   1.690  0.00  0.00    -0.005 A 
ATOM      6  C5  UNL d   1       5.253   2.339   2.255  0.00  0.00     0.003 A 
ATOM      7  C6  UNL d   1       5.758   3.369   1.460  0.00  0.00    -0.001 A 
ENDROOT
TORSDOF 0
ENDMDL
