MODEL 1
REMARK minimizedAffinity 11.4460564
REMARK minimizedRMSD -1
REMARK  0 active torsions:
REMARK  status: ('A' for Active; 'I' for Inactive)
ROOT
ATOM      1  C   UNL d   1      -1.844   0.676   4.095  0.00  0.00     0.078 C 
ATOM      2  C1  UNL d   1      -0.807  -0.336   3.710  0.00  0.00    -0.077 A 
ATOM      3  C2  UNL d   1      -0.930  -1.082   2.531  0.00  0.00    -0.001 A 
ATOM      4  C3  UNL d   1       0.038  -2.028   2.190  0.00  0.00     0.003 A 
ATOM      5  C4  UNL d   1       1.135  -2.238   3.023  0.00  0.00    -0.005 A 
ATOM      6  C5  UNL d   1       1.265  -1.502   4.198  0.00  0.00     0.003 A 
ATOM      7  C6  UNL d   1       0.299  -0.556   4.541  0.00  0.00    -0.001 A 
ENDROOT
TORSDOF 0
ENDMDL
