MODEL 1
REMARK minimizedAffinity 9.7191515
REMARK minimizedRMSD -1
REMARK  0 active torsions:
REMARK  status: ('A' for Active; 'I' for Inactive)
ROOT
ATOM      1  C   UNL d   1       4.138   2.285  -6.000  0.00  0.00     0.078 C 
ATOM      2  C1  UNL d   1       3.885   2.941  -4.675  0.00  0.00    -0.077 A 
ATOM      3  C2  UNL d   1       4.869   3.724  -4.059  0.00  0.00    -0.001 A 
ATOM      4  C3  UNL d   1       4.623   4.320  -2.821  0.00  0.00     0.003 A 
ATOM      5  C4  UNL d   1       3.395   4.139  -2.189  0.00  0.00    -0.005 A 
ATOM      6  C5  UNL d   1       2.411   3.360  -2.793  0.00  0.00     0.003 A 
ATOM      7  C6  UNL d   1       2.655   2.763  -4.031  0.00  0.00    -0.001 A 
ENDROOT
TORSDOF 0
ENDMDL
