MODEL 1
REMARK minimizedAffinity 16.0166149
REMARK minimizedRMSD -1
REMARK  0 active torsions:
REMARK  status: ('A' for Active; 'I' for Inactive)
ROOT
ATOM      1  C   UNL d   1      -3.319  -1.531  -0.004  0.00  0.00     0.078 C 
ATOM      2  C1  UNL d   1      -4.185  -0.490  -0.648  0.00  0.00    -0.077 A 
ATOM      3  C2  UNL d   1      -4.536  -0.579  -2.000  0.00  0.00    -0.001 A 
ATOM      4  C3  UNL d   1      -5.335   0.403  -2.589  0.00  0.00     0.003 A 
ATOM      5  C4  UNL d   1      -5.789   1.481  -1.832  0.00  0.00    -0.005 A 
ATOM      6  C5  UNL d   1      -5.443   1.580  -0.486  0.00  0.00     0.003 A 
ATOM      7  C6  UNL d   1      -4.645   0.599   0.104  0.00  0.00    -0.001 A 
ENDROOT
TORSDOF 0
ENDMDL
