MODEL 1
REMARK minimizedAffinity 2.63129234
REMARK minimizedRMSD -1
REMARK  0 active torsions:
REMARK  status: ('A' for Active; 'I' for Inactive)
ROOT
ATOM      1  C   UNL d   1       4.921   3.224   1.764  0.00  0.00     0.078 C 
ATOM      2  C1  UNL d   1       4.059   2.405   0.850  0.00  0.00    -0.077 A 
ATOM      3  C2  UNL d   1       4.584   1.829  -0.313  0.00  0.00    -0.001 A 
ATOM      4  C3  UNL d   1       3.768   1.078  -1.160  0.00  0.00     0.003 A 
ATOM      5  C4  UNL d   1       2.421   0.897  -0.853  0.00  0.00    -0.005 A 
ATOM      6  C5  UNL d   1       1.888   1.468   0.301  0.00  0.00     0.003 A 
ATOM      7  C6  UNL d   1       2.703   2.220   1.148  0.00  0.00    -0.001 A 
ENDROOT
TORSDOF 0
ENDMDL
