MODEL 1
REMARK minimizedAffinity 11.4089241
REMARK minimizedRMSD -1
REMARK  0 active torsions:
REMARK  status: ('A' for Active; 'I' for Inactive)
ROOT
ATOM      1  C   UNL d   1      -4.011  -0.951  -0.251  0.00  0.00     0.078 C 
ATOM      2  C1  UNL d   1      -3.766  -2.271   0.417  0.00  0.00    -0.077 A 
ATOM      3  C2  UNL d   1      -2.582  -2.511   1.125  0.00  0.00    -0.001 A 
ATOM      4  C3  UNL d   1      -2.363  -3.748   1.734  0.00  0.00     0.003 A 
ATOM      5  C4  UNL d   1      -3.323  -4.754   1.640  0.00  0.00    -0.005 A 
ATOM      6  C5  UNL d   1      -4.502  -4.525   0.935  0.00  0.00     0.003 A 
ATOM      7  C6  UNL d   1      -4.723  -3.289   0.326  0.00  0.00    -0.001 A 
ENDROOT
TORSDOF 0
ENDMDL
