MODEL 1
REMARK minimizedAffinity 5.8496666
REMARK minimizedRMSD -1
REMARK  0 active torsions:
REMARK  status: ('A' for Active; 'I' for Inactive)
ROOT
ATOM      1  C   UNL d   1       5.091   3.551   1.855  0.00  0.00     0.078 C 
ATOM      2  C1  UNL d   1       4.164   2.661   1.082  0.00  0.00    -0.077 A 
ATOM      3  C2  UNL d   1       4.573   2.058  -0.113  0.00  0.00    -0.001 A 
ATOM      4  C3  UNL d   1       3.696   1.239  -0.827  0.00  0.00     0.003 A 
ATOM      5  C4  UNL d   1       2.404   1.018  -0.354  0.00  0.00    -0.005 A 
ATOM      6  C5  UNL d   1       1.987   1.616   0.833  0.00  0.00     0.003 A 
ATOM      7  C6  UNL d   1       2.863   2.434   1.549  0.00  0.00    -0.001 A 
ENDROOT
TORSDOF 0
ENDMDL
