MODEL 1
REMARK minimizedAffinity 2.95589328
REMARK minimizedRMSD -1
REMARK  0 active torsions:
REMARK  status: ('A' for Active; 'I' for Inactive)
ROOT
ATOM      1  C   UNL d   1       3.358   3.031  -4.817  0.00  0.00     0.078 C 
ATOM      2  C1  UNL d   1       2.718   3.106  -3.463  0.00  0.00    -0.077 A 
ATOM      3  C2  UNL d   1       2.079   4.274  -3.031  0.00  0.00    -0.001 A 
ATOM      4  C3  UNL d   1       1.497   4.333  -1.764  0.00  0.00     0.003 A 
ATOM      5  C4  UNL d   1       1.548   3.226  -0.918  0.00  0.00    -0.005 A 
ATOM      6  C5  UNL d   1       2.184   2.060  -1.339  0.00  0.00     0.003 A 
ATOM      7  C6  UNL d   1       2.767   2.000  -2.605  0.00  0.00    -0.001 A 
ENDROOT
TORSDOF 0
ENDMDL
