MODEL 1
REMARK minimizedAffinity 8.04666519
REMARK minimizedRMSD -1
REMARK  0 active torsions:
REMARK  status: ('A' for Active; 'I' for Inactive)
ROOT
ATOM      1  C   UNL d   1      -2.630   0.837   4.673  0.00  0.00     0.078 C 
ATOM      2  C1  UNL d   1      -2.575   0.186   3.323  0.00  0.00    -0.077 A 
ATOM      3  C2  UNL d   1      -3.688   0.194   2.473  0.00  0.00    -0.001 A 
ATOM      4  C3  UNL d   1      -3.625  -0.424   1.223  0.00  0.00     0.003 A 
ATOM      5  C4  UNL d   1      -2.453  -1.056   0.813  0.00  0.00    -0.005 A 
ATOM      6  C5  UNL d   1      -1.342  -1.071   1.653  0.00  0.00     0.003 A 
ATOM      7  C6  UNL d   1      -1.402  -0.454   2.903  0.00  0.00    -0.001 A 
ENDROOT
TORSDOF 0
ENDMDL
