MODEL 1
REMARK minimizedAffinity 8.21623611
REMARK minimizedRMSD -1
REMARK  0 active torsions:
REMARK  status: ('A' for Active; 'I' for Inactive)
ROOT
ATOM      1  C   UNL d   1       4.835  -2.083  -1.125  0.00  0.00     0.078 C 
ATOM      2  C1  UNL d   1       4.843  -3.452  -0.513  0.00  0.00    -0.077 A 
ATOM      3  C2  UNL d   1       3.718  -4.283  -0.589  0.00  0.00    -0.001 A 
ATOM      4  C3  UNL d   1       3.736  -5.551  -0.007  0.00  0.00     0.003 A 
ATOM      5  C4  UNL d   1       4.876  -6.000   0.658  0.00  0.00    -0.005 A 
ATOM      6  C5  UNL d   1       5.999  -5.180   0.741  0.00  0.00     0.003 A 
ATOM      7  C6  UNL d   1       5.983  -3.911   0.159  0.00  0.00    -0.001 A 
ENDROOT
TORSDOF 0
ENDMDL
