MODEL 1
REMARK minimizedAffinity 10.3448038
REMARK minimizedRMSD -1
REMARK  0 active torsions:
REMARK  status: ('A' for Active; 'I' for Inactive)
ROOT
ATOM      1  C   UNL d   1       6.000   4.131  -4.514  0.00  0.00     0.078 C 
ATOM      2  C1  UNL d   1       4.797   3.847  -3.664  0.00  0.00    -0.077 A 
ATOM      3  C2  UNL d   1       3.853   2.887  -4.048  0.00  0.00    -0.001 A 
ATOM      4  C3  UNL d   1       2.733   2.641  -3.252  0.00  0.00     0.003 A 
ATOM      5  C4  UNL d   1       2.546   3.352  -2.068  0.00  0.00    -0.005 A 
ATOM      6  C5  UNL d   1       3.479   4.311  -1.679  0.00  0.00     0.003 A 
ATOM      7  C6  UNL d   1       4.599   4.558  -2.474  0.00  0.00    -0.001 A 
ENDROOT
TORSDOF 0
ENDMDL
