MODEL 1
REMARK minimizedAffinity 11.1273489
REMARK minimizedRMSD -1
REMARK  0 active torsions:
REMARK  status: ('A' for Active; 'I' for Inactive)
ROOT
ATOM      1  C   UNL d   1       0.978   2.726  -1.159  0.00  0.00     0.124 A 
ATOM      2  C1  UNL d   1       1.005   1.707  -2.101  0.00  0.00     0.062 A 
ATOM      3  C2  UNL d   1       1.402   0.424  -1.735  0.00  0.00     0.162 A 
ATOM      4  C3  UNL d   1       1.775   0.152  -0.418  0.00  0.00    -0.034 A 
ATOM      5  C4  UNL d   1       1.746   1.182   0.524  0.00  0.00     0.162 A 
ATOM      6  C5  UNL d   1       1.348   2.462   0.152  0.00  0.00     0.062 A 
ATOM      7  F   UNL d   1       1.323   3.445   1.064  0.00  0.00    -0.097 F 
ATOM      8  F1  UNL d   1       2.097   0.955   1.798  0.00  0.00    -0.096 F 
ATOM      9  I   UNL d   1       2.368  -1.764   0.134  0.00  0.00    -0.060 I 
ATOM     10  F2  UNL d   1       1.419  -0.541  -2.666  0.00  0.00    -0.096 F 
ATOM     11  F3  UNL d   1       0.649   1.959  -3.369  0.00  0.00    -0.097 F 
ATOM     12  F4  UNL d   1       0.597   3.959  -1.515  0.00  0.00    -0.092 F 
ENDROOT
TORSDOF 0
ENDMDL
