MODEL 1
REMARK minimizedAffinity 6.63038015
REMARK minimizedRMSD -1
REMARK  0 active torsions:
REMARK  status: ('A' for Active; 'I' for Inactive)
ROOT
ATOM      1  C   UNL d   1       2.587   2.943   0.421  0.00  0.00     0.124 A 
ATOM      2  C1  UNL d   1       2.043   3.473  -0.741  0.00  0.00     0.062 A 
ATOM      3  C2  UNL d   1       1.637   2.631  -1.771  0.00  0.00     0.162 A 
ATOM      4  C3  UNL d   1       1.771   1.248  -1.644  0.00  0.00    -0.034 A 
ATOM      5  C4  UNL d   1       2.320   0.722  -0.473  0.00  0.00     0.162 A 
ATOM      6  C5  UNL d   1       2.725   1.569   0.554  0.00  0.00     0.062 A 
ATOM      7  F   UNL d   1       3.250   1.055   1.676  0.00  0.00    -0.097 F 
ATOM      8  F1  UNL d   1       2.463  -0.602  -0.318  0.00  0.00    -0.096 F 
ATOM      9  I   UNL d   1       1.164  -0.015  -3.183  0.00  0.00    -0.060 I 
ATOM     10  F2  UNL d   1       1.115   3.171  -2.882  0.00  0.00    -0.096 F 
ATOM     11  F3  UNL d   1       1.910   4.801  -0.872  0.00  0.00    -0.097 F 
ATOM     12  F4  UNL d   1       2.978   3.756   1.411  0.00  0.00    -0.092 F 
ENDROOT
TORSDOF 0
ENDMDL
