MODEL 1
REMARK minimizedAffinity 0.39916876
REMARK minimizedRMSD -1
REMARK  0 active torsions:
REMARK  status: ('A' for Active; 'I' for Inactive)
ROOT
ATOM      1  C   UNL d   1       1.533   0.529   0.009  0.00  0.00     0.124 A 
ATOM      2  C1  UNL d   1       1.521   1.474   1.026  0.00  0.00     0.062 A 
ATOM      3  C2  UNL d   1       1.422   2.828   0.722  0.00  0.00     0.162 A 
ATOM      4  C3  UNL d   1       1.334   3.247  -0.605  0.00  0.00    -0.034 A 
ATOM      5  C4  UNL d   1       1.347   2.292  -1.623  0.00  0.00     0.162 A 
ATOM      6  C5  UNL d   1       1.446   0.939  -1.314  0.00  0.00     0.062 A 
ATOM      7  F   UNL d   1       1.457   0.028  -2.298  0.00  0.00    -0.097 F 
ATOM      8  F1  UNL d   1       1.263   2.660  -2.910  0.00  0.00    -0.096 F 
ATOM      9  I   UNL d   1       1.186   5.272  -1.064  0.00  0.00    -0.060 I 
ATOM     10  F2  UNL d   1       1.413   3.719   1.725  0.00  0.00    -0.096 F 
ATOM     11  F3  UNL d   1       1.606   1.081   2.305  0.00  0.00    -0.097 F 
ATOM     12  F4  UNL d   1       1.629  -0.773   0.304  0.00  0.00    -0.092 F 
ENDROOT
TORSDOF 0
ENDMDL
