MODEL 1
REMARK minimizedAffinity 6.17989111
REMARK minimizedRMSD -1
REMARK  0 active torsions:
REMARK  status: ('A' for Active; 'I' for Inactive)
ROOT
ATOM      1  C   UNL d   1       1.346   2.370  -1.242  0.00  0.00     0.124 A 
ATOM      2  C1  UNL d   1       1.313   1.878   0.055  0.00  0.00     0.062 A 
ATOM      3  C2  UNL d   1       1.381   0.507   0.286  0.00  0.00     0.162 A 
ATOM      4  C3  UNL d   1       1.483  -0.382  -0.783  0.00  0.00    -0.034 A 
ATOM      5  C4  UNL d   1       1.515   0.120  -2.086  0.00  0.00     0.162 A 
ATOM      6  C5  UNL d   1       1.447   1.491  -2.311  0.00  0.00     0.062 A 
ATOM      7  F   UNL d   1       1.480   1.964  -3.565  0.00  0.00    -0.097 F 
ATOM      8  F1  UNL d   1       1.613  -0.707  -3.137  0.00  0.00    -0.096 F 
ATOM      9  I   UNL d   1       1.584  -2.433  -0.442  0.00  0.00    -0.060 I 
ATOM     10  F2  UNL d   1       1.346   0.060   1.550  0.00  0.00    -0.096 F 
ATOM     11  F3  UNL d   1       1.215   2.726   1.090  0.00  0.00    -0.097 F 
ATOM     12  F4  UNL d   1       1.280   3.690  -1.462  0.00  0.00    -0.092 F 
ENDROOT
TORSDOF 0
ENDMDL
