MODEL 1
REMARK minimizedAffinity 7.17867041
REMARK minimizedRMSD -1
REMARK  0 active torsions:
REMARK  status: ('A' for Active; 'I' for Inactive)
ROOT
ATOM      1  C   UNL d   1       1.384   1.270  -1.410  0.00  0.00     0.124 A 
ATOM      2  C1  UNL d   1       1.858   0.809  -0.190  0.00  0.00     0.062 A 
ATOM      3  C2  UNL d   1       2.037   1.692   0.871  0.00  0.00     0.162 A 
ATOM      4  C3  UNL d   1       1.741   3.046   0.716  0.00  0.00    -0.034 A 
ATOM      5  C4  UNL d   1       1.265   3.503  -0.514  0.00  0.00     0.162 A 
ATOM      6  C5  UNL d   1       1.088   2.617  -1.571  0.00  0.00     0.062 A 
ATOM      7  F   UNL d   1       0.630   3.064  -2.749  0.00  0.00    -0.097 F 
ATOM      8  F1  UNL d   1       0.971   4.799  -0.697  0.00  0.00    -0.096 F 
ATOM      9  I   UNL d   1       2.007   4.370   2.300  0.00  0.00    -0.060 I 
ATOM     10  F2  UNL d   1       2.497   1.218   2.038  0.00  0.00    -0.096 F 
ATOM     11  F3  UNL d   1       2.146  -0.491  -0.033  0.00  0.00    -0.097 F 
ATOM     12  F4  UNL d   1       1.214   0.419  -2.430  0.00  0.00    -0.092 F 
ENDROOT
TORSDOF 0
ENDMDL
