MODEL 1
REMARK minimizedAffinity 13.8109217
REMARK minimizedRMSD -1
REMARK  0 active torsions:
REMARK  status: ('A' for Active; 'I' for Inactive)
ROOT
ATOM      1  C   UNL d   1       1.469   0.176  -0.010  0.00  0.00     0.124 A 
ATOM      2  C1  UNL d   1       1.220   0.544  -1.325  0.00  0.00     0.062 A 
ATOM      3  C2  UNL d   1       1.102   1.888  -1.666  0.00  0.00     0.162 A 
ATOM      4  C3  UNL d   1       1.233   2.876  -0.690  0.00  0.00    -0.034 A 
ATOM      5  C4  UNL d   1       1.482   2.498   0.631  0.00  0.00     0.162 A 
ATOM      6  C5  UNL d   1       1.599   1.153   0.967  0.00  0.00     0.062 A 
ATOM      7  F   UNL d   1       1.840   0.800   2.238  0.00  0.00    -0.097 F 
ATOM      8  F1  UNL d   1       1.614   3.422   1.595  0.00  0.00    -0.096 F 
ATOM      9  I   UNL d   1       1.057   4.887  -1.195  0.00  0.00    -0.060 I 
ATOM     10  F2  UNL d   1       0.862   2.214  -2.945  0.00  0.00    -0.096 F 
ATOM     11  F3  UNL d   1       1.092  -0.399  -2.270  0.00  0.00    -0.097 F 
ATOM     12  F4  UNL d   1       1.581  -1.118   0.315  0.00  0.00    -0.092 F 
ENDROOT
TORSDOF 0
ENDMDL
