MODEL 1
REMARK minimizedAffinity 4.4768939
REMARK minimizedRMSD -1
REMARK  0 active torsions:
REMARK  status: ('A' for Active; 'I' for Inactive)
ROOT
ATOM      1  C   UNL d   1       1.035   3.062  -0.858  0.00  0.00     0.124 A 
ATOM      2  C1  UNL d   1       1.408   2.597   0.395  0.00  0.00     0.062 A 
ATOM      3  C2  UNL d   1       1.678   1.245   0.588  0.00  0.00     0.162 A 
ATOM      4  C3  UNL d   1       1.576   0.348  -0.476  0.00  0.00    -0.034 A 
ATOM      5  C4  UNL d   1       1.199   0.823  -1.733  0.00  0.00     0.162 A 
ATOM      6  C5  UNL d   1       0.931   2.175  -1.921  0.00  0.00     0.062 A 
ATOM      7  F   UNL d   1       0.570   2.623  -3.132  0.00  0.00    -0.097 F 
ATOM      8  F1  UNL d   1       1.092  -0.011  -2.778  0.00  0.00    -0.096 F 
ATOM      9  I   UNL d   1       1.979  -1.674  -0.191  0.00  0.00    -0.060 I 
ATOM     10  F2  UNL d   1       2.037   0.823   1.810  0.00  0.00    -0.096 F 
ATOM     11  F3  UNL d   1       1.509   3.451   1.423  0.00  0.00    -0.097 F 
ATOM     12  F4  UNL d   1       0.775   4.363  -1.041  0.00  0.00    -0.092 F 
ENDROOT
TORSDOF 0
ENDMDL
