MODEL 1
REMARK minimizedAffinity 8.16103268
REMARK minimizedRMSD -1
REMARK  0 active torsions:
REMARK  status: ('A' for Active; 'I' for Inactive)
ROOT
ATOM      1  C   UNL d   1      -2.754   1.231   3.862  0.00  0.00     0.124 A 
ATOM      2  C1  UNL d   1      -3.145   1.847   2.681  0.00  0.00     0.062 A 
ATOM      3  C2  UNL d   1      -2.924   3.208   2.494  0.00  0.00     0.162 A 
ATOM      4  C3  UNL d   1      -2.307   3.964   3.491  0.00  0.00    -0.034 A 
ATOM      5  C4  UNL d   1      -1.917   3.338   4.676  0.00  0.00     0.162 A 
ATOM      6  C5  UNL d   1      -2.140   1.977   4.858  0.00  0.00     0.062 A 
ATOM      7  F   UNL d   1      -1.761   1.385   6.000  0.00  0.00    -0.097 F 
ATOM      8  F1  UNL d   1      -1.321   4.035   5.655  0.00  0.00    -0.096 F 
ATOM      9  I   UNL d   1      -1.974   6.000   3.215  0.00  0.00    -0.060 I 
ATOM     10  F2  UNL d   1      -3.312   3.776   1.343  0.00  0.00    -0.096 F 
ATOM     11  F3  UNL d   1      -3.739   1.128   1.717  0.00  0.00    -0.097 F 
ATOM     12  F4  UNL d   1      -2.969  -0.078   4.039  0.00  0.00    -0.092 F 
ENDROOT
TORSDOF 0
ENDMDL
