MODEL 1
REMARK minimizedAffinity 9.37732315
REMARK minimizedRMSD -1
REMARK  0 active torsions:
REMARK  status: ('A' for Active; 'I' for Inactive)
ROOT
ATOM      1  C   UNL d   1       0.996   3.252  -1.128  0.00  0.00     0.124 A 
ATOM      2  C1  UNL d   1       1.016   2.814   0.189  0.00  0.00     0.062 A 
ATOM      3  C2  UNL d   1       1.186   1.462   0.474  0.00  0.00     0.162 A 
ATOM      4  C3  UNL d   1       1.339   0.538  -0.560  0.00  0.00    -0.034 A 
ATOM      5  C4  UNL d   1       1.317   0.986  -1.882  0.00  0.00     0.162 A 
ATOM      6  C5  UNL d   1       1.147   2.338  -2.162  0.00  0.00     0.062 A 
ATOM      7  F   UNL d   1       1.128   2.760  -3.435  0.00  0.00    -0.097 F 
ATOM      8  F1  UNL d   1       1.461   0.125  -2.900  0.00  0.00    -0.096 F 
ATOM      9  I   UNL d   1       1.593  -1.484  -0.137  0.00  0.00    -0.060 I 
ATOM     10  F2  UNL d   1       1.201   1.067   1.756  0.00  0.00    -0.096 F 
ATOM     11  F3  UNL d   1       0.870   3.694   1.189  0.00  0.00    -0.097 F 
ATOM     12  F4  UNL d   1       0.832   4.553  -1.400  0.00  0.00    -0.092 F 
ENDROOT
TORSDOF 0
ENDMDL
