MODEL 1
REMARK minimizedAffinity -1.27257478
REMARK minimizedRMSD -1
REMARK  0 active torsions:
REMARK  status: ('A' for Active; 'I' for Inactive)
ROOT
ATOM      1  C   UNL d   1       0.737   3.184  -1.163  0.00  0.00     0.124 A 
ATOM      2  C1  UNL d   1       0.903   2.867   0.178  0.00  0.00     0.062 A 
ATOM      3  C2  UNL d   1       1.237   1.570   0.555  0.00  0.00     0.162 A 
ATOM      4  C3  UNL d   1       1.410   0.579  -0.412  0.00  0.00    -0.034 A 
ATOM      5  C4  UNL d   1       1.241   0.905  -1.759  0.00  0.00     0.162 A 
ATOM      6  C5  UNL d   1       0.907   2.203  -2.130  0.00  0.00     0.062 A 
ATOM      7  F   UNL d   1       0.747   2.508  -3.426  0.00  0.00    -0.097 F 
ATOM      8  F1  UNL d   1       1.399  -0.023  -2.714  0.00  0.00    -0.096 F 
ATOM      9  I   UNL d   1       1.910  -1.362   0.147  0.00  0.00    -0.060 I 
ATOM     10  F2  UNL d   1       1.391   1.292   1.858  0.00  0.00    -0.096 F 
ATOM     11  F3  UNL d   1       0.739   3.813   1.114  0.00  0.00    -0.097 F 
ATOM     12  F4  UNL d   1       0.415   4.433  -1.522  0.00  0.00    -0.092 F 
ENDROOT
TORSDOF 0
ENDMDL
