MODEL 1
REMARK minimizedAffinity 14.1590652
REMARK minimizedRMSD -1
REMARK  0 active torsions:
REMARK  status: ('A' for Active; 'I' for Inactive)
ROOT
ATOM      1  C   UNL d   1       1.437  -0.123  -0.135  0.00  0.00     0.124 A 
ATOM      2  C1  UNL d   1       1.217   0.960   0.705  0.00  0.00     0.062 A 
ATOM      3  C2  UNL d   1       0.920   2.210   0.171  0.00  0.00     0.162 A 
ATOM      4  C3  UNL d   1       0.840   2.385  -1.210  0.00  0.00    -0.034 A 
ATOM      5  C4  UNL d   1       1.064   1.291  -2.049  0.00  0.00     0.162 A 
ATOM      6  C5  UNL d   1       1.360   0.043  -1.510  0.00  0.00     0.062 A 
ATOM      7  F   UNL d   1       1.572  -1.002  -2.323  0.00  0.00    -0.097 F 
ATOM      8  F1  UNL d   1       0.995   1.424  -3.382  0.00  0.00    -0.096 F 
ATOM      9  I   UNL d   1       0.396   4.254  -2.012  0.00  0.00    -0.060 I 
ATOM     10  F2  UNL d   1       0.712   3.239   1.006  0.00  0.00    -0.096 F 
ATOM     11  F3  UNL d   1       1.292   0.802   2.034  0.00  0.00    -0.097 F 
ATOM     12  F4  UNL d   1       1.724  -1.325   0.381  0.00  0.00    -0.092 F 
ENDROOT
TORSDOF 0
ENDMDL
