MODEL 1
REMARK minimizedAffinity 8.65341568
REMARK minimizedRMSD -1
REMARK  0 active torsions:
REMARK  status: ('A' for Active; 'I' for Inactive)
ROOT
ATOM      1  C   UNL d   1       0.944   1.985  -0.991  0.00  0.00     0.124 A 
ATOM      2  C1  UNL d   1       1.555   1.222  -1.976  0.00  0.00     0.062 A 
ATOM      3  C2  UNL d   1       2.350   0.134  -1.627  0.00  0.00     0.162 A 
ATOM      4  C3  UNL d   1       2.538  -0.199  -0.286  0.00  0.00    -0.034 A 
ATOM      5  C4  UNL d   1       1.920   0.574   0.700  0.00  0.00     0.162 A 
ATOM      6  C5  UNL d   1       1.127   1.660   0.346  0.00  0.00     0.062 A 
ATOM      7  F   UNL d   1       0.537   2.396   1.299  0.00  0.00    -0.097 F 
ATOM      8  F1  UNL d   1       2.080   0.282   1.999  0.00  0.00    -0.096 F 
ATOM      9  I   UNL d   1       3.725  -1.824   0.240  0.00  0.00    -0.060 I 
ATOM     10  F2  UNL d   1       2.928  -0.585  -2.601  0.00  0.00    -0.096 F 
ATOM     11  F3  UNL d   1       1.380   1.534  -3.269  0.00  0.00    -0.097 F 
ATOM     12  F4  UNL d   1       0.180   3.032  -1.329  0.00  0.00    -0.092 F 
ENDROOT
TORSDOF 0
ENDMDL
