MODEL 1
REMARK minimizedAffinity 1.64370453
REMARK minimizedRMSD -1
REMARK  0 active torsions:
REMARK  status: ('A' for Active; 'I' for Inactive)
ROOT
ATOM      1  C   UNL d   1       1.106   2.581  -1.975  0.00  0.00     0.124 A 
ATOM      2  C1  UNL d   1       1.158   3.496  -0.933  0.00  0.00     0.062 A 
ATOM      3  C2  UNL d   1       1.283   3.054   0.381  0.00  0.00     0.162 A 
ATOM      4  C3  UNL d   1       1.358   1.689   0.660  0.00  0.00    -0.034 A 
ATOM      5  C4  UNL d   1       1.304   0.775  -0.394  0.00  0.00     0.162 A 
ATOM      6  C5  UNL d   1       1.179   1.222  -1.705  0.00  0.00     0.062 A 
ATOM      7  F   UNL d   1       1.129   0.337  -2.711  0.00  0.00    -0.097 F 
ATOM      8  F1  UNL d   1       1.373  -0.544  -0.161  0.00  0.00    -0.096 F 
ATOM      9  I   UNL d   1       1.545   1.024   2.623  0.00  0.00    -0.060 I 
ATOM     10  F2  UNL d   1       1.331   3.960   1.369  0.00  0.00    -0.096 F 
ATOM     11  F3  UNL d   1       1.087   4.810  -1.191  0.00  0.00    -0.097 F 
ATOM     12  F4  UNL d   1       0.985   3.010  -3.238  0.00  0.00    -0.092 F 
ENDROOT
TORSDOF 0
ENDMDL
