MODEL 1
REMARK minimizedAffinity 7.45462942
REMARK minimizedRMSD -1
REMARK  0 active torsions:
REMARK  status: ('A' for Active; 'I' for Inactive)
ROOT
ATOM      1  C   UNL d   1       1.150   3.133  -1.393  0.00  0.00     0.124 A 
ATOM      2  C1  UNL d   1       0.946   2.809  -0.059  0.00  0.00     0.062 A 
ATOM      3  C2  UNL d   1       0.849   1.476   0.331  0.00  0.00     0.162 A 
ATOM      4  C3  UNL d   1       0.957   0.457  -0.615  0.00  0.00    -0.034 A 
ATOM      5  C4  UNL d   1       1.161   0.790  -1.955  0.00  0.00     0.162 A 
ATOM      6  C5  UNL d   1       1.257   2.123  -2.339  0.00  0.00     0.062 A 
ATOM      7  F   UNL d   1       1.455   2.434  -3.629  0.00  0.00    -0.097 F 
ATOM      8  F1  UNL d   1       1.270  -0.165  -2.890  0.00  0.00    -0.096 F 
ATOM      9  I   UNL d   1       0.812  -1.537  -0.036  0.00  0.00    -0.060 I 
ATOM     10  F2  UNL d   1       0.652   1.193   1.627  0.00  0.00    -0.096 F 
ATOM     11  F3  UNL d   1       0.841   3.782   0.857  0.00  0.00    -0.097 F 
ATOM     12  F4  UNL d   1       1.242   4.416  -1.765  0.00  0.00    -0.092 F 
ENDROOT
TORSDOF 0
ENDMDL
