MODEL 1
REMARK minimizedAffinity 7.75031614
REMARK minimizedRMSD -1
REMARK  0 active torsions:
REMARK  status: ('A' for Active; 'I' for Inactive)
ROOT
ATOM      1  C   UNL d   1       1.140  -0.066  -0.192  0.00  0.00     0.124 A 
ATOM      2  C1  UNL d   1       0.932   0.169  -1.544  0.00  0.00     0.062 A 
ATOM      3  C2  UNL d   1       0.791   1.471  -2.015  0.00  0.00     0.162 A 
ATOM      4  C3  UNL d   1       0.860   2.550  -1.133  0.00  0.00    -0.034 A 
ATOM      5  C4  UNL d   1       1.068   2.306   0.225  0.00  0.00     0.162 A 
ATOM      6  C5  UNL d   1       1.208   1.002   0.691  0.00  0.00     0.062 A 
ATOM      7  F   UNL d   1       1.409   0.778   1.998  0.00  0.00    -0.097 F 
ATOM      8  F1  UNL d   1       1.139   3.319   1.101  0.00  0.00    -0.096 F 
ATOM      9  I   UNL d   1       0.650   4.498  -1.834  0.00  0.00    -0.060 I 
ATOM     10  F2  UNL d   1       0.591   1.668  -3.327  0.00  0.00    -0.096 F 
ATOM     11  F3  UNL d   1       0.865  -0.862  -2.399  0.00  0.00    -0.097 F 
ATOM     12  F4  UNL d   1       1.273  -1.320   0.259  0.00  0.00    -0.092 F 
ENDROOT
TORSDOF 0
ENDMDL
