MODEL 1
REMARK minimizedAffinity 13.9665079
REMARK minimizedRMSD -1
REMARK  0 active torsions:
REMARK  status: ('A' for Active; 'I' for Inactive)
ROOT
ATOM      1  C   UNL d   1       2.781   1.288   0.805  0.00  0.00     0.124 A 
ATOM      2  C1  UNL d   1       3.304   0.028   0.552  0.00  0.00     0.062 A 
ATOM      3  C2  UNL d   1       2.543  -0.924  -0.120  0.00  0.00     0.162 A 
ATOM      4  C3  UNL d   1       1.250  -0.619  -0.545  0.00  0.00    -0.034 A 
ATOM      5  C4  UNL d   1       0.730   0.650  -0.286  0.00  0.00     0.162 A 
ATOM      6  C5  UNL d   1       1.495   1.598   0.386  0.00  0.00     0.062 A 
ATOM      7  F   UNL d   1       0.987   2.815   0.630  0.00  0.00    -0.097 F 
ATOM      8  F1  UNL d   1      -0.509   0.976  -0.681  0.00  0.00    -0.096 F 
ATOM      9  I   UNL d   1       0.109  -2.040  -1.551  0.00  0.00    -0.060 I 
ATOM     10  F2  UNL d   1       3.075  -2.134  -0.351  0.00  0.00    -0.096 F 
ATOM     11  F3  UNL d   1       4.546  -0.275   0.957  0.00  0.00    -0.097 F 
ATOM     12  F4  UNL d   1       3.515   2.202   1.453  0.00  0.00    -0.092 F 
ENDROOT
TORSDOF 0
ENDMDL
