MODEL 1
REMARK minimizedAffinity -3.95471001
REMARK minimizedRMSD -1
REMARK  0 active torsions:
REMARK  status: ('A' for Active; 'I' for Inactive)
ROOT
ATOM      1  C   UNL d   1      -0.259   0.201   3.041  0.00  0.00     0.124 A 
ATOM      2  C1  UNL d   1      -1.220   0.587   2.117  0.00  0.00     0.062 A 
ATOM      3  C2  UNL d   1      -1.015   0.363   0.759  0.00  0.00     0.162 A 
ATOM      4  C3  UNL d   1       0.156  -0.252   0.316  0.00  0.00    -0.034 A 
ATOM      5  C4  UNL d   1       1.118  -0.637   1.251  0.00  0.00     0.162 A 
ATOM      6  C5  UNL d   1       0.909  -0.411   2.608  0.00  0.00     0.062 A 
ATOM      7  F   UNL d   1       1.838  -0.785   3.499  0.00  0.00    -0.097 F 
ATOM      8  F1  UNL d   1       2.256  -1.231   0.860  0.00  0.00    -0.096 F 
ATOM      9  I   UNL d   1       0.467  -0.589  -1.714  0.00  0.00    -0.060 I 
ATOM     10  F2  UNL d   1      -1.960   0.747  -0.112  0.00  0.00    -0.096 F 
ATOM     11  F3  UNL d   1      -2.348   1.179   2.533  0.00  0.00    -0.097 F 
ATOM     12  F4  UNL d   1      -0.458   0.419   4.348  0.00  0.00    -0.092 F 
ENDROOT
TORSDOF 0
ENDMDL
