MODEL 1
REMARK minimizedAffinity -3.93156886
REMARK minimizedRMSD -1
REMARK  0 active torsions:
REMARK  status: ('A' for Active; 'I' for Inactive)
ROOT
ATOM      1  C   UNL d   1       0.365   0.771   2.631  0.00  0.00     0.124 A 
ATOM      2  C1  UNL d   1       1.151  -0.268   2.153  0.00  0.00     0.062 A 
ATOM      3  C2  UNL d   1       1.218  -0.524   0.787  0.00  0.00     0.162 A 
ATOM      4  C3  UNL d   1       0.495   0.261  -0.112  0.00  0.00    -0.034 A 
ATOM      5  C4  UNL d   1      -0.295   1.303   0.376  0.00  0.00     0.162 A 
ATOM      6  C5  UNL d   1      -0.357   1.555   1.743  0.00  0.00     0.062 A 
ATOM      7  F   UNL d   1      -1.118   2.559   2.203  0.00  0.00    -0.097 F 
ATOM      8  F1  UNL d   1      -1.002   2.077  -0.460  0.00  0.00    -0.096 F 
ATOM      9  I   UNL d   1       0.592  -0.120  -2.156  0.00  0.00    -0.060 I 
ATOM     10  F2  UNL d   1       1.986  -1.534   0.353  0.00  0.00    -0.096 F 
ATOM     11  F3  UNL d   1       1.849  -1.027   3.010  0.00  0.00    -0.097 F 
ATOM     12  F4  UNL d   1       0.302   1.015   3.947  0.00  0.00    -0.092 F 
ENDROOT
TORSDOF 0
ENDMDL
