MODEL 1
REMARK minimizedAffinity -3.31788874
REMARK minimizedRMSD -1
REMARK  0 active torsions:
REMARK  status: ('A' for Active; 'I' for Inactive)
ROOT
ATOM      1  C   UNL d   1      -1.232   0.056   0.934  0.00  0.00     0.124 A 
ATOM      2  C1  UNL d   1      -1.392  -0.697  -0.221  0.00  0.00     0.062 A 
ATOM      3  C2  UNL d   1      -0.421  -0.665  -1.217  0.00  0.00     0.162 A 
ATOM      4  C3  UNL d   1       0.721   0.121  -1.063  0.00  0.00    -0.034 A 
ATOM      5  C4  UNL d   1       0.875   0.875   0.102  0.00  0.00     0.162 A 
ATOM      6  C5  UNL d   1      -0.099   0.841   1.095  0.00  0.00     0.062 A 
ATOM      7  F   UNL d   1       0.058   1.568   2.210  0.00  0.00    -0.097 F 
ATOM      8  F1  UNL d   1       1.960   1.642   0.283  0.00  0.00    -0.096 F 
ATOM      9  I   UNL d   1       2.175   0.170  -2.550  0.00  0.00    -0.060 I 
ATOM     10  F2  UNL d   1      -0.603  -1.403  -2.323  0.00  0.00    -0.096 F 
ATOM     11  F3  UNL d   1      -2.487  -1.455  -0.378  0.00  0.00    -0.097 F 
ATOM     12  F4  UNL d   1      -2.168   0.024   1.891  0.00  0.00    -0.092 F 
ENDROOT
TORSDOF 0
ENDMDL
