MODEL 1
REMARK minimizedAffinity -4.10388994
REMARK minimizedRMSD -1
REMARK  0 active torsions:
REMARK  status: ('A' for Active; 'I' for Inactive)
ROOT
ATOM      1  C   UNL d   1      -0.599   1.279   2.575  0.00  0.00     0.124 A 
ATOM      2  C1  UNL d   1       0.519   0.514   2.273  0.00  0.00     0.062 A 
ATOM      3  C2  UNL d   1       0.749   0.098   0.965  0.00  0.00     0.162 A 
ATOM      4  C3  UNL d   1      -0.140   0.447  -0.052  0.00  0.00    -0.034 A 
ATOM      5  C4  UNL d   1      -1.262   1.216   0.260  0.00  0.00     0.162 A 
ATOM      6  C5  UNL d   1      -1.489   1.629   1.569  0.00  0.00     0.062 A 
ATOM      7  F   UNL d   1      -2.569   2.368   1.859  0.00  0.00    -0.097 F 
ATOM      8  F1  UNL d   1      -2.138   1.569  -0.693  0.00  0.00    -0.096 F 
ATOM      9  I   UNL d   1       0.202  -0.173  -2.009  0.00  0.00    -0.060 I 
ATOM     10  F2  UNL d   1       1.838  -0.640   0.702  0.00  0.00    -0.096 F 
ATOM     11  F3  UNL d   1       1.379   0.174   3.244  0.00  0.00    -0.097 F 
ATOM     12  F4  UNL d   1      -0.819   1.677   3.835  0.00  0.00    -0.092 F 
ENDROOT
TORSDOF 0
ENDMDL
