MODEL 1
REMARK minimizedAffinity -4.86136866
REMARK minimizedRMSD -1
REMARK  0 active torsions:
REMARK  status: ('A' for Active; 'I' for Inactive)
ROOT
ATOM      1  C   UNL d   1      -0.529   1.031   3.015  0.00  0.00     0.124 A 
ATOM      2  C1  UNL d   1      -1.470   0.917   2.001  0.00  0.00     0.062 A 
ATOM      3  C2  UNL d   1      -1.101   0.412   0.758  0.00  0.00     0.162 A 
ATOM      4  C3  UNL d   1       0.216   0.015   0.522  0.00  0.00    -0.034 A 
ATOM      5  C4  UNL d   1       1.156   0.133   1.546  0.00  0.00     0.162 A 
ATOM      6  C5  UNL d   1       0.782   0.639   2.787  0.00  0.00     0.062 A 
ATOM      7  F   UNL d   1       1.692   0.748   3.766  0.00  0.00    -0.097 F 
ATOM      8  F1  UNL d   1       2.430  -0.239   1.354  0.00  0.00    -0.096 F 
ATOM      9  I   UNL d   1       0.771  -0.740  -1.336  0.00  0.00    -0.060 I 
ATOM     10  F2  UNL d   1      -2.030   0.314  -0.204  0.00  0.00    -0.096 F 
ATOM     11  F3  UNL d   1      -2.737   1.296   2.219  0.00  0.00    -0.097 F 
ATOM     12  F4  UNL d   1      -0.887   1.518   4.211  0.00  0.00    -0.092 F 
ENDROOT
TORSDOF 0
ENDMDL
