MODEL 1
REMARK minimizedAffinity 1.10031641
REMARK minimizedRMSD -1
REMARK  0 active torsions:
REMARK  status: ('A' for Active; 'I' for Inactive)
ROOT
ATOM      1  C   UNL d   1      -0.539   0.031   2.227  0.00  0.00     0.124 A 
ATOM      2  C1  UNL d   1       0.707  -0.228   1.672  0.00  0.00     0.062 A 
ATOM      3  C2  UNL d   1       0.812  -0.616   0.340  0.00  0.00     0.162 A 
ATOM      4  C3  UNL d   1      -0.331  -0.745  -0.449  0.00  0.00    -0.034 A 
ATOM      5  C4  UNL d   1      -1.581  -0.483   0.117  0.00  0.00     0.162 A 
ATOM      6  C5  UNL d   1      -1.681  -0.096   1.449  0.00  0.00     0.062 A 
ATOM      7  F   UNL d   1      -2.885   0.154   1.983  0.00  0.00    -0.097 F 
ATOM      8  F1  UNL d   1      -2.700  -0.598  -0.613  0.00  0.00    -0.096 F 
ATOM      9  I   UNL d   1      -0.177  -1.324  -2.442  0.00  0.00    -0.060 I 
ATOM     10  F2  UNL d   1       2.029  -0.860  -0.170  0.00  0.00    -0.096 F 
ATOM     11  F3  UNL d   1       1.811  -0.107   2.422  0.00  0.00    -0.097 F 
ATOM     12  F4  UNL d   1      -0.638   0.403   3.510  0.00  0.00    -0.092 F 
ENDROOT
TORSDOF 0
ENDMDL
