MODEL 1
REMARK minimizedAffinity -3.82726741
REMARK minimizedRMSD -1
REMARK  0 active torsions:
REMARK  status: ('A' for Active; 'I' for Inactive)
ROOT
ATOM      1  C   UNL d   1      -0.880  -0.074   0.747  0.00  0.00     0.124 A 
ATOM      2  C1  UNL d   1       0.414  -0.441   0.407  0.00  0.00     0.062 A 
ATOM      3  C2  UNL d   1       1.002   0.057  -0.751  0.00  0.00     0.162 A 
ATOM      4  C3  UNL d   1       0.296   0.930  -1.579  0.00  0.00    -0.034 A 
ATOM      5  C4  UNL d   1      -1.006   1.294  -1.232  0.00  0.00     0.162 A 
ATOM      6  C5  UNL d   1      -1.589   0.793  -0.073  0.00  0.00     0.062 A 
ATOM      7  F   UNL d   1      -2.840   1.149   0.254  0.00  0.00    -0.097 F 
ATOM      8  F1  UNL d   1      -1.713   2.131  -2.005  0.00  0.00    -0.096 F 
ATOM      9  I   UNL d   1       1.172   1.677  -3.313  0.00  0.00    -0.060 I 
ATOM     10  F2  UNL d   1       2.255  -0.315  -1.055  0.00  0.00    -0.096 F 
ATOM     11  F3  UNL d   1       1.101  -1.280   1.197  0.00  0.00    -0.097 F 
ATOM     12  F4  UNL d   1      -1.444  -0.556   1.862  0.00  0.00    -0.092 F 
ENDROOT
TORSDOF 0
ENDMDL
