MODEL 1
REMARK minimizedAffinity 2.75633407
REMARK minimizedRMSD -1
REMARK  0 active torsions:
REMARK  status: ('A' for Active; 'I' for Inactive)
ROOT
ATOM      1  C   UNL d   1       1.492  -0.871   2.899  0.00  0.00     0.124 A 
ATOM      2  C1  UNL d   1       0.192  -0.508   3.222  0.00  0.00     0.062 A 
ATOM      3  C2  UNL d   1      -0.797  -0.503   2.243  0.00  0.00     0.162 A 
ATOM      4  C3  UNL d   1      -0.490  -0.864   0.931  0.00  0.00    -0.034 A 
ATOM      5  C4  UNL d   1       0.820  -1.227   0.614  0.00  0.00     0.162 A 
ATOM      6  C5  UNL d   1       1.805  -1.230   1.596  0.00  0.00     0.062 A 
ATOM      7  F   UNL d   1       3.060  -1.581   1.282  0.00  0.00    -0.097 F 
ATOM      8  F1  UNL d   1       1.149  -1.579  -0.638  0.00  0.00    -0.096 F 
ATOM      9  I   UNL d   1      -1.967  -0.858  -0.536  0.00  0.00    -0.060 I 
ATOM     10  F2  UNL d   1      -2.045  -0.148   2.584  0.00  0.00    -0.096 F 
ATOM     11  F3  UNL d   1      -0.113  -0.160   4.481  0.00  0.00    -0.097 F 
ATOM     12  F4  UNL d   1       2.442  -0.874   3.843  0.00  0.00    -0.092 F 
ENDROOT
TORSDOF 0
ENDMDL
