MODEL 1
REMARK minimizedAffinity 2.1865344
REMARK minimizedRMSD -1
REMARK  0 active torsions:
REMARK  status: ('A' for Active; 'I' for Inactive)
ROOT
ATOM      1  C   UNL d   1      -0.307  -0.238   0.686  0.00  0.00     0.124 A 
ATOM      2  C1  UNL d   1      -0.921   0.921   0.231  0.00  0.00     0.062 A 
ATOM      3  C2  UNL d   1      -0.675   1.383  -1.059  0.00  0.00     0.162 A 
ATOM      4  C3  UNL d   1       0.188   0.685  -1.904  0.00  0.00    -0.034 A 
ATOM      5  C4  UNL d   1       0.803  -0.479  -1.438  0.00  0.00     0.162 A 
ATOM      6  C5  UNL d   1       0.554  -0.936  -0.149  0.00  0.00     0.062 A 
ATOM      7  F   UNL d   1       1.148  -2.056   0.290  0.00  0.00    -0.097 F 
ATOM      8  F1  UNL d   1       1.638  -1.174  -2.224  0.00  0.00    -0.096 F 
ATOM      9  I   UNL d   1       0.559   1.373  -3.833  0.00  0.00    -0.060 I 
ATOM     10  F2  UNL d   1      -1.282   2.505  -1.473  0.00  0.00    -0.096 F 
ATOM     11  F3  UNL d   1      -1.753   1.598   1.035  0.00  0.00    -0.097 F 
ATOM     12  F4  UNL d   1      -0.545  -0.679   1.928  0.00  0.00    -0.092 F 
ENDROOT
TORSDOF 0
ENDMDL
