MODEL 1
REMARK minimizedAffinity 2.42019176
REMARK minimizedRMSD -1
REMARK  0 active torsions:
REMARK  status: ('A' for Active; 'I' for Inactive)
ROOT
ATOM      1  C   UNL d   1      -2.088   0.876   1.714  0.00  0.00     0.124 A 
ATOM      2  C1  UNL d   1      -0.888   0.584   2.348  0.00  0.00     0.062 A 
ATOM      3  C2  UNL d   1       0.088  -0.161   1.693  0.00  0.00     0.162 A 
ATOM      4  C3  UNL d   1      -0.132  -0.620   0.394  0.00  0.00    -0.034 A 
ATOM      5  C4  UNL d   1      -1.342  -0.324  -0.237  0.00  0.00     0.162 A 
ATOM      6  C5  UNL d   1      -2.313   0.422   0.423  0.00  0.00     0.062 A 
ATOM      7  F   UNL d   1      -3.472   0.702  -0.192  0.00  0.00    -0.097 F 
ATOM      8  F1  UNL d   1      -1.586  -0.749  -1.486  0.00  0.00    -0.096 F 
ATOM      9  I   UNL d   1       1.324  -1.735  -0.590  0.00  0.00    -0.060 I 
ATOM     10  F2  UNL d   1       1.238  -0.428   2.329  0.00  0.00    -0.096 F 
ATOM     11  F3  UNL d   1      -0.668   1.021   3.597  0.00  0.00    -0.097 F 
ATOM     12  F4  UNL d   1      -3.025   1.592   2.348  0.00  0.00    -0.092 F 
ENDROOT
TORSDOF 0
ENDMDL
