MODEL 1
REMARK minimizedAffinity 0.992431045
REMARK minimizedRMSD -1
REMARK  0 active torsions:
REMARK  status: ('A' for Active; 'I' for Inactive)
ROOT
ATOM      1  C   UNL d   1       1.056   0.702  -3.645  0.00  0.00     0.124 A 
ATOM      2  C1  UNL d   1       0.606  -0.518  -3.160  0.00  0.00     0.062 A 
ATOM      3  C2  UNL d   1       0.310  -0.667  -1.808  0.00  0.00     0.162 A 
ATOM      4  C3  UNL d   1       0.463   0.407  -0.931  0.00  0.00    -0.034 A 
ATOM      5  C4  UNL d   1       0.917   1.631  -1.426  0.00  0.00     0.162 A 
ATOM      6  C5  UNL d   1       1.211   1.775  -2.778  0.00  0.00     0.062 A 
ATOM      7  F   UNL d   1       1.645   2.955  -3.245  0.00  0.00    -0.097 F 
ATOM      8  F1  UNL d   1       1.074   2.684  -0.611  0.00  0.00    -0.096 F 
ATOM      9  I   UNL d   1       0.021   0.188   1.091  0.00  0.00    -0.060 I 
ATOM     10  F2  UNL d   1      -0.123  -1.857  -1.366  0.00  0.00    -0.096 F 
ATOM     11  F3  UNL d   1       0.456  -1.556  -3.995  0.00  0.00    -0.097 F 
ATOM     12  F4  UNL d   1       1.341   0.843  -4.946  0.00  0.00    -0.092 F 
ENDROOT
TORSDOF 0
ENDMDL
