MODEL 1
REMARK minimizedAffinity -1.81539845
REMARK minimizedRMSD -1
REMARK  1 active torsions:
REMARK  status: ('A' for Active; 'I' for Inactive)
REMARK    1  A    between atoms: C1_2  and  C2_3 
ROOT
ATOM      1  C2  UNL d   1      -0.759   0.816  -1.501  0.00  0.00    -0.073 A 
ATOM      2  C3  UNL d   1      -1.461   0.601  -0.310  0.00  0.00    -0.002 A 
ATOM      3  C4  UNL d   1      -0.898  -0.164   0.712  0.00  0.00     0.004 A 
ATOM      4  C5  UNL d   1       0.374  -0.715   0.557  0.00  0.00    -0.004 A 
ATOM      5  C6  UNL d   1       1.097  -0.501  -0.621  0.00  0.00    -0.075 A 
ATOM      6  C7  UNL d   1       2.465  -1.088  -0.804  0.00  0.00     0.076 C 
ATOM      7  C8  UNL d   1       0.523   0.266  -1.644  0.00  0.00     0.001 A 
ENDROOT
BRANCH   1   8
ATOM      8  C1  UNL d   1      -1.361   1.646  -2.605  0.00  0.00     0.053 C 
ATOM      9  C   UNL d   1      -0.495   2.847  -2.952  0.00  0.00     0.018 C 
ENDBRANCH   1   8
TORSDOF 1
ENDMDL
