MODEL 1
REMARK minimizedAffinity -3.42973399
REMARK minimizedRMSD -1
REMARK  1 active torsions:
REMARK  status: ('A' for Active; 'I' for Inactive)
REMARK    1  A    between atoms: C1_2  and  C2_3 
ROOT
ATOM      1  C2  UNL d   1      -0.239   0.325  -0.737  0.00  0.00    -0.073 A 
ATOM      2  C3  UNL d   1       0.869  -0.242  -1.378  0.00  0.00    -0.002 A 
ATOM      3  C4  UNL d   1       1.829  -0.937  -0.641  0.00  0.00     0.004 A 
ATOM      4  C5  UNL d   1       1.689  -1.077   0.739  0.00  0.00    -0.004 A 
ATOM      5  C6  UNL d   1       0.583  -0.528   1.395  0.00  0.00    -0.075 A 
ATOM      6  C7  UNL d   1       0.419  -0.668   2.880  0.00  0.00     0.076 C 
ATOM      7  C8  UNL d   1      -0.376   0.171   0.650  0.00  0.00     0.001 A 
ENDROOT
BRANCH   1   8
ATOM      8  C1  UNL d   1      -1.282   1.071  -1.529  0.00  0.00     0.053 C 
ATOM      9  C   UNL d   1      -0.781   2.429  -1.996  0.00  0.00     0.018 C 
ENDBRANCH   1   8
TORSDOF 1
ENDMDL
