MODEL 1
REMARK minimizedAffinity -3.50576353
REMARK minimizedRMSD -1
REMARK  1 active torsions:
REMARK  status: ('A' for Active; 'I' for Inactive)
REMARK    1  A    between atoms: C1_2  and  C2_3 
ROOT
ATOM      1  C2  UNL d   1       0.589  -0.806  -0.373  0.00  0.00    -0.073 A 
ATOM      2  C3  UNL d   1      -0.761  -0.439  -0.361  0.00  0.00    -0.002 A 
ATOM      3  C4  UNL d   1      -1.390  -0.100   0.838  0.00  0.00     0.004 A 
ATOM      4  C5  UNL d   1      -0.674  -0.118   2.035  0.00  0.00    -0.004 A 
ATOM      5  C6  UNL d   1       0.680  -0.470   2.042  0.00  0.00    -0.075 A 
ATOM      6  C7  UNL d   1       1.464  -0.496   3.322  0.00  0.00     0.076 C 
ATOM      7  C8  UNL d   1       1.303  -0.812   0.834  0.00  0.00     0.001 A 
ENDROOT
BRANCH   1   8
ATOM      8  C1  UNL d   1       1.273  -1.166  -1.666  0.00  0.00     0.053 C 
ATOM      9  C   UNL d   1       2.612  -1.848  -1.432  0.00  0.00     0.018 C 
ENDBRANCH   1   8
TORSDOF 1
ENDMDL
