MODEL 1
REMARK minimizedAffinity -5.71724272
REMARK minimizedRMSD -1
REMARK  1 active torsions:
REMARK  status: ('A' for Active; 'I' for Inactive)
REMARK    1  A    between atoms: C1_2  and  C2_3 
ROOT
ATOM      1  C2  UNL d   1       0.473  -0.387  -0.543  0.00  0.00    -0.073 A 
ATOM      2  C3  UNL d   1       1.618  -1.159  -0.774  0.00  0.00    -0.002 A 
ATOM      3  C4  UNL d   1       2.265  -1.795   0.286  0.00  0.00     0.004 A 
ATOM      4  C5  UNL d   1       1.772  -1.672   1.585  0.00  0.00    -0.004 A 
ATOM      5  C6  UNL d   1       0.622  -0.915   1.835  0.00  0.00    -0.075 A 
ATOM      6  C7  UNL d   1       0.080  -0.771   3.226  0.00  0.00     0.076 C 
ATOM      7  C8  UNL d   1      -0.020  -0.277   0.765  0.00  0.00     0.001 A 
ENDROOT
BRANCH   1   8
ATOM      8  C1  UNL d   1      -0.233   0.296  -1.685  0.00  0.00     0.053 C 
ATOM      9  C   UNL d   1       0.162   1.760  -1.805  0.00  0.00     0.018 C 
ENDBRANCH   1   8
TORSDOF 1
ENDMDL
