MODEL 1
REMARK minimizedAffinity -1.05503333
REMARK minimizedRMSD -1
REMARK  1 active torsions:
REMARK  status: ('A' for Active; 'I' for Inactive)
REMARK    1  A    between atoms: C1_2  and  C2_3 
ROOT
ATOM      1  C2  UNL d   1      -2.467   1.738  -2.949  0.00  0.00    -0.073 A 
ATOM      2  C3  UNL d   1      -1.128   2.133  -3.050  0.00  0.00    -0.002 A 
ATOM      3  C4  UNL d   1      -0.790   3.487  -3.062  0.00  0.00     0.004 A 
ATOM      4  C5  UNL d   1      -1.786   4.459  -2.966  0.00  0.00    -0.004 A 
ATOM      5  C6  UNL d   1      -3.129   4.085  -2.852  0.00  0.00    -0.075 A 
ATOM      6  C7  UNL d   1      -4.212   5.118  -2.750  0.00  0.00     0.076 C 
ATOM      7  C8  UNL d   1      -3.460   2.723  -2.844  0.00  0.00     0.001 A 
ENDROOT
BRANCH   1   8
ATOM      8  C1  UNL d   1      -2.835   0.277  -2.930  0.00  0.00     0.053 C 
ATOM      9  C   UNL d   1      -1.821  -0.556  -2.162  0.00  0.00     0.018 C 
ENDBRANCH   1   8
TORSDOF 1
ENDMDL
