MODEL 1
REMARK minimizedAffinity -3.53450584
REMARK minimizedRMSD -1
REMARK  1 active torsions:
REMARK  status: ('A' for Active; 'I' for Inactive)
REMARK    1  A    between atoms: C1_2  and  C2_3 
ROOT
ATOM      1  C2  UNL d   1       0.143   0.157   0.015  0.00  0.00    -0.073 A 
ATOM      2  C3  UNL d   1      -1.220   0.087   0.325  0.00  0.00    -0.002 A 
ATOM      3  C4  UNL d   1      -1.636  -0.378   1.573  0.00  0.00     0.004 A 
ATOM      4  C5  UNL d   1      -0.695  -0.771   2.525  0.00  0.00    -0.004 A 
ATOM      5  C6  UNL d   1       0.671  -0.697   2.238  0.00  0.00    -0.075 A 
ATOM      6  C7  UNL d   1       1.696  -1.118   3.250  0.00  0.00     0.076 C 
ATOM      7  C8  UNL d   1       1.081  -0.231   0.981  0.00  0.00     0.001 A 
ENDROOT
BRANCH   1   8
ATOM      8  C1  UNL d   1       0.597   0.665  -1.330  0.00  0.00     0.053 C 
ATOM      9  C   UNL d   1      -0.245   1.836  -1.810  0.00  0.00     0.018 C 
ENDBRANCH   1   8
TORSDOF 1
ENDMDL
