MODEL 1
REMARK minimizedAffinity 3.48673415
REMARK minimizedRMSD -1
REMARK  2 active torsions:
REMARK  status: ('A' for Active; 'I' for Inactive)
REMARK    1  A    between atoms: C1_2  and  C2_3 
REMARK    2  A    between atoms: C2_3  and  C3_4 
ROOT
ATOM      1  C3  UNL d   1      -0.810   0.436  -1.759  0.00  0.00    -0.075 A 
ATOM      2  C4  UNL d   1      -0.364   1.667  -1.255  0.00  0.00     0.002 A 
ATOM      3  C5  UNL d   1      -0.365   2.805  -2.061  0.00  0.00     0.002 A 
ATOM      4  C6  UNL d   1      -0.802   2.727  -3.382  0.00  0.00    -0.004 A 
ATOM      5  C7  UNL d   1      -1.232   1.507  -3.898  0.00  0.00     0.002 A 
ATOM      6  C8  UNL d   1      -1.235   0.366  -3.093  0.00  0.00     0.002 A 
ENDROOT
BRANCH   1   7
ATOM      7  C2  UNL d   1      -0.838  -0.793  -0.883  0.00  0.00     0.056 C 
BRANCH   7   8
ATOM      8  C1  UNL d   1       0.527  -1.466  -0.709  0.00  0.00     0.007 C 
ATOM      9  C   UNL d   1       0.701  -2.127   0.652  0.00  0.00     0.009 C 
ENDBRANCH   7   8
ENDBRANCH   1   7
TORSDOF 2
ENDMDL
