MODEL 1
REMARK minimizedAffinity 5.18831682
REMARK minimizedRMSD -1
REMARK  2 active torsions:
REMARK  status: ('A' for Active; 'I' for Inactive)
REMARK    1  A    between atoms: C1_2  and  C2_3 
REMARK    2  A    between atoms: C2_3  and  C3_4 
ROOT
ATOM      1  C3  UNL d   1      -2.094  -0.666   2.430  0.00  0.00    -0.075 A 
ATOM      2  C4  UNL d   1      -2.338  -1.062   1.107  0.00  0.00     0.002 A 
ATOM      3  C5  UNL d   1      -3.236  -0.353   0.309  0.00  0.00     0.002 A 
ATOM      4  C6  UNL d   1      -3.909   0.752   0.825  0.00  0.00    -0.004 A 
ATOM      5  C7  UNL d   1      -3.687   1.145   2.143  0.00  0.00     0.002 A 
ATOM      6  C8  UNL d   1      -2.785   0.440   2.943  0.00  0.00     0.002 A 
ENDROOT
BRANCH   1   7
ATOM      7  C2  UNL d   1      -1.101  -1.411   3.289  0.00  0.00     0.056 C 
BRANCH   7   8
ATOM      8  C1  UNL d   1       0.334  -1.380   2.753  0.00  0.00     0.007 C 
ATOM      9  C   UNL d   1       0.677  -2.583   1.885  0.00  0.00     0.009 C 
ENDBRANCH   7   8
ENDBRANCH   1   7
TORSDOF 2
ENDMDL
