MODEL 1
REMARK minimizedAffinity 3.90181422
REMARK minimizedRMSD -1
REMARK  2 active torsions:
REMARK  status: ('A' for Active; 'I' for Inactive)
REMARK    1  A    between atoms: C1_2  and  C2_3 
REMARK    2  A    between atoms: C2_3  and  C3_4 
ROOT
ATOM      1  C3  UNL d   1       0.733  -1.848   2.235  0.00  0.00    -0.075 A 
ATOM      2  C4  UNL d   1      -0.631  -2.173   2.252  0.00  0.00     0.002 A 
ATOM      3  C5  UNL d   1      -1.567  -1.273   2.764  0.00  0.00     0.002 A 
ATOM      4  C6  UNL d   1      -1.151  -0.045   3.272  0.00  0.00    -0.004 A 
ATOM      5  C7  UNL d   1       0.203   0.281   3.276  0.00  0.00     0.002 A 
ATOM      6  C8  UNL d   1       1.141  -0.615   2.761  0.00  0.00     0.002 A 
ENDROOT
BRANCH   1   7
ATOM      7  C2  UNL d   1       1.748  -2.805   1.656  0.00  0.00     0.056 C 
BRANCH   7   8
ATOM      8  C1  UNL d   1       2.472  -2.271   0.416  0.00  0.00     0.007 C 
ATOM      9  C   UNL d   1       1.531  -1.646  -0.606  0.00  0.00     0.009 C 
ENDBRANCH   7   8
ENDBRANCH   1   7
TORSDOF 2
ENDMDL
