MODEL 1
REMARK minimizedAffinity 4.74951029
REMARK minimizedRMSD -1
REMARK  2 active torsions:
REMARK  status: ('A' for Active; 'I' for Inactive)
REMARK    1  A    between atoms: C1_2  and  C2_3 
REMARK    2  A    between atoms: C2_3  and  C3_4 
ROOT
ATOM      1  C3  UNL d   1      -0.953  -1.080   3.074  0.00  0.00    -0.075 A 
ATOM      2  C4  UNL d   1      -0.919  -0.135   4.110  0.00  0.00     0.002 A 
ATOM      3  C5  UNL d   1      -1.858   0.895   4.161  0.00  0.00     0.002 A 
ATOM      4  C6  UNL d   1      -2.834   1.001   3.173  0.00  0.00    -0.004 A 
ATOM      5  C7  UNL d   1      -2.868   0.078   2.130  0.00  0.00     0.002 A 
ATOM      6  C8  UNL d   1      -1.932  -0.957   2.079  0.00  0.00     0.002 A 
ENDROOT
BRANCH   1   7
ATOM      7  C2  UNL d   1       0.042  -2.215   3.030  0.00  0.00     0.056 C 
BRANCH   7   8
ATOM      8  C1  UNL d   1       1.067  -2.102   1.897  0.00  0.00     0.007 C 
ATOM      9  C   UNL d   1       1.885  -3.371   1.698  0.00  0.00     0.009 C 
ENDBRANCH   7   8
ENDBRANCH   1   7
TORSDOF 2
ENDMDL
