MODEL 1
REMARK minimizedAffinity 1.13528836
REMARK minimizedRMSD -1
REMARK  2 active torsions:
REMARK  status: ('A' for Active; 'I' for Inactive)
REMARK    1  A    between atoms: C1_2  and  C2_3 
REMARK    2  A    between atoms: C2_3  and  C3_4 
ROOT
ATOM      1  C3  UNL d   1      -0.434  -1.525   3.028  0.00  0.00    -0.075 A 
ATOM      2  C4  UNL d   1      -1.732  -1.055   2.781  0.00  0.00     0.002 A 
ATOM      3  C5  UNL d   1      -2.049   0.289   2.981  0.00  0.00     0.002 A 
ATOM      4  C6  UNL d   1      -1.077   1.176   3.439  0.00  0.00    -0.004 A 
ATOM      5  C7  UNL d   1       0.212   0.717   3.703  0.00  0.00     0.002 A 
ATOM      6  C8  UNL d   1       0.532  -0.626   3.500  0.00  0.00     0.002 A 
ENDROOT
BRANCH   1   7
ATOM      7  C2  UNL d   1      -0.077  -2.972   2.785  0.00  0.00     0.056 C 
BRANCH   7   8
ATOM      8  C1  UNL d   1       0.804  -3.199   1.552  0.00  0.00     0.007 C 
ATOM      9  C   UNL d   1       1.055  -4.672   1.257  0.00  0.00     0.009 C 
ENDBRANCH   7   8
ENDBRANCH   1   7
TORSDOF 2
ENDMDL
