MODEL 1
REMARK minimizedAffinity 6.22672844
REMARK minimizedRMSD -1
REMARK  2 active torsions:
REMARK  status: ('A' for Active; 'I' for Inactive)
REMARK    1  A    between atoms: C1_2  and  C2_3 
REMARK    2  A    between atoms: C2_3  and  C3_4 
ROOT
ATOM      1  C3  UNL d   1      -0.121  -0.959  -0.029  0.00  0.00    -0.075 A 
ATOM      2  C4  UNL d   1       1.127  -1.550  -0.272  0.00  0.00     0.002 A 
ATOM      3  C5  UNL d   1       1.754  -2.313   0.713  0.00  0.00     0.002 A 
ATOM      4  C6  UNL d   1       1.146  -2.486   1.955  0.00  0.00    -0.004 A 
ATOM      5  C7  UNL d   1      -0.086  -1.890   2.213  0.00  0.00     0.002 A 
ATOM      6  C8  UNL d   1      -0.717  -1.130   1.227  0.00  0.00     0.002 A 
ENDROOT
BRANCH   1   7
ATOM      7  C2  UNL d   1      -0.818  -0.157  -1.102  0.00  0.00     0.056 C 
BRANCH   7   8
ATOM      8  C1  UNL d   1      -0.467   1.335  -1.093  0.00  0.00     0.007 C 
ATOM      9  C   UNL d   1      -1.146   2.118  -2.208  0.00  0.00     0.009 C 
ENDBRANCH   7   8
ENDBRANCH   1   7
TORSDOF 2
ENDMDL
