MODEL 1
REMARK minimizedAffinity 7.83914757
REMARK minimizedRMSD -1
REMARK  0 active torsions:
REMARK  status: ('A' for Active; 'I' for Inactive)
ROOT
ATOM      1  C   UNL d   1      -4.902   6.000   3.120  0.00  0.00     0.172 C 
ATOM      2  N   UNL d   1      -4.935   5.756   1.697  0.00  0.00    -0.070 N 
ATOM      3  C1  UNL d   1      -5.998   6.000   0.869  0.00  0.00    -0.004 A 
ATOM      4  C2  UNL d   1      -5.631   5.635  -0.408  0.00  0.00    -0.047 A 
ATOM      5  C3  UNL d   1      -4.301   5.155  -0.346  0.00  0.00    -0.047 A 
ATOM      6  C4  UNL d   1      -3.895   5.240   0.969  0.00  0.00    -0.004 A 
ENDROOT
TORSDOF 0
ENDMDL
