MODEL 1
REMARK minimizedAffinity 7.22882128
REMARK minimizedRMSD -1
REMARK  0 active torsions:
REMARK  status: ('A' for Active; 'I' for Inactive)
ROOT
ATOM      1  C   UNL d   1      -3.559  -2.742   5.266  0.00  0.00     0.172 C 
ATOM      2  N   UNL d   1      -2.269  -3.352   5.044  0.00  0.00    -0.070 N 
ATOM      3  C1  UNL d   1      -1.495  -3.955   5.999  0.00  0.00    -0.004 A 
ATOM      4  C2  UNL d   1      -0.346  -4.408   5.388  0.00  0.00    -0.047 A 
ATOM      5  C3  UNL d   1      -0.431  -4.063   4.018  0.00  0.00    -0.047 A 
ATOM      6  C4  UNL d   1      -1.631  -3.410   3.832  0.00  0.00    -0.004 A 
ENDROOT
TORSDOF 0
ENDMDL
