MODEL 1
REMARK minimizedAffinity 0.928422809
REMARK minimizedRMSD -1
REMARK  0 active torsions:
REMARK  status: ('A' for Active; 'I' for Inactive)
ROOT
ATOM      1  C   UNL d   1       1.538  -3.362  -2.666  0.00  0.00     0.172 C 
ATOM      2  N   UNL d   1       1.753  -2.876  -4.008  0.00  0.00    -0.070 N 
ATOM      3  C1  UNL d   1       0.816  -2.262  -4.795  0.00  0.00    -0.004 A 
ATOM      4  C2  UNL d   1       1.413  -1.951  -5.998  0.00  0.00    -0.047 A 
ATOM      5  C3  UNL d   1       2.755  -2.394  -5.932  0.00  0.00    -0.047 A 
ATOM      6  C4  UNL d   1       2.939  -2.964  -4.689  0.00  0.00    -0.004 A 
ENDROOT
TORSDOF 0
ENDMDL
