MODEL 1
REMARK minimizedAffinity 9.16634178
REMARK minimizedRMSD -1
REMARK  0 active torsions:
REMARK  status: ('A' for Active; 'I' for Inactive)
ROOT
ATOM      1  C   UNL d   1      -4.807   5.991   3.254  0.00  0.00     0.172 C 
ATOM      2  N   UNL d   1      -4.828   5.867   1.816  0.00  0.00    -0.070 N 
ATOM      3  C1  UNL d   1      -3.743   5.607   1.021  0.00  0.00    -0.004 A 
ATOM      4  C2  UNL d   1      -4.178   5.568  -0.286  0.00  0.00    -0.047 A 
ATOM      5  C3  UNL d   1      -5.571   5.813  -0.277  0.00  0.00    -0.047 A 
ATOM      6  C4  UNL d   1      -5.948   5.996   1.037  0.00  0.00    -0.004 A 
ENDROOT
TORSDOF 0
ENDMDL
