MODEL 1
REMARK minimizedAffinity 14.1332951
REMARK minimizedRMSD -1
REMARK  0 active torsions:
REMARK  status: ('A' for Active; 'I' for Inactive)
ROOT
ATOM      1  C   UNL d   1      -0.303   5.845  -4.277  0.00  0.00     0.172 C 
ATOM      2  N   UNL d   1      -0.938   4.554  -4.157  0.00  0.00    -0.070 N 
ATOM      3  C1  UNL d   1      -1.851   4.200  -3.200  0.00  0.00    -0.004 A 
ATOM      4  C2  UNL d   1      -2.216   2.891  -3.429  0.00  0.00    -0.047 A 
ATOM      5  C3  UNL d   1      -1.498   2.443  -4.563  0.00  0.00    -0.047 A 
ATOM      6  C4  UNL d   1      -0.714   3.493  -4.994  0.00  0.00    -0.004 A 
ENDROOT
TORSDOF 0
ENDMDL
