MODEL 1
REMARK minimizedAffinity 4.29563284
REMARK minimizedRMSD -1
REMARK  0 active torsions:
REMARK  status: ('A' for Active; 'I' for Inactive)
ROOT
ATOM      1  C   UNL d   1      -1.140   2.080   0.545  0.00  0.00     0.172 C 
ATOM      2  N   UNL d   1      -1.512   1.157   1.592  0.00  0.00    -0.070 N 
ATOM      3  C1  UNL d   1      -2.789   0.909   2.021  0.00  0.00    -0.004 A 
ATOM      4  C2  UNL d   1      -2.720  -0.029   3.028  0.00  0.00    -0.047 A 
ATOM      5  C3  UNL d   1      -1.356  -0.355   3.211  0.00  0.00    -0.047 A 
ATOM      6  C4  UNL d   1      -0.630   0.393   2.309  0.00  0.00    -0.004 A 
ENDROOT
TORSDOF 0
ENDMDL
