MODEL 1
REMARK minimizedAffinity 5.97565699
REMARK minimizedRMSD -1
REMARK  0 active torsions:
REMARK  status: ('A' for Active; 'I' for Inactive)
ROOT
ATOM      1  C   UNL d   1      -4.867   5.942   4.581  0.00  0.00     0.172 C 
ATOM      2  N   UNL d   1      -4.879   5.965   3.137  0.00  0.00    -0.070 N 
ATOM      3  C1  UNL d   1      -5.999   5.977   2.348  0.00  0.00    -0.004 A 
ATOM      4  C2  UNL d   1      -5.588   5.999   1.033  0.00  0.00    -0.047 A 
ATOM      5  C3  UNL d   1      -4.172   6.000   1.031  0.00  0.00    -0.047 A 
ATOM      6  C4  UNL d   1      -3.760   5.978   2.347  0.00  0.00    -0.004 A 
ENDROOT
TORSDOF 0
ENDMDL
