MODEL 1
REMARK minimizedAffinity 8.83078671
REMARK minimizedRMSD -1
REMARK  0 active torsions:
REMARK  status: ('A' for Active; 'I' for Inactive)
ROOT
ATOM      1  C   UNL d   1      -5.108   6.000   3.188  0.00  0.00     0.172 C 
ATOM      2  N   UNL d   1      -4.909   5.961   1.759  0.00  0.00    -0.070 N 
ATOM      3  C1  UNL d   1      -5.899   5.998   0.813  0.00  0.00    -0.004 A 
ATOM      4  C2  UNL d   1      -5.301   5.941  -0.427  0.00  0.00    -0.047 A 
ATOM      5  C3  UNL d   1      -3.903   5.865  -0.220  0.00  0.00    -0.047 A 
ATOM      6  C4  UNL d   1      -3.688   5.879   1.142  0.00  0.00    -0.004 A 
ENDROOT
TORSDOF 0
ENDMDL
