MODEL 1
REMARK minimizedAffinity 7.40970707
REMARK minimizedRMSD -1
REMARK  0 active torsions:
REMARK  status: ('A' for Active; 'I' for Inactive)
ROOT
ATOM      1  C   UNL d   1       1.499  -4.343  -5.442  0.00  0.00     0.172 C 
ATOM      2  N   UNL d   1       1.742  -4.747  -4.077  0.00  0.00    -0.070 N 
ATOM      3  C1  UNL d   1       2.245  -3.947  -3.086  0.00  0.00    -0.004 A 
ATOM      4  C2  UNL d   1       2.326  -4.701  -1.935  0.00  0.00    -0.047 A 
ATOM      5  C3  UNL d   1       1.857  -6.000  -2.246  0.00  0.00    -0.047 A 
ATOM      6  C4  UNL d   1       1.503  -6.000  -3.579  0.00  0.00    -0.004 A 
ENDROOT
TORSDOF 0
ENDMDL
