MODEL 1
REMARK minimizedAffinity 3.40587044
REMARK minimizedRMSD -1
REMARK  0 active torsions:
REMARK  status: ('A' for Active; 'I' for Inactive)
ROOT
ATOM      1  C   UNL d   1      -4.803  -1.932   0.061  0.00  0.00     0.172 C 
ATOM      2  N   UNL d   1      -5.009  -2.877   1.134  0.00  0.00    -0.070 N 
ATOM      3  C1  UNL d   1      -6.000  -3.821   1.185  0.00  0.00    -0.004 A 
ATOM      4  C2  UNL d   1      -5.855  -4.520   2.364  0.00  0.00    -0.047 A 
ATOM      5  C3  UNL d   1      -4.739  -3.977   3.045  0.00  0.00    -0.047 A 
ATOM      6  C4  UNL d   1      -4.235  -2.961   2.261  0.00  0.00    -0.004 A 
ENDROOT
TORSDOF 0
ENDMDL
