MODEL 1
REMARK minimizedAffinity 0.821465075
REMARK minimizedRMSD -1
REMARK  0 active torsions:
REMARK  status: ('A' for Active; 'I' for Inactive)
ROOT
ATOM      1  C   UNL d   1      -0.513   1.952   1.374  0.00  0.00     0.172 C 
ATOM      2  N   UNL d   1      -0.364   2.921   0.314  0.00  0.00    -0.070 N 
ATOM      3  C1  UNL d   1      -0.263   4.276   0.479  0.00  0.00    -0.004 A 
ATOM      4  C2  UNL d   1      -0.134   4.845  -0.770  0.00  0.00    -0.047 A 
ATOM      5  C3  UNL d   1      -0.160   3.795  -1.718  0.00  0.00    -0.047 A 
ATOM      6  C4  UNL d   1      -0.303   2.615  -1.020  0.00  0.00    -0.004 A 
ENDROOT
TORSDOF 0
ENDMDL
