MODEL 1
REMARK minimizedAffinity 2.27528358
REMARK minimizedRMSD -1
REMARK  0 active torsions:
REMARK  status: ('A' for Active; 'I' for Inactive)
ROOT
ATOM      1  C   UNL d   1      -0.756   2.267   0.817  0.00  0.00     0.172 C 
ATOM      2  N   UNL d   1      -0.450   3.519   0.167  0.00  0.00    -0.070 N 
ATOM      3  C1  UNL d   1      -0.692   4.765   0.680  0.00  0.00    -0.004 A 
ATOM      4  C2  UNL d   1      -0.257   5.693  -0.241  0.00  0.00    -0.047 A 
ATOM      5  C3  UNL d   1       0.264   4.980  -1.347  0.00  0.00    -0.047 A 
ATOM      6  C4  UNL d   1       0.132   3.636  -1.068  0.00  0.00    -0.004 A 
ENDROOT
TORSDOF 0
ENDMDL
