MODEL 1
REMARK minimizedAffinity -2.01181626
REMARK minimizedRMSD -1
REMARK  0 active torsions:
REMARK  status: ('A' for Active; 'I' for Inactive)
ROOT
ATOM      1  C   UNL d   1      -0.552   2.500   0.332  0.00  0.00     0.172 C 
ATOM      2  N   UNL d   1      -1.163   1.827   1.454  0.00  0.00    -0.070 N 
ATOM      3  C1  UNL d   1      -2.504   1.790   1.730  0.00  0.00    -0.004 A 
ATOM      4  C2  UNL d   1      -2.678   1.051   2.880  0.00  0.00    -0.047 A 
ATOM      5  C3  UNL d   1      -1.397   0.630   3.311  0.00  0.00    -0.047 A 
ATOM      6  C4  UNL d   1      -0.478   1.125   2.410  0.00  0.00    -0.004 A 
ENDROOT
TORSDOF 0
ENDMDL
