MODEL 1
REMARK minimizedAffinity 11.9213572
REMARK minimizedRMSD -1
REMARK  0 active torsions:
REMARK  status: ('A' for Active; 'I' for Inactive)
ROOT
ATOM      1  C   UNL d   1      -4.126   5.736  -3.591  0.00  0.00     0.172 C 
ATOM      2  N   UNL d   1      -2.872   5.094  -3.277  0.00  0.00    -0.070 N 
ATOM      3  C1  UNL d   1      -1.680   5.733  -3.058  0.00  0.00    -0.004 A 
ATOM      4  C2  UNL d   1      -0.729   4.772  -2.789  0.00  0.00    -0.047 A 
ATOM      5  C3  UNL d   1      -1.371   3.512  -2.850  0.00  0.00    -0.047 A 
ATOM      6  C4  UNL d   1      -2.697   3.741  -3.153  0.00  0.00    -0.004 A 
ENDROOT
TORSDOF 0
ENDMDL
