MODEL 1
REMARK minimizedAffinity 4.68976355
REMARK minimizedRMSD -1
REMARK  0 active torsions:
REMARK  status: ('A' for Active; 'I' for Inactive)
ROOT
ATOM      1  C   UNL d   1      -0.306   1.800   0.176  0.00  0.00     0.172 C 
ATOM      2  N   UNL d   1      -0.297   3.086  -0.479  0.00  0.00    -0.070 N 
ATOM      3  C1  UNL d   1      -0.748   3.340  -1.747  0.00  0.00    -0.004 A 
ATOM      4  C2  UNL d   1      -0.567   4.683  -1.999  0.00  0.00    -0.047 A 
ATOM      5  C3  UNL d   1       0.014   5.256  -0.843  0.00  0.00    -0.047 A 
ATOM      6  C4  UNL d   1       0.171   4.245   0.082  0.00  0.00    -0.004 A 
ENDROOT
TORSDOF 0
ENDMDL
