MODEL 1
REMARK minimizedAffinity 4.54994392
REMARK minimizedRMSD -1
REMARK  0 active torsions:
REMARK  status: ('A' for Active; 'I' for Inactive)
ROOT
ATOM      1  C   UNL d   1      -1.411   3.540  -2.871  0.00  0.00     0.172 C 
ATOM      2  N   UNL d   1      -0.623   3.709  -1.673  0.00  0.00    -0.070 N 
ATOM      3  C1  UNL d   1      -0.040   4.877  -1.259  0.00  0.00    -0.004 A 
ATOM      4  C2  UNL d   1       0.620   4.623  -0.076  0.00  0.00    -0.047 A 
ATOM      5  C3  UNL d   1       0.429   3.255   0.230  0.00  0.00    -0.047 A 
ATOM      6  C4  UNL d   1      -0.345   2.713  -0.775  0.00  0.00    -0.004 A 
ENDROOT
TORSDOF 0
ENDMDL
