MODEL 1
REMARK minimizedAffinity -0.176657468
REMARK minimizedRMSD -1
REMARK  0 active torsions:
REMARK  status: ('A' for Active; 'I' for Inactive)
ROOT
ATOM      1  C   UNL d   1      -0.857   2.186   0.586  0.00  0.00     0.172 C 
ATOM      2  N   UNL d   1      -0.395   3.336  -0.155  0.00  0.00    -0.070 N 
ATOM      3  C1  UNL d   1       0.290   4.400   0.368  0.00  0.00    -0.004 A 
ATOM      4  C2  UNL d   1       0.547   5.283  -0.659  0.00  0.00    -0.047 A 
ATOM      5  C3  UNL d   1      -0.003   4.731  -1.840  0.00  0.00    -0.047 A 
ATOM      6  C4  UNL d   1      -0.581   3.526  -1.499  0.00  0.00    -0.004 A 
ENDROOT
TORSDOF 0
ENDMDL
