MODEL 1
REMARK minimizedAffinity 3.32209349
REMARK minimizedRMSD -1
REMARK  0 active torsions:
REMARK  status: ('A' for Active; 'I' for Inactive)
ROOT
ATOM      1  C   UNL d   1      -0.389   2.899  -2.592  0.00  0.00     0.172 C 
ATOM      2  N   UNL d   1      -0.140   3.414  -1.267  0.00  0.00    -0.070 N 
ATOM      3  C1  UNL d   1       0.277   4.684  -0.969  0.00  0.00    -0.004 A 
ATOM      4  C2  UNL d   1       0.397   4.779   0.400  0.00  0.00    -0.047 A 
ATOM      5  C3  UNL d   1       0.041   3.522   0.945  0.00  0.00    -0.047 A 
ATOM      6  C4  UNL d   1      -0.287   2.696  -0.109  0.00  0.00    -0.004 A 
ENDROOT
TORSDOF 0
ENDMDL
