MODEL 1
REMARK minimizedAffinity 14.7980175
REMARK minimizedRMSD -1
REMARK  0 active torsions:
REMARK  status: ('A' for Active; 'I' for Inactive)
ROOT
ATOM      1  O1  BZF d   1      -5.916   5.647   2.357  0.00  0.00    -0.204 OA
ATOM      2  C2  BZF d   1      -5.972   4.527   1.551  0.00  0.00     0.174 A 
ATOM      3  C3  BZF d   1      -5.958   3.402   2.294  0.00  0.00    -0.012 A 
ATOM      4  C3A BZF d   1      -5.983   3.848   3.653  0.00  0.00    -0.107 A 
ATOM      5  C4  BZF d   1      -5.999   3.198   4.854  0.00  0.00     0.055 A 
ATOM      6  C5  BZF d   1      -5.947   3.927   6.000  0.00  0.00    -0.016 A 
ATOM      7  C6  BZF d   1      -5.874   5.305   5.981  0.00  0.00     0.022 A 
ATOM      8  C7  BZF d   1      -5.861   5.994   4.814  0.00  0.00     0.029 A 
ATOM      9  C7A BZF d   1      -5.946   5.261   3.655  0.00  0.00     0.058 A 
ENDROOT
TORSDOF 0
ENDMDL
