MODEL 1
REMARK minimizedAffinity 13.9828634
REMARK minimizedRMSD -1
REMARK  0 active torsions:
REMARK  status: ('A' for Active; 'I' for Inactive)
ROOT
ATOM      1  O1  BZF d   1      -5.997   0.458  -0.218  0.00  0.00    -0.204 OA
ATOM      2  C2  BZF d   1      -4.999   0.473   0.737  0.00  0.00     0.174 A 
ATOM      3  C3  BZF d   1      -3.784   0.364   0.161  0.00  0.00    -0.012 A 
ATOM      4  C3A BZF d   1      -4.033   0.368  -1.248  0.00  0.00    -0.107 A 
ATOM      5  C4  BZF d   1      -3.223   0.301  -2.345  0.00  0.00     0.055 A 
ATOM      6  C5  BZF d   1      -3.786   0.253  -3.580  0.00  0.00    -0.016 A 
ATOM      7  C6  BZF d   1      -5.155   0.266  -3.755  0.00  0.00     0.022 A 
ATOM      8  C7  BZF d   1      -5.999   0.336  -2.697  0.00  0.00     0.029 A 
ATOM      9  C7A BZF d   1      -5.432   0.417  -1.449  0.00  0.00     0.058 A 
ENDROOT
TORSDOF 0
ENDMDL
