MODEL 1
REMARK minimizedAffinity 4.75926208
REMARK minimizedRMSD -1
REMARK  0 active torsions:
REMARK  status: ('A' for Active; 'I' for Inactive)
ROOT
ATOM      1  O1  BZF d   1       2.878   0.500  -1.450  0.00  0.00    -0.204 OA
ATOM      2  C2  BZF d   1       2.252  -0.117  -0.384  0.00  0.00     0.174 A 
ATOM      3  C3  BZF d   1       2.846   0.218   0.779  0.00  0.00    -0.012 A 
ATOM      4  C3A BZF d   1       3.853   1.172   0.426  0.00  0.00    -0.107 A 
ATOM      5  C4  BZF d   1       4.766   1.884   1.150  0.00  0.00     0.055 A 
ATOM      6  C5  BZF d   1       5.655   2.676   0.495  0.00  0.00    -0.016 A 
ATOM      7  C6  BZF d   1       5.662   2.776  -0.881  0.00  0.00     0.022 A 
ATOM      8  C7  BZF d   1       4.772   2.093  -1.641  0.00  0.00     0.029 A 
ATOM      9  C7A BZF d   1       3.851   1.317  -0.980  0.00  0.00     0.058 A 
ENDROOT
TORSDOF 0
ENDMDL
