MODEL 1
REMARK minimizedAffinity 17.3789291
REMARK minimizedRMSD -1
REMARK  0 active torsions:
REMARK  status: ('A' for Active; 'I' for Inactive)
ROOT
ATOM      1  O1  BZF d   1       5.315   5.538  -1.749  0.00  0.00    -0.204 OA
ATOM      2  C2  BZF d   1       5.998   5.972  -2.869  0.00  0.00     0.174 A 
ATOM      3  C3  BZF d   1       6.000   5.022  -3.826  0.00  0.00    -0.012 A 
ATOM      4  C3A BZF d   1       5.194   3.961  -3.305  0.00  0.00    -0.107 A 
ATOM      5  C4  BZF d   1       4.806   2.747  -3.796  0.00  0.00     0.055 A 
ATOM      6  C5  BZF d   1       4.078   1.916  -3.005  0.00  0.00    -0.016 A 
ATOM      7  C6  BZF d   1       3.725   2.264  -1.718  0.00  0.00     0.022 A 
ATOM      8  C7  BZF d   1       4.082   3.459  -1.188  0.00  0.00     0.029 A 
ATOM      9  C7A BZF d   1       4.789   4.315  -1.997  0.00  0.00     0.058 A 
ENDROOT
TORSDOF 0
ENDMDL
