MODEL 1
REMARK minimizedAffinity 10.8786659
REMARK minimizedRMSD -1
REMARK  0 active torsions:
REMARK  status: ('A' for Active; 'I' for Inactive)
ROOT
ATOM      1  O1  BZF d   1       5.999   4.180  -3.896  0.00  0.00    -0.204 OA
ATOM      2  C2  BZF d   1       5.996   5.364  -3.184  0.00  0.00     0.174 A 
ATOM      3  C3  BZF d   1       4.998   5.373  -2.276  0.00  0.00    -0.012 A 
ATOM      4  C3A BZF d   1       4.395   4.079  -2.368  0.00  0.00    -0.107 A 
ATOM      5  C4  BZF d   1       3.362   3.475  -1.709  0.00  0.00     0.055 A 
ATOM      6  C5  BZF d   1       2.975   2.229  -2.088  0.00  0.00    -0.016 A 
ATOM      7  C6  BZF d   1       3.594   1.560  -3.123  0.00  0.00     0.022 A 
ATOM      8  C7  BZF d   1       4.626   2.115  -3.803  0.00  0.00     0.029 A 
ATOM      9  C7A BZF d   1       5.041   3.361  -3.401  0.00  0.00     0.058 A 
ENDROOT
TORSDOF 0
ENDMDL
