MODEL 1
REMARK minimizedAffinity 17.4025536
REMARK minimizedRMSD -1
REMARK  0 active torsions:
REMARK  status: ('A' for Active; 'I' for Inactive)
ROOT
ATOM      1  O1  BZF d   1       3.509   1.134  -3.362  0.00  0.00    -0.204 OA
ATOM      2  C2  BZF d   1       3.734   2.057  -2.359  0.00  0.00     0.174 A 
ATOM      3  C3  BZF d   1       3.352   1.566  -1.163  0.00  0.00    -0.012 A 
ATOM      4  C3A BZF d   1       2.943   0.219  -1.422  0.00  0.00    -0.107 A 
ATOM      5  C4  BZF d   1       2.474  -0.789  -0.629  0.00  0.00     0.055 A 
ATOM      6  C5  BZF d   1       2.096  -1.960  -1.205  0.00  0.00    -0.016 A 
ATOM      7  C6  BZF d   1       2.168  -2.156  -2.568  0.00  0.00     0.022 A 
ATOM      8  C7  BZF d   1       2.631  -1.187  -3.395  0.00  0.00     0.029 A 
ATOM      9  C7A BZF d   1       3.045  -0.014  -2.813  0.00  0.00     0.058 A 
ENDROOT
TORSDOF 0
ENDMDL
