MODEL 1
REMARK minimizedAffinity 5.29874802
REMARK minimizedRMSD -1
REMARK  0 active torsions:
REMARK  status: ('A' for Active; 'I' for Inactive)
ROOT
ATOM      1  O1  BZF d   1      -3.756   4.163   2.384  0.00  0.00    -0.204 OA
ATOM      2  C2  BZF d   1      -4.936   3.878   1.724  0.00  0.00     0.174 A 
ATOM      3  C3  BZF d   1      -5.993   4.019   2.550  0.00  0.00    -0.012 A 
ATOM      4  C3A BZF d   1      -5.447   4.506   3.779  0.00  0.00    -0.107 A 
ATOM      5  C4  BZF d   1      -6.000   4.855   4.978  0.00  0.00     0.055 A 
ATOM      6  C5  BZF d   1      -5.182   5.224   6.000  0.00  0.00    -0.016 A 
ATOM      7  C6  BZF d   1      -3.810   5.249   5.859  0.00  0.00     0.022 A 
ATOM      8  C7  BZF d   1      -3.217   4.916   4.687  0.00  0.00     0.029 A 
ATOM      9  C7A BZF d   1      -4.041   4.575   3.643  0.00  0.00     0.058 A 
ENDROOT
TORSDOF 0
ENDMDL
