MODEL 1
REMARK minimizedAffinity 7.18615246
REMARK minimizedRMSD -1
REMARK  0 active torsions:
REMARK  status: ('A' for Active; 'I' for Inactive)
ROOT
ATOM      1  O1  BZF d   1      -0.613  -4.599   0.006  0.00  0.00    -0.204 OA
ATOM      2  C2  BZF d   1      -1.747  -5.060  -0.635  0.00  0.00     0.174 A 
ATOM      3  C3  BZF d   1      -1.960  -4.378  -1.779  0.00  0.00    -0.012 A 
ATOM      4  C3A BZF d   1      -0.842  -3.494  -1.904  0.00  0.00    -0.107 A 
ATOM      5  C4  BZF d   1      -0.475  -2.571  -2.842  0.00  0.00     0.055 A 
ATOM      6  C5  BZF d   1       0.639  -1.822  -2.630  0.00  0.00    -0.016 A 
ATOM      7  C6  BZF d   1       1.405  -1.965  -1.492  0.00  0.00     0.022 A 
ATOM      8  C7  BZF d   1       1.083  -2.870  -0.536  0.00  0.00     0.029 A 
ATOM      9  C7A BZF d   1      -0.023  -3.652  -0.762  0.00  0.00     0.058 A 
ENDROOT
TORSDOF 0
ENDMDL
