MODEL 1
REMARK minimizedAffinity 1.46494877
REMARK minimizedRMSD -1
REMARK  0 active torsions:
REMARK  status: ('A' for Active; 'I' for Inactive)
ROOT
ATOM      1  O1  BZF d   1      -5.727   2.998  -3.064  0.00  0.00    -0.204 OA
ATOM      2  C2  BZF d   1      -6.000   1.887  -3.838  0.00  0.00     0.174 A 
ATOM      3  C3  BZF d   1      -5.665   0.755  -3.185  0.00  0.00    -0.012 A 
ATOM      4  C3A BZF d   1      -5.236   1.182  -1.889  0.00  0.00    -0.107 A 
ATOM      5  C4  BZF d   1      -4.794   0.518  -0.780  0.00  0.00     0.055 A 
ATOM      6  C5  BZF d   1      -4.384   1.234   0.299  0.00  0.00    -0.016 A 
ATOM      7  C6  BZF d   1      -4.398   2.613   0.303  0.00  0.00     0.022 A 
ATOM      8  C7  BZF d   1      -4.833   3.316  -0.771  0.00  0.00     0.029 A 
ATOM      9  C7A BZF d   1      -5.279   2.595  -1.851  0.00  0.00     0.058 A 
ENDROOT
TORSDOF 0
ENDMDL
