MODEL 1
REMARK minimizedAffinity 18.3258114
REMARK minimizedRMSD -1
REMARK  0 active torsions:
REMARK  status: ('A' for Active; 'I' for Inactive)
ROOT
ATOM      1  O1  BZF d   1       1.516  -2.645   0.686  0.00  0.00    -0.204 OA
ATOM      2  C2  BZF d   1       1.090  -3.180  -0.515  0.00  0.00     0.174 A 
ATOM      3  C3  BZF d   1       0.975  -2.219  -1.453  0.00  0.00    -0.012 A 
ATOM      4  C3A BZF d   1       1.442  -1.021  -0.824  0.00  0.00    -0.107 A 
ATOM      5  C4  BZF d   1       1.586   0.268  -1.250  0.00  0.00     0.055 A 
ATOM      6  C5  BZF d   1       2.000   1.213  -0.366  0.00  0.00    -0.016 A 
ATOM      7  C6  BZF d   1       2.273   0.906   0.950  0.00  0.00     0.022 A 
ATOM      8  C7  BZF d   1       2.150  -0.360   1.418  0.00  0.00     0.029 A 
ATOM      9  C7A BZF d   1       1.763  -1.324   0.519  0.00  0.00     0.058 A 
ENDROOT
TORSDOF 0
ENDMDL
