MODEL 1
REMARK minimizedAffinity 13.5615149
REMARK minimizedRMSD -1
REMARK  0 active torsions:
REMARK  status: ('A' for Active; 'I' for Inactive)
ROOT
ATOM      1  O1  BZF d   1      -3.832   3.727   2.799  0.00  0.00    -0.204 OA
ATOM      2  C2  BZF d   1      -4.947   2.982   2.469  0.00  0.00     0.174 A 
ATOM      3  C3  BZF d   1      -5.948   3.204   3.346  0.00  0.00    -0.012 A 
ATOM      4  C3A BZF d   1      -5.456   4.216   4.229  0.00  0.00    -0.107 A 
ATOM      5  C4  BZF d   1      -5.995   4.869   5.301  0.00  0.00     0.055 A 
ATOM      6  C5  BZF d   1      -5.225   5.751   5.992  0.00  0.00    -0.016 A 
ATOM      7  C6  BZF d   1      -3.914   6.000   5.642  0.00  0.00     0.022 A 
ATOM      8  C7  BZF d   1      -3.338   5.381   4.583  0.00  0.00     0.029 A 
ATOM      9  C7A BZF d   1      -4.123   4.514   3.863  0.00  0.00     0.058 A 
ENDROOT
TORSDOF 0
ENDMDL
