MODEL 1
REMARK minimizedAffinity 22.7308788
REMARK minimizedRMSD -1
REMARK  0 active torsions:
REMARK  status: ('A' for Active; 'I' for Inactive)
ROOT
ATOM      1  O1  BZF d   1      -3.109   0.783  -5.871  0.00  0.00    -0.204 OA
ATOM      2  C2  BZF d   1      -4.254   0.009  -5.864  0.00  0.00     0.174 A 
ATOM      3  C3  BZF d   1      -5.356   0.786  -5.834  0.00  0.00    -0.012 A 
ATOM      4  C3A BZF d   1      -4.871   2.130  -5.915  0.00  0.00    -0.107 A 
ATOM      5  C4  BZF d   1      -5.486   3.349  -5.944  0.00  0.00     0.055 A 
ATOM      6  C5  BZF d   1      -4.723   4.474  -5.952  0.00  0.00    -0.016 A 
ATOM      7  C6  BZF d   1      -3.345   4.416  -5.926  0.00  0.00     0.022 A 
ATOM      8  C7  BZF d   1      -2.690   3.229  -5.901  0.00  0.00     0.029 A 
ATOM      9  C7A BZF d   1      -3.458   2.091  -5.927  0.00  0.00     0.058 A 
ENDROOT
TORSDOF 0
ENDMDL
