MODEL 1
REMARK minimizedAffinity 8.61558247
REMARK minimizedRMSD -1
REMARK  0 active torsions:
REMARK  status: ('A' for Active; 'I' for Inactive)
ROOT
ATOM      1  O1  BZF d   1      -1.114  -0.800   1.910  0.00  0.00    -0.204 OA
ATOM      2  C2  BZF d   1      -1.462   0.503   1.613  0.00  0.00     0.174 A 
ATOM      3  C3  BZF d   1      -0.737   1.371   2.347  0.00  0.00    -0.012 A 
ATOM      4  C3A BZF d   1       0.182   0.562   3.087  0.00  0.00    -0.107 A 
ATOM      5  C4  BZF d   1       1.174   0.847   3.982  0.00  0.00     0.055 A 
ATOM      6  C5  BZF d   1       1.838  -0.176   4.580  0.00  0.00    -0.016 A 
ATOM      7  C6  BZF d   1       1.534  -1.495   4.311  0.00  0.00     0.022 A 
ATOM      8  C7  BZF d   1       0.561  -1.827   3.427  0.00  0.00     0.029 A 
ATOM      9  C7A BZF d   1      -0.089  -0.795   2.797  0.00  0.00     0.058 A 
ENDROOT
TORSDOF 0
ENDMDL
