MODEL 1
REMARK minimizedAffinity 24.7847538
REMARK minimizedRMSD -1
REMARK  0 active torsions:
REMARK  status: ('A' for Active; 'I' for Inactive)
ROOT
ATOM      1  O1  BZF d   1       1.522  -0.961  -5.005  0.00  0.00    -0.204 OA
ATOM      2  C2  BZF d   1       0.477  -0.118  -4.677  0.00  0.00     0.174 A 
ATOM      3  C3  BZF d   1      -0.691  -0.792  -4.651  0.00  0.00    -0.012 A 
ATOM      4  C3A BZF d   1      -0.342  -2.158  -4.894  0.00  0.00    -0.107 A 
ATOM      5  C4  BZF d   1      -1.068  -3.312  -4.973  0.00  0.00     0.055 A 
ATOM      6  C5  BZF d   1      -0.435  -4.470  -5.296  0.00  0.00    -0.016 A 
ATOM      7  C6  BZF d   1       0.921  -4.509  -5.552  0.00  0.00     0.022 A 
ATOM      8  C7  BZF d   1       1.683  -3.391  -5.480  0.00  0.00     0.029 A 
ATOM      9  C7A BZF d   1       1.052  -2.226  -5.122  0.00  0.00     0.058 A 
ENDROOT
TORSDOF 0
ENDMDL
