MODEL 1
REMARK minimizedAffinity 12.4824047
REMARK minimizedRMSD -1
REMARK  0 active torsions:
REMARK  status: ('A' for Active; 'I' for Inactive)
ROOT
ATOM      1  O1  BZF d   1       1.489   3.786   6.000  0.00  0.00    -0.204 OA
ATOM      2  C2  BZF d   1       0.402   2.933   6.000  0.00  0.00     0.174 A 
ATOM      3  C3  BZF d   1       0.779   1.679   5.678  0.00  0.00    -0.012 A 
ATOM      4  C3A BZF d   1       2.203   1.733   5.553  0.00  0.00    -0.107 A 
ATOM      5  C4  BZF d   1       3.157   0.800   5.263  0.00  0.00     0.055 A 
ATOM      6  C5  BZF d   1       4.452   1.193   5.146  0.00  0.00    -0.016 A 
ATOM      7  C6  BZF d   1       4.828   2.511   5.307  0.00  0.00     0.022 A 
ATOM      8  C7  BZF d   1       3.919   3.472   5.600  0.00  0.00     0.029 A 
ATOM      9  C7A BZF d   1       2.613   3.072   5.751  0.00  0.00     0.058 A 
ENDROOT
TORSDOF 0
ENDMDL
