MODEL 1
REMARK minimizedAffinity 5.21890736
REMARK minimizedRMSD -1
REMARK  0 active torsions:
REMARK  status: ('A' for Active; 'I' for Inactive)
ROOT
ATOM      1  O1  BZF d   1       5.767   2.746   4.500  0.00  0.00    -0.204 OA
ATOM      2  C2  BZF d   1       5.254   1.600   3.925  0.00  0.00     0.174 A 
ATOM      3  C3  BZF d   1       4.511   1.899   2.840  0.00  0.00    -0.012 A 
ATOM      4  C3A BZF d   1       4.639   3.315   2.675  0.00  0.00    -0.107 A 
ATOM      5  C4  BZF d   1       4.145   4.202   1.763  0.00  0.00     0.055 A 
ATOM      6  C5  BZF d   1       4.397   5.528   1.927  0.00  0.00    -0.016 A 
ATOM      7  C6  BZF d   1       5.135   6.000   2.993  0.00  0.00     0.022 A 
ATOM      8  C7  BZF d   1       5.651   5.157   3.921  0.00  0.00     0.029 A 
ATOM      9  C7A BZF d   1       5.425   3.814   3.740  0.00  0.00     0.058 A 
ENDROOT
TORSDOF 0
ENDMDL
