MODEL 1
REMARK minimizedAffinity 20.0657139
REMARK minimizedRMSD -1
REMARK  0 active torsions:
REMARK  status: ('A' for Active; 'I' for Inactive)
ROOT
ATOM      1  O1  BZF d   1       3.788   3.475  -5.523  0.00  0.00    -0.204 OA
ATOM      2  C2  BZF d   1       4.935   4.180  -5.833  0.00  0.00     0.174 A 
ATOM      3  C3  BZF d   1       5.982   3.345  -5.990  0.00  0.00    -0.012 A 
ATOM      4  C3A BZF d   1       5.438   2.029  -5.855  0.00  0.00    -0.107 A 
ATOM      5  C4  BZF d   1       5.979   0.777  -5.926  0.00  0.00     0.055 A 
ATOM      6  C5  BZF d   1       5.189  -0.299  -5.675  0.00  0.00    -0.016 A 
ATOM      7  C6  BZF d   1       3.857  -0.161  -5.345  0.00  0.00     0.022 A 
ATOM      8  C7  BZF d   1       3.274   1.060  -5.267  0.00  0.00     0.029 A 
ATOM      9  C7A BZF d   1       4.062   2.148  -5.553  0.00  0.00     0.058 A 
ENDROOT
TORSDOF 0
ENDMDL
