MODEL 1
REMARK minimizedAffinity 8.92817307
REMARK minimizedRMSD -1
REMARK  0 active torsions:
REMARK  status: ('A' for Active; 'I' for Inactive)
ROOT
ATOM      1  O1  BZF d   1      -0.129  -2.644   3.808  0.00  0.00    -0.204 OA
ATOM      2  C2  BZF d   1       0.712  -2.553   4.901  0.00  0.00     0.174 A 
ATOM      3  C3  BZF d   1       1.281  -1.332   4.966  0.00  0.00    -0.012 A 
ATOM      4  C3A BZF d   1       0.694  -0.585   3.897  0.00  0.00    -0.107 A 
ATOM      5  C4  BZF d   1       0.843   0.699   3.456  0.00  0.00     0.055 A 
ATOM      6  C5  BZF d   1       0.177   1.095   2.339  0.00  0.00    -0.016 A 
ATOM      7  C6  BZF d   1      -0.641   0.234   1.637  0.00  0.00     0.022 A 
ATOM      8  C7  BZF d   1      -0.824  -1.048   2.039  0.00  0.00     0.029 A 
ATOM      9  C7A BZF d   1      -0.178  -1.442   3.185  0.00  0.00     0.058 A 
ENDROOT
TORSDOF 0
ENDMDL
