MODEL 1
REMARK minimizedAffinity 14.9258175
REMARK minimizedRMSD -1
REMARK  0 active torsions:
REMARK  status: ('A' for Active; 'I' for Inactive)
ROOT
ATOM      1  O1  BZF d   1      -0.697   2.888   4.304  0.00  0.00    -0.204 OA
ATOM      2  C2  BZF d   1      -0.275   3.026   5.612  0.00  0.00     0.174 A 
ATOM      3  C3  BZF d   1       0.441   1.951   6.000  0.00  0.00    -0.012 A 
ATOM      4  C3A BZF d   1       0.546   1.129   4.834  0.00  0.00    -0.107 A 
ATOM      5  C4  BZF d   1       1.154  -0.068   4.581  0.00  0.00     0.055 A 
ATOM      6  C5  BZF d   1       1.006  -0.637   3.355  0.00  0.00    -0.016 A 
ATOM      7  C6  BZF d   1       0.255  -0.042   2.364  0.00  0.00     0.022 A 
ATOM      8  C7  BZF d   1      -0.362   1.148   2.566  0.00  0.00     0.029 A 
ATOM      9  C7A BZF d   1      -0.188   1.742   3.792  0.00  0.00     0.058 A 
ENDROOT
TORSDOF 0
ENDMDL
