MODEL 1
REMARK minimizedAffinity 5.26815367
REMARK minimizedRMSD -1
REMARK  0 active torsions:
REMARK  status: ('A' for Active; 'I' for Inactive)
ROOT
ATOM      1  O1  BZF d   1       4.024   4.858   1.839  0.00  0.00    -0.204 OA
ATOM      2  C2  BZF d   1       4.278   5.910   2.698  0.00  0.00     0.174 A 
ATOM      3  C3  BZF d   1       4.458   5.465   3.959  0.00  0.00    -0.012 A 
ATOM      4  C3A BZF d   1       4.400   4.038   3.866  0.00  0.00    -0.107 A 
ATOM      5  C4  BZF d   1       4.524   3.032   4.781  0.00  0.00     0.055 A 
ATOM      6  C5  BZF d   1       4.341   1.747   4.378  0.00  0.00    -0.016 A 
ATOM      7  C6  BZF d   1       4.029   1.433   3.072  0.00  0.00     0.022 A 
ATOM      8  C7  BZF d   1       3.900   2.396   2.128  0.00  0.00     0.029 A 
ATOM      9  C7A BZF d   1       4.116   3.693   2.524  0.00  0.00     0.058 A 
ENDROOT
TORSDOF 0
ENDMDL
