MODEL 1
REMARK minimizedAffinity 4.54341602
REMARK minimizedRMSD -1
REMARK  0 active torsions:
REMARK  status: ('A' for Active; 'I' for Inactive)
ROOT
ATOM      1  O1  BZF d   1       6.000   3.349   3.913  0.00  0.00    -0.204 OA
ATOM      2  C2  BZF d   1       5.610   2.037   3.729  0.00  0.00     0.174 A 
ATOM      3  C3  BZF d   1       4.657   1.950   2.778  0.00  0.00    -0.012 A 
ATOM      4  C3A BZF d   1       4.504   3.282   2.277  0.00  0.00    -0.107 A 
ATOM      5  C4  BZF d   1       3.716   3.835   1.308  0.00  0.00     0.055 A 
ATOM      6  C5  BZF d   1       3.754   5.179   1.114  0.00  0.00    -0.016 A 
ATOM      7  C6  BZF d   1       4.563   6.000   1.872  0.00  0.00     0.022 A 
ATOM      8  C7  BZF d   1       5.366   5.496   2.841  0.00  0.00     0.029 A 
ATOM      9  C7A BZF d   1       5.354   4.134   3.018  0.00  0.00     0.058 A 
ENDROOT
TORSDOF 0
ENDMDL
