MODEL 1
REMARK minimizedAffinity 20.9741211
REMARK minimizedRMSD -1
REMARK  0 active torsions:
REMARK  status: ('A' for Active; 'I' for Inactive)
ROOT
ATOM      1  O1  BZF d   1      -0.352  -0.096  -4.258  0.00  0.00    -0.204 OA
ATOM      2  C2  BZF d   1       0.047  -0.573  -5.491  0.00  0.00     0.174 A 
ATOM      3  C3  BZF d   1      -0.137  -1.906  -5.571  0.00  0.00    -0.012 A 
ATOM      4  C3A BZF d   1      -0.770  -2.273  -4.341  0.00  0.00    -0.107 A 
ATOM      5  C4  BZF d   1      -1.219  -3.459  -3.834  0.00  0.00     0.055 A 
ATOM      6  C5  BZF d   1      -1.723  -3.488  -2.572  0.00  0.00    -0.016 A 
ATOM      7  C6  BZF d   1      -1.788  -2.354  -1.789  0.00  0.00     0.022 A 
ATOM      8  C7  BZF d   1      -1.359  -1.154  -2.251  0.00  0.00     0.029 A 
ATOM      9  C7A BZF d   1      -0.880  -1.115  -3.538  0.00  0.00     0.058 A 
ENDROOT
TORSDOF 0
ENDMDL
