MODEL 1
REMARK minimizedAffinity 11.1364222
REMARK minimizedRMSD -1
REMARK  0 active torsions:
REMARK  status: ('A' for Active; 'I' for Inactive)
ROOT
ATOM      1  O1  BZF d   1      -2.808   0.239   2.500  0.00  0.00    -0.204 OA
ATOM      2  C2  BZF d   1      -3.376  -1.014   2.628  0.00  0.00     0.174 A 
ATOM      3  C3  BZF d   1      -2.439  -1.936   2.929  0.00  0.00    -0.012 A 
ATOM      4  C3A BZF d   1      -1.222  -1.199   3.084  0.00  0.00    -0.107 A 
ATOM      5  C4  BZF d   1       0.057  -1.556   3.400  0.00  0.00     0.055 A 
ATOM      6  C5  BZF d   1       1.028  -0.605   3.398  0.00  0.00    -0.016 A 
ATOM      7  C6  BZF d   1       0.756   0.710   3.080  0.00  0.00     0.022 A 
ATOM      8  C7  BZF d   1      -0.499   1.112   2.764  0.00  0.00     0.029 A 
ATOM      9  C7A BZF d   1      -1.488   0.160   2.798  0.00  0.00     0.058 A 
ENDROOT
TORSDOF 0
ENDMDL
