MODEL 1
REMARK minimizedAffinity -3.48223734
REMARK minimizedRMSD -1
REMARK  0 active torsions:
REMARK  status: ('A' for Active; 'I' for Inactive)
ROOT
ATOM      1  C1  DEN d   1       1.543  -3.454   3.870  0.00  0.00     0.130 A 
ATOM      2  C2  DEN d   1       2.846  -3.640   4.503  0.00  0.00    -0.031 A 
ATOM      3  C3  DEN d   1       3.844  -2.877   3.726  0.00  0.00     0.027 A 
ATOM      4  C4  DEN d   1       3.499  -1.429   1.619  0.00  0.00     0.027 A 
ATOM      5  C5  DEN d   1       2.571  -0.979   0.707  0.00  0.00    -0.003 A 
ATOM      6  C6  DEN d   1       1.252  -1.346   0.764  0.00  0.00     0.001 A 
ATOM      7  C7  DEN d   1       0.816  -2.153   1.782  0.00  0.00     0.017 A 
ATOM      8  C8  DEN d   1       1.747  -2.617   2.701  0.00  0.00    -0.094 A 
ATOM      9  C9  DEN d   1       3.073  -2.224   2.634  0.00  0.00    -0.072 A 
ENDROOT
TORSDOF 0
ENDMDL
