MODEL 1
REMARK minimizedAffinity -2.93783355
REMARK minimizedRMSD -1
REMARK  0 active torsions:
REMARK  status: ('A' for Active; 'I' for Inactive)
ROOT
ATOM      1  C1  DEN d   1       3.526  -2.964   3.528  0.00  0.00     0.130 A 
ATOM      2  C2  DEN d   1       2.569  -3.822   4.221  0.00  0.00    -0.031 A 
ATOM      3  C3  DEN d   1       1.230  -3.563   3.654  0.00  0.00     0.027 A 
ATOM      4  C4  DEN d   1       0.551  -1.929   1.777  0.00  0.00     0.027 A 
ATOM      5  C5  DEN d   1       1.014  -0.979   0.894  0.00  0.00    -0.003 A 
ATOM      6  C6  DEN d   1       2.330  -0.602   0.851  0.00  0.00     0.001 A 
ATOM      7  C7  DEN d   1       3.238  -1.211   1.676  0.00  0.00     0.017 A 
ATOM      8  C8  DEN d   1       2.778  -2.165   2.574  0.00  0.00    -0.094 A 
ATOM      9  C9  DEN d   1       1.445  -2.541   2.594  0.00  0.00    -0.072 A 
ENDROOT
TORSDOF 0
ENDMDL
