MODEL 1
REMARK minimizedAffinity 5.93557739
REMARK minimizedRMSD -1
REMARK  0 active torsions:
REMARK  status: ('A' for Active; 'I' for Inactive)
ROOT
ATOM      1  C1  DEN d   1       3.750  -2.918  -3.760  0.00  0.00     0.130 A 
ATOM      2  C2  DEN d   1       2.482  -2.445  -3.211  0.00  0.00    -0.031 A 
ATOM      3  C3  DEN d   1       2.250  -1.076  -3.714  0.00  0.00     0.027 A 
ATOM      4  C4  DEN d   1       3.720   0.347  -5.284  0.00  0.00     0.027 A 
ATOM      5  C5  DEN d   1       4.897   0.376  -6.000  0.00  0.00    -0.003 A 
ATOM      6  C6  DEN d   1       5.782  -0.669  -5.992  0.00  0.00     0.001 A 
ATOM      7  C7  DEN d   1       5.484  -1.806  -5.289  0.00  0.00     0.017 A 
ATOM      8  C8  DEN d   1       4.303  -1.840  -4.559  0.00  0.00    -0.094 A 
ATOM      9  C9  DEN d   1       3.415  -0.778  -4.590  0.00  0.00    -0.072 A 
ENDROOT
TORSDOF 0
ENDMDL
