MODEL 1
REMARK minimizedAffinity -3.44502831
REMARK minimizedRMSD -1
REMARK  0 active torsions:
REMARK  status: ('A' for Active; 'I' for Inactive)
ROOT
ATOM      1  C1  DEN d   1       1.964   1.200   3.108  0.00  0.00     0.130 A 
ATOM      2  C2  DEN d   1       1.430   0.226   4.057  0.00  0.00    -0.031 A 
ATOM      3  C3  DEN d   1       1.887  -1.115   3.640  0.00  0.00     0.027 A 
ATOM      4  C4  DEN d   1       3.364  -1.773   1.631  0.00  0.00     0.027 A 
ATOM      5  C5  DEN d   1       4.048  -1.294   0.535  0.00  0.00    -0.003 A 
ATOM      6  C6  DEN d   1       4.057   0.035   0.204  0.00  0.00     0.001 A 
ATOM      7  C7  DEN d   1       3.405   0.938   1.002  0.00  0.00     0.017 A 
ATOM      8  C8  DEN d   1       2.708   0.461   2.104  0.00  0.00    -0.094 A 
ATOM      9  C9  DEN d   1       2.721  -0.885   2.429  0.00  0.00    -0.072 A 
ENDROOT
TORSDOF 0
ENDMDL
