MODEL 1
REMARK minimizedAffinity 1.04755247
REMARK minimizedRMSD -1
REMARK  0 active torsions:
REMARK  status: ('A' for Active; 'I' for Inactive)
ROOT
ATOM      1  C1  DEN d   1       2.086  -2.526   0.832  0.00  0.00     0.130 A 
ATOM      2  C2  DEN d   1       1.084  -2.211   1.847  0.00  0.00    -0.031 A 
ATOM      3  C3  DEN d   1      -0.186  -1.908   1.157  0.00  0.00     0.027 A 
ATOM      4  C4  DEN d   1      -0.698  -1.902  -1.371  0.00  0.00     0.027 A 
ATOM      5  C5  DEN d   1      -0.162  -2.095  -2.625  0.00  0.00    -0.003 A 
ATOM      6  C6  DEN d   1       1.158  -2.409  -2.815  0.00  0.00     0.001 A 
ATOM      7  C7  DEN d   1       1.977  -2.584  -1.731  0.00  0.00     0.017 A 
ATOM      8  C8  DEN d   1       1.445  -2.384  -0.463  0.00  0.00    -0.094 A 
ATOM      9  C9  DEN d   1       0.106  -2.079  -0.292  0.00  0.00    -0.072 A 
ENDROOT
TORSDOF 0
ENDMDL
