MODEL 1
REMARK minimizedAffinity 8.98524666
REMARK minimizedRMSD -1
REMARK  0 active torsions:
REMARK  status: ('A' for Active; 'I' for Inactive)
ROOT
ATOM      1  C1  DEN d   1       0.797  -1.606   2.677  0.00  0.00     0.130 A 
ATOM      2  C2  DEN d   1       1.158  -2.852   2.006  0.00  0.00    -0.031 A 
ATOM      3  C3  DEN d   1       2.321  -2.582   1.137  0.00  0.00     0.027 A 
ATOM      4  C4  DEN d   1       3.594  -0.370   0.770  0.00  0.00     0.027 A 
ATOM      5  C5  DEN d   1       3.650   0.963   1.113  0.00  0.00    -0.003 A 
ATOM      6  C6  DEN d   1       2.746   1.536   1.967  0.00  0.00     0.001 A 
ATOM      7  C7  DEN d   1       1.773   0.763   2.544  0.00  0.00     0.017 A 
ATOM      8  C8  DEN d   1       1.706  -0.580   2.198  0.00  0.00    -0.094 A 
ATOM      9  C9  DEN d   1       2.637  -1.143   1.342  0.00  0.00    -0.072 A 
ENDROOT
TORSDOF 0
ENDMDL
