MODEL 1
REMARK minimizedAffinity 6.18881941
REMARK minimizedRMSD -1
REMARK  0 active torsions:
REMARK  status: ('A' for Active; 'I' for Inactive)
ROOT
ATOM      1  C1  DEN d   1       3.260  -2.131   1.645  0.00  0.00     0.130 A 
ATOM      2  C2  DEN d   1       3.859  -0.814   1.452  0.00  0.00    -0.031 A 
ATOM      3  C3  DEN d   1       2.766   0.169   1.311  0.00  0.00     0.027 A 
ATOM      4  C4  DEN d   1       0.217  -0.219   1.377  0.00  0.00     0.027 A 
ATOM      5  C5  DEN d   1      -0.771  -1.170   1.506  0.00  0.00    -0.003 A 
ATOM      6  C6  DEN d   1      -0.487  -2.501   1.656  0.00  0.00     0.001 A 
ATOM      7  C7  DEN d   1       0.817  -2.914   1.725  0.00  0.00     0.017 A 
ATOM      8  C8  DEN d   1       1.819  -1.962   1.588  0.00  0.00    -0.094 A 
ATOM      9  C9  DEN d   1       1.512  -0.619   1.450  0.00  0.00    -0.072 A 
ENDROOT
TORSDOF 0
ENDMDL
