MODEL 1
REMARK minimizedAffinity 3.01025319
REMARK minimizedRMSD -1
REMARK  0 active torsions:
REMARK  status: ('A' for Active; 'I' for Inactive)
ROOT
ATOM      1  C1  DEN d   1       1.569  -1.834  -1.314  0.00  0.00     0.130 A 
ATOM      2  C2  DEN d   1       0.273  -1.548  -1.923  0.00  0.00    -0.031 A 
ATOM      3  C3  DEN d   1      -0.704  -1.332  -0.837  0.00  0.00     0.027 A 
ATOM      4  C4  DEN d   1      -0.337  -1.407   1.715  0.00  0.00     0.027 A 
ATOM      5  C5  DEN d   1       0.590  -1.623   2.709  0.00  0.00    -0.003 A 
ATOM      6  C6  DEN d   1       1.891  -1.956   2.436  0.00  0.00     0.001 A 
ATOM      7  C7  DEN d   1       2.311  -2.037   1.134  0.00  0.00     0.017 A 
ATOM      8  C8  DEN d   1       1.379  -1.828   0.126  0.00  0.00    -0.094 A 
ATOM      9  C9  DEN d   1       0.072  -1.481   0.423  0.00  0.00    -0.072 A 
ENDROOT
TORSDOF 0
ENDMDL
