MODEL 1
REMARK minimizedAffinity 14.6169138
REMARK minimizedRMSD -1
REMARK  0 active torsions:
REMARK  status: ('A' for Active; 'I' for Inactive)
ROOT
ATOM      1  C4' PXY d   1       1.103   1.510   1.893  0.00  0.00     0.077 C 
ATOM      2  C1' PXY d   1      -4.465   1.209   3.416  0.00  0.00     0.077 C 
ATOM      3  C1  PXY d   1      -3.008   1.298   3.008  0.00  0.00    -0.082 A 
ATOM      4  C2  PXY d   1      -2.234   0.230   3.110  0.00  0.00     0.003 A 
ATOM      5  C3  PXY d   1      -0.906   0.301   2.777  0.00  0.00     0.003 A 
ATOM      6  C4  PXY d   1      -0.377   1.464   2.283  0.00  0.00    -0.082 A 
ATOM      7  C5  PXY d   1      -1.163   2.555   2.166  0.00  0.00     0.003 A 
ATOM      8  C6  PXY d   1      -2.498   2.473   2.549  0.00  0.00     0.003 A 
ENDROOT
TORSDOF 0
ENDMDL
