MODEL 1
REMARK minimizedAffinity -4.44501019
REMARK minimizedRMSD -1
REMARK  0 active torsions:
REMARK  status: ('A' for Active; 'I' for Inactive)
ROOT
ATOM      1  C4' PXY d   1       1.872   3.303   1.467  0.00  0.00     0.077 C 
ATOM      2  C1' PXY d   1       0.535  -1.533  -1.403  0.00  0.00     0.077 C 
ATOM      3  C1  PXY d   1       0.899  -0.268  -0.652  0.00  0.00    -0.082 A 
ATOM      4  C2  PXY d   1       0.018   0.280   0.170  0.00  0.00     0.003 A 
ATOM      5  C3  PXY d   1       0.318   1.442   0.833  0.00  0.00     0.003 A 
ATOM      6  C4  PXY d   1       1.552   2.020   0.695  0.00  0.00    -0.082 A 
ATOM      7  C5  PXY d   1       2.459   1.461  -0.134  0.00  0.00     0.003 A 
ATOM      8  C6  PXY d   1       2.120   0.304  -0.829  0.00  0.00     0.003 A 
ENDROOT
TORSDOF 0
ENDMDL
