MODEL 1
REMARK minimizedAffinity 5.73578215
REMARK minimizedRMSD -1
REMARK  0 active torsions:
REMARK  status: ('A' for Active; 'I' for Inactive)
ROOT
ATOM      1  C4' PXY d   1      -1.826   2.380   3.059  0.00  0.00     0.077 C 
ATOM      2  C1' PXY d   1       3.305   1.997   0.425  0.00  0.00     0.077 C 
ATOM      3  C1  PXY d   1       1.959   2.110   1.114  0.00  0.00    -0.082 A 
ATOM      4  C2  PXY d   1       1.564   1.154   1.939  0.00  0.00     0.003 A 
ATOM      5  C3  PXY d   1       0.337   1.225   2.546  0.00  0.00     0.003 A 
ATOM      6  C4  PXY d   1      -0.472   2.312   2.348  0.00  0.00    -0.082 A 
ATOM      7  C5  PXY d   1      -0.071   3.297   1.516  0.00  0.00     0.003 A 
ATOM      8  C6  PXY d   1       1.160   3.186   0.878  0.00  0.00     0.003 A 
ENDROOT
TORSDOF 0
ENDMDL
