MODEL 1
REMARK minimizedAffinity 9.18899822
REMARK minimizedRMSD -1
REMARK  0 active torsions:
REMARK  status: ('A' for Active; 'I' for Inactive)
ROOT
ATOM      1  C4' PXY d   1       3.403   2.067  -2.192  0.00  0.00     0.077 C 
ATOM      2  C1' PXY d   1       5.856   5.940  -5.713  0.00  0.00     0.077 C 
ATOM      3  C1  PXY d   1       5.223   4.917  -4.791  0.00  0.00    -0.082 A 
ATOM      4  C2  PXY d   1       3.914   4.928  -4.602  0.00  0.00     0.003 A 
ATOM      5  C3  PXY d   1       3.328   4.030  -3.748  0.00  0.00     0.003 A 
ATOM      6  C4  PXY d   1       4.085   3.076  -3.121  0.00  0.00    -0.082 A 
ATOM      7  C5  PXY d   1       5.420   3.051  -3.317  0.00  0.00     0.003 A 
ATOM      8  C6  PXY d   1       6.000   3.997  -4.157  0.00  0.00     0.003 A 
ENDROOT
TORSDOF 0
ENDMDL
