MODEL 1
REMARK minimizedAffinity 10.9848137
REMARK minimizedRMSD -1
REMARK  0 active torsions:
REMARK  status: ('A' for Active; 'I' for Inactive)
ROOT
ATOM      1  C4' PXY d   1       1.677   4.353   0.988  0.00  0.00     0.077 C 
ATOM      2  C1' PXY d   1       1.923  -1.072  -0.991  0.00  0.00     0.077 C 
ATOM      3  C1  PXY d   1       1.852   0.347  -0.461  0.00  0.00    -0.082 A 
ATOM      4  C2  PXY d   1       1.942   1.364  -1.303  0.00  0.00     0.003 A 
ATOM      5  C3  PXY d   1       1.912   2.653  -0.837  0.00  0.00     0.003 A 
ATOM      6  C4  PXY d   1       1.734   2.904   0.497  0.00  0.00    -0.082 A 
ATOM      7  C5  PXY d   1       1.630   1.872   1.360  0.00  0.00     0.003 A 
ATOM      8  C6  PXY d   1       1.705   0.570   0.873  0.00  0.00     0.003 A 
ENDROOT
TORSDOF 0
ENDMDL
