MODEL 1
REMARK minimizedAffinity 2.34217787
REMARK minimizedRMSD -1
REMARK  0 active torsions:
REMARK  status: ('A' for Active; 'I' for Inactive)
ROOT
ATOM      1  C4' PXY d   1      -3.150   1.471   2.540  0.00  0.00     0.077 C 
ATOM      2  C1' PXY d   1       2.487   2.383   1.641  0.00  0.00     0.077 C 
ATOM      3  C1  PXY d   1       1.009   2.132   1.870  0.00  0.00    -0.082 A 
ATOM      4  C2  PXY d   1       0.200   3.154   2.098  0.00  0.00     0.003 A 
ATOM      5  C3  PXY d   1      -1.133   2.943   2.339  0.00  0.00     0.003 A 
ATOM      6  C4  PXY d   1      -1.653   1.678   2.294  0.00  0.00    -0.082 A 
ATOM      7  C5  PXY d   1      -0.836   0.631   2.052  0.00  0.00     0.003 A 
ATOM      8  C6  PXY d   1       0.521   0.862   1.851  0.00  0.00     0.003 A 
ENDROOT
TORSDOF 0
ENDMDL
