MODEL 1
REMARK minimizedAffinity 3.51290202
REMARK minimizedRMSD -1
REMARK  0 active torsions:
REMARK  status: ('A' for Active; 'I' for Inactive)
ROOT
ATOM      1  C4' PXY d   1      -0.222   2.219   2.271  0.00  0.00     0.077 C 
ATOM      2  C1' PXY d   1       4.626   1.236  -0.720  0.00  0.00     0.077 C 
ATOM      3  C1  PXY d   1       3.361   1.502   0.072  0.00  0.00    -0.082 A 
ATOM      4  C2  PXY d   1       2.367   0.629   0.030  0.00  0.00     0.003 A 
ATOM      5  C3  PXY d   1       1.204   0.869   0.715  0.00  0.00     0.003 A 
ATOM      6  C4  PXY d   1       1.077   1.988   1.495  0.00  0.00    -0.082 A 
ATOM      7  C5  PXY d   1       2.091   2.877   1.552  0.00  0.00     0.003 A 
ATOM      8  C6  PXY d   1       3.248   2.636   0.816  0.00  0.00     0.003 A 
ENDROOT
TORSDOF 0
ENDMDL
