MODEL 1
REMARK minimizedAffinity 8.70774746
REMARK minimizedRMSD -1
REMARK  0 active torsions:
REMARK  status: ('A' for Active; 'I' for Inactive)
ROOT
ATOM      1  C4' PXY d   1       1.235  -1.203  -3.987  0.00  0.00     0.077 C 
ATOM      2  C1' PXY d   1       1.937   2.224   0.615  0.00  0.00     0.077 C 
ATOM      3  C1  PXY d   1       1.743   1.333  -0.596  0.00  0.00    -0.082 A 
ATOM      4  C2  PXY d   1       2.126   0.068  -0.545  0.00  0.00     0.003 A 
ATOM      5  C3  PXY d   1       1.988  -0.744  -1.642  0.00  0.00     0.003 A 
ATOM      6  C4  PXY d   1       1.402  -0.269  -2.785  0.00  0.00    -0.082 A 
ATOM      7  C5  PXY d   1       0.999   1.018  -2.841  0.00  0.00     0.003 A 
ATOM      8  C6  PXY d   1       1.186   1.836  -1.731  0.00  0.00     0.003 A 
ENDROOT
TORSDOF 0
ENDMDL
