MODEL 1
REMARK minimizedAffinity 7.97354221
REMARK minimizedRMSD -1
REMARK  0 active torsions:
REMARK  status: ('A' for Active; 'I' for Inactive)
ROOT
ATOM      1  C4' PXY d   1      -2.324   1.500   2.988  0.00  0.00     0.077 C 
ATOM      2  C1' PXY d   1       2.754   3.160   0.779  0.00  0.00     0.077 C 
ATOM      3  C1  PXY d   1       1.427   2.712   1.360  0.00  0.00    -0.082 A 
ATOM      4  C2  PXY d   1       0.330   3.402   1.091  0.00  0.00     0.003 A 
ATOM      5  C3  PXY d   1      -0.873   3.030   1.633  0.00  0.00     0.003 A 
ATOM      6  C4  PXY d   1      -0.964   1.910   2.416  0.00  0.00    -0.082 A 
ATOM      7  C5  PXY d   1       0.149   1.195   2.686  0.00  0.00     0.003 A 
ATOM      8  C6  PXY d   1       1.368   1.613   2.159  0.00  0.00     0.003 A 
ENDROOT
TORSDOF 0
ENDMDL
