MODEL 1
REMARK minimizedAffinity 1.9239701
REMARK minimizedRMSD -1
REMARK  0 active torsions:
REMARK  status: ('A' for Active; 'I' for Inactive)
ROOT
ATOM      1  C4' PXY d   1       3.998   0.051  -0.788  0.00  0.00     0.077 C 
ATOM      2  C1' PXY d   1      -0.190   1.800   2.791  0.00  0.00     0.077 C 
ATOM      3  C1  PXY d   1       0.907   1.329   1.857  0.00  0.00    -0.082 A 
ATOM      4  C2  PXY d   1       1.815   2.190   1.428  0.00  0.00     0.003 A 
ATOM      5  C3  PXY d   1       2.795   1.788   0.557  0.00  0.00     0.003 A 
ATOM      6  C4  PXY d   1       2.878   0.480   0.164  0.00  0.00    -0.082 A 
ATOM      7  C5  PXY d   1       1.962  -0.407   0.606  0.00  0.00     0.003 A 
ATOM      8  C6  PXY d   1       0.950   0.029   1.456  0.00  0.00     0.003 A 
ENDROOT
TORSDOF 0
ENDMDL
