MODEL 1
REMARK minimizedAffinity 6.08462572
REMARK minimizedRMSD -1
REMARK  0 active torsions:
REMARK  status: ('A' for Active; 'I' for Inactive)
ROOT
ATOM      1  C4' PXY d   1      -0.040  -1.472  -2.870  0.00  0.00     0.077 C 
ATOM      2  C1' PXY d   1       1.974   1.985   1.301  0.00  0.00     0.077 C 
ATOM      3  C1  PXY d   1       1.441   1.089   0.201  0.00  0.00    -0.082 A 
ATOM      4  C2  PXY d   1       1.218  -0.191   0.451  0.00  0.00     0.003 A 
ATOM      5  C3  PXY d   1       0.767  -1.023  -0.541  0.00  0.00     0.003 A 
ATOM      6  C4  PXY d   1       0.489  -0.528  -1.787  0.00  0.00    -0.082 A 
ATOM      7  C5  PXY d   1       0.703   0.779  -2.047  0.00  0.00     0.003 A 
ATOM      8  C6  PXY d   1       1.201   1.598  -1.038  0.00  0.00     0.003 A 
ENDROOT
TORSDOF 0
ENDMDL
