MODEL 1
REMARK minimizedAffinity 7.86271334
REMARK minimizedRMSD -1
REMARK  0 active torsions:
REMARK  status: ('A' for Active; 'I' for Inactive)
ROOT
ATOM      1  C4' PXY d   1      -0.461   2.447   2.573  0.00  0.00     0.077 C 
ATOM      2  C1' PXY d   1       4.305   1.125  -0.419  0.00  0.00     0.077 C 
ATOM      3  C1  PXY d   1       3.062   1.478   0.375  0.00  0.00    -0.082 A 
ATOM      4  C2  PXY d   1       1.980   0.725   0.264  0.00  0.00     0.003 A 
ATOM      5  C3  PXY d   1       0.837   1.049   0.950  0.00  0.00     0.003 A 
ATOM      6  C4  PXY d   1       0.819   2.123   1.798  0.00  0.00    -0.082 A 
ATOM      7  C5  PXY d   1       1.923   2.889   1.925  0.00  0.00     0.003 A 
ATOM      8  C6  PXY d   1       3.060   2.568   1.189  0.00  0.00     0.003 A 
ENDROOT
TORSDOF 0
ENDMDL
