MODEL 1
REMARK minimizedAffinity 12.2611818
REMARK minimizedRMSD -1
REMARK  0 active torsions:
REMARK  status: ('A' for Active; 'I' for Inactive)
ROOT
ATOM      1  C4' PXY d   1       6.000   6.000  -5.963  0.00  0.00     0.077 C 
ATOM      2  C1' PXY d   1       5.739   1.503  -2.340  0.00  0.00     0.077 C 
ATOM      3  C1  PXY d   1       5.802   2.690  -3.281  0.00  0.00    -0.082 A 
ATOM      4  C2  PXY d   1       5.869   2.487  -4.587  0.00  0.00     0.003 A 
ATOM      5  C3  PXY d   1       5.958   3.548  -5.450  0.00  0.00     0.003 A 
ATOM      6  C4  PXY d   1       5.926   4.832  -4.976  0.00  0.00    -0.082 A 
ATOM      7  C5  PXY d   1       5.847   5.048  -3.646  0.00  0.00     0.003 A 
ATOM      8  C6  PXY d   1       5.798   3.957  -2.783  0.00  0.00     0.003 A 
ENDROOT
TORSDOF 0
ENDMDL
