MODEL 1
REMARK minimizedAffinity 12.7198992
REMARK minimizedRMSD -1
REMARK  0 active torsions:
REMARK  status: ('A' for Active; 'I' for Inactive)
ROOT
ATOM      1  C4' PXY d   1       1.493   2.633   0.673  0.00  0.00     0.077 C 
ATOM      2  C1' PXY d   1       1.306  -1.121  -3.718  0.00  0.00     0.077 C 
ATOM      3  C1  PXY d   1       1.357  -0.146  -2.558  0.00  0.00    -0.082 A 
ATOM      4  C2  PXY d   1       0.747   1.023  -2.659  0.00  0.00     0.003 A 
ATOM      5  C3  PXY d   1       0.810   1.930  -1.632  0.00  0.00     0.003 A 
ATOM      6  C4  PXY d   1       1.460   1.614  -0.469  0.00  0.00    -0.082 A 
ATOM      7  C5  PXY d   1       2.076   0.418  -0.354  0.00  0.00     0.003 A 
ATOM      8  C6  PXY d   1       2.034  -0.471  -1.424  0.00  0.00     0.003 A 
ENDROOT
TORSDOF 0
ENDMDL
