MODEL 1
REMARK minimizedAffinity 0.0247636717
REMARK minimizedRMSD -1
REMARK  0 active torsions:
REMARK  status: ('A' for Active; 'I' for Inactive)
ROOT
ATOM      1  C4' PXY d   1      -2.262  -4.117  -0.014  0.00  0.00     0.077 C 
ATOM      2  C1' PXY d   1       2.008  -0.256  -0.539  0.00  0.00     0.077 C 
ATOM      3  C1  PXY d   1       0.880  -1.260  -0.408  0.00  0.00    -0.082 A 
ATOM      4  C2  PXY d   1       0.908  -2.151   0.570  0.00  0.00     0.003 A 
ATOM      5  C3  PXY d   1      -0.087  -3.087   0.684  0.00  0.00     0.003 A 
ATOM      6  C4  PXY d   1      -1.149  -3.078  -0.179  0.00  0.00    -0.082 A 
ATOM      7  C5  PXY d   1      -1.191  -2.165  -1.173  0.00  0.00     0.003 A 
ATOM      8  C6  PXY d   1      -0.150  -1.250  -1.297  0.00  0.00     0.003 A 
ENDROOT
TORSDOF 0
ENDMDL
