MODEL 1
REMARK minimizedAffinity 10.6903
REMARK minimizedRMSD -1
REMARK  0 active torsions:
REMARK  status: ('A' for Active; 'I' for Inactive)
ROOT
ATOM      1  C4' PXY d   1      -0.924   2.278   2.879  0.00  0.00     0.077 C 
ATOM      2  C1' PXY d   1       3.930   1.519  -0.167  0.00  0.00     0.077 C 
ATOM      3  C1  PXY d   1       2.659   1.731   0.632  0.00  0.00    -0.082 A 
ATOM      4  C2  PXY d   1       2.169   0.739   1.357  0.00  0.00     0.003 A 
ATOM      5  C3  PXY d   1       1.004   0.903   2.060  0.00  0.00     0.003 A 
ATOM      6  C4  PXY d   1       0.361   2.112   2.064  0.00  0.00    -0.082 A 
ATOM      7  C5  PXY d   1       0.861   3.133   1.335  0.00  0.00     0.003 A 
ATOM      8  C6  PXY d   1       2.023   2.933   0.595  0.00  0.00     0.003 A 
ENDROOT
TORSDOF 0
ENDMDL
