MODEL 1
REMARK minimizedAffinity 7.81029415
REMARK minimizedRMSD -1
REMARK  0 active torsions:
REMARK  status: ('A' for Active; 'I' for Inactive)
ROOT
ATOM      1  C4' PXY d   1      -0.818   2.389   3.102  0.00  0.00     0.077 C 
ATOM      2  C1' PXY d   1       3.935   1.908  -0.153  0.00  0.00     0.077 C 
ATOM      3  C1  PXY d   1       2.691   2.047   0.702  0.00  0.00    -0.082 A 
ATOM      4  C2  PXY d   1       2.213   0.989   1.338  0.00  0.00     0.003 A 
ATOM      5  C3  PXY d   1       1.071   1.090   2.090  0.00  0.00     0.003 A 
ATOM      6  C4  PXY d   1       0.441   2.297   2.235  0.00  0.00    -0.082 A 
ATOM      7  C5  PXY d   1       0.929   3.383   1.598  0.00  0.00     0.003 A 
ATOM      8  C6  PXY d   1       2.066   3.251   0.807  0.00  0.00     0.003 A 
ENDROOT
TORSDOF 0
ENDMDL
