MODEL 1
REMARK minimizedAffinity 7.01742172
REMARK minimizedRMSD -1
REMARK  0 active torsions:
REMARK  status: ('A' for Active; 'I' for Inactive)
ROOT
ATOM      1  C4' PXY d   1      -3.223   0.753   3.091  0.00  0.00     0.077 C 
ATOM      2  C1' PXY d   1       2.135   2.592   1.943  0.00  0.00     0.077 C 
ATOM      3  C1  PXY d   1       0.734   2.097   2.242  0.00  0.00    -0.082 A 
ATOM      4  C2  PXY d   1      -0.291   2.925   2.121  0.00  0.00     0.003 A 
ATOM      5  C3  PXY d   1      -1.562   2.503   2.418  0.00  0.00     0.003 A 
ATOM      6  C4  PXY d   1      -1.792   1.206   2.791  0.00  0.00    -0.082 A 
ATOM      7  C5  PXY d   1      -0.753   0.353   2.906  0.00  0.00     0.003 A 
ATOM      8  C6  PXY d   1       0.534   0.812   2.640  0.00  0.00     0.003 A 
ENDROOT
TORSDOF 0
ENDMDL
