MODEL 1
REMARK minimizedAffinity 5.71232843
REMARK minimizedRMSD -1
REMARK  0 active torsions:
REMARK  status: ('A' for Active; 'I' for Inactive)
ROOT
ATOM      1  C4' PXY d   1       0.767  -1.525  -4.058  0.00  0.00     0.077 C 
ATOM      2  C1' PXY d   1       1.822   1.947   0.441  0.00  0.00     0.077 C 
ATOM      3  C1  PXY d   1       1.536   1.044  -0.742  0.00  0.00    -0.082 A 
ATOM      4  C2  PXY d   1       1.927  -0.219  -0.710  0.00  0.00     0.003 A 
ATOM      5  C3  PXY d   1       1.704  -1.041  -1.785  0.00  0.00     0.003 A 
ATOM      6  C4  PXY d   1       1.027  -0.580  -2.882  0.00  0.00    -0.082 A 
ATOM      7  C5  PXY d   1       0.615   0.705  -2.917  0.00  0.00     0.003 A 
ATOM      8  C6  PXY d   1       0.887   1.535  -1.833  0.00  0.00     0.003 A 
ENDROOT
TORSDOF 0
ENDMDL
