MODEL 1
REMARK minimizedAffinity 3.24179101
REMARK minimizedRMSD -1
REMARK  0 active torsions:
REMARK  status: ('A' for Active; 'I' for Inactive)
ROOT
ATOM      1  C4' PXY d   1      -1.509  -4.395  -0.626  0.00  0.00     0.077 C 
ATOM      2  C1' PXY d   1      -5.993  -5.046  -4.215  0.00  0.00     0.077 C 
ATOM      3  C1  PXY d   1      -4.820  -4.887  -3.268  0.00  0.00    -0.082 A 
ATOM      4  C2  PXY d   1      -4.363  -3.677  -2.990  0.00  0.00     0.003 A 
ATOM      5  C3  PXY d   1      -3.283  -3.516  -2.161  0.00  0.00     0.003 A 
ATOM      6  C4  PXY d   1      -2.697  -4.603  -1.569  0.00  0.00    -0.082 A 
ATOM      7  C5  PXY d   1      -3.164  -5.840  -1.839  0.00  0.00     0.003 A 
ATOM      8  C6  PXY d   1      -4.236  -5.984  -2.715  0.00  0.00     0.003 A 
ENDROOT
TORSDOF 0
ENDMDL
