MODEL 1
REMARK minimizedAffinity 6.1594429
REMARK minimizedRMSD -1
REMARK  0 active torsions:
REMARK  status: ('A' for Active; 'I' for Inactive)
ROOT
ATOM      1  C   UNL d   1       3.886   5.512  -5.969  0.00  0.00    -0.002 A 
ATOM      2  C1  UNL d   1       5.271   5.595  -6.000  0.00  0.00     0.010 A 
ATOM      3  C2  UNL d   1       6.000   5.743  -4.818  0.00  0.00     0.041 A 
ATOM      4  C3  UNL d   1       5.307   5.805  -3.593  0.00  0.00    -0.075 A 
ATOM      5  S   UNL d   1       5.991   5.983  -2.020  0.00  0.00     0.015 SA
ATOM      6  C4  UNL d   1       4.460   5.952  -1.270  0.00  0.00     0.022 A 
ATOM      7  C5  UNL d   1       3.442   5.811  -2.183  0.00  0.00     0.026 A 
ATOM      8  C6  UNL d   1       3.913   5.723  -3.536  0.00  0.00    -0.082 A 
ATOM      9  C7  UNL d   1       3.202   5.574  -4.752  0.00  0.00     0.045 A 
ENDROOT
TORSDOF 0
ENDMDL
