MODEL 1
REMARK minimizedAffinity 8.68009758
REMARK minimizedRMSD -1
REMARK  0 active torsions:
REMARK  status: ('A' for Active; 'I' for Inactive)
ROOT
ATOM      1  C   UNL d   1       4.177   4.348  -5.954  0.00  0.00    -0.002 A 
ATOM      2  C1  UNL d   1       5.358   3.663  -5.708  0.00  0.00     0.010 A 
ATOM      3  C2  UNL d   1       5.988   3.757  -4.466  0.00  0.00     0.041 A 
ATOM      4  C3  UNL d   1       5.405   4.558  -3.464  0.00  0.00    -0.075 A 
ATOM      5  S   UNL d   1       5.998   4.822  -1.867  0.00  0.00     0.015 SA
ATOM      6  C4  UNL d   1       4.696   5.849  -1.473  0.00  0.00     0.022 A 
ATOM      7  C5  UNL d   1       3.821   5.998  -2.523  0.00  0.00     0.026 A 
ATOM      8  C6  UNL d   1       4.215   5.256  -3.688  0.00  0.00    -0.082 A 
ATOM      9  C7  UNL d   1       3.600   5.141  -4.958  0.00  0.00     0.045 A 
ENDROOT
TORSDOF 0
ENDMDL
