MODEL 1
REMARK minimizedAffinity 1.40786707
REMARK minimizedRMSD -1
REMARK  0 active torsions:
REMARK  status: ('A' for Active; 'I' for Inactive)
ROOT
ATOM      1  C   UNL d   1       5.187   5.366  -1.162  0.00  0.00    -0.002 A 
ATOM      2  C1  UNL d   1       5.973   4.271  -1.492  0.00  0.00     0.010 A 
ATOM      3  C2  UNL d   1       5.998   3.783  -2.800  0.00  0.00     0.041 A 
ATOM      4  C3  UNL d   1       5.213   4.421  -3.780  0.00  0.00    -0.075 A 
ATOM      5  S   UNL d   1       5.087   3.999  -5.447  0.00  0.00     0.015 SA
ATOM      6  C4  UNL d   1       3.987   5.262  -5.760  0.00  0.00     0.022 A 
ATOM      7  C5  UNL d   1       3.711   5.998  -4.632  0.00  0.00     0.026 A 
ATOM      8  C6  UNL d   1       4.414   5.526  -3.472  0.00  0.00    -0.082 A 
ATOM      9  C7  UNL d   1       4.410   5.996  -2.137  0.00  0.00     0.045 A 
ENDROOT
TORSDOF 0
ENDMDL
