MODEL 1
REMARK minimizedAffinity 5.29326439
REMARK minimizedRMSD -1
REMARK  0 active torsions:
REMARK  status: ('A' for Active; 'I' for Inactive)
ROOT
ATOM      1  C   UNL d   1       4.501   4.971  -0.277  0.00  0.00    -0.002 A 
ATOM      2  C1  UNL d   1       5.480   5.900  -0.598  0.00  0.00     0.010 A 
ATOM      3  C2  UNL d   1       6.000   5.966  -1.892  0.00  0.00     0.041 A 
ATOM      4  C3  UNL d   1       5.512   5.075  -2.868  0.00  0.00    -0.075 A 
ATOM      5  S   UNL d   1       5.999   4.974  -4.519  0.00  0.00     0.015 SA
ATOM      6  C4  UNL d   1       4.919   3.694  -4.837  0.00  0.00     0.022 A 
ATOM      7  C5  UNL d   1       4.196   3.341  -3.722  0.00  0.00     0.026 A 
ATOM      8  C6  UNL d   1       4.526   4.131  -2.569  0.00  0.00    -0.082 A 
ATOM      9  C7  UNL d   1       4.020   4.088  -1.248  0.00  0.00     0.045 A 
ENDROOT
TORSDOF 0
ENDMDL
