MODEL 1
REMARK minimizedAffinity 15.0090618
REMARK minimizedRMSD -1
REMARK  0 active torsions:
REMARK  status: ('A' for Active; 'I' for Inactive)
ROOT
ATOM      1  C   UNL d   1       1.506   5.522  -2.992  0.00  0.00    -0.002 A 
ATOM      2  C1  UNL d   1       2.061   5.959  -4.186  0.00  0.00     0.010 A 
ATOM      3  C2  UNL d   1       3.438   5.871  -4.404  0.00  0.00     0.041 A 
ATOM      4  C3  UNL d   1       4.254   5.329  -3.392  0.00  0.00    -0.075 A 
ATOM      5  S   UNL d   1       5.965   5.122  -3.436  0.00  0.00     0.015 SA
ATOM      6  C4  UNL d   1       5.999   4.448  -1.872  0.00  0.00     0.022 A 
ATOM      7  C5  UNL d   1       4.745   4.375  -1.314  0.00  0.00     0.026 A 
ATOM      8  C6  UNL d   1       3.718   4.881  -2.181  0.00  0.00    -0.082 A 
ATOM      9  C7  UNL d   1       2.319   4.985  -1.990  0.00  0.00     0.045 A 
ENDROOT
TORSDOF 0
ENDMDL
