MODEL 1
REMARK minimizedAffinity -1.33874202
REMARK minimizedRMSD -1
REMARK  0 active torsions:
REMARK  status: ('A' for Active; 'I' for Inactive)
ROOT
ATOM      1  C   UNL d   1       3.853  -1.497   1.264  0.00  0.00    -0.002 A 
ATOM      2  C1  UNL d   1       4.677  -2.613   1.298  0.00  0.00     0.010 A 
ATOM      3  C2  UNL d   1       5.048  -3.185   2.517  0.00  0.00     0.041 A 
ATOM      4  C3  UNL d   1       4.571  -2.611   3.712  0.00  0.00    -0.075 A 
ATOM      5  S   UNL d   1       4.894  -3.141   5.320  0.00  0.00     0.015 SA
ATOM      6  C4  UNL d   1       3.946  -1.899   6.000  0.00  0.00     0.022 A 
ATOM      7  C5  UNL d   1       3.389  -1.090   5.038  0.00  0.00     0.026 A 
ATOM      8  C6  UNL d   1       3.740  -1.487   3.703  0.00  0.00    -0.082 A 
ATOM      9  C7  UNL d   1       3.382  -0.931   2.452  0.00  0.00     0.045 A 
ENDROOT
TORSDOF 0
ENDMDL
