MODEL 1
REMARK minimizedAffinity 3.23352051
REMARK minimizedRMSD -1
REMARK  0 active torsions:
REMARK  status: ('A' for Active; 'I' for Inactive)
ROOT
ATOM      1  C   UNL d   1       4.790   5.605  -0.784  0.00  0.00    -0.002 A 
ATOM      2  C1  UNL d   1       5.990   5.262  -1.391  0.00  0.00     0.010 A 
ATOM      3  C2  UNL d   1       6.000   4.579  -2.609  0.00  0.00     0.041 A 
ATOM      4  C3  UNL d   1       4.772   4.246  -3.214  0.00  0.00    -0.075 A 
ATOM      5  S   UNL d   1       4.540   3.412  -4.705  0.00  0.00     0.015 SA
ATOM      6  C4  UNL d   1       2.843   3.492  -4.572  0.00  0.00     0.022 A 
ATOM      7  C5  UNL d   1       2.445   4.136  -3.424  0.00  0.00     0.026 A 
ATOM      8  C6  UNL d   1       3.551   4.581  -2.622  0.00  0.00    -0.082 A 
ATOM      9  C7  UNL d   1       3.574   5.272  -1.387  0.00  0.00     0.045 A 
ENDROOT
TORSDOF 0
ENDMDL
