MODEL 1
REMARK minimizedAffinity -1.45689762
REMARK minimizedRMSD -1
REMARK  0 active torsions:
REMARK  status: ('A' for Active; 'I' for Inactive)
ROOT
ATOM      1  C   UNL d   1       4.506   2.046  -6.000  0.00  0.00    -0.002 A 
ATOM      2  C1  UNL d   1       5.613   1.746  -5.219  0.00  0.00     0.010 A 
ATOM      3  C2  UNL d   1       6.000   2.593  -4.179  0.00  0.00     0.041 A 
ATOM      4  C3  UNL d   1       5.245   3.757  -3.932  0.00  0.00    -0.075 A 
ATOM      5  S   UNL d   1       5.530   4.940  -2.711  0.00  0.00     0.015 SA
ATOM      6  C4  UNL d   1       4.187   5.871  -3.196  0.00  0.00     0.022 A 
ATOM      7  C5  UNL d   1       3.527   5.308  -4.262  0.00  0.00     0.026 A 
ATOM      8  C6  UNL d   1       4.125   4.080  -4.703  0.00  0.00    -0.082 A 
ATOM      9  C7  UNL d   1       3.760   3.201  -5.752  0.00  0.00     0.045 A 
ENDROOT
TORSDOF 0
ENDMDL
