MODEL 1
REMARK minimizedAffinity -3.8765316
REMARK minimizedRMSD -1
REMARK  0 active torsions:
REMARK  status: ('A' for Active; 'I' for Inactive)
ROOT
ATOM      1  C   UNL d   1       4.320   2.215  -6.000  0.00  0.00    -0.002 A 
ATOM      2  C1  UNL d   1       5.608   2.216  -5.485  0.00  0.00     0.010 A 
ATOM      3  C2  UNL d   1       6.000   3.180  -4.554  0.00  0.00     0.041 A 
ATOM      4  C3  UNL d   1       5.065   4.151  -4.143  0.00  0.00    -0.075 A 
ATOM      5  S   UNL d   1       5.320   5.427  -3.013  0.00  0.00     0.015 SA
ATOM      6  C4  UNL d   1       3.724   6.000  -3.186  0.00  0.00     0.022 A 
ATOM      7  C5  UNL d   1       3.001   5.248  -4.080  0.00  0.00     0.026 A 
ATOM      8  C6  UNL d   1       3.761   4.169  -4.646  0.00  0.00    -0.082 A 
ATOM      9  C7  UNL d   1       3.395   3.179  -5.590  0.00  0.00     0.045 A 
ENDROOT
TORSDOF 0
ENDMDL
