MODEL 1
REMARK minimizedAffinity 17.8275681
REMARK minimizedRMSD -1
REMARK  0 active torsions:
REMARK  status: ('A' for Active; 'I' for Inactive)
ROOT
ATOM      1  C   UNL d   1       1.105  -2.432  -2.496  0.00  0.00    -0.002 A 
ATOM      2  C1  UNL d   1       0.013  -2.222  -3.327  0.00  0.00     0.010 A 
ATOM      3  C2  UNL d   1      -1.279  -2.169  -2.802  0.00  0.00     0.041 A 
ATOM      4  C3  UNL d   1      -1.458  -2.328  -1.414  0.00  0.00    -0.075 A 
ATOM      5  S   UNL d   1      -2.949  -2.299  -0.548  0.00  0.00     0.015 SA
ATOM      6  C4  UNL d   1      -2.172  -2.562   0.946  0.00  0.00     0.022 A 
ATOM      7  C5  UNL d   1      -0.809  -2.673   0.806  0.00  0.00     0.026 A 
ATOM      8  C6  UNL d   1      -0.375  -2.539  -0.557  0.00  0.00    -0.082 A 
ATOM      9  C7  UNL d   1       0.923  -2.590  -1.120  0.00  0.00     0.045 A 
ENDROOT
TORSDOF 0
ENDMDL
