MODEL 1
REMARK minimizedAffinity 1.89748263
REMARK minimizedRMSD -1
REMARK  0 active torsions:
REMARK  status: ('A' for Active; 'I' for Inactive)
ROOT
ATOM      1  C   UNL d   1       3.998   4.166  -5.086  0.00  0.00    -0.002 A 
ATOM      2  C1  UNL d   1       5.299   3.716  -4.907  0.00  0.00     0.010 A 
ATOM      3  C2  UNL d   1       5.990   3.993  -3.726  0.00  0.00     0.041 A 
ATOM      4  C3  UNL d   1       5.346   4.737  -2.718  0.00  0.00    -0.075 A 
ATOM      5  S   UNL d   1       5.996   5.195  -1.188  0.00  0.00     0.015 SA
ATOM      6  C4  UNL d   1       4.562   5.999  -0.736  0.00  0.00     0.022 A 
ATOM      7  C5  UNL d   1       3.601   5.930  -1.717  0.00  0.00     0.026 A 
ATOM      8  C6  UNL d   1       4.036   5.200  -2.874  0.00  0.00    -0.082 A 
ATOM      9  C7  UNL d   1       3.362   4.903  -4.084  0.00  0.00     0.045 A 
ENDROOT
TORSDOF 0
ENDMDL
