MODEL 1
REMARK minimizedAffinity 4.53811216
REMARK minimizedRMSD -1
REMARK  0 active torsions:
REMARK  status: ('A' for Active; 'I' for Inactive)
ROOT
ATOM      1  C   UNL d   1       5.328   5.611  -5.998  0.00  0.00    -0.002 A 
ATOM      2  C1  UNL d   1       4.187   4.824  -5.939  0.00  0.00     0.010 A 
ATOM      3  C2  UNL d   1       3.683   4.395  -4.710  0.00  0.00     0.041 A 
ATOM      4  C3  UNL d   1       4.351   4.774  -3.529  0.00  0.00    -0.075 A 
ATOM      5  S   UNL d   1       3.915   4.367  -1.912  0.00  0.00     0.015 SA
ATOM      6  C4  UNL d   1       5.233   5.228  -1.260  0.00  0.00     0.022 A 
ATOM      7  C5  UNL d   1       5.998   5.818  -2.239  0.00  0.00     0.026 A 
ATOM      8  C6  UNL d   1       5.501   5.567  -3.563  0.00  0.00    -0.082 A 
ATOM      9  C7  UNL d   1       5.988   5.986  -4.824  0.00  0.00     0.045 A 
ENDROOT
TORSDOF 0
ENDMDL
