MODEL 1
REMARK minimizedAffinity 0.492403477
REMARK minimizedRMSD -1
REMARK  0 active torsions:
REMARK  status: ('A' for Active; 'I' for Inactive)
ROOT
ATOM      1  C   UNL d   1       3.366   4.781  -1.142  0.00  0.00    -0.002 A 
ATOM      2  C1  UNL d   1       2.515   4.145  -2.034  0.00  0.00     0.010 A 
ATOM      3  C2  UNL d   1       2.813   4.109  -3.398  0.00  0.00     0.041 A 
ATOM      4  C3  UNL d   1       3.994   4.728  -3.853  0.00  0.00    -0.075 A 
ATOM      5  S   UNL d   1       4.565   4.809  -5.478  0.00  0.00     0.015 SA
ATOM      6  C4  UNL d   1       5.952   5.690  -5.026  0.00  0.00     0.022 A 
ATOM      7  C5  UNL d   1       5.995   5.925  -3.672  0.00  0.00     0.026 A 
ATOM      8  C6  UNL d   1       4.867   5.374  -2.974  0.00  0.00    -0.082 A 
ATOM      9  C7  UNL d   1       4.536   5.394  -1.598  0.00  0.00     0.045 A 
ENDROOT
TORSDOF 0
ENDMDL
