MODEL 1
REMARK minimizedAffinity 6.57859802
REMARK minimizedRMSD -1
REMARK  0 active torsions:
REMARK  status: ('A' for Active; 'I' for Inactive)
ROOT
ATOM      1  C   UNL d   1       4.270   5.995  -1.877  0.00  0.00    -0.002 A 
ATOM      2  C1  UNL d   1       5.402   5.281  -1.510  0.00  0.00     0.010 A 
ATOM      3  C2  UNL d   1       6.000   4.390  -2.403  0.00  0.00     0.041 A 
ATOM      4  C3  UNL d   1       5.437   4.228  -3.684  0.00  0.00    -0.075 A 
ATOM      5  S   UNL d   1       5.999   3.193  -4.943  0.00  0.00     0.015 SA
ATOM      6  C4  UNL d   1       4.751   3.675  -5.998  0.00  0.00     0.022 A 
ATOM      7  C5  UNL d   1       3.916   4.602  -5.420  0.00  0.00     0.026 A 
ATOM      8  C6  UNL d   1       4.298   4.937  -4.077  0.00  0.00    -0.082 A 
ATOM      9  C7  UNL d   1       3.714   5.832  -3.149  0.00  0.00     0.045 A 
ENDROOT
TORSDOF 0
ENDMDL
