MODEL 1
REMARK minimizedAffinity -3.9734807
REMARK minimizedRMSD -1
REMARK  1 active torsions:
REMARK  status: ('A' for Active; 'I' for Inactive)
REMARK    1  A    between atoms: N_2  and  C1_3 
ROOT
ATOM      1  C1  UNL d   1      -1.013  -0.482  -5.136  0.00  0.00     0.143 A 
ATOM      2  C2  UNL d   1      -0.746  -1.093  -3.907  0.00  0.00    -0.057 A 
ATOM      3  C3  UNL d   1       0.365  -0.725  -3.138  0.00  0.00     0.033 A 
ATOM      4  C4  UNL d   1       1.247   0.245  -3.602  0.00  0.00    -0.042 A 
ATOM      5  C5  UNL d   1       1.016   0.849  -4.833  0.00  0.00     0.033 A 
ATOM      6  C6  UNL d   1      -0.099   0.481  -5.592  0.00  0.00    -0.057 A 
ENDROOT
BRANCH   1   7
ATOM      7  N   UNL d   1      -2.046  -0.874  -5.992  0.00  0.00    -0.732 N 
ATOM      8  C   UNL d   1      -2.520  -2.241  -5.997  0.00  0.00     0.284 C 
ATOM      9  H3  UNL d   1      -2.785  -0.177  -6.053  0.00  0.00     0.395 HD
ENDBRANCH   1   7
TORSDOF 1
ENDMDL
