MODEL 1
REMARK minimizedAffinity -2.4344418
REMARK minimizedRMSD -1
REMARK  1 active torsions:
REMARK  status: ('A' for Active; 'I' for Inactive)
REMARK    1  A    between atoms: N_2  and  C1_3 
ROOT
ATOM      1  C1  UNL d   1       0.511  -0.285  -2.504  0.00  0.00     0.143 A 
ATOM      2  C2  UNL d   1      -0.505   0.005  -3.420  0.00  0.00    -0.057 A 
ATOM      3  C3  UNL d   1      -0.237   0.693  -4.609  0.00  0.00     0.033 A 
ATOM      4  C4  UNL d   1       1.054   1.130  -4.891  0.00  0.00    -0.042 A 
ATOM      5  C5  UNL d   1       2.075   0.875  -3.983  0.00  0.00     0.033 A 
ATOM      6  C6  UNL d   1       1.802   0.182  -2.800  0.00  0.00    -0.057 A 
ENDROOT
BRANCH   1   7
ATOM      7  N   UNL d   1       0.291  -0.879  -1.259  0.00  0.00    -0.732 N 
ATOM      8  C   UNL d   1      -0.396  -0.157  -0.209  0.00  0.00     0.284 C 
ATOM      9  H3  UNL d   1       0.019  -1.856  -1.337  0.00  0.00     0.395 HD
ENDBRANCH   1   7
TORSDOF 1
ENDMDL
