MODEL 1
REMARK minimizedAffinity -1.59889436
REMARK minimizedRMSD -1
REMARK  1 active torsions:
REMARK  status: ('A' for Active; 'I' for Inactive)
REMARK    1  A    between atoms: N_2  and  C1_3 
ROOT
ATOM      1  C1  UNL d   1       0.540   0.528   0.435  0.00  0.00     0.143 A 
ATOM      2  C2  UNL d   1       0.915   1.589   1.266  0.00  0.00    -0.057 A 
ATOM      3  C3  UNL d   1       0.203   1.882   2.435  0.00  0.00     0.033 A 
ATOM      4  C4  UNL d   1      -0.918   1.135   2.780  0.00  0.00    -0.042 A 
ATOM      5  C5  UNL d   1      -1.324   0.091   1.956  0.00  0.00     0.033 A 
ATOM      6  C6  UNL d   1      -0.605  -0.201   0.793  0.00  0.00    -0.057 A 
ENDROOT
BRANCH   1   7
ATOM      7  N   UNL d   1       1.148   0.248  -0.791  0.00  0.00    -0.732 N 
ATOM      8  C   UNL d   1       0.357  -0.172  -1.928  0.00  0.00     0.284 C 
ATOM      9  H3  UNL d   1       1.885   0.912  -1.020  0.00  0.00     0.395 HD
ENDBRANCH   1   7
TORSDOF 1
ENDMDL
