MODEL 1
REMARK minimizedAffinity 1.10959101
REMARK minimizedRMSD -1
REMARK  1 active torsions:
REMARK  status: ('A' for Active; 'I' for Inactive)
REMARK    1  A    between atoms: N_2  and  C1_3 
ROOT
ATOM      1  C1  UNL d   1       0.391  -0.228   1.470  0.00  0.00     0.143 A 
ATOM      2  C2  UNL d   1      -0.158  -0.528   0.218  0.00  0.00    -0.057 A 
ATOM      3  C3  UNL d   1      -1.523  -0.350  -0.038  0.00  0.00     0.033 A 
ATOM      4  C4  UNL d   1      -2.371   0.105   0.966  0.00  0.00    -0.042 A 
ATOM      5  C5  UNL d   1      -1.852   0.385   2.225  0.00  0.00     0.033 A 
ATOM      6  C6  UNL d   1      -0.487   0.212   2.473  0.00  0.00    -0.057 A 
ENDROOT
BRANCH   1   7
ATOM      7  N   UNL d   1       1.721  -0.477   1.816  0.00  0.00    -0.732 N 
ATOM      8  C   UNL d   1       2.757  -0.483   0.805  0.00  0.00     0.284 C 
ATOM      9  H3  UNL d   1       1.990  -0.017   2.683  0.00  0.00     0.395 HD
ENDBRANCH   1   7
TORSDOF 1
ENDMDL
