MODEL 1
REMARK minimizedAffinity -4.48841572
REMARK minimizedRMSD -1
REMARK  1 active torsions:
REMARK  status: ('A' for Active; 'I' for Inactive)
REMARK    1  A    between atoms: N_2  and  C1_3 
ROOT
ATOM      1  C1  UNL d   1       0.255  -0.111  -2.903  0.00  0.00     0.143 A 
ATOM      2  C2  UNL d   1       1.437   0.479  -3.364  0.00  0.00    -0.057 A 
ATOM      3  C3  UNL d   1       1.497   1.102  -4.617  0.00  0.00     0.033 A 
ATOM      4  C4  UNL d   1       0.380   1.119  -5.445  0.00  0.00    -0.042 A 
ATOM      5  C5  UNL d   1      -0.798   0.517  -5.018  0.00  0.00     0.033 A 
ATOM      6  C6  UNL d   1      -0.854  -0.097  -3.763  0.00  0.00    -0.057 A 
ENDROOT
BRANCH   1   7
ATOM      7  N   UNL d   1       0.160  -0.831  -1.709  0.00  0.00    -0.732 N 
ATOM      8  C   UNL d   1       0.350  -0.173  -0.434  0.00  0.00     0.284 C 
ATOM      9  H3  UNL d   1      -0.605  -1.502  -1.721  0.00  0.00     0.395 HD
ENDBRANCH   1   7
TORSDOF 1
ENDMDL
