MODEL 1
REMARK minimizedAffinity -0.684415042
REMARK minimizedRMSD -1
REMARK  1 active torsions:
REMARK  status: ('A' for Active; 'I' for Inactive)
REMARK    1  A    between atoms: C1_2  and  C2_3 
ROOT
ATOM      1  C2  UNL d   1      -0.795  -0.047   1.326  0.00  0.00    -0.076 A 
ATOM      2  C3  UNL d   1       0.545   0.051   0.911  0.00  0.00     0.004 A 
ATOM      3  C4  UNL d   1       0.867   0.259  -0.429  0.00  0.00    -0.003 A 
ATOM      4  C5  UNL d   1      -0.145   0.373  -1.376  0.00  0.00     0.000 A 
ATOM      5  C6  UNL d   1      -1.480   0.296  -0.979  0.00  0.00     0.000 A 
ATOM      6  C7  UNL d   1      -1.822   0.103   0.370  0.00  0.00    -0.073 A 
ATOM      7  C8  UNL d   1      -3.277   0.021   0.741  0.00  0.00     0.078 C 
ENDROOT
BRANCH   1   8
ATOM      8  C1  UNL d   1      -1.083  -0.300   2.789  0.00  0.00     0.053 C 
ATOM      9  C   UNL d   1      -0.467   0.755   3.695  0.00  0.00     0.018 C 
ENDBRANCH   1   8
TORSDOF 1
ENDMDL
