MODEL 1
REMARK minimizedAffinity -5.59937191
REMARK minimizedRMSD -1
REMARK  1 active torsions:
REMARK  status: ('A' for Active; 'I' for Inactive)
REMARK    1  A    between atoms: C1_2  and  C2_3 
ROOT
ATOM      1  C2  UNL d   1      -0.426   0.296   0.047  0.00  0.00    -0.076 A 
ATOM      2  C3  UNL d   1       0.853   0.188   0.621  0.00  0.00     0.004 A 
ATOM      3  C4  UNL d   1       1.011  -0.143   1.965  0.00  0.00    -0.003 A 
ATOM      4  C5  UNL d   1      -0.108  -0.372   2.759  0.00  0.00     0.000 A 
ATOM      5  C6  UNL d   1      -1.384  -0.287   2.202  0.00  0.00     0.000 A 
ATOM      6  C7  UNL d   1      -1.560   0.030   0.844  0.00  0.00    -0.073 A 
ATOM      7  C8  UNL d   1      -2.959   0.115   0.298  0.00  0.00     0.078 C 
ENDROOT
BRANCH   1   8
ATOM      8  C1  UNL d   1      -0.536   0.685  -1.409  0.00  0.00     0.053 C 
ATOM      9  C   UNL d   1       0.633   0.176  -2.239  0.00  0.00     0.018 C 
ENDBRANCH   1   8
TORSDOF 1
ENDMDL
