MODEL 1
REMARK minimizedAffinity -2.86094069
REMARK minimizedRMSD -1
REMARK  1 active torsions:
REMARK  status: ('A' for Active; 'I' for Inactive)
REMARK    1  A    between atoms: C1_2  and  C2_3 
ROOT
ATOM      1  C2  UNL d   1      -0.249   0.485  -0.147  0.00  0.00    -0.076 A 
ATOM      2  C3  UNL d   1      -1.628   0.346   0.085  0.00  0.00     0.004 A 
ATOM      3  C4  UNL d   1      -2.126   0.181   1.376  0.00  0.00    -0.003 A 
ATOM      4  C5  UNL d   1      -1.252   0.154   2.457  0.00  0.00     0.000 A 
ATOM      5  C6  UNL d   1       0.118   0.308   2.248  0.00  0.00     0.000 A 
ATOM      6  C7  UNL d   1       0.635   0.491   0.954  0.00  0.00    -0.073 A 
ATOM      7  C8  UNL d   1       2.121   0.646   0.785  0.00  0.00     0.078 C 
ENDROOT
BRANCH   1   8
ATOM      8  C1  UNL d   1       0.235   0.633  -1.572  0.00  0.00     0.053 C 
ATOM      9  C   UNL d   1       0.336  -0.701  -2.295  0.00  0.00     0.018 C 
ENDBRANCH   1   8
TORSDOF 1
ENDMDL
