MODEL 1
REMARK minimizedAffinity -1.2863977
REMARK minimizedRMSD -1
REMARK  1 active torsions:
REMARK  status: ('A' for Active; 'I' for Inactive)
REMARK    1  A    between atoms: C1_2  and  C2_3 
ROOT
ATOM      1  C2  UNL d   1       0.288  -0.480  -2.061  0.00  0.00    -0.076 A 
ATOM      2  C3  UNL d   1       1.644  -0.401  -1.699  0.00  0.00     0.004 A 
ATOM      3  C4  UNL d   1       2.643  -0.852  -2.560  0.00  0.00    -0.003 A 
ATOM      4  C5  UNL d   1       2.303  -1.388  -3.797  0.00  0.00     0.000 A 
ATOM      5  C6  UNL d   1       0.963  -1.457  -4.180  0.00  0.00     0.000 A 
ATOM      6  C7  UNL d   1      -0.055  -0.992  -3.331  0.00  0.00    -0.073 A 
ATOM      7  C8  UNL d   1      -1.483  -1.096  -3.792  0.00  0.00     0.078 C 
ENDROOT
BRANCH   1   8
ATOM      8  C1  UNL d   1      -0.754  -0.000  -1.076  0.00  0.00     0.053 C 
ATOM      9  C   UNL d   1      -0.249  -0.016   0.359  0.00  0.00     0.018 C 
ENDBRANCH   1   8
TORSDOF 1
ENDMDL
