MODEL 1
REMARK minimizedAffinity -2.91872478
REMARK minimizedRMSD -1
REMARK  1 active torsions:
REMARK  status: ('A' for Active; 'I' for Inactive)
REMARK    1  A    between atoms: C1_2  and  C2_3 
ROOT
ATOM      1  C2  UNL d   1      -0.137   0.228  -0.120  0.00  0.00    -0.076 A 
ATOM      2  C3  UNL d   1       1.176   0.248   0.381  0.00  0.00     0.004 A 
ATOM      3  C4  UNL d   1       1.423   0.173   1.751  0.00  0.00    -0.003 A 
ATOM      4  C5  UNL d   1       0.360   0.075   2.642  0.00  0.00     0.000 A 
ATOM      5  C6  UNL d   1      -0.949   0.036   2.162  0.00  0.00     0.000 A 
ATOM      6  C7  UNL d   1      -1.214   0.095   0.783  0.00  0.00    -0.073 A 
ATOM      7  C8  UNL d   1      -2.645   0.055   0.321  0.00  0.00     0.078 C 
ENDROOT
BRANCH   1   8
ATOM      8  C1  UNL d   1      -0.344   0.340  -1.613  0.00  0.00     0.053 C 
ATOM      9  C   UNL d   1       0.694  -0.439  -2.406  0.00  0.00     0.018 C 
ENDBRANCH   1   8
TORSDOF 1
ENDMDL
