MODEL 1
REMARK minimizedAffinity -1.59049821
REMARK minimizedRMSD -1
REMARK  1 active torsions:
REMARK  status: ('A' for Active; 'I' for Inactive)
REMARK    1  A    between atoms: C1_2  and  C2_3 
ROOT
ATOM      1  C2  UNL d   1       1.283   0.153  -1.982  0.00  0.00    -0.076 A 
ATOM      2  C3  UNL d   1       1.825   0.673  -0.794  0.00  0.00     0.004 A 
ATOM      3  C4  UNL d   1       1.096   0.656   0.394  0.00  0.00    -0.003 A 
ATOM      4  C5  UNL d   1      -0.187   0.118   0.413  0.00  0.00     0.000 A 
ATOM      5  C6  UNL d   1      -0.733  -0.417  -0.753  0.00  0.00     0.000 A 
ATOM      6  C7  UNL d   1      -0.005  -0.423  -1.956  0.00  0.00    -0.073 A 
ATOM      7  C8  UNL d   1      -0.645  -1.008  -3.184  0.00  0.00     0.078 C 
ENDROOT
BRANCH   1   8
ATOM      8  C1  UNL d   1       2.110   0.224  -3.246  0.00  0.00     0.053 C 
ATOM      9  C   UNL d   1       3.101  -0.925  -3.359  0.00  0.00     0.018 C 
ENDBRANCH   1   8
TORSDOF 1
ENDMDL
