MODEL 1
REMARK minimizedAffinity -3.8771925
REMARK minimizedRMSD -1
REMARK  1 active torsions:
REMARK  status: ('A' for Active; 'I' for Inactive)
REMARK    1  A    between atoms: C1_2  and  C2_3 
ROOT
ATOM      1  C2  UNL d   1      -0.656   0.590   0.400  0.00  0.00    -0.076 A 
ATOM      2  C3  UNL d   1       0.652   0.327   0.842  0.00  0.00     0.004 A 
ATOM      3  C4  UNL d   1       0.916   0.059   2.184  0.00  0.00    -0.003 A 
ATOM      4  C5  UNL d   1      -0.125   0.049   3.106  0.00  0.00     0.000 A 
ATOM      5  C6  UNL d   1      -1.431   0.290   2.683  0.00  0.00     0.000 A 
ATOM      6  C7  UNL d   1      -1.716   0.546   1.330  0.00  0.00    -0.073 A 
ATOM      7  C8  UNL d   1      -3.143   0.805   0.930  0.00  0.00     0.078 C 
ENDROOT
BRANCH   1   8
ATOM      8  C1  UNL d   1      -0.877   0.901  -1.063  0.00  0.00     0.053 C 
ATOM      9  C   UNL d   1       0.287   0.458  -1.936  0.00  0.00     0.018 C 
ENDBRANCH   1   8
TORSDOF 1
ENDMDL
