MODEL 1
REMARK minimizedAffinity -2.85847831
REMARK minimizedRMSD -1
REMARK  1 active torsions:
REMARK  status: ('A' for Active; 'I' for Inactive)
REMARK    1  A    between atoms: C1_2  and  C2_3 
ROOT
ATOM      1  C2  UNL d   1       0.998   0.021  -1.240  0.00  0.00    -0.076 A 
ATOM      2  C3  UNL d   1       1.991  -0.173  -2.215  0.00  0.00     0.004 A 
ATOM      3  C4  UNL d   1       1.724  -0.892  -3.379  0.00  0.00    -0.003 A 
ATOM      4  C5  UNL d   1       0.457  -1.428  -3.587  0.00  0.00     0.000 A 
ATOM      5  C6  UNL d   1      -0.545  -1.230  -2.638  0.00  0.00     0.000 A 
ATOM      6  C7  UNL d   1      -0.296  -0.494  -1.466  0.00  0.00    -0.073 A 
ATOM      7  C8  UNL d   1      -1.413  -0.318  -0.474  0.00  0.00     0.078 C 
ENDROOT
BRANCH   1   8
ATOM      8  C1  UNL d   1       1.355   0.785   0.015  0.00  0.00     0.053 C 
ATOM      9  C   UNL d   1       2.090  -0.074   1.032  0.00  0.00     0.018 C 
ENDBRANCH   1   8
TORSDOF 1
ENDMDL
