MODEL 1
REMARK minimizedAffinity -3.51044917
REMARK minimizedRMSD -1
REMARK  1 active torsions:
REMARK  status: ('A' for Active; 'I' for Inactive)
REMARK    1  A    between atoms: C1_2  and  C2_3 
ROOT
ATOM      1  C2  UNL d   1       0.577   0.087  -1.071  0.00  0.00    -0.076 A 
ATOM      2  C3  UNL d   1       1.714   0.375  -1.845  0.00  0.00     0.004 A 
ATOM      3  C4  UNL d   1       1.832  -0.098  -3.150  0.00  0.00    -0.003 A 
ATOM      4  C5  UNL d   1       0.814  -0.867  -3.704  0.00  0.00     0.000 A 
ATOM      5  C6  UNL d   1      -0.329  -1.148  -2.956  0.00  0.00     0.000 A 
ATOM      6  C7  UNL d   1      -0.471  -0.665  -1.644  0.00  0.00    -0.073 A 
ATOM      7  C8  UNL d   1      -1.723  -1.004  -0.882  0.00  0.00     0.078 C 
ENDROOT
BRANCH   1   8
ATOM      8  C1  UNL d   1       0.516   0.604   0.349  0.00  0.00     0.053 C 
ATOM      9  C   UNL d   1       1.551  -0.050   1.252  0.00  0.00     0.018 C 
ENDBRANCH   1   8
TORSDOF 1
ENDMDL
