MODEL 1
REMARK minimizedAffinity -4.40146542
REMARK minimizedRMSD -1
REMARK  1 active torsions:
REMARK  status: ('A' for Active; 'I' for Inactive)
REMARK    1  A    between atoms: C1_2  and  C2_3 
ROOT
ATOM      1  C2  UNL d   1      -0.265   0.874  -0.165  0.00  0.00    -0.076 A 
ATOM      2  C3  UNL d   1      -1.658   0.962  -0.330  0.00  0.00     0.004 A 
ATOM      3  C4  UNL d   1      -2.513   0.951   0.771  0.00  0.00    -0.003 A 
ATOM      4  C5  UNL d   1      -1.989   0.853   2.055  0.00  0.00     0.000 A 
ATOM      5  C6  UNL d   1      -0.608   0.782   2.238  0.00  0.00     0.000 A 
ATOM      6  C7  UNL d   1       0.269   0.808   1.140  0.00  0.00    -0.073 A 
ATOM      7  C8  UNL d   1       1.749   0.723   1.396  0.00  0.00     0.078 C 
ENDROOT
BRANCH   1   8
ATOM      8  C1  UNL d   1       0.611   0.863  -1.397  0.00  0.00     0.053 C 
ATOM      9  C   UNL d   1       0.732  -0.522  -2.014  0.00  0.00     0.018 C 
ENDBRANCH   1   8
TORSDOF 1
ENDMDL
