MODEL 1
REMARK minimizedAffinity 1.0871954
REMARK minimizedRMSD -1
REMARK  1 active torsions:
REMARK  status: ('A' for Active; 'I' for Inactive)
REMARK    1  A    between atoms: C1_2  and  C2_3 
ROOT
ATOM      1  C2  UNL d   1      -1.171   0.368   1.523  0.00  0.00    -0.076 A 
ATOM      2  C3  UNL d   1      -1.087  -0.308   0.293  0.00  0.00     0.004 A 
ATOM      3  C4  UNL d   1       0.103  -0.330  -0.433  0.00  0.00    -0.003 A 
ATOM      4  C5  UNL d   1       1.228   0.323   0.059  0.00  0.00     0.000 A 
ATOM      5  C6  UNL d   1       1.167   0.983   1.286  0.00  0.00     0.000 A 
ATOM      6  C7  UNL d   1      -0.020   1.001   2.038  0.00  0.00    -0.073 A 
ATOM      7  C8  UNL d   1      -0.030   1.733   3.352  0.00  0.00     0.078 C 
ENDROOT
BRANCH   1   8
ATOM      8  C1  UNL d   1      -2.495   0.380   2.253  0.00  0.00     0.053 C 
ATOM      9  C   UNL d   1      -3.683   0.428   1.305  0.00  0.00     0.018 C 
ENDBRANCH   1   8
TORSDOF 1
ENDMDL
