MODEL 1
REMARK minimizedAffinity -0.937814176
REMARK minimizedRMSD -1
REMARK  1 active torsions:
REMARK  status: ('A' for Active; 'I' for Inactive)
REMARK    1  A    between atoms: C1_2  and  C2_3 
ROOT
ATOM      1  C2  UNL d   1      -0.311   0.294   0.112  0.00  0.00    -0.076 A 
ATOM      2  C3  UNL d   1       0.958   0.157   0.701  0.00  0.00     0.004 A 
ATOM      3  C4  UNL d   1       1.112   0.176   2.087  0.00  0.00    -0.003 A 
ATOM      4  C5  UNL d   1      -0.002   0.331   2.905  0.00  0.00     0.000 A 
ATOM      5  C6  UNL d   1      -1.270   0.451   2.338  0.00  0.00     0.000 A 
ATOM      6  C7  UNL d   1      -1.444   0.418   0.944  0.00  0.00    -0.073 A 
ATOM      7  C8  UNL d   1      -2.834   0.558   0.386  0.00  0.00     0.078 C 
ENDROOT
BRANCH   1   8
ATOM      8  C1  UNL d   1      -0.412   0.294  -1.397  0.00  0.00     0.053 C 
ATOM      9  C   UNL d   1       0.882  -0.139  -2.068  0.00  0.00     0.018 C 
ENDBRANCH   1   8
TORSDOF 1
ENDMDL
