MODEL 1
REMARK minimizedAffinity -3.73391151
REMARK minimizedRMSD -1
REMARK  1 active torsions:
REMARK  status: ('A' for Active; 'I' for Inactive)
REMARK    1  A    between atoms: C1_2  and  C2_3 
ROOT
ATOM      1  C2  UNL d   1      -1.243   0.412   1.232  0.00  0.00    -0.076 A 
ATOM      2  C3  UNL d   1      -1.588   0.564  -0.123  0.00  0.00     0.004 A 
ATOM      3  C4  UNL d   1      -0.634   0.412  -1.127  0.00  0.00    -0.003 A 
ATOM      4  C5  UNL d   1       0.681   0.107  -0.794  0.00  0.00     0.000 A 
ATOM      5  C6  UNL d   1       1.037  -0.064   0.543  0.00  0.00     0.000 A 
ATOM      6  C7  UNL d   1       0.084   0.069   1.567  0.00  0.00    -0.073 A 
ATOM      7  C8  UNL d   1       0.525  -0.120   2.993  0.00  0.00     0.078 C 
ENDROOT
BRANCH   1   8
ATOM      8  C1  UNL d   1      -2.315   0.615   2.279  0.00  0.00     0.053 C 
ATOM      9  C   UNL d   1      -3.666   0.959   1.672  0.00  0.00     0.018 C 
ENDBRANCH   1   8
TORSDOF 1
ENDMDL
