MODEL 1
REMARK minimizedAffinity -1.03315496
REMARK minimizedRMSD -1
REMARK  0 active torsions:
REMARK  status: ('A' for Active; 'I' for Inactive)
ROOT
ATOM      1  C   UNL d   1      -0.368  -0.581   2.129  0.00  0.00     0.020 A 
ATOM      2  C1  UNL d   1       0.154  -0.904   0.877  0.00  0.00     0.020 A 
ATOM      3  C2  UNL d   1       0.420   0.105  -0.051  0.00  0.00     0.034 A 
ATOM      4  C3  UNL d   1       0.165   1.443   0.272  0.00  0.00     0.017 A 
ATOM      5  C4  UNL d   1      -0.358   1.767   1.529  0.00  0.00     0.017 A 
ATOM      6  C5  UNL d   1      -0.623   0.752   2.454  0.00  0.00     0.034 A 
ATOM      7 Cl   UNL d   1      -0.699   3.395   2.000  0.00  0.00    -0.070 Cl
ATOM      8 Cl1  UNL d   1       0.519   2.639  -0.923  0.00  0.00    -0.070 Cl
ENDROOT
TORSDOF 0
ENDMDL
