MODEL 1
REMARK minimizedAffinity -4.63912535
REMARK minimizedRMSD -1
REMARK  0 active torsions:
REMARK  status: ('A' for Active; 'I' for Inactive)
ROOT
ATOM      1  C   UNL d   1       0.365  -0.800   0.359  0.00  0.00     0.020 A 
ATOM      2  C1  UNL d   1      -0.361  -0.495   1.510  0.00  0.00     0.020 A 
ATOM      3  C2  UNL d   1      -0.711   0.829   1.784  0.00  0.00     0.034 A 
ATOM      4  C3  UNL d   1      -0.336   1.853   0.906  0.00  0.00     0.017 A 
ATOM      5  C4  UNL d   1       0.392   1.546  -0.249  0.00  0.00     0.017 A 
ATOM      6  C5  UNL d   1       0.740   0.218  -0.518  0.00  0.00     0.034 A 
ATOM      7 Cl   UNL d   1       0.890   2.754  -1.379  0.00  0.00    -0.070 Cl
ATOM      8 Cl1  UNL d   1      -0.804   3.467   1.308  0.00  0.00    -0.070 Cl
ENDROOT
TORSDOF 0
ENDMDL
