MODEL 1
REMARK minimizedAffinity -2.1312654
REMARK minimizedRMSD -1
REMARK  0 active torsions:
REMARK  status: ('A' for Active; 'I' for Inactive)
ROOT
ATOM      1  C   UNL d   1      -1.013   0.678   2.323  0.00  0.00     0.020 A 
ATOM      2  C1  UNL d   1      -0.429  -0.568   2.100  0.00  0.00     0.020 A 
ATOM      3  C2  UNL d   1       0.363  -0.775   0.968  0.00  0.00     0.034 A 
ATOM      4  C3  UNL d   1       0.573   0.266   0.056  0.00  0.00     0.017 A 
ATOM      5  C4  UNL d   1      -0.014   1.516   0.281  0.00  0.00     0.017 A 
ATOM      6  C5  UNL d   1      -0.806   1.718   1.416  0.00  0.00     0.034 A 
ATOM      7 Cl   UNL d   1       0.199   2.848  -0.799  0.00  0.00    -0.070 Cl
ATOM      8 Cl1  UNL d   1       1.564  -0.061  -1.321  0.00  0.00    -0.070 Cl
ENDROOT
TORSDOF 0
ENDMDL
