MODEL 1
REMARK minimizedAffinity -4.25200653
REMARK minimizedRMSD -1
REMARK  0 active torsions:
REMARK  status: ('A' for Active; 'I' for Inactive)
ROOT
ATOM      1  C   UNL d   1      -0.231  -0.745   1.127  0.00  0.00     0.020 A 
ATOM      2  C1  UNL d   1      -0.824  -0.180   2.255  0.00  0.00     0.020 A 
ATOM      3  C2  UNL d   1      -0.840   1.207   2.415  0.00  0.00     0.034 A 
ATOM      4  C3  UNL d   1      -0.263   2.035   1.445  0.00  0.00     0.017 A 
ATOM      5  C4  UNL d   1       0.332   1.467   0.312  0.00  0.00     0.017 A 
ATOM      6  C5  UNL d   1       0.346   0.077   0.157  0.00  0.00     0.034 A 
ATOM      7 Cl   UNL d   1       1.065   2.422  -0.928  0.00  0.00    -0.070 Cl
ATOM      8 Cl1  UNL d   1      -0.320   3.741   1.707  0.00  0.00    -0.070 Cl
ENDROOT
TORSDOF 0
ENDMDL
