MODEL 1
REMARK minimizedAffinity -3.12526321
REMARK minimizedRMSD -1
REMARK  0 active torsions:
REMARK  status: ('A' for Active; 'I' for Inactive)
ROOT
ATOM      1  C   UNL d   1       0.424  -3.698  -1.996  0.00  0.00     0.020 A 
ATOM      2  C1  UNL d   1       0.425  -2.904  -3.142  0.00  0.00     0.020 A 
ATOM      3  C2  UNL d   1       0.688  -1.536  -3.043  0.00  0.00     0.034 A 
ATOM      4  C3  UNL d   1       0.950  -0.958  -1.796  0.00  0.00     0.017 A 
ATOM      5  C4  UNL d   1       0.948  -1.756  -0.646  0.00  0.00     0.017 A 
ATOM      6  C5  UNL d   1       0.685  -3.125  -0.750  0.00  0.00     0.034 A 
ATOM      7 Cl   UNL d   1       1.262  -1.114   0.928  0.00  0.00    -0.070 Cl
ATOM      8 Cl1  UNL d   1       1.266   0.740  -1.748  0.00  0.00    -0.070 Cl
ENDROOT
TORSDOF 0
ENDMDL
