MODEL 1
REMARK minimizedAffinity -4.31754303
REMARK minimizedRMSD -1
REMARK  0 active torsions:
REMARK  status: ('A' for Active; 'I' for Inactive)
ROOT
ATOM      1  C   UNL d   1      -1.011   0.488   2.809  0.00  0.00     0.020 A 
ATOM      2  C1  UNL d   1      -0.569  -0.818   2.601  0.00  0.00     0.020 A 
ATOM      3  C2  UNL d   1       0.119  -1.145   1.431  0.00  0.00     0.034 A 
ATOM      4  C3  UNL d   1       0.367  -0.164   0.464  0.00  0.00     0.017 A 
ATOM      5  C4  UNL d   1      -0.076   1.147   0.673  0.00  0.00     0.017 A 
ATOM      6  C5  UNL d   1      -0.765   1.468   1.847  0.00  0.00     0.034 A 
ATOM      7 Cl   UNL d   1       0.193   2.411  -0.475  0.00  0.00    -0.070 Cl
ATOM      8 Cl1  UNL d   1       1.224  -0.639  -0.960  0.00  0.00    -0.070 Cl
ENDROOT
TORSDOF 0
ENDMDL
