MODEL 1
REMARK minimizedAffinity -3.35398865
REMARK minimizedRMSD -1
REMARK  0 active torsions:
REMARK  status: ('A' for Active; 'I' for Inactive)
ROOT
ATOM      1  C   UNL d   1      -0.960  -0.398   2.610  0.00  0.00     0.020 A 
ATOM      2  C1  UNL d   1      -1.374   0.933   2.569  0.00  0.00     0.020 A 
ATOM      3  C2  UNL d   1      -1.068   1.725   1.460  0.00  0.00     0.034 A 
ATOM      4  C3  UNL d   1      -0.347   1.187   0.388  0.00  0.00     0.017 A 
ATOM      5  C4  UNL d   1       0.068  -0.149   0.431  0.00  0.00     0.017 A 
ATOM      6  C5  UNL d   1      -0.241  -0.938   1.544  0.00  0.00     0.034 A 
ATOM      7 Cl   UNL d   1       0.962  -0.884  -0.853  0.00  0.00    -0.070 Cl
ATOM      8 Cl1  UNL d   1      -0.004   2.223  -0.951  0.00  0.00    -0.070 Cl
ENDROOT
TORSDOF 0
ENDMDL
