MODEL 1
REMARK minimizedAffinity -2.25961065
REMARK minimizedRMSD -1
REMARK  0 active torsions:
REMARK  status: ('A' for Active; 'I' for Inactive)
ROOT
ATOM      1  C   UNL d   1       0.781   1.796  -1.743  0.00  0.00     0.020 A 
ATOM      2  C1  UNL d   1       1.220   0.472  -1.745  0.00  0.00     0.020 A 
ATOM      3  C2  UNL d   1       0.927  -0.363  -0.665  0.00  0.00     0.034 A 
ATOM      4  C3  UNL d   1       0.192   0.125   0.422  0.00  0.00     0.017 A 
ATOM      5  C4  UNL d   1      -0.249   1.453   0.423  0.00  0.00     0.017 A 
ATOM      6  C5  UNL d   1       0.048   2.285  -0.661  0.00  0.00     0.034 A 
ATOM      7 Cl   UNL d   1      -1.161   2.126   1.728  0.00  0.00    -0.070 Cl
ATOM      8 Cl1  UNL d   1      -0.135  -0.964   1.724  0.00  0.00    -0.070 Cl
ENDROOT
TORSDOF 0
ENDMDL
