MODEL 1
REMARK minimizedAffinity -1.747105
REMARK minimizedRMSD -1
REMARK  0 active torsions:
REMARK  status: ('A' for Active; 'I' for Inactive)
ROOT
ATOM      1  C   UNL d   1      -1.864  -0.368   0.892  0.00  0.00     0.020 A 
ATOM      2  C1  UNL d   1      -2.356   0.812   1.450  0.00  0.00     0.020 A 
ATOM      3  C2  UNL d   1      -1.664   1.433   2.492  0.00  0.00     0.034 A 
ATOM      4  C3  UNL d   1      -0.477   0.874   2.980  0.00  0.00     0.017 A 
ATOM      5  C4  UNL d   1       0.015  -0.310   2.420  0.00  0.00     0.017 A 
ATOM      6  C5  UNL d   1      -0.681  -0.927   1.376  0.00  0.00     0.034 A 
ATOM      7 Cl   UNL d   1       1.473  -1.059   2.969  0.00  0.00    -0.070 Cl
ATOM      8 Cl1  UNL d   1       0.326   1.696   4.270  0.00  0.00    -0.070 Cl
ENDROOT
TORSDOF 0
ENDMDL
