MODEL 1
REMARK minimizedAffinity -3.07763052
REMARK minimizedRMSD -1
REMARK  0 active torsions:
REMARK  status: ('A' for Active; 'I' for Inactive)
ROOT
ATOM      1  C   UNL d   1      -1.214   1.288   1.937  0.00  0.00     0.020 A 
ATOM      2  C1  UNL d   1      -0.764  -0.028   2.030  0.00  0.00     0.020 A 
ATOM      3  C2  UNL d   1       0.027  -0.569   1.014  0.00  0.00     0.034 A 
ATOM      4  C3  UNL d   1       0.370   0.207  -0.100  0.00  0.00     0.017 A 
ATOM      5  C4  UNL d   1      -0.083   1.528  -0.192  0.00  0.00     0.017 A 
ATOM      6  C5  UNL d   1      -0.875   2.064   0.828  0.00  0.00     0.034 A 
ATOM      7 Cl   UNL d   1       0.298   2.547  -1.535  0.00  0.00    -0.070 Cl
ATOM      8 Cl1  UNL d   1       1.351  -0.526  -1.318  0.00  0.00    -0.070 Cl
ENDROOT
TORSDOF 0
ENDMDL
