MODEL 1
REMARK minimizedAffinity -2.16791391
REMARK minimizedRMSD -1
REMARK  0 active torsions:
REMARK  status: ('A' for Active; 'I' for Inactive)
ROOT
ATOM      1  C   UNL d   1      -0.426  -0.633   1.531  0.00  0.00     0.020 A 
ATOM      2  C1  UNL d   1      -0.903   0.495   2.198  0.00  0.00     0.020 A 
ATOM      3  C2  UNL d   1      -0.724   1.763   1.642  0.00  0.00     0.034 A 
ATOM      4  C3  UNL d   1      -0.067   1.907   0.415  0.00  0.00     0.017 A 
ATOM      5  C4  UNL d   1       0.411   0.775  -0.255  0.00  0.00     0.017 A 
ATOM      6  C5  UNL d   1       0.229  -0.493   0.307  0.00  0.00     0.034 A 
ATOM      7 Cl   UNL d   1       1.232   0.874  -1.773  0.00  0.00    -0.070 Cl
ATOM      8 Cl1  UNL d   1       0.118   3.506  -0.214  0.00  0.00    -0.070 Cl
ENDROOT
TORSDOF 0
ENDMDL
