MODEL 1
REMARK minimizedAffinity -2.73793435
REMARK minimizedRMSD -1
REMARK  0 active torsions:
REMARK  status: ('A' for Active; 'I' for Inactive)
ROOT
ATOM      1  C   UNL d   1      -0.811  -1.807  -2.287  0.00  0.00     0.020 A 
ATOM      2  C1  UNL d   1      -0.637  -2.881  -1.415  0.00  0.00     0.020 A 
ATOM      3  C2  UNL d   1      -0.375  -2.646  -0.063  0.00  0.00     0.034 A 
ATOM      4  C3  UNL d   1      -0.286  -1.335   0.420  0.00  0.00     0.017 A 
ATOM      5  C4  UNL d   1      -0.461  -0.259  -0.457  0.00  0.00     0.017 A 
ATOM      6  C5  UNL d   1      -0.723  -0.499  -1.810  0.00  0.00     0.034 A 
ATOM      7 Cl   UNL d   1      -0.365   1.386   0.064  0.00  0.00    -0.070 Cl
ATOM      8 Cl1  UNL d   1       0.040  -1.119   2.103  0.00  0.00    -0.070 Cl
ENDROOT
TORSDOF 0
ENDMDL
