MODEL 1
REMARK minimizedAffinity 3.43049812
REMARK minimizedRMSD -1
REMARK  0 active torsions:
REMARK  status: ('A' for Active; 'I' for Inactive)
ROOT
ATOM      1  C   UNL d   1       0.627   0.028   1.268  0.00  0.00     0.020 A 
ATOM      2  C1  UNL d   1      -0.098  -1.051   0.765  0.00  0.00     0.020 A 
ATOM      3  C2  UNL d   1      -0.435  -1.095  -0.590  0.00  0.00     0.034 A 
ATOM      4  C3  UNL d   1      -0.047  -0.057  -1.446  0.00  0.00     0.017 A 
ATOM      5  C4  UNL d   1       0.681   1.025  -0.940  0.00  0.00     0.017 A 
ATOM      6  C5  UNL d   1       1.016   1.064   0.417  0.00  0.00     0.034 A 
ATOM      7 Cl   UNL d   1       1.196   2.342  -1.934  0.00  0.00    -0.070 Cl
ATOM      8 Cl1  UNL d   1      -0.498  -0.177  -3.109  0.00  0.00    -0.070 Cl
ENDROOT
TORSDOF 0
ENDMDL
