MODEL 1
REMARK minimizedAffinity -3.92916155
REMARK minimizedRMSD -1
REMARK  0 active torsions:
REMARK  status: ('A' for Active; 'I' for Inactive)
ROOT
ATOM      1  C   UNL d   1       0.154   0.778  -0.192  0.00  0.00     0.020 A 
ATOM      2  C1  UNL d   1       0.935  -0.041   0.622  0.00  0.00     0.020 A 
ATOM      3  C2  UNL d   1       1.367  -1.283   0.153  0.00  0.00     0.034 A 
ATOM      4  C3  UNL d   1       1.020  -1.709  -1.134  0.00  0.00     0.017 A 
ATOM      5  C4  UNL d   1       0.237  -0.886  -1.951  0.00  0.00     0.017 A 
ATOM      6  C5  UNL d   1      -0.194   0.357  -1.476  0.00  0.00     0.034 A 
ATOM      7 Cl   UNL d   1      -0.232  -1.343  -3.551  0.00  0.00    -0.070 Cl
ATOM      8 Cl1  UNL d   1       1.590  -3.257  -1.650  0.00  0.00    -0.070 Cl
ENDROOT
TORSDOF 0
ENDMDL
