MODEL 1
REMARK minimizedAffinity -1.19509196
REMARK minimizedRMSD -1
REMARK  0 active torsions:
REMARK  status: ('A' for Active; 'I' for Inactive)
ROOT
ATOM      1  C   UNL d   1       5.760   4.619  -5.993  0.00  0.00     0.023 A 
ATOM      2  C1  UNL d   1       5.079   3.401  -5.995  0.00  0.00     0.003 A 
ATOM      3  C2  UNL d   1       3.683   3.381  -5.997  0.00  0.00     0.048 A 
ATOM      4  C3  UNL d   1       2.974   4.582  -5.997  0.00  0.00     0.023 A 
ATOM      5  C4  UNL d   1       3.651   5.803  -5.996  0.00  0.00     0.048 A 
ATOM      6  C5  UNL d   1       5.047   5.818  -5.994  0.00  0.00     0.003 A 
ATOM      7  I   UNL d   1       0.896   4.555  -6.000  0.00  0.00    -0.146 I 
ENDROOT
TORSDOF 0
ENDMDL
