MODEL 1
REMARK minimizedAffinity 0.215016648
REMARK minimizedRMSD -1
REMARK  0 active torsions:
REMARK  status: ('A' for Active; 'I' for Inactive)
ROOT
ATOM      1  C   UNL d   1      -1.699   5.997  -4.064  0.00  0.00     0.023 A 
ATOM      2  C1  UNL d   1      -1.503   5.954  -5.445  0.00  0.00     0.003 A 
ATOM      3  C2  UNL d   1      -0.634   5.012  -5.999  0.00  0.00     0.048 A 
ATOM      4  C3  UNL d   1       0.035   4.115  -5.167  0.00  0.00     0.023 A 
ATOM      5  C4  UNL d   1      -0.158   4.154  -3.785  0.00  0.00     0.048 A 
ATOM      6  C5  UNL d   1      -1.027   5.098  -3.235  0.00  0.00     0.003 A 
ATOM      7  I   UNL d   1       1.329   2.712  -5.990  0.00  0.00    -0.146 I 
ENDROOT
TORSDOF 0
ENDMDL
