MODEL 1
REMARK minimizedAffinity 2.87544823
REMARK minimizedRMSD -1
REMARK  0 active torsions:
REMARK  status: ('A' for Active; 'I' for Inactive)
ROOT
ATOM      1  C   UNL d   1       2.351   4.339  -5.995  0.00  0.00     0.023 A 
ATOM      2  C1  UNL d   1       2.024   2.982  -5.997  0.00  0.00     0.003 A 
ATOM      3  C2  UNL d   1       0.686   2.586  -5.996  0.00  0.00     0.048 A 
ATOM      4  C3  UNL d   1      -0.321   3.550  -5.995  0.00  0.00     0.023 A 
ATOM      5  C4  UNL d   1       0.001   4.908  -5.995  0.00  0.00     0.048 A 
ATOM      6  C5  UNL d   1       1.341   5.300  -5.995  0.00  0.00     0.003 A 
ATOM      7  I   UNL d   1      -2.315   2.962  -5.995  0.00  0.00    -0.146 I 
ENDROOT
TORSDOF 0
ENDMDL
