MODEL 1
REMARK minimizedAffinity 0.532037675
REMARK minimizedRMSD -1
REMARK  0 active torsions:
REMARK  status: ('A' for Active; 'I' for Inactive)
ROOT
ATOM      1  C   UNL d   1      -2.334   4.787  -5.997  0.00  0.00     0.023 A 
ATOM      2  C1  UNL d   1      -1.170   5.556  -5.997  0.00  0.00     0.003 A 
ATOM      3  C2  UNL d   1       0.079   4.933  -5.997  0.00  0.00     0.048 A 
ATOM      4  C3  UNL d   1       0.158   3.541  -5.999  0.00  0.00     0.023 A 
ATOM      5  C4  UNL d   1      -1.004   2.767  -5.999  0.00  0.00     0.048 A 
ATOM      6  C5  UNL d   1      -2.252   3.395  -5.998  0.00  0.00     0.003 A 
ATOM      7  I   UNL d   1       2.017   2.611  -6.000  0.00  0.00    -0.146 I 
ENDROOT
TORSDOF 0
ENDMDL
