MODEL 1
REMARK minimizedAffinity -1.504197
REMARK minimizedRMSD -1
REMARK  0 active torsions:
REMARK  status: ('A' for Active; 'I' for Inactive)
ROOT
ATOM      1  C   UNL d   1      -4.076   5.177  -5.966  0.00  0.00     0.023 A 
ATOM      2  C1  UNL d   1      -2.949   5.998  -5.952  0.00  0.00     0.003 A 
ATOM      3  C2  UNL d   1      -1.672   5.433  -5.960  0.00  0.00     0.048 A 
ATOM      4  C3  UNL d   1      -1.529   4.046  -5.984  0.00  0.00     0.023 A 
ATOM      5  C4  UNL d   1      -2.655   3.220  -5.999  0.00  0.00     0.048 A 
ATOM      6  C5  UNL d   1      -3.930   3.790  -5.990  0.00  0.00     0.003 A 
ATOM      7  I   UNL d   1       0.370   3.203  -5.997  0.00  0.00    -0.146 I 
ENDROOT
TORSDOF 0
ENDMDL
