MODEL 1
REMARK minimizedAffinity -3.23811412
REMARK minimizedRMSD -1
REMARK  0 active torsions:
REMARK  status: ('A' for Active; 'I' for Inactive)
ROOT
ATOM      1  C   UNL d   1      -1.401   3.676  -6.000  0.00  0.00     0.023 A 
ATOM      2  C1  UNL d   1      -0.726   2.456  -5.997  0.00  0.00     0.003 A 
ATOM      3  C2  UNL d   1       0.670   2.429  -5.996  0.00  0.00     0.048 A 
ATOM      4  C3  UNL d   1       1.385   3.627  -5.996  0.00  0.00     0.023 A 
ATOM      5  C4  UNL d   1       0.713   4.850  -5.998  0.00  0.00     0.048 A 
ATOM      6  C5  UNL d   1      -0.683   4.872  -6.000  0.00  0.00     0.003 A 
ATOM      7  I   UNL d   1       3.463   3.590  -5.994  0.00  0.00    -0.146 I 
ENDROOT
TORSDOF 0
ENDMDL
