MODEL 1
REMARK minimizedAffinity 1.61026144
REMARK minimizedRMSD -1
REMARK  0 active torsions:
REMARK  status: ('A' for Active; 'I' for Inactive)
ROOT
ATOM      1  C   UNL d   1      -1.877   4.321  -5.990  0.00  0.00     0.023 A 
ATOM      2  C1  UNL d   1      -0.806   5.214  -5.991  0.00  0.00     0.003 A 
ATOM      3  C2  UNL d   1       0.506   4.734  -5.993  0.00  0.00     0.048 A 
ATOM      4  C3  UNL d   1       0.739   3.360  -5.996  0.00  0.00     0.023 A 
ATOM      5  C4  UNL d   1      -0.330   2.462  -5.996  0.00  0.00     0.048 A 
ATOM      6  C5  UNL d   1      -1.640   2.946  -5.992  0.00  0.00     0.003 A 
ATOM      7  I   UNL d   1       2.689   2.643  -6.000  0.00  0.00    -0.146 I 
ENDROOT
TORSDOF 0
ENDMDL
