MODEL 1
REMARK minimizedAffinity 1.75508904
REMARK minimizedRMSD -1
REMARK  0 active torsions:
REMARK  status: ('A' for Active; 'I' for Inactive)
ROOT
ATOM      1  C   UNL d   1       0.884   0.619   0.738  0.00  0.00     0.023 A 
ATOM      2  C1  UNL d   1      -0.036  -0.379   1.063  0.00  0.00     0.003 A 
ATOM      3  C2  UNL d   1      -1.403  -0.095   1.066  0.00  0.00     0.048 A 
ATOM      4  C3  UNL d   1      -1.844   1.188   0.744  0.00  0.00     0.023 A 
ATOM      5  C4  UNL d   1      -0.928   2.189   0.418  0.00  0.00     0.048 A 
ATOM      6  C5  UNL d   1       0.438   1.901   0.417  0.00  0.00     0.003 A 
ATOM      7  I   UNL d   1      -3.879   1.612   0.749  0.00  0.00    -0.146 I 
ENDROOT
TORSDOF 0
ENDMDL
