MODEL 1
REMARK minimizedAffinity -1.65957522
REMARK minimizedRMSD -1
REMARK  0 active torsions:
REMARK  status: ('A' for Active; 'I' for Inactive)
ROOT
ATOM      1  C   UNL d   1      -3.695   5.286  -5.989  0.00  0.00     0.023 A 
ATOM      2  C1  UNL d   1      -3.773   3.893  -5.985  0.00  0.00     0.003 A 
ATOM      3  C2  UNL d   1      -2.605   3.127  -5.988  0.00  0.00     0.048 A 
ATOM      4  C3  UNL d   1      -1.363   3.761  -5.995  0.00  0.00     0.023 A 
ATOM      5  C4  UNL d   1      -1.280   5.154  -5.998  0.00  0.00     0.048 A 
ATOM      6  C5  UNL d   1      -2.451   5.916  -5.996  0.00  0.00     0.003 A 
ATOM      7  I   UNL d   1       0.377   2.624  -6.000  0.00  0.00    -0.146 I 
ENDROOT
TORSDOF 0
ENDMDL
