MODEL 1
REMARK minimizedAffinity -1.19432497
REMARK minimizedRMSD -1
REMARK  0 active torsions:
REMARK  status: ('A' for Active; 'I' for Inactive)
ROOT
ATOM      1  C   UNL d   1      -3.267   5.390  -5.987  0.00  0.00     0.023 A 
ATOM      2  C1  UNL d   1      -1.999   5.970  -5.989  0.00  0.00     0.003 A 
ATOM      3  C2  UNL d   1      -0.860   5.162  -5.992  0.00  0.00     0.048 A 
ATOM      4  C3  UNL d   1      -0.997   3.774  -5.994  0.00  0.00     0.023 A 
ATOM      5  C4  UNL d   1      -2.265   3.189  -5.993  0.00  0.00     0.048 A 
ATOM      6  C5  UNL d   1      -3.400   4.002  -5.989  0.00  0.00     0.003 A 
ATOM      7  I   UNL d   1       0.696   2.569  -6.000  0.00  0.00    -0.146 I 
ENDROOT
TORSDOF 0
ENDMDL
