MODEL 1
REMARK minimizedAffinity 2.53289151
REMARK minimizedRMSD -1
REMARK  0 active torsions:
REMARK  status: ('A' for Active; 'I' for Inactive)
ROOT
ATOM      1  C   UNL d   1      -2.353   5.003  -5.999  0.00  0.00     0.023 A 
ATOM      2  C1  UNL d   1      -1.090   5.596  -6.000  0.00  0.00     0.003 A 
ATOM      3  C2  UNL d   1       0.056   4.799  -5.999  0.00  0.00     0.048 A 
ATOM      4  C3  UNL d   1      -0.067   3.410  -6.000  0.00  0.00     0.023 A 
ATOM      5  C4  UNL d   1      -1.328   2.813  -6.000  0.00  0.00     0.048 A 
ATOM      6  C5  UNL d   1      -2.472   3.613  -5.999  0.00  0.00     0.003 A 
ATOM      7  I   UNL d   1       1.639   2.223  -6.000  0.00  0.00    -0.146 I 
ENDROOT
TORSDOF 0
ENDMDL
