MODEL 1
REMARK minimizedAffinity -1.85950541
REMARK minimizedRMSD -1
REMARK  0 active torsions:
REMARK  status: ('A' for Active; 'I' for Inactive)
ROOT
ATOM      1  C   UNL d   1      -2.237   5.055  -5.999  0.00  0.00     0.023 A 
ATOM      2  C1  UNL d   1      -2.203   3.661  -5.998  0.00  0.00     0.003 A 
ATOM      3  C2  UNL d   1      -0.979   2.990  -5.999  0.00  0.00     0.048 A 
ATOM      4  C3  UNL d   1       0.209   3.720  -5.999  0.00  0.00     0.023 A 
ATOM      5  C4  UNL d   1       0.181   5.116  -5.998  0.00  0.00     0.048 A 
ATOM      6  C5  UNL d   1      -1.046   5.782  -5.999  0.00  0.00     0.003 A 
ATOM      7  I   UNL d   1       2.034   2.725  -5.999  0.00  0.00    -0.146 I 
ENDROOT
TORSDOF 0
ENDMDL
