MODEL 1
REMARK minimizedAffinity -3.14507318
REMARK minimizedRMSD -1
REMARK  0 active torsions:
REMARK  status: ('A' for Active; 'I' for Inactive)
ROOT
ATOM      1  O1  BZF d   1      -3.797   0.838   1.172  0.00  0.00    -0.204 OA
ATOM      2  C2  BZF d   1      -4.959   1.070   0.461  0.00  0.00     0.174 A 
ATOM      3  C3  BZF d   1      -5.999   1.265   1.297  0.00  0.00    -0.012 A 
ATOM      4  C3A BZF d   1      -5.436   1.239   2.612  0.00  0.00    -0.107 A 
ATOM      5  C4  BZF d   1      -5.964   1.390   3.862  0.00  0.00     0.055 A 
ATOM      6  C5  BZF d   1      -5.155   1.235   4.944  0.00  0.00    -0.016 A 
ATOM      7  C6  BZF d   1      -3.818   0.925   4.811  0.00  0.00     0.022 A 
ATOM      8  C7  BZF d   1      -3.248   0.771   3.591  0.00  0.00     0.029 A 
ATOM      9  C7A BZF d   1      -4.055   0.959   2.496  0.00  0.00     0.058 A 
ENDROOT
TORSDOF 0
ENDMDL
