MODEL 1
REMARK minimizedAffinity -2.61198545
REMARK minimizedRMSD -1
REMARK  0 active torsions:
REMARK  status: ('A' for Active; 'I' for Inactive)
ROOT
ATOM      1  O1  BZF d   1       1.105  -4.739  -4.102  0.00  0.00    -0.204 OA
ATOM      2  C2  BZF d   1       1.833  -5.368  -5.094  0.00  0.00     0.174 A 
ATOM      3  C3  BZF d   1       1.014  -6.000  -5.960  0.00  0.00    -0.012 A 
ATOM      4  C3A BZF d   1      -0.312  -5.672  -5.531  0.00  0.00    -0.107 A 
ATOM      5  C4  BZF d   1      -1.555  -5.989  -6.000  0.00  0.00     0.055 A 
ATOM      6  C5  BZF d   1      -2.647  -5.569  -5.309  0.00  0.00    -0.016 A 
ATOM      7  C6  BZF d   1      -2.534  -4.837  -4.146  0.00  0.00     0.022 A 
ATOM      8  C7  BZF d   1      -1.322  -4.495  -3.645  0.00  0.00     0.029 A 
ATOM      9  C7A BZF d   1      -0.216  -4.889  -4.358  0.00  0.00     0.058 A 
ENDROOT
TORSDOF 0
ENDMDL
