MODEL 1
REMARK minimizedAffinity 5.06845331
REMARK minimizedRMSD -1
REMARK  0 active torsions:
REMARK  status: ('A' for Active; 'I' for Inactive)
ROOT
ATOM      1  O1  BZF d   1      -3.457   0.177  -0.542  0.00  0.00    -0.204 OA
ATOM      2  C2  BZF d   1      -4.483   1.093  -0.676  0.00  0.00     0.174 A 
ATOM      3  C3  BZF d   1      -4.724   1.716   0.495  0.00  0.00    -0.012 A 
ATOM      4  C3A BZF d   1      -3.729   1.221   1.397  0.00  0.00    -0.107 A 
ATOM      5  C4  BZF d   1      -3.440   1.475   2.707  0.00  0.00     0.055 A 
ATOM      6  C5  BZF d   1      -2.449   0.770   3.313  0.00  0.00    -0.016 A 
ATOM      7  C6  BZF d   1      -1.732  -0.199   2.642  0.00  0.00     0.022 A 
ATOM      8  C7  BZF d   1      -1.980  -0.483   1.340  0.00  0.00     0.029 A 
ATOM      9  C7A BZF d   1      -2.958   0.251   0.716  0.00  0.00     0.058 A 
ENDROOT
TORSDOF 0
ENDMDL
