MODEL 1
REMARK minimizedAffinity 8.64619541
REMARK minimizedRMSD -1
REMARK  0 active torsions:
REMARK  status: ('A' for Active; 'I' for Inactive)
ROOT
ATOM      1  O1  BZF d   1       2.259   5.998  -2.216  0.00  0.00    -0.204 OA
ATOM      2  C2  BZF d   1       1.266   5.145  -2.657  0.00  0.00     0.174 A 
ATOM      3  C3  BZF d   1       1.792   4.124  -3.364  0.00  0.00    -0.012 A 
ATOM      4  C3A BZF d   1       3.210   4.304  -3.287  0.00  0.00    -0.107 A 
ATOM      5  C4  BZF d   1       4.273   3.601  -3.777  0.00  0.00     0.055 A 
ATOM      6  C5  BZF d   1       5.529   4.084  -3.585  0.00  0.00    -0.016 A 
ATOM      7  C6  BZF d   1       5.757   5.267  -2.913  0.00  0.00     0.022 A 
ATOM      8  C7  BZF d   1       4.734   5.996  -2.404  0.00  0.00     0.029 A 
ATOM      9  C7A BZF d   1       3.466   5.494  -2.568  0.00  0.00     0.058 A 
ENDROOT
TORSDOF 0
ENDMDL
