MODEL 1
REMARK minimizedAffinity 6.53840208
REMARK minimizedRMSD -1
REMARK  0 active torsions:
REMARK  status: ('A' for Active; 'I' for Inactive)
ROOT
ATOM      1  O1  BZF d   1      -1.941  -1.689   0.684  0.00  0.00    -0.204 OA
ATOM      2  C2  BZF d   1      -0.846  -1.935   1.491  0.00  0.00     0.174 A 
ATOM      3  C3  BZF d   1      -0.806  -1.065   2.521  0.00  0.00    -0.012 A 
ATOM      4  C3A BZF d   1      -1.998  -0.282   2.399  0.00  0.00    -0.107 A 
ATOM      5  C4  BZF d   1      -2.531   0.737   3.135  0.00  0.00     0.055 A 
ATOM      6  C5  BZF d   1      -3.673   1.334   2.705  0.00  0.00    -0.016 A 
ATOM      7  C6  BZF d   1      -4.305   0.943   1.543  0.00  0.00     0.022 A 
ATOM      8  C7  BZF d   1      -3.816  -0.066   0.782  0.00  0.00     0.029 A 
ATOM      9  C7A BZF d   1      -2.680  -0.694   1.231  0.00  0.00     0.058 A 
ENDROOT
TORSDOF 0
ENDMDL
