MODEL 1
REMARK minimizedAffinity 4.81749868
REMARK minimizedRMSD -1
REMARK  0 active torsions:
REMARK  status: ('A' for Active; 'I' for Inactive)
ROOT
ATOM      1  O1  BZF d   1      -1.508  -0.634   1.971  0.00  0.00    -0.204 OA
ATOM      2  C2  BZF d   1      -1.676   0.173   3.080  0.00  0.00     0.174 A 
ATOM      3  C3  BZF d   1      -2.773   0.946   2.947  0.00  0.00    -0.012 A 
ATOM      4  C3A BZF d   1      -3.377   0.535   1.717  0.00  0.00    -0.107 A 
ATOM      5  C4  BZF d   1      -4.503   0.921   1.048  0.00  0.00     0.055 A 
ATOM      6  C5  BZF d   1      -4.772   0.373  -0.166  0.00  0.00    -0.016 A 
ATOM      7  C6  BZF d   1      -3.935  -0.559  -0.743  0.00  0.00     0.022 A 
ATOM      8  C7  BZF d   1      -2.809  -0.978  -0.115  0.00  0.00     0.029 A 
ATOM      9  C7A BZF d   1      -2.552  -0.450   1.126  0.00  0.00     0.058 A 
ENDROOT
TORSDOF 0
ENDMDL
