MODEL 1
REMARK minimizedAffinity 3.04510307
REMARK minimizedRMSD -1
REMARK  0 active torsions:
REMARK  status: ('A' for Active; 'I' for Inactive)
ROOT
ATOM      1  O1  BZF d   1      -0.606  -0.028   4.362  0.00  0.00    -0.204 OA
ATOM      2  C2  BZF d   1       0.302  -1.065   4.268  0.00  0.00     0.174 A 
ATOM      3  C3  BZF d   1       0.029  -1.845   3.202  0.00  0.00    -0.012 A 
ATOM      4  C3A BZF d   1      -1.066  -1.206   2.539  0.00  0.00    -0.107 A 
ATOM      5  C4  BZF d   1      -1.777  -1.493   1.409  0.00  0.00     0.055 A 
ATOM      6  C5  BZF d   1      -2.834  -0.707   1.076  0.00  0.00    -0.016 A 
ATOM      7  C6  BZF d   1      -3.211   0.370   1.851  0.00  0.00     0.022 A 
ATOM      8  C7  BZF d   1      -2.534   0.698   2.978  0.00  0.00     0.029 A 
ATOM      9  C7A BZF d   1      -1.445  -0.075   3.300  0.00  0.00     0.058 A 
ENDROOT
TORSDOF 0
ENDMDL
