MODEL 1
REMARK minimizedAffinity 11.0073891
REMARK minimizedRMSD -1
REMARK  0 active torsions:
REMARK  status: ('A' for Active; 'I' for Inactive)
ROOT
ATOM      1  O1  BZF d   1       6.000   5.153  -0.744  0.00  0.00    -0.204 OA
ATOM      2  C2  BZF d   1       5.309   5.240  -1.937  0.00  0.00     0.174 A 
ATOM      3  C3  BZF d   1       4.357   4.288  -2.008  0.00  0.00    -0.012 A 
ATOM      4  C3A BZF d   1       4.398   3.619  -0.744  0.00  0.00    -0.107 A 
ATOM      5  C4  BZF d   1       3.681   2.590  -0.203  0.00  0.00     0.055 A 
ATOM      6  C5  BZF d   1       4.020   2.126   1.029  0.00  0.00    -0.016 A 
ATOM      7  C6  BZF d   1       5.070   2.662   1.743  0.00  0.00     0.022 A 
ATOM      8  C7  BZF d   1       5.807   3.688   1.250  0.00  0.00     0.029 A 
ATOM      9  C7A BZF d   1       5.446   4.181   0.020  0.00  0.00     0.058 A 
ENDROOT
TORSDOF 0
ENDMDL
