MODEL 1
REMARK minimizedAffinity 8.80361271
REMARK minimizedRMSD -1
REMARK  0 active torsions:
REMARK  status: ('A' for Active; 'I' for Inactive)
ROOT
ATOM      1  O1  BZF d   1       2.834   2.334  -2.526  0.00  0.00    -0.204 OA
ATOM      2  C2  BZF d   1       1.577   2.656  -3.000  0.00  0.00     0.174 A 
ATOM      3  C3  BZF d   1       0.623   2.252  -2.137  0.00  0.00    -0.012 A 
ATOM      4  C3A BZF d   1       1.332   1.721  -1.013  0.00  0.00    -0.107 A 
ATOM      5  C4  BZF d   1       0.936   1.178   0.176  0.00  0.00     0.055 A 
ATOM      6  C5  BZF d   1       1.878   0.689   1.024  0.00  0.00    -0.016 A 
ATOM      7  C6  BZF d   1       3.222   0.721   0.714  0.00  0.00     0.022 A 
ATOM      8  C7  BZF d   1       3.663   1.254  -0.451  0.00  0.00     0.029 A 
ATOM      9  C7A BZF d   1       2.716   1.779  -1.296  0.00  0.00     0.058 A 
ENDROOT
TORSDOF 0
ENDMDL
