MODEL 1
REMARK minimizedAffinity 15.2125702
REMARK minimizedRMSD -1
REMARK  0 active torsions:
REMARK  status: ('A' for Active; 'I' for Inactive)
ROOT
ATOM      1  O1  BZF d   1       2.297   2.645  -3.800  0.00  0.00    -0.204 OA
ATOM      2  C2  BZF d   1       1.947   3.086  -2.539  0.00  0.00     0.174 A 
ATOM      3  C3  BZF d   1       2.965   3.765  -1.970  0.00  0.00    -0.012 A 
ATOM      4  C3A BZF d   1       3.983   3.826  -2.973  0.00  0.00    -0.107 A 
ATOM      5  C4  BZF d   1       5.229   4.384  -3.013  0.00  0.00     0.055 A 
ATOM      6  C5  BZF d   1       5.999   4.201  -4.118  0.00  0.00    -0.016 A 
ATOM      7  C6  BZF d   1       5.558   3.463  -5.197  0.00  0.00     0.022 A 
ATOM      8  C7  BZF d   1       4.328   2.894  -5.205  0.00  0.00     0.029 A 
ATOM      9  C7A BZF d   1       3.534   3.105  -4.104  0.00  0.00     0.058 A 
ENDROOT
TORSDOF 0
ENDMDL
