MODEL 1
REMARK minimizedAffinity 6.69453859
REMARK minimizedRMSD -1
REMARK  0 active torsions:
REMARK  status: ('A' for Active; 'I' for Inactive)
ROOT
ATOM      1  O1  BZF d   1      -3.698   1.906   5.983  0.00  0.00    -0.204 OA
ATOM      2  C2  BZF d   1      -4.990   2.396   5.993  0.00  0.00     0.174 A 
ATOM      3  C3  BZF d   1      -5.555   2.280   4.774  0.00  0.00    -0.012 A 
ATOM      4  C3A BZF d   1      -4.586   1.596   3.973  0.00  0.00    -0.107 A 
ATOM      5  C4  BZF d   1      -4.569   1.176   2.674  0.00  0.00     0.055 A 
ATOM      6  C5  BZF d   1      -3.440   0.604   2.179  0.00  0.00    -0.016 A 
ATOM      7  C6  BZF d   1      -2.310   0.441   2.953  0.00  0.00     0.022 A 
ATOM      8  C7  BZF d   1      -2.280   0.838   4.248  0.00  0.00     0.029 A 
ATOM      9  C7A BZF d   1      -3.430   1.387   4.761  0.00  0.00     0.058 A 
ENDROOT
TORSDOF 0
ENDMDL
