MODEL 1
REMARK minimizedAffinity 7.8017993
REMARK minimizedRMSD -1
REMARK  0 active torsions:
REMARK  status: ('A' for Active; 'I' for Inactive)
ROOT
ATOM      1  O1  BZF d   1      -2.148   0.788   3.066  0.00  0.00    -0.204 OA
ATOM      2  C2  BZF d   1      -2.913   0.770   1.916  0.00  0.00     0.174 A 
ATOM      3  C3  BZF d   1      -2.495  -0.201   1.078  0.00  0.00    -0.012 A 
ATOM      4  C3A BZF d   1      -1.459  -0.889   1.786  0.00  0.00    -0.107 A 
ATOM      5  C4  BZF d   1      -0.667  -1.959   1.484  0.00  0.00     0.055 A 
ATOM      6  C5  BZF d   1       0.298  -2.336   2.364  0.00  0.00    -0.016 A 
ATOM      7  C6  BZF d   1       0.501  -1.663   3.551  0.00  0.00     0.022 A 
ATOM      8  C7  BZF d   1      -0.264  -0.598   3.896  0.00  0.00     0.029 A 
ATOM      9  C7A BZF d   1      -1.261  -0.236   3.024  0.00  0.00     0.058 A 
ENDROOT
TORSDOF 0
ENDMDL
