MODEL 1
REMARK minimizedAffinity 5.78732872
REMARK minimizedRMSD -1
REMARK  0 active torsions:
REMARK  status: ('A' for Active; 'I' for Inactive)
ROOT
ATOM      1  O1  BZF d   1       2.235   5.470  -1.990  0.00  0.00    -0.204 OA
ATOM      2  C2  BZF d   1       1.270   4.568  -2.395  0.00  0.00     0.174 A 
ATOM      3  C3  BZF d   1       1.783   3.680  -3.271  0.00  0.00    -0.012 A 
ATOM      4  C3A BZF d   1       3.176   3.994  -3.353  0.00  0.00    -0.107 A 
ATOM      5  C4  BZF d   1       4.221   3.454  -4.047  0.00  0.00     0.055 A 
ATOM      6  C5  BZF d   1       5.444   4.041  -3.962  0.00  0.00    -0.016 A 
ATOM      7  C6  BZF d   1       5.657   5.169  -3.197  0.00  0.00     0.022 A 
ATOM      8  C7  BZF d   1       4.652   5.737  -2.486  0.00  0.00     0.029 A 
ATOM      9  C7A BZF d   1       3.423   5.127  -2.544  0.00  0.00     0.058 A 
ENDROOT
TORSDOF 0
ENDMDL
