MODEL 1
REMARK minimizedAffinity 9.74110699
REMARK minimizedRMSD -1
REMARK  0 active torsions:
REMARK  status: ('A' for Active; 'I' for Inactive)
ROOT
ATOM      1  O1  BZF d   1      -1.106   0.574   4.667  0.00  0.00    -0.204 OA
ATOM      2  C2  BZF d   1      -2.362   0.712   5.226  0.00  0.00     0.174 A 
ATOM      3  C3  BZF d   1      -3.314   0.275   4.376  0.00  0.00    -0.012 A 
ATOM      4  C3A BZF d   1      -2.603  -0.249   3.251  0.00  0.00    -0.107 A 
ATOM      5  C4  BZF d   1      -2.995  -0.839   2.084  0.00  0.00     0.055 A 
ATOM      6  C5  BZF d   1      -2.054  -1.170   1.161  0.00  0.00    -0.016 A 
ATOM      7  C6  BZF d   1      -0.713  -0.920   1.370  0.00  0.00     0.022 A 
ATOM      8  C7  BZF d   1      -0.275  -0.340   2.515  0.00  0.00     0.029 A 
ATOM      9  C7A BZF d   1      -1.221  -0.035   3.463  0.00  0.00     0.058 A 
ENDROOT
TORSDOF 0
ENDMDL
