MODEL 1
REMARK minimizedAffinity 5.53430462
REMARK minimizedRMSD -1
REMARK  0 active torsions:
REMARK  status: ('A' for Active; 'I' for Inactive)
ROOT
ATOM      1  O1  BZF d   1       1.519  -4.390  -3.344  0.00  0.00    -0.204 OA
ATOM      2  C2  BZF d   1       2.555  -5.206  -3.754  0.00  0.00     0.174 A 
ATOM      3  C3  BZF d   1       2.164  -6.000  -4.772  0.00  0.00    -0.012 A 
ATOM      4  C3A BZF d   1       0.826  -5.594  -5.073  0.00  0.00    -0.107 A 
ATOM      5  C4  BZF d   1      -0.092  -6.000  -6.000  0.00  0.00     0.055 A 
ATOM      6  C5  BZF d   1      -1.335  -5.450  -5.982  0.00  0.00    -0.016 A 
ATOM      7  C6  BZF d   1      -1.695  -4.498  -5.051  0.00  0.00     0.022 A 
ATOM      8  C7  BZF d   1      -0.817  -4.061  -4.116  0.00  0.00     0.029 A 
ATOM      9  C7A BZF d   1       0.450  -4.590  -4.152  0.00  0.00     0.058 A 
ENDROOT
TORSDOF 0
ENDMDL
