MODEL 1
REMARK minimizedAffinity 7.59213305
REMARK minimizedRMSD -1
REMARK  0 active torsions:
REMARK  status: ('A' for Active; 'I' for Inactive)
ROOT
ATOM      1  O1  BZF d   1      -3.899   4.925  -2.093  0.00  0.00    -0.204 OA
ATOM      2  C2  BZF d   1      -5.220   4.640  -1.805  0.00  0.00     0.174 A 
ATOM      3  C3  BZF d   1      -6.000   4.842  -2.886  0.00  0.00    -0.012 A 
ATOM      4  C3A BZF d   1      -5.098   5.192  -3.941  0.00  0.00    -0.107 A 
ATOM      5  C4  BZF d   1      -5.270   5.495  -5.261  0.00  0.00     0.055 A 
ATOM      6  C5  BZF d   1      -4.190   5.863  -6.000  0.00  0.00    -0.016 A 
ATOM      7  C6  BZF d   1      -2.928   5.944  -5.450  0.00  0.00     0.022 A 
ATOM      8  C7  BZF d   1      -2.707   5.648  -4.146  0.00  0.00     0.029 A 
ATOM      9  C7A BZF d   1      -3.790   5.244  -3.405  0.00  0.00     0.058 A 
ENDROOT
TORSDOF 0
ENDMDL
