MODEL 1
REMARK minimizedAffinity 6.28022242
REMARK minimizedRMSD -1
REMARK  0 active torsions:
REMARK  status: ('A' for Active; 'I' for Inactive)
ROOT
ATOM      1  O1  BZF d   1      -3.684   5.626  -4.353  0.00  0.00    -0.204 OA
ATOM      2  C2  BZF d   1      -4.618   5.079  -5.212  0.00  0.00     0.174 A 
ATOM      3  C3  BZF d   1      -5.627   4.510  -4.522  0.00  0.00    -0.012 A 
ATOM      4  C3A BZF d   1      -5.351   4.795  -3.147  0.00  0.00    -0.107 A 
ATOM      5  C4  BZF d   1      -6.000   4.508  -1.980  0.00  0.00     0.055 A 
ATOM      6  C5  BZF d   1      -5.428   4.866  -0.801  0.00  0.00    -0.016 A 
ATOM      7  C6  BZF d   1      -4.208   5.508  -0.752  0.00  0.00     0.022 A 
ATOM      8  C7  BZF d   1      -3.529   5.819  -1.883  0.00  0.00     0.029 A 
ATOM      9  C7A BZF d   1      -4.120   5.487  -3.078  0.00  0.00     0.058 A 
ENDROOT
TORSDOF 0
ENDMDL
