MODEL 1
REMARK minimizedAffinity -5.53454638
REMARK minimizedRMSD -1
REMARK  3 active torsions:
REMARK  status: ('A' for Active; 'I' for Inactive)
REMARK    1  A    between atoms: C3'_2  and  C2'_3 
REMARK    2  A    between atoms: C2'_3  and  C1'_4 
REMARK    3  A    between atoms: C1'_4  and  C1_5 
ROOT
ATOM      1  C1  N4B d   1       0.749  -0.590  -1.927  0.00  0.00    -0.075 A 
ATOM      2  C2  N4B d   1       0.058  -0.986  -3.093  0.00  0.00     0.002 A 
ATOM      3  C3  N4B d   1       0.317  -0.363  -4.289  0.00  0.00     0.002 A 
ATOM      4  C4  N4B d   1       1.244   0.667  -4.339  0.00  0.00    -0.004 A 
ATOM      5  C5  N4B d   1       1.926   1.026  -3.214  0.00  0.00     0.002 A 
ATOM      6  C6  N4B d   1       1.679   0.406  -2.005  0.00  0.00     0.002 A 
ENDROOT
BRANCH   1   7
ATOM      7  C1' N4B d   1       0.438  -1.183  -0.579  0.00  0.00     0.057 C 
BRANCH   7   8
ATOM      8  C2' N4B d   1       0.243  -0.057   0.431  0.00  0.00     0.009 C 
BRANCH   8   9
ATOM      9  C3' N4B d   1      -1.218   0.333   0.573  0.00  0.00     0.004 C 
ATOM     10  C4' N4B d   1      -1.575   0.749   1.969  0.00  0.00     0.003 C 
ENDBRANCH   8   9
ENDBRANCH   7   8
ENDBRANCH   1   7
TORSDOF 3
ENDMDL
