MODEL 1
REMARK minimizedAffinity -3.92618465
REMARK minimizedRMSD -1
REMARK  3 active torsions:
REMARK  status: ('A' for Active; 'I' for Inactive)
REMARK    1  A    between atoms: C3'_2  and  C2'_3 
REMARK    2  A    between atoms: C2'_3  and  C1'_4 
REMARK    3  A    between atoms: C1'_4  and  C1_5 
ROOT
ATOM      1  C1  N4B d   1       0.578  -0.285  -2.437  0.00  0.00    -0.075 A 
ATOM      2  C2  N4B d   1      -0.497  -0.038  -3.320  0.00  0.00     0.002 A 
ATOM      3  C3  N4B d   1      -0.276   0.633  -4.498  0.00  0.00     0.002 A 
ATOM      4  C4  N4B d   1       1.000   1.081  -4.804  0.00  0.00    -0.004 A 
ATOM      5  C5  N4B d   1       2.037   0.816  -3.958  0.00  0.00     0.002 A 
ATOM      6  C6  N4B d   1       1.831   0.139  -2.773  0.00  0.00     0.002 A 
ENDROOT
BRANCH   1   7
ATOM      7  C1' N4B d   1       0.371  -0.939  -1.098  0.00  0.00     0.057 C 
BRANCH   7   8
ATOM      8  C2' N4B d   1      -0.618  -0.110  -0.283  0.00  0.00     0.009 C 
BRANCH   8   9
ATOM      9  C3' N4B d   1       0.059   0.606   0.872  0.00  0.00     0.004 C 
ATOM     10  C4' N4B d   1      -0.651   0.404   2.177  0.00  0.00     0.003 C 
ENDBRANCH   8   9
ENDBRANCH   7   8
ENDBRANCH   1   7
TORSDOF 3
ENDMDL
