MODEL 1
REMARK minimizedAffinity 4.20417786
REMARK minimizedRMSD -1
REMARK  3 active torsions:
REMARK  status: ('A' for Active; 'I' for Inactive)
REMARK    1  A    between atoms: C3'_2  and  C2'_3 
REMARK    2  A    between atoms: C2'_3  and  C1'_4 
REMARK    3  A    between atoms: C1'_4  and  C1_5 
ROOT
ATOM      1  C1  N4B d   1       0.208   0.507  -0.053  0.00  0.00    -0.075 A 
ATOM      2  C2  N4B d   1       0.872  -0.064   1.055  0.00  0.00     0.002 A 
ATOM      3  C3  N4B d   1       0.191  -0.281   2.227  0.00  0.00     0.002 A 
ATOM      4  C4  N4B d   1      -1.145   0.082   2.322  0.00  0.00    -0.004 A 
ATOM      5  C5  N4B d   1      -1.786   0.610   1.239  0.00  0.00     0.002 A 
ATOM      6  C6  N4B d   1      -1.114   0.829   0.053  0.00  0.00     0.002 A 
ENDROOT
BRANCH   1   7
ATOM      7  C1' N4B d   1       0.933   0.842  -1.327  0.00  0.00     0.057 C 
BRANCH   7   8
ATOM      8  C2' N4B d   1      -0.065   0.862  -2.481  0.00  0.00     0.009 C 
BRANCH   8   9
ATOM      9  C3' N4B d   1       0.622   0.740  -3.830  0.00  0.00     0.004 C 
ATOM     10  C4' N4B d   1      -0.114  -0.159  -4.778  0.00  0.00     0.003 C 
ENDBRANCH   8   9
ENDBRANCH   7   8
ENDBRANCH   1   7
TORSDOF 3
ENDMDL
