MODEL 1
REMARK minimizedAffinity -3.91388226
REMARK minimizedRMSD -1
REMARK  3 active torsions:
REMARK  status: ('A' for Active; 'I' for Inactive)
REMARK    1  A    between atoms: C3'_2  and  C2'_3 
REMARK    2  A    between atoms: C2'_3  and  C1'_4 
REMARK    3  A    between atoms: C1'_4  and  C1_5 
ROOT
ATOM      1  C1  N4B d   1      -0.103  -0.397   0.314  0.00  0.00    -0.075 A 
ATOM      2  C2  N4B d   1      -1.461  -0.259   0.676  0.00  0.00     0.002 A 
ATOM      3  C3  N4B d   1      -1.796   0.316   1.877  0.00  0.00     0.002 A 
ATOM      4  C4  N4B d   1      -0.795   0.742   2.737  0.00  0.00    -0.004 A 
ATOM      5  C5  N4B d   1       0.514   0.628   2.368  0.00  0.00     0.002 A 
ATOM      6  C6  N4B d   1       0.865   0.056   1.162  0.00  0.00     0.002 A 
ENDROOT
BRANCH   1   7
ATOM      7  C1' N4B d   1       0.314  -1.097  -0.951  0.00  0.00     0.057 C 
BRANCH   7   8
ATOM      8  C2' N4B d   1       0.784  -0.059  -1.966  0.00  0.00     0.009 C 
BRANCH   8   9
ATOM      9  C3' N4B d   1       0.260  -0.351  -3.361  0.00  0.00     0.004 C 
ATOM     10  C4' N4B d   1       0.850   0.551  -4.404  0.00  0.00     0.003 C 
ENDBRANCH   8   9
ENDBRANCH   7   8
ENDBRANCH   1   7
TORSDOF 3
ENDMDL
