MODEL 1
REMARK minimizedAffinity 8.17370033
REMARK minimizedRMSD -1
REMARK  0 active torsions:
REMARK  status: ('A' for Active; 'I' for Inactive)
ROOT
ATOM      1  N1  IND d   1      -5.999   1.036  -4.765  0.00  0.00    -0.196 N 
ATOM      2  C2  IND d   1      -5.116   1.105  -5.806  0.00  0.00     0.054 A 
ATOM      3  C3  IND d   1      -4.045   1.856  -5.466  0.00  0.00    -0.031 A 
ATOM      4  C4  IND d   1      -3.486   2.984  -3.220  0.00  0.00     0.051 A 
ATOM      5  C5  IND d   1      -4.006   3.232  -1.981  0.00  0.00    -0.031 A 
ATOM      6  C6  IND d   1      -5.240   2.749  -1.597  0.00  0.00     0.015 A 
ATOM      7  C7  IND d   1      -5.999   1.986  -2.439  0.00  0.00    -0.016 A 
ATOM      8  C8  IND d   1      -5.478   1.738  -3.701  0.00  0.00    -0.047 A 
ATOM      9  C9  IND d   1      -4.245   2.262  -4.111  0.00  0.00    -0.096 A 
ATOM     10  HN1 IND d   1      -6.754   0.623  -4.774  0.00  0.00     0.298 HD
ENDROOT
TORSDOF 0
ENDMDL
