MODEL 1
REMARK minimizedAffinity 8.14145756
REMARK minimizedRMSD -1
REMARK  0 active torsions:
REMARK  status: ('A' for Active; 'I' for Inactive)
ROOT
ATOM      1  N1  IND d   1       0.364   1.878  -1.126  0.00  0.00    -0.196 N 
ATOM      2  C2  IND d   1       1.114   2.066   0.001  0.00  0.00     0.054 A 
ATOM      3  C3  IND d   1       0.810   3.251   0.577  0.00  0.00    -0.031 A 
ATOM      4  C4  IND d   1      -0.960   4.992  -0.102  0.00  0.00     0.051 A 
ATOM      5  C5  IND d   1      -1.868   5.280  -1.083  0.00  0.00    -0.031 A 
ATOM      6  C6  IND d   1      -2.084   4.429  -2.148  0.00  0.00     0.015 A 
ATOM      7  C7  IND d   1      -1.406   3.249  -2.267  0.00  0.00    -0.016 A 
ATOM      8  C8  IND d   1      -0.479   2.957  -1.276  0.00  0.00    -0.047 A 
ATOM      9  C9  IND d   1      -0.224   3.836  -0.216  0.00  0.00    -0.096 A 
ATOM     10  HN1 IND d   1       0.410   1.199  -1.652  0.00  0.00     0.298 HD
ENDROOT
TORSDOF 0
ENDMDL
