MODEL 1
REMARK minimizedAffinity 7.25383806
REMARK minimizedRMSD -1
REMARK  0 active torsions:
REMARK  status: ('A' for Active; 'I' for Inactive)
ROOT
ATOM      1  N1  IND d   1       1.397   3.731   0.124  0.00  0.00    -0.196 N 
ATOM      2  C2  IND d   1       0.333   4.542  -0.157  0.00  0.00     0.054 A 
ATOM      3  C3  IND d   1      -0.671   4.321   0.720  0.00  0.00    -0.031 A 
ATOM      4  C4  IND d   1      -0.748   2.747   2.756  0.00  0.00     0.051 A 
ATOM      5  C5  IND d   1      -0.028   1.778   3.396  0.00  0.00    -0.031 A 
ATOM      6  C6  IND d   1       1.231   1.404   2.971  0.00  0.00     0.015 A 
ATOM      7  C7  IND d   1       1.823   1.997   1.892  0.00  0.00    -0.016 A 
ATOM      8  C8  IND d   1       1.092   2.977   1.236  0.00  0.00    -0.047 A 
ATOM      9  C9  IND d   1      -0.203   3.330   1.637  0.00  0.00    -0.096 A 
ATOM     10  HN1 IND d   1       2.133   3.697  -0.319  0.00  0.00     0.298 HD
ENDROOT
TORSDOF 0
ENDMDL
