MODEL 1
REMARK minimizedAffinity 2.8095715
REMARK minimizedRMSD -1
REMARK  0 active torsions:
REMARK  status: ('A' for Active; 'I' for Inactive)
ROOT
ATOM      1  N1  IND d   1      -5.988   2.402  -2.192  0.00  0.00    -0.196 N 
ATOM      2  C2  IND d   1      -5.041   2.456  -1.209  0.00  0.00     0.054 A 
ATOM      3  C3  IND d   1      -3.890   2.976  -1.692  0.00  0.00    -0.031 A 
ATOM      4  C4  IND d   1      -3.371   3.900  -4.038  0.00  0.00     0.051 A 
ATOM      5  C5  IND d   1      -3.910   4.033  -5.287  0.00  0.00    -0.031 A 
ATOM      6  C6  IND d   1      -5.197   3.624  -5.573  0.00  0.00     0.015 A 
ATOM      7  C7  IND d   1      -5.999   3.073  -4.614  0.00  0.00    -0.016 A 
ATOM      8  C8  IND d   1      -5.453   2.930  -3.346  0.00  0.00    -0.047 A 
ATOM      9  C9  IND d   1      -4.134   3.305  -3.060  0.00  0.00    -0.096 A 
ATOM     10  HN1 IND d   1      -6.785   2.091  -2.105  0.00  0.00     0.298 HD
ENDROOT
TORSDOF 0
ENDMDL
