MODEL 1
REMARK minimizedAffinity 1.28029442
REMARK minimizedRMSD -1
REMARK  0 active torsions:
REMARK  status: ('A' for Active; 'I' for Inactive)
ROOT
ATOM      1  N1  IND d   1       0.473   2.459  -1.054  0.00  0.00    -0.196 N 
ATOM      2  C2  IND d   1      -0.760   2.953  -0.731  0.00  0.00     0.054 A 
ATOM      3  C3  IND d   1      -1.653   1.946  -0.610  0.00  0.00    -0.031 A 
ATOM      4  C4  IND d   1      -1.289  -0.595  -0.798  0.00  0.00     0.051 A 
ATOM      5  C5  IND d   1      -0.341  -1.527  -1.115  0.00  0.00    -0.031 A 
ATOM      6  C6  IND d   1       0.954  -1.171  -1.431  0.00  0.00     0.015 A 
ATOM      7  C7  IND d   1       1.354   0.136  -1.432  0.00  0.00    -0.016 A 
ATOM      8  C8  IND d   1       0.392   1.085  -1.117  0.00  0.00    -0.047 A 
ATOM      9  C9  IND d   1      -0.935   0.733  -0.837  0.00  0.00    -0.096 A 
ATOM     10  HN1 IND d   1       1.181   2.927  -1.194  0.00  0.00     0.298 HD
ENDROOT
TORSDOF 0
ENDMDL
