MODEL 1
REMARK minimizedAffinity 1.94961977
REMARK minimizedRMSD -1
REMARK  0 active torsions:
REMARK  status: ('A' for Active; 'I' for Inactive)
ROOT
ATOM      1  N1  IND d   1      -1.194   2.968   2.324  0.00  0.00    -0.196 N 
ATOM      2  C2  IND d   1      -0.331   1.968   2.674  0.00  0.00     0.054 A 
ATOM      3  C3  IND d   1       0.866   2.148   2.072  0.00  0.00    -0.031 A 
ATOM      4  C4  IND d   1       1.662   4.069   0.555  0.00  0.00     0.051 A 
ATOM      5  C5  IND d   1       1.218   5.197  -0.077  0.00  0.00    -0.031 A 
ATOM      6  C6  IND d   1      -0.078   5.650   0.063  0.00  0.00     0.015 A 
ATOM      7  C7  IND d   1      -0.979   4.995   0.854  0.00  0.00    -0.016 A 
ATOM      8  C8  IND d   1      -0.534   3.846   1.493  0.00  0.00    -0.047 A 
ATOM      9  C9  IND d   1       0.768   3.358   1.320  0.00  0.00    -0.096 A 
ATOM     10  HN1 IND d   1      -2.012   3.038   2.580  0.00  0.00     0.298 HD
ENDROOT
TORSDOF 0
ENDMDL
