MODEL 1
REMARK minimizedAffinity 6.72419071
REMARK minimizedRMSD -1
REMARK  0 active torsions:
REMARK  status: ('A' for Active; 'I' for Inactive)
ROOT
ATOM      1  N1  IND d   1      -1.303  -2.760  -1.536  0.00  0.00    -0.196 N 
ATOM      2  C2  IND d   1      -0.357  -3.572  -2.096  0.00  0.00     0.054 A 
ATOM      3  C3  IND d   1       0.776  -2.876  -2.339  0.00  0.00    -0.031 A 
ATOM      4  C4  IND d   1       1.333  -0.420  -1.807  0.00  0.00     0.051 A 
ATOM      5  C5  IND d   1       0.774   0.732  -1.329  0.00  0.00    -0.031 A 
ATOM      6  C6  IND d   1      -0.531   0.780  -0.884  0.00  0.00     0.015 A 
ATOM      7  C7  IND d   1      -1.326  -0.331  -0.890  0.00  0.00    -0.016 A 
ATOM      8  C8  IND d   1      -0.764  -1.501  -1.381  0.00  0.00    -0.047 A 
ATOM      9  C9  IND d   1       0.546  -1.545  -1.874  0.00  0.00    -0.096 A 
ATOM     10  HN1 IND d   1      -2.101  -2.995  -1.318  0.00  0.00     0.298 HD
ENDROOT
TORSDOF 0
ENDMDL
