MODEL 1
REMARK minimizedAffinity 2.6418786
REMARK minimizedRMSD -1
REMARK  0 active torsions:
REMARK  status: ('A' for Active; 'I' for Inactive)
ROOT
ATOM      1  N1  IND d   1      -0.905   5.471  -2.575  0.00  0.00    -0.196 N 
ATOM      2  C2  IND d   1      -2.266   5.371  -2.491  0.00  0.00     0.054 A 
ATOM      3  C3  IND d   1      -2.613   4.488  -1.528  0.00  0.00    -0.031 A 
ATOM      4  C4  IND d   1      -1.117   3.169   0.100  0.00  0.00     0.051 A 
ATOM      5  C5  IND d   1       0.193   2.903   0.383  0.00  0.00    -0.031 A 
ATOM      6  C6  IND d   1       1.225   3.494  -0.317  0.00  0.00     0.015 A 
ATOM      7  C7  IND d   1       0.984   4.385  -1.324  0.00  0.00    -0.016 A 
ATOM      8  C8  IND d   1      -0.345   4.652  -1.620  0.00  0.00    -0.047 A 
ATOM      9  C9  IND d   1      -1.397   4.024  -0.941  0.00  0.00    -0.096 A 
ATOM     10  HN1 IND d   1      -0.472   5.963  -3.132  0.00  0.00     0.298 HD
ENDROOT
TORSDOF 0
ENDMDL
