MODEL 1
REMARK minimizedAffinity 4.38042164
REMARK minimizedRMSD -1
REMARK  0 active torsions:
REMARK  status: ('A' for Active; 'I' for Inactive)
ROOT
ATOM      1  N1  IND d   1      -4.797   3.360  -5.993  0.00  0.00    -0.196 N 
ATOM      2  C2  IND d   1      -3.764   4.255  -5.965  0.00  0.00     0.054 A 
ATOM      3  C3  IND d   1      -3.342   4.446  -4.695  0.00  0.00    -0.031 A 
ATOM      4  C4  IND d   1      -4.134   3.318  -2.520  0.00  0.00     0.051 A 
ATOM      5  C5  IND d   1      -5.079   2.458  -2.035  0.00  0.00    -0.031 A 
ATOM      6  C6  IND d   1      -5.995   1.840  -2.862  0.00  0.00     0.015 A 
ATOM      7  C7  IND d   1      -5.993   2.052  -4.211  0.00  0.00    -0.016 A 
ATOM      8  C8  IND d   1      -5.039   2.930  -4.707  0.00  0.00    -0.047 A 
ATOM      9  C9  IND d   1      -4.134   3.592  -3.868  0.00  0.00    -0.096 A 
ATOM     10  HN1 IND d   1      -5.224   3.108  -6.695  0.00  0.00     0.298 HD
ENDROOT
TORSDOF 0
ENDMDL
