MODEL 1
REMARK minimizedAffinity 2.35626817
REMARK minimizedRMSD -1
REMARK  0 active torsions:
REMARK  status: ('A' for Active; 'I' for Inactive)
ROOT
ATOM      1  C   UNL d   1       0.759   0.941  -4.393  0.00  0.00    -0.002 A 
ATOM      2  C1  UNL d   1       1.919   1.338  -3.743  0.00  0.00     0.010 A 
ATOM      3  C2  UNL d   1       2.107   1.054  -2.389  0.00  0.00     0.041 A 
ATOM      4  C3  UNL d   1       1.100   0.356  -1.693  0.00  0.00    -0.075 A 
ATOM      5  S   UNL d   1       1.113  -0.103  -0.031  0.00  0.00     0.015 SA
ATOM      6  C4  UNL d   1      -0.421  -0.837  -0.145  0.00  0.00     0.022 A 
ATOM      7  C5  UNL d   1      -0.944  -0.743  -1.413  0.00  0.00     0.026 A 
ATOM      8  C6  UNL d   1      -0.076  -0.055  -2.326  0.00  0.00    -0.082 A 
ATOM      9  C7  UNL d   1      -0.237   0.249  -3.699  0.00  0.00     0.045 A 
ENDROOT
TORSDOF 0
ENDMDL
