MODEL 1
REMARK minimizedAffinity -5.69529343
REMARK minimizedRMSD -1
REMARK  0 active torsions:
REMARK  status: ('A' for Active; 'I' for Inactive)
ROOT
ATOM      1  C   UNL d   1       0.346   0.387   3.762  0.00  0.00    -0.002 A 
ATOM      2  C1  UNL d   1       1.515  -0.123   3.213  0.00  0.00     0.010 A 
ATOM      3  C2  UNL d   1       1.622  -0.329   1.836  0.00  0.00     0.041 A 
ATOM      4  C3  UNL d   1       0.525  -0.010   1.012  0.00  0.00    -0.075 A 
ATOM      5  S   UNL d   1       0.429  -0.178  -0.701  0.00  0.00     0.015 SA
ATOM      6  C4  UNL d   1      -1.165   0.423  -0.746  0.00  0.00     0.022 A 
ATOM      7  C5  UNL d   1      -1.629   0.749   0.507  0.00  0.00     0.026 A 
ATOM      8  C6  UNL d   1      -0.662   0.505   1.541  0.00  0.00    -0.082 A 
ATOM      9  C7  UNL d   1      -0.740   0.702   2.940  0.00  0.00     0.045 A 
ENDROOT
TORSDOF 0
ENDMDL
