MODEL 1
REMARK minimizedAffinity -5.19678164
REMARK minimizedRMSD -1
REMARK  0 active torsions:
REMARK  status: ('A' for Active; 'I' for Inactive)
ROOT
ATOM      1  C   UNL d   1       1.121   0.679   3.751  0.00  0.00    -0.002 A 
ATOM      2  C1  UNL d   1      -0.205   1.087   3.723  0.00  0.00     0.010 A 
ATOM      3  C2  UNL d   1      -0.983   0.897   2.579  0.00  0.00     0.041 A 
ATOM      4  C3  UNL d   1      -0.400   0.282   1.454  0.00  0.00    -0.075 A 
ATOM      5  S   UNL d   1      -1.160  -0.054  -0.057  0.00  0.00     0.015 SA
ATOM      6  C4  UNL d   1       0.257  -0.748  -0.701  0.00  0.00     0.022 A 
ATOM      7  C5  UNL d   1       1.295  -0.731   0.201  0.00  0.00     0.026 A 
ATOM      8  C6  UNL d   1       0.933  -0.138   1.458  0.00  0.00    -0.082 A 
ATOM      9  C7  UNL d   1       1.696   0.070   2.632  0.00  0.00     0.045 A 
ENDROOT
TORSDOF 0
ENDMDL
