MODEL 1
REMARK minimizedAffinity -4.26833105
REMARK minimizedRMSD -1
REMARK  0 active torsions:
REMARK  status: ('A' for Active; 'I' for Inactive)
ROOT
ATOM      1  C   UNL d   1       1.547   0.146   3.643  0.00  0.00    -0.002 A 
ATOM      2  C1  UNL d   1       2.304  -0.486   2.666  0.00  0.00     0.010 A 
ATOM      3  C2  UNL d   1       1.787  -0.682   1.383  0.00  0.00     0.041 A 
ATOM      4  C3  UNL d   1       0.485  -0.226   1.096  0.00  0.00    -0.075 A 
ATOM      5  S   UNL d   1      -0.354  -0.356  -0.404  0.00  0.00     0.015 SA
ATOM      6  C4  UNL d   1      -1.737   0.424   0.216  0.00  0.00     0.022 A 
ATOM      7  C5  UNL d   1      -1.579   0.782   1.534  0.00  0.00     0.026 A 
ATOM      8  C6  UNL d   1      -0.296   0.413   2.063  0.00  0.00    -0.082 A 
ATOM      9  C7  UNL d   1       0.256   0.596   3.354  0.00  0.00     0.045 A 
ENDROOT
TORSDOF 0
ENDMDL
