MODEL 1
REMARK minimizedAffinity -5.17552519
REMARK minimizedRMSD -1
REMARK  0 active torsions:
REMARK  status: ('A' for Active; 'I' for Inactive)
ROOT
ATOM      1  C   UNL d   1      -1.231   1.357   2.659  0.00  0.00    -0.002 A 
ATOM      2  C1  UNL d   1       0.120   1.668   2.612  0.00  0.00     0.010 A 
ATOM      3  C2  UNL d   1       0.943   1.112   1.630  0.00  0.00     0.041 A 
ATOM      4  C3  UNL d   1       0.378   0.233   0.686  0.00  0.00    -0.075 A 
ATOM      5  S   UNL d   1       1.192  -0.566  -0.608  0.00  0.00     0.015 SA
ATOM      6  C4  UNL d   1      -0.236  -1.337  -1.129  0.00  0.00     0.022 A 
ATOM      7  C5  UNL d   1      -1.316  -1.005  -0.347  0.00  0.00     0.026 A 
ATOM      8  C6  UNL d   1      -0.981  -0.094   0.712  0.00  0.00    -0.082 A 
ATOM      9  C7  UNL d   1      -1.788   0.484   1.720  0.00  0.00     0.045 A 
ENDROOT
TORSDOF 0
ENDMDL
