MODEL 1
REMARK minimizedAffinity -1.22550046
REMARK minimizedRMSD -1
REMARK  1 active torsions:
REMARK  status: ('A' for Active; 'I' for Inactive)
REMARK    1  A    between atoms: C1_2  and  C2_3 
ROOT
ATOM      1  C2  UNL d   1      -0.640  -1.165   0.039  0.00  0.00    -0.076 A 
ATOM      2  C3  UNL d   1       0.096  -1.162  -1.158  0.00  0.00     0.004 A 
ATOM      3  C4  UNL d   1       0.629   0.019  -1.671  0.00  0.00    -0.003 A 
ATOM      4  C5  UNL d   1       0.434   1.218  -0.994  0.00  0.00     0.000 A 
ATOM      5  C6  UNL d   1      -0.279   1.232   0.204  0.00  0.00     0.000 A 
ATOM      6  C7  UNL d   1      -0.809   0.047   0.743  0.00  0.00    -0.073 A 
ATOM      7  C8  UNL d   1      -1.574   0.121   2.036  0.00  0.00     0.078 C 
ENDROOT
BRANCH   1   8
ATOM      8  C1  UNL d   1      -1.217  -2.472   0.532  0.00  0.00     0.053 C 
ATOM      9  C   UNL d   1      -0.188  -3.591   0.555  0.00  0.00     0.018 C 
ENDBRANCH   1   8
TORSDOF 1
ENDMDL
