MODEL 1
REMARK minimizedAffinity -3.29716921
REMARK minimizedRMSD -1
REMARK  1 active torsions:
REMARK  status: ('A' for Active; 'I' for Inactive)
REMARK    1  A    between atoms: C1_2  and  C2_3 
ROOT
ATOM      1  C2  UNL d   1       1.286   1.256   0.423  0.00  0.00    -0.076 A 
ATOM      2  C3  UNL d   1       1.999   1.715   1.544  0.00  0.00     0.004 A 
ATOM      3  C4  UNL d   1       2.556   2.992   1.566  0.00  0.00    -0.003 A 
ATOM      4  C5  UNL d   1       2.408   3.833   0.468  0.00  0.00     0.000 A 
ATOM      5  C6  UNL d   1       1.688   3.401  -0.645  0.00  0.00     0.000 A 
ATOM      6  C7  UNL d   1       1.106   2.122  -0.678  0.00  0.00    -0.073 A 
ATOM      7  C8  UNL d   1       0.346   1.705  -1.907  0.00  0.00     0.078 C 
ENDROOT
BRANCH   1   8
ATOM      8  C1  UNL d   1       0.727  -0.149   0.444  0.00  0.00     0.053 C 
ATOM      9  C   UNL d   1      -0.651  -0.218   1.083  0.00  0.00     0.018 C 
ENDBRANCH   1   8
TORSDOF 1
ENDMDL
