MODEL 1
REMARK minimizedAffinity -2.25008249
REMARK minimizedRMSD -1
REMARK  1 active torsions:
REMARK  status: ('A' for Active; 'I' for Inactive)
REMARK    1  A    between atoms: C1_2  and  C2_3 
ROOT
ATOM      1  C2  UNL d   1       0.551  -0.372  -0.363  0.00  0.00    -0.076 A 
ATOM      2  C3  UNL d   1       0.243   0.650   0.553  0.00  0.00     0.004 A 
ATOM      3  C4  UNL d   1       0.043   1.961   0.125  0.00  0.00    -0.003 A 
ATOM      4  C5  UNL d   1       0.147   2.272  -1.227  0.00  0.00     0.000 A 
ATOM      5  C6  UNL d   1       0.434   1.268  -2.151  0.00  0.00     0.000 A 
ATOM      6  C7  UNL d   1       0.623  -0.062  -1.738  0.00  0.00    -0.073 A 
ATOM      7  C8  UNL d   1       0.937  -1.103  -2.777  0.00  0.00     0.078 C 
ENDROOT
BRANCH   1   8
ATOM      8  C1  UNL d   1       0.785  -1.770   0.163  0.00  0.00     0.053 C 
ATOM      9  C   UNL d   1      -0.509  -2.549   0.340  0.00  0.00     0.018 C 
ENDBRANCH   1   8
TORSDOF 1
ENDMDL
