MODEL 1
REMARK minimizedAffinity -5.01121807
REMARK minimizedRMSD -1
REMARK  1 active torsions:
REMARK  status: ('A' for Active; 'I' for Inactive)
REMARK    1  A    between atoms: C1_2  and  C2_3 
ROOT
ATOM      1  C2  UNL d   1      -0.013  -0.352   0.040  0.00  0.00    -0.076 A 
ATOM      2  C3  UNL d   1       0.921  -1.238  -0.524  0.00  0.00     0.004 A 
ATOM      3  C4  UNL d   1       0.784  -2.617  -0.373  0.00  0.00    -0.003 A 
ATOM      4  C5  UNL d   1      -0.289  -3.132   0.346  0.00  0.00     0.000 A 
ATOM      5  C6  UNL d   1      -1.235  -2.268   0.897  0.00  0.00     0.000 A 
ATOM      6  C7  UNL d   1      -1.121  -0.876   0.739  0.00  0.00    -0.073 A 
ATOM      7  C8  UNL d   1      -2.166   0.009   1.360  0.00  0.00     0.078 C 
ENDROOT
BRANCH   1   8
ATOM      8  C1  UNL d   1       0.202   1.135  -0.135  0.00  0.00     0.053 C 
ATOM      9  C   UNL d   1      -0.283   1.639  -1.485  0.00  0.00     0.018 C 
ENDBRANCH   1   8
TORSDOF 1
ENDMDL
