MODEL 1
REMARK minimizedAffinity -5.80064869
REMARK minimizedRMSD -1
REMARK  1 active torsions:
REMARK  status: ('A' for Active; 'I' for Inactive)
REMARK    1  A    between atoms: C1_2  and  C2_3 
ROOT
ATOM      1  C2  UNL d   1      -0.012  -0.529  -0.462  0.00  0.00    -0.076 A 
ATOM      2  C3  UNL d   1       0.554  -1.047  -1.640  0.00  0.00     0.004 A 
ATOM      3  C4  UNL d   1       0.768  -2.416  -1.791  0.00  0.00    -0.003 A 
ATOM      4  C5  UNL d   1       0.419  -3.290  -0.767  0.00  0.00     0.000 A 
ATOM      5  C6  UNL d   1      -0.159  -2.795   0.401  0.00  0.00     0.000 A 
ATOM      6  C7  UNL d   1      -0.397  -1.420   0.564  0.00  0.00    -0.073 A 
ATOM      7  C8  UNL d   1      -1.018  -0.941   1.847  0.00  0.00     0.078 C 
ENDROOT
BRANCH   1   8
ATOM      8  C1  UNL d   1      -0.195   0.967  -0.343  0.00  0.00     0.053 C 
ATOM      9  C   UNL d   1       1.025   1.659   0.243  0.00  0.00     0.018 C 
ENDBRANCH   1   8
TORSDOF 1
ENDMDL
