MODEL 1
REMARK minimizedAffinity -3.69064474
REMARK minimizedRMSD -1
REMARK  1 active torsions:
REMARK  status: ('A' for Active; 'I' for Inactive)
REMARK    1  A    between atoms: C1_2  and  C2_3 
ROOT
ATOM      1  C2  UNL d   1      -0.006  -0.146   0.044  0.00  0.00    -0.076 A 
ATOM      2  C3  UNL d   1       0.803  -0.893  -0.829  0.00  0.00     0.004 A 
ATOM      3  C4  UNL d   1       0.772  -2.286  -0.821  0.00  0.00    -0.003 A 
ATOM      4  C5  UNL d   1      -0.069  -2.956   0.060  0.00  0.00     0.000 A 
ATOM      5  C6  UNL d   1      -0.892  -2.231   0.922  0.00  0.00     0.000 A 
ATOM      6  C7  UNL d   1      -0.885  -0.826   0.915  0.00  0.00    -0.073 A 
ATOM      7  C8  UNL d   1      -1.789  -0.095   1.870  0.00  0.00     0.078 C 
ENDROOT
BRANCH   1   8
ATOM      8  C1  UNL d   1       0.089   1.362   0.009  0.00  0.00     0.053 C 
ATOM      9  C   UNL d   1       1.446   1.871   0.472  0.00  0.00     0.018 C 
ENDBRANCH   1   8
TORSDOF 1
ENDMDL
