MODEL 1
REMARK minimizedAffinity -4.47652578
REMARK minimizedRMSD -1
REMARK  1 active torsions:
REMARK  status: ('A' for Active; 'I' for Inactive)
REMARK    1  A    between atoms: C1_2  and  C2_3 
ROOT
ATOM      1  C2  UNL d   1       0.292  -0.691  -0.704  0.00  0.00    -0.076 A 
ATOM      2  C3  UNL d   1      -0.054   0.671  -0.735  0.00  0.00     0.004 A 
ATOM      3  C4  UNL d   1      -0.885   1.223   0.238  0.00  0.00    -0.003 A 
ATOM      4  C5  UNL d   1      -1.383   0.422   1.260  0.00  0.00     0.000 A 
ATOM      5  C6  UNL d   1      -1.036  -0.927   1.317  0.00  0.00     0.000 A 
ATOM      6  C7  UNL d   1      -0.186  -1.496   0.352  0.00  0.00    -0.073 A 
ATOM      7  C8  UNL d   1       0.150  -2.958   0.459  0.00  0.00     0.078 C 
ENDROOT
BRANCH   1   8
ATOM      8  C1  UNL d   1       1.175  -1.240  -1.802  0.00  0.00     0.053 C 
ATOM      9  C   UNL d   1       1.101  -0.414  -3.076  0.00  0.00     0.018 C 
ENDBRANCH   1   8
TORSDOF 1
ENDMDL
