MODEL 1
REMARK minimizedAffinity -0.461634159
REMARK minimizedRMSD -1
REMARK  1 active torsions:
REMARK  status: ('A' for Active; 'I' for Inactive)
REMARK    1  A    between atoms: C1_2  and  C2_3 
ROOT
ATOM      1  C2  UNL d   1       0.221  -1.071   0.343  0.00  0.00    -0.076 A 
ATOM      2  C3  UNL d   1      -0.190  -0.330   1.464  0.00  0.00     0.004 A 
ATOM      3  C4  UNL d   1      -0.351   1.053   1.390  0.00  0.00    -0.003 A 
ATOM      4  C5  UNL d   1      -0.104   1.716   0.193  0.00  0.00     0.000 A 
ATOM      5  C6  UNL d   1       0.288   0.994  -0.934  0.00  0.00     0.000 A 
ATOM      6  C7  UNL d   1       0.439  -0.402  -0.880  0.00  0.00    -0.073 A 
ATOM      7  C8  UNL d   1       0.869  -1.130  -2.124  0.00  0.00     0.078 C 
ENDROOT
BRANCH   1   8
ATOM      8  C1  UNL d   1       0.405  -2.565   0.491  0.00  0.00     0.053 C 
ATOM      9  C   UNL d   1      -0.914  -3.322   0.440  0.00  0.00     0.018 C 
ENDBRANCH   1   8
TORSDOF 1
ENDMDL
