MODEL 1
REMARK minimizedAffinity -5.15177393
REMARK minimizedRMSD -1
REMARK  1 active torsions:
REMARK  status: ('A' for Active; 'I' for Inactive)
REMARK    1  A    between atoms: C1_2  and  C2_3 
ROOT
ATOM      1  C2  UNL d   1       0.179   3.024   1.141  0.00  0.00    -0.076 A 
ATOM      2  C3  UNL d   1      -0.777   3.332   2.124  0.00  0.00     0.004 A 
ATOM      3  C4  UNL d   1      -0.540   4.331   3.067  0.00  0.00    -0.003 A 
ATOM      4  C5  UNL d   1       0.656   5.039   3.041  0.00  0.00     0.000 A 
ATOM      5  C6  UNL d   1       1.609   4.759   2.062  0.00  0.00     0.000 A 
ATOM      6  C7  UNL d   1       1.379   3.766   1.094  0.00  0.00    -0.073 A 
ATOM      7  C8  UNL d   1       2.444   3.501   0.065  0.00  0.00     0.078 C 
ENDROOT
BRANCH   1   8
ATOM      8  C1  UNL d   1      -0.121   1.912   0.161  0.00  0.00     0.053 C 
ATOM      9  C   UNL d   1      -0.733   0.693   0.834  0.00  0.00     0.018 C 
ENDBRANCH   1   8
TORSDOF 1
ENDMDL
