MODEL 1
REMARK minimizedAffinity -4.16106176
REMARK minimizedRMSD -1
REMARK  1 active torsions:
REMARK  status: ('A' for Active; 'I' for Inactive)
REMARK    1  A    between atoms: C1_2  and  C2_3 
ROOT
ATOM      1  C2  UNL d   1       1.038   1.159   0.153  0.00  0.00    -0.076 A 
ATOM      2  C3  UNL d   1       0.915   0.636   1.452  0.00  0.00     0.004 A 
ATOM      3  C4  UNL d   1       0.141  -0.496   1.699  0.00  0.00    -0.003 A 
ATOM      4  C5  UNL d   1      -0.522  -1.125   0.651  0.00  0.00     0.000 A 
ATOM      5  C6  UNL d   1      -0.397  -0.630  -0.647  0.00  0.00     0.000 A 
ATOM      6  C7  UNL d   1       0.392   0.501  -0.915  0.00  0.00    -0.073 A 
ATOM      7  C8  UNL d   1       0.487   0.995  -2.333  0.00  0.00     0.078 C 
ENDROOT
BRANCH   1   8
ATOM      8  C1  UNL d   1       1.869   2.406  -0.050  0.00  0.00     0.053 C 
ATOM      9  C   UNL d   1       1.200   3.650   0.512  0.00  0.00     0.018 C 
ENDBRANCH   1   8
TORSDOF 1
ENDMDL
