MODEL 1
REMARK minimizedAffinity -4.56992245
REMARK minimizedRMSD -1
REMARK  1 active torsions:
REMARK  status: ('A' for Active; 'I' for Inactive)
REMARK    1  A    between atoms: C1_2  and  C2_3 
ROOT
ATOM      1  C2  UNL d   1      -0.006  -0.536  -0.652  0.00  0.00    -0.076 A 
ATOM      2  C3  UNL d   1      -0.098  -1.390   0.461  0.00  0.00     0.004 A 
ATOM      3  C4  UNL d   1       0.142  -2.757   0.338  0.00  0.00    -0.003 A 
ATOM      4  C5  UNL d   1       0.478  -3.293  -0.900  0.00  0.00     0.000 A 
ATOM      5  C6  UNL d   1       0.591  -2.459  -2.012  0.00  0.00     0.000 A 
ATOM      6  C7  UNL d   1       0.368  -1.075  -1.901  0.00  0.00    -0.073 A 
ATOM      7  C8  UNL d   1       0.498  -0.223  -3.134  0.00  0.00     0.078 C 
ENDROOT
BRANCH   1   8
ATOM      8  C1  UNL d   1      -0.304   0.935  -0.464  0.00  0.00     0.053 C 
ATOM      9  C   UNL d   1       0.787   1.655   0.313  0.00  0.00     0.018 C 
ENDBRANCH   1   8
TORSDOF 1
ENDMDL
