MODEL 1
REMARK minimizedAffinity -2.84365535
REMARK minimizedRMSD -1
REMARK  1 active torsions:
REMARK  status: ('A' for Active; 'I' for Inactive)
REMARK    1  A    between atoms: C1_2  and  C2_3 
ROOT
ATOM      1  C2  UNL d   1       0.473   3.415   0.937  0.00  0.00    -0.076 A 
ATOM      2  C3  UNL d   1      -0.798   3.677   1.477  0.00  0.00     0.004 A 
ATOM      3  C4  UNL d   1      -1.106   4.927   2.013  0.00  0.00    -0.003 A 
ATOM      4  C5  UNL d   1      -0.149   5.935   2.016  0.00  0.00     0.000 A 
ATOM      5  C6  UNL d   1       1.112   5.698   1.468  0.00  0.00     0.000 A 
ATOM      6  C7  UNL d   1       1.434   4.449   0.910  0.00  0.00    -0.073 A 
ATOM      7  C8  UNL d   1       2.810   4.246   0.339  0.00  0.00     0.078 C 
ENDROOT
BRANCH   1   8
ATOM      8  C1  UNL d   1       0.759   2.032   0.396  0.00  0.00     0.053 C 
ATOM      9  C   UNL d   1      -0.416   1.457  -0.381  0.00  0.00     0.018 C 
ENDBRANCH   1   8
TORSDOF 1
ENDMDL
