MODEL 1
REMARK minimizedAffinity -1.13833213
REMARK minimizedRMSD -1
REMARK  2 active torsions:
REMARK  status: ('A' for Active; 'I' for Inactive)
REMARK    1  A    between atoms: C1_2  and  C2_3 
REMARK    2  A    between atoms: C2_3  and  C3_4 
ROOT
ATOM      1  C3  UNL d   1       4.742   2.112  -0.695  0.00  0.00    -0.075 A 
ATOM      2  C4  UNL d   1       4.663   3.289  -1.453  0.00  0.00     0.002 A 
ATOM      3  C5  UNL d   1       5.258   4.466  -0.997  0.00  0.00     0.002 A 
ATOM      4  C6  UNL d   1       5.929   4.484   0.224  0.00  0.00    -0.004 A 
ATOM      5  C7  UNL d   1       5.999   3.324   0.993  0.00  0.00     0.002 A 
ATOM      6  C8  UNL d   1       5.408   2.144   0.538  0.00  0.00     0.002 A 
ENDROOT
BRANCH   1   7
ATOM      7  C2  UNL d   1       4.126   0.827  -1.196  0.00  0.00     0.056 C 
BRANCH   7   8
ATOM      8  C1  UNL d   1       4.614  -0.426  -0.462  0.00  0.00     0.007 C 
ATOM      9  C   UNL d   1       3.633  -1.589  -0.542  0.00  0.00     0.009 C 
ENDBRANCH   7   8
ENDBRANCH   1   7
TORSDOF 2
ENDMDL
