MODEL 1
REMARK minimizedAffinity 12.3221054
REMARK minimizedRMSD -1
REMARK  2 active torsions:
REMARK  status: ('A' for Active; 'I' for Inactive)
REMARK    1  A    between atoms: C1_2  and  C2_3 
REMARK    2  A    between atoms: C2_3  and  C3_4 
ROOT
ATOM      1  C3  UNL d   1      -1.098  -4.764  -2.676  0.00  0.00    -0.075 A 
ATOM      2  C4  UNL d   1      -0.899  -5.621  -1.583  0.00  0.00     0.002 A 
ATOM      3  C5  UNL d   1       0.227  -5.485  -0.772  0.00  0.00     0.002 A 
ATOM      4  C6  UNL d   1       1.173  -4.499  -1.047  0.00  0.00    -0.004 A 
ATOM      5  C7  UNL d   1       0.994  -3.653  -2.139  0.00  0.00     0.002 A 
ATOM      6  C8  UNL d   1      -0.134  -3.785  -2.951  0.00  0.00     0.002 A 
ENDROOT
BRANCH   1   7
ATOM      7  C2  UNL d   1      -2.329  -4.888  -3.541  0.00  0.00     0.056 C 
BRANCH   7   8
ATOM      8  C1  UNL d   1      -2.244  -6.000  -4.592  0.00  0.00     0.007 C 
ATOM      9  C   UNL d   1      -0.937  -5.989  -5.372  0.00  0.00     0.009 C 
ENDBRANCH   7   8
ENDBRANCH   1   7
TORSDOF 2
ENDMDL
