MODEL 1
REMARK minimizedAffinity 10.354805
REMARK minimizedRMSD -1
REMARK  2 active torsions:
REMARK  status: ('A' for Active; 'I' for Inactive)
REMARK    1  A    between atoms: C1_2  and  C2_3 
REMARK    2  A    between atoms: C2_3  and  C3_4 
ROOT
ATOM      1  C3  UNL d   1      -1.030   1.907   1.236  0.00  0.00    -0.075 A 
ATOM      2  C4  UNL d   1      -1.149   3.304   1.246  0.00  0.00     0.002 A 
ATOM      3  C5  UNL d   1      -0.229   4.089   1.942  0.00  0.00     0.002 A 
ATOM      4  C6  UNL d   1       0.814   3.488   2.643  0.00  0.00    -0.004 A 
ATOM      5  C7  UNL d   1       0.933   2.100   2.653  0.00  0.00     0.002 A 
ATOM      6  C8  UNL d   1       0.016   1.312   1.954  0.00  0.00     0.002 A 
ENDROOT
BRANCH   1   7
ATOM      7  C2  UNL d   1      -2.005   1.054   0.461  0.00  0.00     0.056 C 
BRANCH   7   8
ATOM      8  C1  UNL d   1      -1.523   0.674  -0.943  0.00  0.00     0.007 C 
ATOM      9  C   UNL d   1      -0.074   1.063  -1.206  0.00  0.00     0.009 C 
ENDBRANCH   7   8
ENDBRANCH   1   7
TORSDOF 2
ENDMDL
