MODEL 1
REMARK minimizedAffinity 4.07028484
REMARK minimizedRMSD -1
REMARK  2 active torsions:
REMARK  status: ('A' for Active; 'I' for Inactive)
REMARK    1  A    between atoms: C1_2  and  C2_3 
REMARK    2  A    between atoms: C2_3  and  C3_4 
ROOT
ATOM      1  C3  UNL d   1       3.696  -0.185  -1.105  0.00  0.00    -0.075 A 
ATOM      2  C4  UNL d   1       4.928  -0.211  -1.774  0.00  0.00     0.002 A 
ATOM      3  C5  UNL d   1       5.935   0.694  -1.439  0.00  0.00     0.002 A 
ATOM      4  C6  UNL d   1       5.721   1.641  -0.440  0.00  0.00    -0.004 A 
ATOM      5  C7  UNL d   1       4.495   1.687   0.220  0.00  0.00     0.002 A 
ATOM      6  C8  UNL d   1       3.487   0.779  -0.110  0.00  0.00     0.002 A 
ENDROOT
BRANCH   1   7
ATOM      7  C2  UNL d   1       2.612  -1.181  -1.442  0.00  0.00     0.056 C 
BRANCH   7   8
ATOM      8  C1  UNL d   1       3.107  -2.628  -1.552  0.00  0.00     0.007 C 
ATOM      9  C   UNL d   1       3.249  -3.106  -2.991  0.00  0.00     0.009 C 
ENDBRANCH   7   8
ENDBRANCH   1   7
TORSDOF 2
ENDMDL
