MODEL 1
REMARK minimizedAffinity 10.6278381
REMARK minimizedRMSD -1
REMARK  2 active torsions:
REMARK  status: ('A' for Active; 'I' for Inactive)
REMARK    1  A    between atoms: C1_2  and  C2_3 
REMARK    2  A    between atoms: C2_3  and  C3_4 
ROOT
ATOM      1  C3  UNL d   1       1.778   0.463   0.548  0.00  0.00    -0.075 A 
ATOM      2  C4  UNL d   1       0.831   0.728  -0.452  0.00  0.00     0.002 A 
ATOM      3  C5  UNL d   1      -0.445   1.182  -0.117  0.00  0.00     0.002 A 
ATOM      4  C6  UNL d   1      -0.793   1.367   1.220  0.00  0.00    -0.004 A 
ATOM      5  C7  UNL d   1       0.135   1.092   2.222  0.00  0.00     0.002 A 
ATOM      6  C8  UNL d   1       1.413   0.641   1.889  0.00  0.00     0.002 A 
ENDROOT
BRANCH   1   7
ATOM      7  C2  UNL d   1       3.170  -0.001   0.190  0.00  0.00     0.056 C 
BRANCH   7   8
ATOM      8  C1  UNL d   1       3.475   0.040  -1.311  0.00  0.00     0.007 C 
ATOM      9  C   UNL d   1       4.345   1.223  -1.714  0.00  0.00     0.009 C 
ENDBRANCH   7   8
ENDBRANCH   1   7
TORSDOF 2
ENDMDL
