MODEL 1
REMARK minimizedAffinity 7.12852764
REMARK minimizedRMSD -1
REMARK  2 active torsions:
REMARK  status: ('A' for Active; 'I' for Inactive)
REMARK    1  A    between atoms: C1_2  and  C2_3 
REMARK    2  A    between atoms: C2_3  and  C3_4 
ROOT
ATOM      1  C3  UNL d   1       0.514  -3.289   4.119  0.00  0.00    -0.075 A 
ATOM      2  C4  UNL d   1       1.348  -4.175   4.817  0.00  0.00     0.002 A 
ATOM      3  C5  UNL d   1       0.813  -5.066   5.747  0.00  0.00     0.002 A 
ATOM      4  C6  UNL d   1      -0.557  -5.076   6.000  0.00  0.00    -0.004 A 
ATOM      5  C7  UNL d   1      -1.392  -4.189   5.324  0.00  0.00     0.002 A 
ATOM      6  C8  UNL d   1      -0.861  -3.299   4.389  0.00  0.00     0.002 A 
ENDROOT
BRANCH   1   7
ATOM      7  C2  UNL d   1       1.083  -2.342   3.089  0.00  0.00     0.056 C 
BRANCH   7   8
ATOM      8  C1  UNL d   1       1.421  -3.007   1.750  0.00  0.00     0.007 C 
ATOM      9  C   UNL d   1       1.015  -2.170   0.544  0.00  0.00     0.009 C 
ENDBRANCH   7   8
ENDBRANCH   1   7
TORSDOF 2
ENDMDL
