MODEL 1
REMARK minimizedAffinity -0.581113815
REMARK minimizedRMSD -1
REMARK  1 active torsions:
REMARK  status: ('A' for Active; 'I' for Inactive)
REMARK    1  A    between atoms: C1_2  and  C2_3 
ROOT
ATOM      1  C2  UNL d   1      -0.212  -2.435  -0.048  0.00  0.00    -0.076 A 
ATOM      2  C3  UNL d   1      -0.030  -3.443  -1.010  0.00  0.00     0.004 A 
ATOM      3  C4  UNL d   1      -1.122  -4.038  -1.641  0.00  0.00    -0.003 A 
ATOM      4  C5  UNL d   1      -2.413  -3.633  -1.321  0.00  0.00     0.000 A 
ATOM      5  C6  UNL d   1      -2.611  -2.621  -0.382  0.00  0.00     0.000 A 
ATOM      6  C7  UNL d   1      -1.521  -2.001   0.252  0.00  0.00    -0.073 A 
ATOM      7  C8  UNL d   1      -1.793  -0.919   1.262  0.00  0.00     0.078 C 
ENDROOT
BRANCH   1   8
ATOM      8  C1  UNL d   1       1.008  -1.846   0.624  0.00  0.00     0.053 C 
ATOM      9  C   UNL d   1       2.110  -1.505  -0.367  0.00  0.00     0.018 C 
ENDBRANCH   1   8
TORSDOF 1
ENDMDL
