MODEL 1
REMARK minimizedAffinity 0.159204572
REMARK minimizedRMSD -1
REMARK  1 active torsions:
REMARK  status: ('A' for Active; 'I' for Inactive)
REMARK    1  A    between atoms: C1_2  and  C2_3 
ROOT
ATOM      1  C2  UNL d   1      -1.503  -3.744  -1.212  0.00  0.00    -0.076 A 
ATOM      2  C3  UNL d   1      -0.119  -3.564  -1.379  0.00  0.00     0.004 A 
ATOM      3  C4  UNL d   1       0.683  -4.588  -1.881  0.00  0.00    -0.003 A 
ATOM      4  C5  UNL d   1       0.112  -5.808  -2.226  0.00  0.00     0.000 A 
ATOM      5  C6  UNL d   1      -1.262  -5.998  -2.084  0.00  0.00     0.000 A 
ATOM      6  C7  UNL d   1      -2.086  -4.971  -1.594  0.00  0.00    -0.073 A 
ATOM      7  C8  UNL d   1      -3.561  -5.233  -1.456  0.00  0.00     0.078 C 
ENDROOT
BRANCH   1   8
ATOM      8  C1  UNL d   1      -2.317  -2.607  -0.637  0.00  0.00     0.053 C 
ATOM      9  C   UNL d   1      -1.578  -1.858   0.461  0.00  0.00     0.018 C 
ENDBRANCH   1   8
TORSDOF 1
ENDMDL
