MODEL 1
REMARK minimizedAffinity 10.9565516
REMARK minimizedRMSD -1
REMARK  1 active torsions:
REMARK  status: ('A' for Active; 'I' for Inactive)
REMARK    1  A    between atoms: C1_2  and  C2_3 
ROOT
ATOM      1  C2  UNL d   1       4.018   4.028   2.620  0.00  0.00    -0.076 A 
ATOM      2  C3  UNL d   1       2.676   4.206   2.239  0.00  0.00     0.004 A 
ATOM      3  C4  UNL d   1       1.906   3.130   1.800  0.00  0.00    -0.003 A 
ATOM      4  C5  UNL d   1       2.466   1.858   1.735  0.00  0.00     0.000 A 
ATOM      5  C6  UNL d   1       3.790   1.661   2.125  0.00  0.00     0.000 A 
ATOM      6  C7  UNL d   1       4.575   2.732   2.585  0.00  0.00    -0.073 A 
ATOM      7  C8  UNL d   1       5.999   2.463   2.987  0.00  0.00     0.078 C 
ENDROOT
BRANCH   1   8
ATOM      8  C1  UNL d   1       4.811   5.237   3.062  0.00  0.00     0.053 C 
ATOM      9  C   UNL d   1       4.385   5.745   4.430  0.00  0.00     0.018 C 
ENDBRANCH   1   8
TORSDOF 1
ENDMDL
