MODEL 1
REMARK minimizedAffinity 5.00941229
REMARK minimizedRMSD -1
REMARK  1 active torsions:
REMARK  status: ('A' for Active; 'I' for Inactive)
REMARK    1  A    between atoms: C1_2  and  C2_3 
ROOT
ATOM      1  C2  UNL d   1       3.900   4.294   3.018  0.00  0.00    -0.076 A 
ATOM      2  C3  UNL d   1       4.976   3.591   2.449  0.00  0.00     0.004 A 
ATOM      3  C4  UNL d   1       4.787   2.341   1.863  0.00  0.00    -0.003 A 
ATOM      4  C5  UNL d   1       3.518   1.773   1.834  0.00  0.00     0.000 A 
ATOM      5  C6  UNL d   1       2.435   2.464   2.378  0.00  0.00     0.000 A 
ATOM      6  C7  UNL d   1       2.606   3.733   2.959  0.00  0.00    -0.073 A 
ATOM      7  C8  UNL d   1       1.405   4.430   3.535  0.00  0.00     0.078 C 
ENDROOT
BRANCH   1   8
ATOM      8  C1  UNL d   1       4.170   5.633   3.664  0.00  0.00     0.053 C 
ATOM      9  C   UNL d   1       4.935   5.505   4.973  0.00  0.00     0.018 C 
ENDBRANCH   1   8
TORSDOF 1
ENDMDL
