MODEL 1
REMARK minimizedAffinity 10.7210331
REMARK minimizedRMSD -1
REMARK  1 active torsions:
REMARK  status: ('A' for Active; 'I' for Inactive)
REMARK    1  A    between atoms: C1_2  and  C2_3 
ROOT
ATOM      1  C2  UNL d   1       2.492   5.133   4.425  0.00  0.00    -0.076 A 
ATOM      2  C3  UNL d   1       2.883   5.522   5.719  0.00  0.00     0.004 A 
ATOM      3  C4  UNL d   1       4.184   5.952   5.976  0.00  0.00    -0.003 A 
ATOM      4  C5  UNL d   1       5.115   6.000   4.944  0.00  0.00     0.000 A 
ATOM      5  C6  UNL d   1       4.740   5.635   3.652  0.00  0.00     0.000 A 
ATOM      6  C7  UNL d   1       3.428   5.215   3.372  0.00  0.00    -0.073 A 
ATOM      7  C8  UNL d   1       3.080   4.827   1.961  0.00  0.00     0.078 C 
ENDROOT
BRANCH   1   8
ATOM      8  C1  UNL d   1       1.075   4.651   4.212  0.00  0.00     0.053 C 
ATOM      9  C   UNL d   1       0.988   3.137   4.087  0.00  0.00     0.018 C 
ENDBRANCH   1   8
TORSDOF 1
ENDMDL
