MODEL 1
REMARK minimizedAffinity 9.61555862
REMARK minimizedRMSD -1
REMARK  1 active torsions:
REMARK  status: ('A' for Active; 'I' for Inactive)
REMARK    1  A    between atoms: C1_2  and  C2_3 
ROOT
ATOM      1  C2  UNL d   1       3.926   4.582   3.129  0.00  0.00    -0.076 A 
ATOM      2  C3  UNL d   1       4.850   3.739   2.488  0.00  0.00     0.004 A 
ATOM      3  C4  UNL d   1       4.469   2.484   2.016  0.00  0.00    -0.003 A 
ATOM      4  C5  UNL d   1       3.157   2.053   2.175  0.00  0.00     0.000 A 
ATOM      5  C6  UNL d   1       2.222   2.884   2.792  0.00  0.00     0.000 A 
ATOM      6  C7  UNL d   1       2.586   4.158   3.259  0.00  0.00    -0.073 A 
ATOM      7  C8  UNL d   1       1.539   5.010   3.922  0.00  0.00     0.078 C 
ENDROOT
BRANCH   1   8
ATOM      8  C1  UNL d   1       4.404   5.921   3.645  0.00  0.00     0.053 C 
ATOM      9  C   UNL d   1       4.676   5.904   5.141  0.00  0.00     0.018 C 
ENDBRANCH   1   8
TORSDOF 1
ENDMDL
