MODEL 1
REMARK minimizedAffinity 12.0110331
REMARK minimizedRMSD -1
REMARK  1 active torsions:
REMARK  status: ('A' for Active; 'I' for Inactive)
REMARK    1  A    between atoms: C1_2  and  C2_3 
ROOT
ATOM      1  C2  UNL d   1      -2.495  -4.316  -0.636  0.00  0.00    -0.076 A 
ATOM      2  C3  UNL d   1      -2.765  -3.057  -0.072  0.00  0.00     0.004 A 
ATOM      3  C4  UNL d   1      -1.732  -2.180   0.252  0.00  0.00    -0.003 A 
ATOM      4  C5  UNL d   1      -0.411  -2.547   0.017  0.00  0.00     0.000 A 
ATOM      5  C6  UNL d   1      -0.126  -3.785  -0.557  0.00  0.00     0.000 A 
ATOM      6  C7  UNL d   1      -1.157  -4.675  -0.905  0.00  0.00    -0.073 A 
ATOM      7  C8  UNL d   1      -0.792  -5.999  -1.517  0.00  0.00     0.078 C 
ENDROOT
BRANCH   1   8
ATOM      8  C1  UNL d   1      -3.655  -5.236  -0.942  0.00  0.00     0.053 C 
ATOM      9  C   UNL d   1      -4.133  -5.999   0.284  0.00  0.00     0.018 C 
ENDBRANCH   1   8
TORSDOF 1
ENDMDL
