MODEL 1
REMARK minimizedAffinity 14.4719095
REMARK minimizedRMSD -1
REMARK  1 active torsions:
REMARK  status: ('A' for Active; 'I' for Inactive)
REMARK    1  A    between atoms: C1_2  and  C2_3 
ROOT
ATOM      1  C2  UNL d   1      -5.312   2.628  -2.484  0.00  0.00    -0.076 A 
ATOM      2  C3  UNL d   1      -4.979   3.449  -1.393  0.00  0.00     0.004 A 
ATOM      3  C4  UNL d   1      -5.005   2.956  -0.089  0.00  0.00    -0.003 A 
ATOM      4  C5  UNL d   1      -5.363   1.633   0.144  0.00  0.00     0.000 A 
ATOM      5  C6  UNL d   1      -5.679   0.799  -0.927  0.00  0.00     0.000 A 
ATOM      6  C7  UNL d   1      -5.643   1.276  -2.249  0.00  0.00    -0.073 A 
ATOM      7  C8  UNL d   1      -5.999   0.334  -3.366  0.00  0.00     0.078 C 
ENDROOT
BRANCH   1   8
ATOM      8  C1  UNL d   1      -5.294   3.225  -3.872  0.00  0.00     0.053 C 
ATOM      9  C   UNL d   1      -5.991   4.575  -3.935  0.00  0.00     0.018 C 
ENDBRANCH   1   8
TORSDOF 1
ENDMDL
