MODEL 1
REMARK minimizedAffinity 15.6020794
REMARK minimizedRMSD -1
REMARK  1 active torsions:
REMARK  status: ('A' for Active; 'I' for Inactive)
REMARK    1  A    between atoms: C1_2  and  C2_3 
ROOT
ATOM      1  C2  UNL d   1      -3.785   0.411  -0.110  0.00  0.00    -0.076 A 
ATOM      2  C3  UNL d   1      -3.697   1.571   0.679  0.00  0.00     0.004 A 
ATOM      3  C4  UNL d   1      -4.310   2.758   0.282  0.00  0.00    -0.003 A 
ATOM      4  C5  UNL d   1      -5.023   2.804  -0.912  0.00  0.00     0.000 A 
ATOM      5  C6  UNL d   1      -5.136   1.658  -1.698  0.00  0.00     0.000 A 
ATOM      6  C7  UNL d   1      -4.537   0.449  -1.303  0.00  0.00    -0.073 A 
ATOM      7  C8  UNL d   1      -4.686  -0.754  -2.193  0.00  0.00     0.078 C 
ENDROOT
BRANCH   1   8
ATOM      8  C1  UNL d   1      -3.077  -0.839   0.359  0.00  0.00     0.053 C 
ATOM      9  C   UNL d   1      -2.524  -0.702   1.770  0.00  0.00     0.018 C 
ENDBRANCH   1   8
TORSDOF 1
ENDMDL
