MODEL 1
REMARK minimizedAffinity 3.82254314
REMARK minimizedRMSD -1
REMARK  1 active torsions:
REMARK  status: ('A' for Active; 'I' for Inactive)
REMARK    1  A    between atoms: C1_2  and  C2_3 
ROOT
ATOM      1  C2  UNL d   1       0.593  -3.586  -0.693  0.00  0.00    -0.076 A 
ATOM      2  C3  UNL d   1       1.533  -4.576  -1.026  0.00  0.00     0.004 A 
ATOM      3  C4  UNL d   1       1.137  -5.770  -1.626  0.00  0.00    -0.003 A 
ATOM      4  C5  UNL d   1      -0.208  -5.994  -1.903  0.00  0.00     0.000 A 
ATOM      5  C6  UNL d   1      -1.152  -5.015  -1.595  0.00  0.00     0.000 A 
ATOM      6  C7  UNL d   1      -0.767  -3.799  -1.005  0.00  0.00    -0.073 A 
ATOM      7  C8  UNL d   1      -1.829  -2.782  -0.689  0.00  0.00     0.078 C 
ENDROOT
BRANCH   1   8
ATOM      8  C1  UNL d   1       1.078  -2.323  -0.020  0.00  0.00     0.053 C 
ATOM      9  C   UNL d   1       2.590  -2.172  -0.085  0.00  0.00     0.018 C 
ENDBRANCH   1   8
TORSDOF 1
ENDMDL
