MODEL 1
REMARK minimizedAffinity 11.5519018
REMARK minimizedRMSD -1
REMARK  1 active torsions:
REMARK  status: ('A' for Active; 'I' for Inactive)
REMARK    1  A    between atoms: C1_2  and  C2_3 
ROOT
ATOM      1  C2  UNL d   1       1.906   0.954  -4.141  0.00  0.00    -0.076 A 
ATOM      2  C3  UNL d   1       0.766   0.142  -4.004  0.00  0.00     0.004 A 
ATOM      3  C4  UNL d   1      -0.334   0.302  -4.845  0.00  0.00    -0.003 A 
ATOM      4  C5  UNL d   1      -0.312   1.275  -5.838  0.00  0.00     0.000 A 
ATOM      5  C6  UNL d   1       0.818   2.077  -6.000  0.00  0.00     0.000 A 
ATOM      6  C7  UNL d   1       1.941   1.918  -5.170  0.00  0.00    -0.073 A 
ATOM      7  C8  UNL d   1       3.130   2.815  -5.386  0.00  0.00     0.078 C 
ENDROOT
BRANCH   1   8
ATOM      8  C1  UNL d   1       3.057   0.753  -3.182  0.00  0.00     0.053 C 
ATOM      9  C   UNL d   1       3.470  -0.706  -3.064  0.00  0.00     0.018 C 
ENDBRANCH   1   8
TORSDOF 1
ENDMDL
