MODEL 1
REMARK minimizedAffinity 1.62392366
REMARK minimizedRMSD -1
REMARK  1 active torsions:
REMARK  status: ('A' for Active; 'I' for Inactive)
REMARK    1  A    between atoms: C1_2  and  C2_3 
ROOT
ATOM      1  C2  UNL d   1      -0.759  -3.771  -0.422  0.00  0.00    -0.076 A 
ATOM      2  C3  UNL d   1      -1.744  -3.390  -1.349  0.00  0.00     0.004 A 
ATOM      3  C4  UNL d   1      -2.700  -4.300  -1.796  0.00  0.00    -0.003 A 
ATOM      4  C5  UNL d   1      -2.687  -5.607  -1.322  0.00  0.00     0.000 A 
ATOM      5  C6  UNL d   1      -1.728  -5.998  -0.388  0.00  0.00     0.000 A 
ATOM      6  C7  UNL d   1      -0.767  -5.088   0.085  0.00  0.00    -0.073 A 
ATOM      7  C8  UNL d   1       0.247  -5.566   1.088  0.00  0.00     0.078 C 
ENDROOT
BRANCH   1   8
ATOM      8  C1  UNL d   1       0.269  -2.748   0.006  0.00  0.00     0.053 C 
ATOM      9  C   UNL d   1      -0.350  -1.579   0.756  0.00  0.00     0.018 C 
ENDBRANCH   1   8
TORSDOF 1
ENDMDL
