MODEL 1
REMARK minimizedAffinity 10.6847897
REMARK minimizedRMSD -1
REMARK  1 active torsions:
REMARK  status: ('A' for Active; 'I' for Inactive)
REMARK    1  A    between atoms: C1_2  and  C2_3 
ROOT
ATOM      1  C2  UNL d   1       3.441   1.673   1.760  0.00  0.00    -0.076 A 
ATOM      2  C3  UNL d   1       2.105   2.063   1.961  0.00  0.00     0.004 A 
ATOM      3  C4  UNL d   1       1.796   3.255   2.613  0.00  0.00    -0.003 A 
ATOM      4  C5  UNL d   1       2.817   4.078   3.074  0.00  0.00     0.000 A 
ATOM      5  C6  UNL d   1       4.148   3.716   2.868  0.00  0.00     0.000 A 
ATOM      6  C7  UNL d   1       4.477   2.525   2.198  0.00  0.00    -0.073 A 
ATOM      7  C8  UNL d   1       5.929   2.182   2.009  0.00  0.00     0.078 C 
ENDROOT
BRANCH   1   8
ATOM      8  C1  UNL d   1       3.716   0.356   1.071  0.00  0.00     0.053 C 
ATOM      9  C   UNL d   1       2.614  -0.033   0.097  0.00  0.00     0.018 C 
ENDBRANCH   1   8
TORSDOF 1
ENDMDL
