MODEL 1
REMARK minimizedAffinity -3.19784975
REMARK minimizedRMSD -1
REMARK  1 active torsions:
REMARK  status: ('A' for Active; 'I' for Inactive)
REMARK    1  A    between atoms: N_2  and  C1_3 
ROOT
ATOM      1  C1  UNL d   1       0.788  -0.393   0.219  0.00  0.00     0.143 A 
ATOM      2  C2  UNL d   1       1.074   0.943  -0.080  0.00  0.00    -0.057 A 
ATOM      3  C3  UNL d   1       1.946   1.283  -1.121  0.00  0.00     0.033 A 
ATOM      4  C4  UNL d   1       2.572   0.288  -1.865  0.00  0.00    -0.042 A 
ATOM      5  C5  UNL d   1       2.322  -1.047  -1.568  0.00  0.00     0.033 A 
ATOM      6  C6  UNL d   1       1.445  -1.380  -0.532  0.00  0.00    -0.057 A 
ENDROOT
BRANCH   1   7
ATOM      7  N   UNL d   1       0.006  -0.797   1.305  0.00  0.00    -0.732 N 
ATOM      8  C   UNL d   1      -1.251  -0.141   1.592  0.00  0.00     0.284 C 
ATOM      9  H3  UNL d   1      -0.019  -1.809   1.411  0.00  0.00     0.395 HD
ENDBRANCH   1   7
TORSDOF 1
ENDMDL
