MODEL 1
REMARK minimizedAffinity -3.38850975
REMARK minimizedRMSD -1
REMARK  1 active torsions:
REMARK  status: ('A' for Active; 'I' for Inactive)
REMARK    1  A    between atoms: N_2  and  C1_3 
ROOT
ATOM      1  C1  UNL d   1       0.711  -1.335  -0.426  0.00  0.00     0.143 A 
ATOM      2  C2  UNL d   1      -0.172  -1.043   0.620  0.00  0.00    -0.057 A 
ATOM      3  C3  UNL d   1      -0.520   0.277   0.929  0.00  0.00     0.033 A 
ATOM      4  C4  UNL d   1       0.033   1.335   0.215  0.00  0.00    -0.042 A 
ATOM      5  C5  UNL d   1       0.932   1.070  -0.812  0.00  0.00     0.033 A 
ATOM      6  C6  UNL d   1       1.270  -0.251  -1.121  0.00  0.00    -0.057 A 
ENDROOT
BRANCH   1   7
ATOM      7  N   UNL d   1       1.172  -2.620  -0.718  0.00  0.00    -0.732 N 
ATOM      8  C   UNL d   1       2.421  -2.812  -1.424  0.00  0.00     0.284 C 
ATOM      9  H3  UNL d   1       1.025  -3.270   0.050  0.00  0.00     0.395 HD
ENDBRANCH   1   7
TORSDOF 1
ENDMDL
