MODEL 1
REMARK minimizedAffinity -2.85900688
REMARK minimizedRMSD -1
REMARK  1 active torsions:
REMARK  status: ('A' for Active; 'I' for Inactive)
REMARK    1  A    between atoms: N_2  and  C1_3 
ROOT
ATOM      1  C1  UNL d   1      -0.725   0.716   0.788  0.00  0.00     0.143 A 
ATOM      2  C2  UNL d   1      -1.279   0.341   2.017  0.00  0.00    -0.057 A 
ATOM      3  C3  UNL d   1      -2.666   0.284   2.201  0.00  0.00     0.033 A 
ATOM      4  C4  UNL d   1      -3.526   0.631   1.164  0.00  0.00    -0.042 A 
ATOM      5  C5  UNL d   1      -2.998   1.031  -0.058  0.00  0.00     0.033 A 
ATOM      6  C6  UNL d   1      -1.612   1.079  -0.238  0.00  0.00    -0.057 A 
ENDROOT
BRANCH   1   7
ATOM      7  N   UNL d   1       0.644   0.886   0.572  0.00  0.00    -0.732 N 
ATOM      8  C   UNL d   1       1.147   1.225  -0.742  0.00  0.00     0.284 C 
ATOM      9  H3  UNL d   1       1.098   1.388   1.332  0.00  0.00     0.395 HD
ENDBRANCH   1   7
TORSDOF 1
ENDMDL
