MODEL 1
REMARK minimizedAffinity -2.64044547
REMARK minimizedRMSD -1
REMARK  1 active torsions:
REMARK  status: ('A' for Active; 'I' for Inactive)
REMARK    1  A    between atoms: N_2  and  C1_3 
ROOT
ATOM      1  C1  UNL d   1      -0.313   0.065   0.267  0.00  0.00     0.143 A 
ATOM      2  C2  UNL d   1       0.010  -1.245  -0.105  0.00  0.00    -0.057 A 
ATOM      3  C3  UNL d   1       1.055  -1.509  -0.999  0.00  0.00     0.033 A 
ATOM      4  C4  UNL d   1       1.779  -0.462  -1.561  0.00  0.00    -0.042 A 
ATOM      5  C5  UNL d   1       1.460   0.848  -1.225  0.00  0.00     0.033 A 
ATOM      6  C6  UNL d   1       0.419   1.105  -0.326  0.00  0.00    -0.057 A 
ENDROOT
BRANCH   1   7
ATOM      7  N   UNL d   1      -1.403   0.398   1.074  0.00  0.00    -0.732 N 
ATOM      8  C   UNL d   1      -2.753   0.086   0.655  0.00  0.00     0.284 C 
ATOM      9  H3  UNL d   1      -1.224   0.224   2.060  0.00  0.00     0.395 HD
ENDBRANCH   1   7
TORSDOF 1
ENDMDL
