MODEL 1
REMARK minimizedAffinity -2.75835824
REMARK minimizedRMSD -1
REMARK  1 active torsions:
REMARK  status: ('A' for Active; 'I' for Inactive)
REMARK    1  A    between atoms: N_2  and  C1_3 
ROOT
ATOM      1  C1  UNL d   1      -1.111   0.231   0.827  0.00  0.00     0.143 A 
ATOM      2  C2  UNL d   1      -1.061   0.379   2.217  0.00  0.00    -0.057 A 
ATOM      3  C3  UNL d   1      -2.217   0.644   2.961  0.00  0.00     0.033 A 
ATOM      4  C4  UNL d   1      -3.443   0.795   2.322  0.00  0.00    -0.042 A 
ATOM      5  C5  UNL d   1      -3.512   0.676   0.939  0.00  0.00     0.033 A 
ATOM      6  C6  UNL d   1      -2.355   0.405   0.202  0.00  0.00    -0.057 A 
ENDROOT
BRANCH   1   7
ATOM      7  N   UNL d   1       0.019   0.065   0.021  0.00  0.00    -0.732 N 
ATOM      8  C   UNL d   1       0.744   1.213  -0.477  0.00  0.00     0.284 C 
ATOM      9  H3  UNL d   1       0.614  -0.697   0.339  0.00  0.00     0.395 HD
ENDBRANCH   1   7
TORSDOF 1
ENDMDL
