MODEL 1
REMARK minimizedAffinity -4.57934237
REMARK minimizedRMSD -1
REMARK  1 active torsions:
REMARK  status: ('A' for Active; 'I' for Inactive)
REMARK    1  A    between atoms: N_2  and  C1_3 
ROOT
ATOM      1  C1  UNL d   1       0.916   0.031  -0.353  0.00  0.00     0.143 A 
ATOM      2  C2  UNL d   1       1.462   0.927  -1.278  0.00  0.00    -0.057 A 
ATOM      3  C3  UNL d   1       1.918   0.492  -2.529  0.00  0.00     0.033 A 
ATOM      4  C4  UNL d   1       1.863  -0.857  -2.865  0.00  0.00    -0.042 A 
ATOM      5  C5  UNL d   1       1.348  -1.769  -1.951  0.00  0.00     0.033 A 
ATOM      6  C6  UNL d   1       0.888  -1.327  -0.706  0.00  0.00    -0.057 A 
ENDROOT
BRANCH   1   7
ATOM      7  N   UNL d   1       0.537   0.387   0.944  0.00  0.00    -0.732 N 
ATOM      8  C   UNL d   1      -0.857   0.371   1.334  0.00  0.00     0.284 C 
ATOM      9  H3  UNL d   1       1.170   0.018   1.649  0.00  0.00     0.395 HD
ENDBRANCH   1   7
TORSDOF 1
ENDMDL
