MODEL 1
REMARK minimizedAffinity -2.07284832
REMARK minimizedRMSD -1
REMARK  1 active torsions:
REMARK  status: ('A' for Active; 'I' for Inactive)
REMARK    1  A    between atoms: N_2  and  C1_3 
ROOT
ATOM      1  C1  UNL d   1       0.211   0.143   0.304  0.00  0.00     0.143 A 
ATOM      2  C2  UNL d   1       0.548   1.388  -0.238  0.00  0.00    -0.057 A 
ATOM      3  C3  UNL d   1       1.497   1.502  -1.261  0.00  0.00     0.033 A 
ATOM      4  C4  UNL d   1       2.148   0.371  -1.743  0.00  0.00    -0.042 A 
ATOM      5  C5  UNL d   1       1.847  -0.874  -1.203  0.00  0.00     0.033 A 
ATOM      6  C6  UNL d   1       0.894  -0.982  -0.185  0.00  0.00    -0.057 A 
ENDROOT
BRANCH   1   7
ATOM      7  N   UNL d   1      -0.651  -0.026   1.390  0.00  0.00    -0.732 N 
ATOM      8  C   UNL d   1      -2.062   0.269   1.263  0.00  0.00     0.284 C 
ATOM      9  H3  UNL d   1      -0.449  -0.871   1.919  0.00  0.00     0.395 HD
ENDBRANCH   1   7
TORSDOF 1
ENDMDL
