MODEL 1
REMARK minimizedAffinity -1.34012234
REMARK minimizedRMSD -1
REMARK  1 active torsions:
REMARK  status: ('A' for Active; 'I' for Inactive)
REMARK    1  A    between atoms: N_2  and  C1_3 
ROOT
ATOM      1  C1  UNL d   1       0.593   0.391   0.083  0.00  0.00     0.143 A 
ATOM      2  C2  UNL d   1       1.496   0.453  -0.984  0.00  0.00    -0.057 A 
ATOM      3  C3  UNL d   1       1.944  -0.709  -1.625  0.00  0.00     0.033 A 
ATOM      4  C4  UNL d   1       1.516  -1.959  -1.190  0.00  0.00    -0.042 A 
ATOM      5  C5  UNL d   1       0.638  -2.046  -0.116  0.00  0.00     0.033 A 
ATOM      6  C6  UNL d   1       0.190  -0.882   0.516  0.00  0.00    -0.057 A 
ENDROOT
BRANCH   1   7
ATOM      7  N   UNL d   1       0.187   1.503   0.824  0.00  0.00    -0.732 N 
ATOM      8  C   UNL d   1       1.138   2.530   1.193  0.00  0.00     0.284 C 
ATOM      9  H3  UNL d   1      -0.716   1.861   0.524  0.00  0.00     0.395 HD
ENDBRANCH   1   7
TORSDOF 1
ENDMDL
