MODEL 1
REMARK minimizedAffinity -3.2078011
REMARK minimizedRMSD -1
REMARK  1 active torsions:
REMARK  status: ('A' for Active; 'I' for Inactive)
REMARK    1  A    between atoms: N_2  and  C1_3 
ROOT
ATOM      1  C1  UNL d   1      -4.026   2.948  -5.963  0.00  0.00     0.143 A 
ATOM      2  C2  UNL d   1      -5.415   3.110  -5.943  0.00  0.00    -0.057 A 
ATOM      3  C3  UNL d   1      -5.999   4.383  -5.972  0.00  0.00     0.033 A 
ATOM      4  C4  UNL d   1      -5.199   5.521  -5.992  0.00  0.00    -0.042 A 
ATOM      5  C5  UNL d   1      -3.815   5.384  -5.986  0.00  0.00     0.033 A 
ATOM      6  C6  UNL d   1      -3.239   4.111  -5.964  0.00  0.00    -0.057 A 
ENDROOT
BRANCH   1   7
ATOM      7  N   UNL d   1      -3.385   1.714  -5.836  0.00  0.00    -0.732 N 
ATOM      8  C   UNL d   1      -4.153   0.497  -5.680  0.00  0.00     0.284 C 
ATOM      9  H3  UNL d   1      -2.587   1.624  -6.461  0.00  0.00     0.395 HD
ENDBRANCH   1   7
TORSDOF 1
ENDMDL
