MODEL 1
REMARK minimizedAffinity -4.81546211
REMARK minimizedRMSD -1
REMARK  1 active torsions:
REMARK  status: ('A' for Active; 'I' for Inactive)
REMARK    1  A    between atoms: N_2  and  C1_3 
ROOT
ATOM      1  C1  UNL d   1       0.035   0.096   0.245  0.00  0.00     0.143 A 
ATOM      2  C2  UNL d   1       1.009   1.067   0.504  0.00  0.00    -0.057 A 
ATOM      3  C3  UNL d   1       1.841   1.550  -0.513  0.00  0.00     0.033 A 
ATOM      4  C4  UNL d   1       1.734   1.048  -1.805  0.00  0.00    -0.042 A 
ATOM      5  C5  UNL d   1       0.791   0.064  -2.080  0.00  0.00     0.033 A 
ATOM      6  C6  UNL d   1      -0.042  -0.409  -1.062  0.00  0.00    -0.057 A 
ENDROOT
BRANCH   1   7
ATOM      7  N   UNL d   1      -0.756  -0.495   1.233  0.00  0.00    -0.732 N 
ATOM      8  C   UNL d   1      -2.088  -0.001   1.504  0.00  0.00     0.284 C 
ATOM      9  H3  UNL d   1      -0.681  -1.510   1.235  0.00  0.00     0.395 HD
ENDBRANCH   1   7
TORSDOF 1
ENDMDL
