MODEL 1
REMARK minimizedAffinity -0.37807855
REMARK minimizedRMSD -1
REMARK  1 active torsions:
REMARK  status: ('A' for Active; 'I' for Inactive)
REMARK    1  A    between atoms: N_2  and  C1_3 
ROOT
ATOM      1  C1  UNL d   1      -1.306  -0.087   1.062  0.00  0.00     0.143 A 
ATOM      2  C2  UNL d   1      -1.478   0.929   2.008  0.00  0.00    -0.057 A 
ATOM      3  C3  UNL d   1      -2.756   1.333   2.416  0.00  0.00     0.033 A 
ATOM      4  C4  UNL d   1      -3.888   0.745   1.861  0.00  0.00    -0.042 A 
ATOM      5  C5  UNL d   1      -3.741  -0.249   0.901  0.00  0.00     0.033 A 
ATOM      6  C6  UNL d   1      -2.463  -0.653   0.502  0.00  0.00    -0.057 A 
ENDROOT
BRANCH   1   7
ATOM      7  N   UNL d   1      -0.065  -0.465   0.543  0.00  0.00    -0.732 N 
ATOM      8  C   UNL d   1       0.837   0.526  -0.004  0.00  0.00     0.284 C 
ATOM      9  H3  UNL d   1       0.392  -1.176   1.109  0.00  0.00     0.395 HD
ENDBRANCH   1   7
TORSDOF 1
ENDMDL
