MODEL 1
REMARK minimizedAffinity -2.56422663
REMARK minimizedRMSD -1
REMARK  1 active torsions:
REMARK  status: ('A' for Active; 'I' for Inactive)
REMARK    1  A    between atoms: N_2  and  C1_3 
ROOT
ATOM      1  C1  UNL d   1      -0.905   0.250   0.711  0.00  0.00     0.143 A 
ATOM      2  C2  UNL d   1      -1.939   0.903   0.033  0.00  0.00    -0.057 A 
ATOM      3  C3  UNL d   1      -3.239   0.938   0.552  0.00  0.00     0.033 A 
ATOM      4  C4  UNL d   1      -3.534   0.293   1.748  0.00  0.00    -0.042 A 
ATOM      5  C5  UNL d   1      -2.527  -0.384   2.427  0.00  0.00     0.033 A 
ATOM      6  C6  UNL d   1      -1.230  -0.409   1.907  0.00  0.00    -0.057 A 
ENDROOT
BRANCH   1   7
ATOM      7  N   UNL d   1       0.386   0.096   0.198  0.00  0.00    -0.732 N 
ATOM      8  C   UNL d   1       0.881   0.984  -0.831  0.00  0.00     0.284 C 
ATOM      9  H3  UNL d   1       1.067  -0.123   0.921  0.00  0.00     0.395 HD
ENDBRANCH   1   7
TORSDOF 1
ENDMDL
