MODEL 1
REMARK minimizedAffinity -2.90368462
REMARK minimizedRMSD -1
REMARK  0 active torsions:
REMARK  status: ('A' for Active; 'I' for Inactive)
ROOT
ATOM      1  C4' PXY d   1       1.559   0.326  -3.211  0.00  0.00     0.077 C 
ATOM      2  C1' PXY d   1      -2.302  -3.418  -1.091  0.00  0.00     0.077 C 
ATOM      3  C1  PXY d   1      -1.291  -2.429  -1.636  0.00  0.00    -0.082 A 
ATOM      4  C2  PXY d   1      -1.111  -2.330  -2.943  0.00  0.00     0.003 A 
ATOM      5  C3  PXY d   1      -0.177  -1.464  -3.452  0.00  0.00     0.003 A 
ATOM      6  C4  PXY d   1       0.542  -0.652  -2.617  0.00  0.00    -0.082 A 
ATOM      7  C5  PXY d   1       0.357  -0.739  -1.282  0.00  0.00     0.003 A 
ATOM      8  C6  PXY d   1      -0.566  -1.654  -0.784  0.00  0.00     0.003 A 
ENDROOT
TORSDOF 0
ENDMDL
