MODEL 1
REMARK minimizedAffinity -4.49595118
REMARK minimizedRMSD -1
REMARK  0 active torsions:
REMARK  status: ('A' for Active; 'I' for Inactive)
ROOT
ATOM      1  C4' PXY d   1       0.161   1.821   1.440  0.00  0.00     0.077 C 
ATOM      2  C1' PXY d   1      -1.839  -2.739  -1.497  0.00  0.00     0.077 C 
ATOM      3  C1  PXY d   1      -1.304  -1.550  -0.724  0.00  0.00    -0.082 A 
ATOM      4  C2  PXY d   1      -2.147  -0.662  -0.223  0.00  0.00     0.003 A 
ATOM      5  C3  PXY d   1      -1.678   0.437   0.451  0.00  0.00     0.003 A 
ATOM      6  C4  PXY d   1      -0.335   0.600   0.661  0.00  0.00    -0.082 A 
ATOM      7  C5  PXY d   1       0.531  -0.308   0.163  0.00  0.00     0.003 A 
ATOM      8  C6  PXY d   1       0.038  -1.394  -0.554  0.00  0.00     0.003 A 
ENDROOT
TORSDOF 0
ENDMDL
