MODEL 1
REMARK minimizedAffinity -3.78448176
REMARK minimizedRMSD -1
REMARK  0 active torsions:
REMARK  status: ('A' for Active; 'I' for Inactive)
ROOT
ATOM      1  C4' PXY d   1      -0.388  -1.417  -1.546  0.00  0.00     0.077 C 
ATOM      2  C1' PXY d   1      -0.750   1.716   3.298  0.00  0.00     0.077 C 
ATOM      3  C1  PXY d   1      -0.644   0.901   2.025  0.00  0.00    -0.082 A 
ATOM      4  C2  PXY d   1      -1.733   0.360   1.502  0.00  0.00     0.003 A 
ATOM      5  C3  PXY d   1      -1.650  -0.407   0.368  0.00  0.00     0.003 A 
ATOM      6  C4  PXY d   1      -0.449  -0.579  -0.266  0.00  0.00    -0.082 A 
ATOM      7  C5  PXY d   1       0.664  -0.021   0.255  0.00  0.00     0.003 A 
ATOM      8  C6  PXY d   1       0.566   0.719   1.429  0.00  0.00     0.003 A 
ENDROOT
TORSDOF 0
ENDMDL
