MODEL 1
REMARK minimizedAffinity 2.85941911
REMARK minimizedRMSD -1
REMARK  0 active torsions:
REMARK  status: ('A' for Active; 'I' for Inactive)
ROOT
ATOM      1  C4' PXY d   1       0.290   1.896   2.774  0.00  0.00     0.077 C 
ATOM      2  C1' PXY d   1      -0.314  -1.862  -1.576  0.00  0.00     0.077 C 
ATOM      3  C1  PXY d   1      -0.147  -0.884  -0.430  0.00  0.00    -0.082 A 
ATOM      4  C2  PXY d   1      -1.134  -0.056  -0.126  0.00  0.00     0.003 A 
ATOM      5  C3  PXY d   1      -0.987   0.856   0.887  0.00  0.00     0.003 A 
ATOM      6  C4  PXY d   1       0.161   0.886   1.631  0.00  0.00    -0.082 A 
ATOM      7  C5  PXY d   1       1.169   0.038   1.335  0.00  0.00     0.003 A 
ATOM      8  C6  PXY d   1       1.016  -0.853   0.276  0.00  0.00     0.003 A 
ENDROOT
TORSDOF 0
ENDMDL
