MODEL 1
REMARK minimizedAffinity -5.70501184
REMARK minimizedRMSD -1
REMARK  0 active torsions:
REMARK  status: ('A' for Active; 'I' for Inactive)
ROOT
ATOM      1  C4' PXY d   1      -0.231  -1.978  -1.332  0.00  0.00     0.077 C 
ATOM      2  C1' PXY d   1      -0.820   1.686   3.099  0.00  0.00     0.077 C 
ATOM      3  C1  PXY d   1      -0.653   0.729   1.936  0.00  0.00    -0.082 A 
ATOM      4  C2  PXY d   1      -1.717   0.332   1.258  0.00  0.00     0.003 A 
ATOM      5  C3  PXY d   1      -1.588  -0.558   0.223  0.00  0.00     0.003 A 
ATOM      6  C4  PXY d   1      -0.351  -1.006  -0.156  0.00  0.00    -0.082 A 
ATOM      7  C5  PXY d   1       0.741  -0.597   0.524  0.00  0.00     0.003 A 
ATOM      8  C6  PXY d   1       0.585   0.275   1.598  0.00  0.00     0.003 A 
ENDROOT
TORSDOF 0
ENDMDL
