MODEL 1
REMARK minimizedAffinity 1.46183026
REMARK minimizedRMSD -1
REMARK  0 active torsions:
REMARK  status: ('A' for Active; 'I' for Inactive)
ROOT
ATOM      1  C4' PXY d   1       2.411  -1.642   0.578  0.00  0.00     0.077 C 
ATOM      2  C1' PXY d   1      -0.625   3.137   1.742  0.00  0.00     0.077 C 
ATOM      3  C1  PXY d   1       0.160   1.878   1.432  0.00  0.00    -0.082 A 
ATOM      4  C2  PXY d   1       1.264   1.612   2.111  0.00  0.00     0.003 A 
ATOM      5  C3  PXY d   1       2.004   0.494   1.821  0.00  0.00     0.003 A 
ATOM      6  C4  PXY d   1       1.581  -0.388   0.863  0.00  0.00    -0.082 A 
ATOM      7  C5  PXY d   1       0.450  -0.129   0.173  0.00  0.00     0.003 A 
ATOM      8  C6  PXY d   1      -0.265   1.032   0.454  0.00  0.00     0.003 A 
ENDROOT
TORSDOF 0
ENDMDL
