MODEL 1
REMARK minimizedAffinity -2.50636101
REMARK minimizedRMSD -1
REMARK  0 active torsions:
REMARK  status: ('A' for Active; 'I' for Inactive)
ROOT
ATOM      1  C4' PXY d   1      -1.938  -2.576  -1.565  0.00  0.00     0.077 C 
ATOM      2  C1' PXY d   1       0.664   1.517   1.582  0.00  0.00     0.077 C 
ATOM      3  C1  PXY d   1      -0.028   0.443   0.765  0.00  0.00    -0.082 A 
ATOM      4  C2  PXY d   1       0.684  -0.325  -0.044  0.00  0.00     0.003 A 
ATOM      5  C3  PXY d   1       0.070  -1.279  -0.813  0.00  0.00     0.003 A 
ATOM      6  C4  PXY d   1      -1.280  -1.485  -0.714  0.00  0.00    -0.082 A 
ATOM      7  C5  PXY d   1      -2.012  -0.713   0.117  0.00  0.00     0.003 A 
ATOM      8  C6  PXY d   1      -1.375   0.277   0.858  0.00  0.00     0.003 A 
ENDROOT
TORSDOF 0
ENDMDL
