MODEL 1
REMARK minimizedAffinity -3.52488875
REMARK minimizedRMSD -1
REMARK  0 active torsions:
REMARK  status: ('A' for Active; 'I' for Inactive)
ROOT
ATOM      1  C4' PXY d   1      -0.629  -3.774  -1.966  0.00  0.00     0.077 C 
ATOM      2  C1' PXY d   1       1.188   1.201  -4.279  0.00  0.00     0.077 C 
ATOM      3  C1  PXY d   1       0.723  -0.104  -3.665  0.00  0.00    -0.082 A 
ATOM      4  C2  PXY d   1      -0.147  -0.860  -4.316  0.00  0.00     0.003 A 
ATOM      5  C3  PXY d   1      -0.603  -2.027  -3.762  0.00  0.00     0.003 A 
ATOM      6  C4  PXY d   1      -0.124  -2.453  -2.551  0.00  0.00    -0.082 A 
ATOM      7  C5  PXY d   1       0.771  -1.693  -1.886  0.00  0.00     0.003 A 
ATOM      8  C6  PXY d   1       1.190  -0.490  -2.447  0.00  0.00     0.003 A 
ENDROOT
TORSDOF 0
ENDMDL
