MODEL 1
REMARK minimizedAffinity -3.63821673
REMARK minimizedRMSD -1
REMARK  0 active torsions:
REMARK  status: ('A' for Active; 'I' for Inactive)
ROOT
ATOM      1  C4' PXY d   1      -1.014   2.085   3.148  0.00  0.00     0.077 C 
ATOM      2  C1' PXY d   1       1.613  -0.550  -1.277  0.00  0.00     0.077 C 
ATOM      3  C1  PXY d   1       0.934   0.138  -0.109  0.00  0.00    -0.082 A 
ATOM      4  C2  PXY d   1      -0.382   0.278  -0.107  0.00  0.00     0.003 A 
ATOM      5  C3  PXY d   1      -1.009   0.926   0.926  0.00  0.00     0.003 A 
ATOM      6  C4  PXY d   1      -0.287   1.389   1.994  0.00  0.00    -0.082 A 
ATOM      7  C5  PXY d   1       1.055   1.240   2.004  0.00  0.00     0.003 A 
ATOM      8  C6  PXY d   1       1.676   0.616   0.927  0.00  0.00     0.003 A 
ENDROOT
TORSDOF 0
ENDMDL
