MODEL 1
REMARK minimizedAffinity -2.09181094
REMARK minimizedRMSD -1
REMARK  0 active torsions:
REMARK  status: ('A' for Active; 'I' for Inactive)
ROOT
ATOM      1  C4' PXY d   1       0.441  -0.921  -0.428  0.00  0.00     0.077 C 
ATOM      2  C1' PXY d   1      -4.904  -3.027  -1.075  0.00  0.00     0.077 C 
ATOM      3  C1  PXY d   1      -3.507  -2.463  -0.903  0.00  0.00    -0.082 A 
ATOM      4  C2  PXY d   1      -2.480  -3.077  -1.466  0.00  0.00     0.003 A 
ATOM      5  C3  PXY d   1      -1.206  -2.599  -1.294  0.00  0.00     0.003 A 
ATOM      6  C4  PXY d   1      -0.988  -1.450  -0.582  0.00  0.00    -0.082 A 
ATOM      7  C5  PXY d   1      -2.032  -0.811  -0.013  0.00  0.00     0.003 A 
ATOM      8  C6  PXY d   1      -3.312  -1.336  -0.165  0.00  0.00     0.003 A 
ENDROOT
TORSDOF 0
ENDMDL
