MODEL 1
REMARK minimizedAffinity -5.49880075
REMARK minimizedRMSD -1
REMARK  0 active torsions:
REMARK  status: ('A' for Active; 'I' for Inactive)
ROOT
ATOM      1  C4' PXY d   1      -2.755  -1.752   4.180  0.00  0.00     0.077 C 
ATOM      2  C1' PXY d   1       1.265   1.395   1.467  0.00  0.00     0.077 C 
ATOM      3  C1  PXY d   1       0.220   0.561   2.183  0.00  0.00    -0.082 A 
ATOM      4  C2  PXY d   1      -1.040   0.605   1.780  0.00  0.00     0.003 A 
ATOM      5  C3  PXY d   1      -2.003  -0.118   2.436  0.00  0.00     0.003 A 
ATOM      6  C4  PXY d   1      -1.665  -0.934   3.481  0.00  0.00    -0.082 A 
ATOM      7  C5  PXY d   1      -0.380  -0.992   3.892  0.00  0.00     0.003 A 
ATOM      8  C6  PXY d   1       0.576  -0.220   3.239  0.00  0.00     0.003 A 
ENDROOT
TORSDOF 0
ENDMDL
