MODEL 1
REMARK minimizedAffinity -1.22409952
REMARK minimizedRMSD -1
REMARK  0 active torsions:
REMARK  status: ('A' for Active; 'I' for Inactive)
ROOT
ATOM      1  C4' PXY d   1      -1.727  -2.566  -1.730  0.00  0.00     0.077 C 
ATOM      2  C1' PXY d   1       0.837   1.110   1.920  0.00  0.00     0.077 C 
ATOM      3  C1  PXY d   1       0.154   0.148   0.969  0.00  0.00    -0.082 A 
ATOM      4  C2  PXY d   1       0.871  -0.764   0.333  0.00  0.00     0.003 A 
ATOM      5  C3  PXY d   1       0.274  -1.621  -0.555  0.00  0.00     0.003 A 
ATOM      6  C4  PXY d   1      -1.080  -1.580  -0.754  0.00  0.00    -0.082 A 
ATOM      7  C5  PXY d   1      -1.821  -0.660  -0.100  0.00  0.00     0.003 A 
ATOM      8  C6  PXY d   1      -1.189   0.228   0.766  0.00  0.00     0.003 A 
ENDROOT
TORSDOF 0
ENDMDL
