MODEL 1
REMARK minimizedAffinity -1.40886664
REMARK minimizedRMSD -1
REMARK  0 active torsions:
REMARK  status: ('A' for Active; 'I' for Inactive)
ROOT
ATOM      1  C   UNL d   1      -1.834  -0.675  -1.026  0.00  0.00     0.023 A 
ATOM      2  C1  UNL d   1      -1.371  -1.126   0.210  0.00  0.00     0.003 A 
ATOM      3  C2  UNL d   1      -0.169  -0.638   0.727  0.00  0.00     0.048 A 
ATOM      4  C3  UNL d   1       0.563   0.303   0.004  0.00  0.00     0.023 A 
ATOM      5  C4  UNL d   1       0.103   0.758  -1.232  0.00  0.00     0.048 A 
ATOM      6  C5  UNL d   1      -1.099   0.266  -1.746  0.00  0.00     0.003 A 
ATOM      7  I   UNL d   1       2.352   1.032   0.772  0.00  0.00    -0.146 I 
ENDROOT
TORSDOF 0
ENDMDL
