MODEL 1
REMARK minimizedAffinity -2.45759296
REMARK minimizedRMSD -1
REMARK  0 active torsions:
REMARK  status: ('A' for Active; 'I' for Inactive)
ROOT
ATOM      1  C   UNL d   1      -2.378  -1.106  -0.821  0.00  0.00     0.023 A 
ATOM      2  C1  UNL d   1      -1.505  -1.518   0.186  0.00  0.00     0.003 A 
ATOM      3  C2  UNL d   1      -0.308  -0.832   0.397  0.00  0.00     0.048 A 
ATOM      4  C3  UNL d   1       0.010   0.266  -0.401  0.00  0.00     0.023 A 
ATOM      5  C4  UNL d   1      -0.861   0.683  -1.409  0.00  0.00     0.048 A 
ATOM      6  C5  UNL d   1      -2.057  -0.007  -1.617  0.00  0.00     0.003 A 
ATOM      7  I   UNL d   1       1.792   1.290  -0.089  0.00  0.00    -0.146 I 
ENDROOT
TORSDOF 0
ENDMDL
