MODEL 1
REMARK minimizedAffinity 0.129603833
REMARK minimizedRMSD -1
REMARK  0 active torsions:
REMARK  status: ('A' for Active; 'I' for Inactive)
ROOT
ATOM      1  C   UNL d   1      -2.537  -1.437  -0.772  0.00  0.00     0.023 A 
ATOM      2  C1  UNL d   1      -1.813  -1.941   0.309  0.00  0.00     0.003 A 
ATOM      3  C2  UNL d   1      -0.575  -1.387   0.641  0.00  0.00     0.048 A 
ATOM      4  C3  UNL d   1      -0.067  -0.329  -0.112  0.00  0.00     0.023 A 
ATOM      5  C4  UNL d   1      -0.788   0.179  -1.194  0.00  0.00     0.048 A 
ATOM      6  C5  UNL d   1      -2.025  -0.378  -1.522  0.00  0.00     0.003 A 
ATOM      7  I   UNL d   1       1.776   0.498   0.379  0.00  0.00    -0.146 I 
ENDROOT
TORSDOF 0
ENDMDL
