MODEL 1
REMARK minimizedAffinity -0.482257962
REMARK minimizedRMSD -1
REMARK  0 active torsions:
REMARK  status: ('A' for Active; 'I' for Inactive)
ROOT
ATOM      1  C   UNL d   1      -1.223  -1.065  -0.520  0.00  0.00     0.023 A 
ATOM      2  C1  UNL d   1      -1.135   0.152  -1.196  0.00  0.00     0.003 A 
ATOM      3  C2  UNL d   1      -0.136   1.068  -0.860  0.00  0.00     0.048 A 
ATOM      4  C3  UNL d   1       0.772   0.760   0.152  0.00  0.00     0.023 A 
ATOM      5  C4  UNL d   1       0.688  -0.456   0.831  0.00  0.00     0.048 A 
ATOM      6  C5  UNL d   1      -0.313  -1.369   0.492  0.00  0.00     0.003 A 
ATOM      7  I   UNL d   1       2.259   2.122   0.654  0.00  0.00    -0.146 I 
ENDROOT
TORSDOF 0
ENDMDL
