MODEL 1
REMARK minimizedAffinity -2.13821959
REMARK minimizedRMSD -1
REMARK  0 active torsions:
REMARK  status: ('A' for Active; 'I' for Inactive)
ROOT
ATOM      1  C   UNL d   1       2.938   1.670   2.695  0.00  0.00     0.023 A 
ATOM      2  C1  UNL d   1       2.535   2.529   1.673  0.00  0.00     0.003 A 
ATOM      3  C2  UNL d   1       1.692   2.065   0.661  0.00  0.00     0.048 A 
ATOM      4  C3  UNL d   1       1.256   0.740   0.677  0.00  0.00     0.023 A 
ATOM      5  C4  UNL d   1       1.657  -0.123   1.698  0.00  0.00     0.048 A 
ATOM      6  C5  UNL d   1       2.500   0.345   2.708  0.00  0.00     0.003 A 
ATOM      7  I   UNL d   1       0.002   0.047  -0.828  0.00  0.00    -0.146 I 
ENDROOT
TORSDOF 0
ENDMDL
