MODEL 1
REMARK minimizedAffinity -1.56399322
REMARK minimizedRMSD -1
REMARK  0 active torsions:
REMARK  status: ('A' for Active; 'I' for Inactive)
ROOT
ATOM      1  C   UNL d   1      -0.330  -1.568   0.932  0.00  0.00     0.023 A 
ATOM      2  C1  UNL d   1      -0.680  -0.420   0.221  0.00  0.00     0.003 A 
ATOM      3  C2  UNL d   1       0.251   0.606   0.049  0.00  0.00     0.048 A 
ATOM      4  C3  UNL d   1       1.530   0.478   0.589  0.00  0.00     0.023 A 
ATOM      5  C4  UNL d   1       1.884  -0.669   1.300  0.00  0.00     0.048 A 
ATOM      6  C5  UNL d   1       0.950  -1.693   1.471  0.00  0.00     0.003 A 
ATOM      7  I   UNL d   1       2.917   2.005   0.333  0.00  0.00    -0.146 I 
ENDROOT
TORSDOF 0
ENDMDL
