MODEL 1
REMARK minimizedAffinity -1.45280159
REMARK minimizedRMSD -1
REMARK  0 active torsions:
REMARK  status: ('A' for Active; 'I' for Inactive)
ROOT
ATOM      1  C   UNL d   1       3.449   2.769   1.090  0.00  0.00     0.023 A 
ATOM      2  C1  UNL d   1       3.525   1.838   0.054  0.00  0.00     0.003 A 
ATOM      3  C2  UNL d   1       2.466   0.957  -0.174  0.00  0.00     0.048 A 
ATOM      4  C3  UNL d   1       1.333   1.014   0.636  0.00  0.00     0.023 A 
ATOM      5  C4  UNL d   1       1.251   1.945   1.673  0.00  0.00     0.048 A 
ATOM      6  C5  UNL d   1       2.313   2.823   1.898  0.00  0.00     0.003 A 
ATOM      7  I   UNL d   1      -0.246  -0.295   0.298  0.00  0.00    -0.146 I 
ENDROOT
TORSDOF 0
ENDMDL
