MODEL 1
REMARK minimizedAffinity 3.99119997
REMARK minimizedRMSD -1
REMARK  0 active torsions:
REMARK  status: ('A' for Active; 'I' for Inactive)
ROOT
ATOM      1  C   UNL d   1      -2.096  -0.128  -1.790  0.00  0.00     0.023 A 
ATOM      2  C1  UNL d   1      -0.802  -0.168  -1.273  0.00  0.00     0.003 A 
ATOM      3  C2  UNL d   1      -0.539  -0.880  -0.101  0.00  0.00     0.048 A 
ATOM      4  C3  UNL d   1      -1.575  -1.551   0.548  0.00  0.00     0.023 A 
ATOM      5  C4  UNL d   1      -2.872  -1.514   0.033  0.00  0.00     0.048 A 
ATOM      6  C5  UNL d   1      -3.130  -0.800  -1.138  0.00  0.00     0.003 A 
ATOM      7  I   UNL d   1      -1.185  -2.612   2.292  0.00  0.00    -0.146 I 
ENDROOT
TORSDOF 0
ENDMDL
