MODEL 1
REMARK minimizedAffinity -3.46360087
REMARK minimizedRMSD -1
REMARK  0 active torsions:
REMARK  status: ('A' for Active; 'I' for Inactive)
ROOT
ATOM      1  C   UNL d   1      -1.837  -0.829  -1.111  0.00  0.00     0.023 A 
ATOM      2  C1  UNL d   1      -1.407   0.404  -1.601  0.00  0.00     0.003 A 
ATOM      3  C2  UNL d   1      -0.258   1.001  -1.079  0.00  0.00     0.048 A 
ATOM      4  C3  UNL d   1       0.456   0.360  -0.068  0.00  0.00     0.023 A 
ATOM      5  C4  UNL d   1       0.030  -0.874   0.426  0.00  0.00     0.048 A 
ATOM      6  C5  UNL d   1      -1.120  -1.467  -0.098  0.00  0.00     0.003 A 
ATOM      7  I   UNL d   1       2.167   1.248   0.711  0.00  0.00    -0.146 I 
ENDROOT
TORSDOF 0
ENDMDL
