MODEL 1
REMARK minimizedAffinity -1.96871591
REMARK minimizedRMSD -1
REMARK  0 active torsions:
REMARK  status: ('A' for Active; 'I' for Inactive)
ROOT
ATOM      1  C   UNL d   1      -1.552  -1.060  -0.702  0.00  0.00     0.023 A 
ATOM      2  C1  UNL d   1      -1.361   0.108  -1.440  0.00  0.00     0.003 A 
ATOM      3  C2  UNL d   1      -0.274   0.940  -1.165  0.00  0.00     0.048 A 
ATOM      4  C3  UNL d   1       0.620   0.597  -0.151  0.00  0.00     0.023 A 
ATOM      5  C4  UNL d   1       0.433  -0.571   0.590  0.00  0.00     0.048 A 
ATOM      6  C5  UNL d   1      -0.656  -1.399   0.312  0.00  0.00     0.003 A 
ATOM      7  I   UNL d   1       2.239   1.833   0.260  0.00  0.00    -0.146 I 
ENDROOT
TORSDOF 0
ENDMDL
