MODEL 1
REMARK minimizedAffinity 1.20845377
REMARK minimizedRMSD -1
REMARK  0 active torsions:
REMARK  status: ('A' for Active; 'I' for Inactive)
ROOT
ATOM      1  C   UNL d   1      -1.752  -1.566   0.247  0.00  0.00     0.023 A 
ATOM      2  C1  UNL d   1      -1.710  -0.599  -0.757  0.00  0.00     0.003 A 
ATOM      3  C2  UNL d   1      -0.618   0.265  -0.852  0.00  0.00     0.048 A 
ATOM      4  C3  UNL d   1       0.431   0.156   0.061  0.00  0.00     0.023 A 
ATOM      5  C4  UNL d   1       0.394  -0.810   1.067  0.00  0.00     0.048 A 
ATOM      6  C5  UNL d   1      -0.701  -1.671   1.158  0.00  0.00     0.003 A 
ATOM      7  I   UNL d   1       2.059   1.441  -0.078  0.00  0.00    -0.146 I 
ENDROOT
TORSDOF 0
ENDMDL
