MODEL 1
REMARK minimizedAffinity -2.37234688
REMARK minimizedRMSD -1
REMARK  0 active torsions:
REMARK  status: ('A' for Active; 'I' for Inactive)
ROOT
ATOM      1  C   UNL d   1       3.221   2.840   0.880  0.00  0.00     0.023 A 
ATOM      2  C1  UNL d   1       2.094   2.537   1.645  0.00  0.00     0.003 A 
ATOM      3  C2  UNL d   1       1.176   1.588   1.194  0.00  0.00     0.048 A 
ATOM      4  C3  UNL d   1       1.390   0.943  -0.024  0.00  0.00     0.023 A 
ATOM      5  C4  UNL d   1       2.516   1.242  -0.793  0.00  0.00     0.048 A 
ATOM      6  C5  UNL d   1       3.431   2.193  -0.338  0.00  0.00     0.003 A 
ATOM      7  I   UNL d   1       0.025  -0.471  -0.698  0.00  0.00    -0.146 I 
ENDROOT
TORSDOF 0
ENDMDL
