MODEL 1
REMARK minimizedAffinity -0.345039636
REMARK minimizedRMSD -1
REMARK  0 active torsions:
REMARK  status: ('A' for Active; 'I' for Inactive)
ROOT
ATOM      1  C   UNL d   1       3.262   3.082   1.621  0.00  0.00     0.023 A 
ATOM      2  C1  UNL d   1       3.572   2.289   0.516  0.00  0.00     0.003 A 
ATOM      3  C2  UNL d   1       2.592   1.477  -0.059  0.00  0.00     0.048 A 
ATOM      4  C3  UNL d   1       1.304   1.465   0.474  0.00  0.00     0.023 A 
ATOM      5  C4  UNL d   1       0.989   2.258   1.579  0.00  0.00     0.048 A 
ATOM      6  C5  UNL d   1       1.972   3.066   2.152  0.00  0.00     0.003 A 
ATOM      7  I   UNL d   1      -0.157   0.258  -0.381  0.00  0.00    -0.146 I 
ENDROOT
TORSDOF 0
ENDMDL
