MODEL 1
REMARK minimizedAffinity -0.178012833
REMARK minimizedRMSD -1
REMARK  1 active torsions:
REMARK  status: ('A' for Active; 'I' for Inactive)
REMARK    1  A    between atoms: C1_2  and  C2_3 
ROOT
ATOM      1  C2  UNL d   1      -1.959  -2.419  -0.687  0.00  0.00    -0.081 A 
ATOM      2  C3  UNL d   1      -1.628  -1.561   0.369  0.00  0.00     0.006 A 
ATOM      3  C4  UNL d   1      -1.038  -2.063   1.531  0.00  0.00     0.002 A 
ATOM      4  C5  UNL d   1      -0.762  -3.429   1.655  0.00  0.00    -0.080 A 
ATOM      5  C6  UNL d   1      -0.101  -3.976   2.885  0.00  0.00     0.076 C 
ATOM      6  C7  UNL d   1      -1.108  -4.289   0.607  0.00  0.00     0.002 A 
ATOM      7  C8  UNL d   1      -1.699  -3.788  -0.555  0.00  0.00     0.006 A 
ENDROOT
BRANCH   1   8
ATOM      8  C1  UNL d   1      -2.535  -1.872  -1.967  0.00  0.00     0.054 C 
ATOM      9  C   UNL d   1      -1.790  -2.406  -3.182  0.00  0.00     0.018 C 
ENDBRANCH   1   8
TORSDOF 1
ENDMDL
