MODEL 1
REMARK minimizedAffinity 10.9670782
REMARK minimizedRMSD -1
REMARK  1 active torsions:
REMARK  status: ('A' for Active; 'I' for Inactive)
REMARK    1  A    between atoms: C1_2  and  C2_3 
ROOT
ATOM      1  C2  UNL d   1      -0.923  -2.213   1.974  0.00  0.00    -0.081 A 
ATOM      2  C3  UNL d   1      -1.091  -1.210   1.012  0.00  0.00     0.006 A 
ATOM      3  C4  UNL d   1      -1.084  -1.525  -0.348  0.00  0.00     0.002 A 
ATOM      4  C5  UNL d   1      -0.916  -2.849  -0.769  0.00  0.00    -0.080 A 
ATOM      5  C6  UNL d   1      -0.937  -3.205  -2.226  0.00  0.00     0.076 C 
ATOM      6  C7  UNL d   1      -0.731  -3.849   0.191  0.00  0.00     0.002 A 
ATOM      7  C8  UNL d   1      -0.737  -3.534   1.552  0.00  0.00     0.006 A 
ENDROOT
BRANCH   1   8
ATOM      8  C1  UNL d   1      -0.994  -1.886   3.444  0.00  0.00     0.054 C 
ATOM      9  C   UNL d   1      -1.219  -0.397   3.669  0.00  0.00     0.018 C 
ENDBRANCH   1   8
TORSDOF 1
ENDMDL
