MODEL 1
REMARK minimizedAffinity 11.9547787
REMARK minimizedRMSD -1
REMARK  1 active torsions:
REMARK  status: ('A' for Active; 'I' for Inactive)
REMARK    1  A    between atoms: C1_2  and  C2_3 
ROOT
ATOM      1  C2  UNL d   1      -0.316  -3.656   2.218  0.00  0.00    -0.081 A 
ATOM      2  C3  UNL d   1      -0.833  -2.770   3.171  0.00  0.00     0.006 A 
ATOM      3  C4  UNL d   1      -1.589  -1.665   2.774  0.00  0.00     0.002 A 
ATOM      4  C5  UNL d   1      -1.847  -1.431   1.419  0.00  0.00    -0.080 A 
ATOM      5  C6  UNL d   1      -2.683  -0.265   0.981  0.00  0.00     0.076 C 
ATOM      6  C7  UNL d   1      -1.316  -2.307   0.466  0.00  0.00     0.002 A 
ATOM      7  C8  UNL d   1      -0.560  -3.412   0.862  0.00  0.00     0.006 A 
ENDROOT
BRANCH   1   8
ATOM      8  C1  UNL d   1       0.445  -4.885   2.647  0.00  0.00     0.054 C 
ATOM      9  C   UNL d   1      -0.408  -5.782   3.533  0.00  0.00     0.018 C 
ENDBRANCH   1   8
TORSDOF 1
ENDMDL
