MODEL 1
REMARK minimizedAffinity 9.78037643
REMARK minimizedRMSD -1
REMARK  1 active torsions:
REMARK  status: ('A' for Active; 'I' for Inactive)
REMARK    1  A    between atoms: C1_2  and  C2_3 
ROOT
ATOM      1  C2  UNL d   1       4.472   2.349   3.588  0.00  0.00    -0.081 A 
ATOM      2  C3  UNL d   1       5.422   2.035   2.608  0.00  0.00     0.006 A 
ATOM      3  C4  UNL d   1       5.031   1.822   1.284  0.00  0.00     0.002 A 
ATOM      4  C5  UNL d   1       3.685   1.927   0.916  0.00  0.00    -0.080 A 
ATOM      5  C6  UNL d   1       3.255   1.731  -0.507  0.00  0.00     0.076 C 
ATOM      6  C7  UNL d   1       2.734   2.224   1.898  0.00  0.00     0.002 A 
ATOM      7  C8  UNL d   1       3.124   2.436   3.222  0.00  0.00     0.006 A 
ENDROOT
BRANCH   1   8
ATOM      8  C1  UNL d   1       4.899   2.642   5.003  0.00  0.00     0.054 C 
ATOM      9  C   UNL d   1       3.799   2.296   5.996  0.00  0.00     0.018 C 
ENDBRANCH   1   8
TORSDOF 1
ENDMDL
