MODEL 1
REMARK minimizedAffinity 3.3226223
REMARK minimizedRMSD -1
REMARK  1 active torsions:
REMARK  status: ('A' for Active; 'I' for Inactive)
REMARK    1  A    between atoms: C1_2  and  C2_3 
ROOT
ATOM      1  C2  UNL d   1      -1.934  -2.442  -1.344  0.00  0.00    -0.081 A 
ATOM      2  C3  UNL d   1      -2.138  -1.606  -0.239  0.00  0.00     0.006 A 
ATOM      3  C4  UNL d   1      -1.669  -1.974   1.024  0.00  0.00     0.002 A 
ATOM      4  C5  UNL d   1      -0.981  -3.180   1.201  0.00  0.00    -0.080 A 
ATOM      5  C6  UNL d   1      -0.446  -3.573   2.546  0.00  0.00     0.076 C 
ATOM      6  C7  UNL d   1      -0.793  -4.023   0.101  0.00  0.00     0.002 A 
ATOM      7  C8  UNL d   1      -1.263  -3.655  -1.162  0.00  0.00     0.006 A 
ENDROOT
BRANCH   1   8
ATOM      8  C1  UNL d   1      -2.382  -2.017  -2.720  0.00  0.00     0.054 C 
ATOM      9  C   UNL d   1      -1.193  -1.752  -3.632  0.00  0.00     0.018 C 
ENDBRANCH   1   8
TORSDOF 1
ENDMDL
