MODEL 1
REMARK minimizedAffinity 5.24102068
REMARK minimizedRMSD -1
REMARK  1 active torsions:
REMARK  status: ('A' for Active; 'I' for Inactive)
REMARK    1  A    between atoms: C1_2  and  C2_3 
ROOT
ATOM      1  C2  UNL d   1      -1.589  -2.263   2.574  0.00  0.00    -0.081 A 
ATOM      2  C3  UNL d   1      -0.691  -3.093   1.892  0.00  0.00     0.006 A 
ATOM      3  C4  UNL d   1      -0.411  -2.874   0.541  0.00  0.00     0.002 A 
ATOM      4  C5  UNL d   1      -1.016  -1.817  -0.147  0.00  0.00    -0.080 A 
ATOM      5  C6  UNL d   1      -0.701  -1.552  -1.589  0.00  0.00     0.076 C 
ATOM      6  C7  UNL d   1      -1.926  -0.999   0.530  0.00  0.00     0.002 A 
ATOM      7  C8  UNL d   1      -2.208  -1.218   1.881  0.00  0.00     0.006 A 
ENDROOT
BRANCH   1   8
ATOM      8  C1  UNL d   1      -1.844  -2.458   4.047  0.00  0.00     0.054 C 
ATOM      9  C   UNL d   1      -1.472  -1.215   4.842  0.00  0.00     0.018 C 
ENDBRANCH   1   8
TORSDOF 1
ENDMDL
