MODEL 1
REMARK minimizedAffinity 5.55311203
REMARK minimizedRMSD -1
REMARK  1 active torsions:
REMARK  status: ('A' for Active; 'I' for Inactive)
REMARK    1  A    between atoms: C1_2  and  C2_3 
ROOT
ATOM      1  C2  UNL d   1      -1.389  -2.910  -0.347  0.00  0.00    -0.081 A 
ATOM      2  C3  UNL d   1      -0.874  -4.211  -0.385  0.00  0.00     0.006 A 
ATOM      3  C4  UNL d   1      -1.414  -5.210   0.429  0.00  0.00     0.002 A 
ATOM      4  C5  UNL d   1      -2.482  -4.927   1.287  0.00  0.00    -0.080 A 
ATOM      5  C6  UNL d   1      -3.091  -5.998   2.143  0.00  0.00     0.076 C 
ATOM      6  C7  UNL d   1      -2.985  -3.623   1.338  0.00  0.00     0.002 A 
ATOM      7  C8  UNL d   1      -2.445  -2.623   0.525  0.00  0.00     0.006 A 
ENDROOT
BRANCH   1   8
ATOM      8  C1  UNL d   1      -0.852  -1.846  -1.269  0.00  0.00     0.054 C 
ATOM      9  C   UNL d   1      -1.631  -1.802  -2.576  0.00  0.00     0.018 C 
ENDBRANCH   1   8
TORSDOF 1
ENDMDL
