MODEL 1
REMARK minimizedAffinity 16.2052345
REMARK minimizedRMSD -1
REMARK  1 active torsions:
REMARK  status: ('A' for Active; 'I' for Inactive)
REMARK    1  A    between atoms: C1_2  and  C2_3 
ROOT
ATOM      1  C2  UNL d   1       1.590   0.082  -2.270  0.00  0.00    -0.081 A 
ATOM      2  C3  UNL d   1       1.942   1.436  -2.337  0.00  0.00     0.006 A 
ATOM      3  C4  UNL d   1       3.235   1.814  -2.708  0.00  0.00     0.002 A 
ATOM      4  C5  UNL d   1       4.194   0.846  -3.026  0.00  0.00    -0.080 A 
ATOM      5  C6  UNL d   1       5.576   1.239  -3.455  0.00  0.00     0.076 C 
ATOM      6  C7  UNL d   1       3.847  -0.507  -2.942  0.00  0.00     0.002 A 
ATOM      7  C8  UNL d   1       2.555  -0.885  -2.571  0.00  0.00     0.006 A 
ENDROOT
BRANCH   1   8
ATOM      8  C1  UNL d   1       0.179  -0.327  -1.934  0.00  0.00     0.054 C 
ATOM      9  C   UNL d   1      -0.390  -1.267  -2.986  0.00  0.00     0.018 C 
ENDBRANCH   1   8
TORSDOF 1
ENDMDL
