MODEL 1
REMARK minimizedAffinity 10.9809303
REMARK minimizedRMSD -1
REMARK  1 active torsions:
REMARK  status: ('A' for Active; 'I' for Inactive)
REMARK    1  A    between atoms: C1_2  and  C2_3 
ROOT
ATOM      1  C2  UNL d   1      -1.283  -0.868   2.545  0.00  0.00    -0.081 A 
ATOM      2  C3  UNL d   1      -1.434  -1.957   3.412  0.00  0.00     0.006 A 
ATOM      3  C4  UNL d   1      -1.475  -3.261   2.912  0.00  0.00     0.002 A 
ATOM      4  C5  UNL d   1      -1.358  -3.498   1.538  0.00  0.00    -0.080 A 
ATOM      5  C6  UNL d   1      -1.370  -4.894   0.991  0.00  0.00     0.076 C 
ATOM      6  C7  UNL d   1      -1.226  -2.409   0.670  0.00  0.00     0.002 A 
ATOM      7  C8  UNL d   1      -1.185  -1.105   1.169  0.00  0.00     0.006 A 
ENDROOT
BRANCH   1   8
ATOM      8  C1  UNL d   1      -1.174   0.534   3.087  0.00  0.00     0.054 C 
ATOM      9  C   UNL d   1      -1.235   0.546   4.607  0.00  0.00     0.018 C 
ENDBRANCH   1   8
TORSDOF 1
ENDMDL
