MODEL 1
REMARK minimizedAffinity 8.78519058
REMARK minimizedRMSD -1
REMARK  1 active torsions:
REMARK  status: ('A' for Active; 'I' for Inactive)
REMARK    1  A    between atoms: C1_2  and  C2_3 
ROOT
ATOM      1  C2  UNL d   1      -1.600  -1.611   2.275  0.00  0.00    -0.081 A 
ATOM      2  C3  UNL d   1      -2.532  -1.695   1.233  0.00  0.00     0.006 A 
ATOM      3  C4  UNL d   1      -2.433  -2.705   0.273  0.00  0.00     0.002 A 
ATOM      4  C5  UNL d   1      -1.405  -3.651   0.342  0.00  0.00    -0.080 A 
ATOM      5  C6  UNL d   1      -1.304  -4.758  -0.665  0.00  0.00     0.076 C 
ATOM      6  C7  UNL d   1      -0.463  -3.557   1.373  0.00  0.00     0.002 A 
ATOM      7  C8  UNL d   1      -0.562  -2.547   2.332  0.00  0.00     0.006 A 
ENDROOT
BRANCH   1   8
ATOM      8  C1  UNL d   1      -1.742  -0.563   3.348  0.00  0.00     0.054 C 
ATOM      9  C   UNL d   1      -1.003  -0.965   4.616  0.00  0.00     0.018 C 
ENDBRANCH   1   8
TORSDOF 1
ENDMDL
