MODEL 1
REMARK minimizedAffinity 5.39790726
REMARK minimizedRMSD -1
REMARK  1 active torsions:
REMARK  status: ('A' for Active; 'I' for Inactive)
REMARK    1  A    between atoms: C1_2  and  C2_3 
ROOT
ATOM      1  C2  UNL d   1      -1.418  -2.413   0.754  0.00  0.00    -0.081 A 
ATOM      2  C3  UNL d   1      -1.119  -3.627   0.124  0.00  0.00     0.006 A 
ATOM      3  C4  UNL d   1      -0.923  -4.787   0.878  0.00  0.00     0.002 A 
ATOM      4  C5  UNL d   1      -1.030  -4.754   2.272  0.00  0.00    -0.080 A 
ATOM      5  C6  UNL d   1      -0.852  -5.998   3.091  0.00  0.00     0.076 C 
ATOM      6  C7  UNL d   1      -1.311  -3.537   2.903  0.00  0.00     0.002 A 
ATOM      7  C8  UNL d   1      -1.507  -2.377   2.150  0.00  0.00     0.006 A 
ENDROOT
BRANCH   1   8
ATOM      8  C1  UNL d   1      -1.693  -1.175  -0.060  0.00  0.00     0.054 C 
ATOM      9  C   UNL d   1      -1.331  -1.383  -1.523  0.00  0.00     0.018 C 
ENDBRANCH   1   8
TORSDOF 1
ENDMDL
