MODEL 1
REMARK minimizedAffinity 13.9313097
REMARK minimizedRMSD -1
REMARK  1 active torsions:
REMARK  status: ('A' for Active; 'I' for Inactive)
REMARK    1  A    between atoms: C1_2  and  C2_3 
ROOT
ATOM      1  C2  UNL d   1      -3.147  -1.662   1.119  0.00  0.00    -0.081 A 
ATOM      2  C3  UNL d   1      -2.288  -1.935   0.047  0.00  0.00     0.006 A 
ATOM      3  C4  UNL d   1      -1.105  -2.648   0.252  0.00  0.00     0.002 A 
ATOM      4  C5  UNL d   1      -0.764  -3.106   1.528  0.00  0.00    -0.080 A 
ATOM      5  C6  UNL d   1       0.489  -3.899   1.756  0.00  0.00     0.076 C 
ATOM      6  C7  UNL d   1      -1.613  -2.819   2.603  0.00  0.00     0.002 A 
ATOM      7  C8  UNL d   1      -2.796  -2.106   2.399  0.00  0.00     0.006 A 
ENDROOT
BRANCH   1   8
ATOM      8  C1  UNL d   1      -4.456  -0.950   0.891  0.00  0.00     0.054 C 
ATOM      9  C   UNL d   1      -5.636  -1.812   1.316  0.00  0.00     0.018 C 
ENDBRANCH   1   8
TORSDOF 1
ENDMDL
