MODEL 1
REMARK minimizedAffinity -0.809941888
REMARK minimizedRMSD -1
REMARK  0 active torsions:
REMARK  status: ('A' for Active; 'I' for Inactive)
ROOT
ATOM      1  C   UNL d   1       3.092   1.525  -3.585  0.00  0.00     0.020 A 
ATOM      2  C1  UNL d   1       1.919   1.383  -2.844  0.00  0.00     0.020 A 
ATOM      3  C2  UNL d   1       1.982   1.004  -1.502  0.00  0.00     0.034 A 
ATOM      4  C3  UNL d   1       3.221   0.766  -0.895  0.00  0.00     0.017 A 
ATOM      5  C4  UNL d   1       4.398   0.909  -1.639  0.00  0.00     0.017 A 
ATOM      6  C5  UNL d   1       4.329   1.289  -2.983  0.00  0.00     0.034 A 
ATOM      7 Cl   UNL d   1       5.963   0.633  -0.960  0.00  0.00    -0.070 Cl
ATOM      8 Cl1  UNL d   1       3.224   0.301   0.769  0.00  0.00    -0.070 Cl
ENDROOT
TORSDOF 0
ENDMDL
