MODEL 1
REMARK minimizedAffinity -0.949177325
REMARK minimizedRMSD -1
REMARK  0 active torsions:
REMARK  status: ('A' for Active; 'I' for Inactive)
ROOT
ATOM      1  C   UNL d   1       3.346  -0.353   0.570  0.00  0.00     0.020 A 
ATOM      2  C1  UNL d   1       4.225   0.262   1.459  0.00  0.00     0.020 A 
ATOM      3  C2  UNL d   1       4.955   1.383   1.057  0.00  0.00     0.034 A 
ATOM      4  C3  UNL d   1       4.807   1.892  -0.238  0.00  0.00     0.017 A 
ATOM      5  C4  UNL d   1       3.924   1.273  -1.131  0.00  0.00     0.017 A 
ATOM      6  C5  UNL d   1       3.195   0.152  -0.723  0.00  0.00     0.034 A 
ATOM      7 Cl   UNL d   1       3.687   1.844  -2.745  0.00  0.00    -0.070 Cl
ATOM      8 Cl1  UNL d   1       5.740   3.281  -0.667  0.00  0.00    -0.070 Cl
ENDROOT
TORSDOF 0
ENDMDL
