MODEL 1
REMARK minimizedAffinity 1.45092607
REMARK minimizedRMSD -1
REMARK  0 active torsions:
REMARK  status: ('A' for Active; 'I' for Inactive)
ROOT
ATOM      1  C   UNL d   1       3.485   0.056   1.456  0.00  0.00     0.020 A 
ATOM      2  C1  UNL d   1       4.682  -0.100   0.759  0.00  0.00     0.020 A 
ATOM      3  C2  UNL d   1       4.822   0.443  -0.520  0.00  0.00     0.034 A 
ATOM      4  C3  UNL d   1       3.761   1.144  -1.107  0.00  0.00     0.017 A 
ATOM      5  C4  UNL d   1       2.559   1.299  -0.407  0.00  0.00     0.017 A 
ATOM      6  C5  UNL d   1       2.425   0.754   0.874  0.00  0.00     0.034 A 
ATOM      7 Cl   UNL d   1       1.207   2.151  -1.065  0.00  0.00    -0.070 Cl
ATOM      8 Cl1  UNL d   1       4.003   1.788  -2.691  0.00  0.00    -0.070 Cl
ENDROOT
TORSDOF 0
ENDMDL
