MODEL 1
REMARK minimizedAffinity -2.90251422
REMARK minimizedRMSD -1
REMARK  0 active torsions:
REMARK  status: ('A' for Active; 'I' for Inactive)
ROOT
ATOM      1  C   UNL d   1       5.145   1.127  -1.593  0.00  0.00     0.020 A 
ATOM      2  C1  UNL d   1       3.751   1.120  -1.621  0.00  0.00     0.020 A 
ATOM      3  C2  UNL d   1       3.030   1.121  -0.425  0.00  0.00     0.034 A 
ATOM      4  C3  UNL d   1       3.701   1.128   0.803  0.00  0.00     0.017 A 
ATOM      5  C4  UNL d   1       5.101   1.135   0.829  0.00  0.00     0.017 A 
ATOM      6  C5  UNL d   1       5.818   1.134  -0.371  0.00  0.00     0.034 A 
ATOM      7 Cl   UNL d   1       6.000   1.144   2.305  0.00  0.00    -0.070 Cl
ATOM      8 Cl1  UNL d   1       2.745   1.128   2.242  0.00  0.00    -0.070 Cl
ENDROOT
TORSDOF 0
ENDMDL
