MODEL 1
REMARK minimizedAffinity 11.1317711
REMARK minimizedRMSD -1
REMARK  0 active torsions:
REMARK  status: ('A' for Active; 'I' for Inactive)
ROOT
ATOM      1  C   UNL d   1      -2.635  -2.471  -3.096  0.00  0.00     0.020 A 
ATOM      2  C1  UNL d   1      -1.845  -2.935  -2.045  0.00  0.00     0.020 A 
ATOM      3  C2  UNL d   1      -2.334  -3.924  -1.189  0.00  0.00     0.034 A 
ATOM      4  C3  UNL d   1      -3.616  -4.451  -1.382  0.00  0.00     0.017 A 
ATOM      5  C4  UNL d   1      -4.408  -3.984  -2.437  0.00  0.00     0.017 A 
ATOM      6  C5  UNL d   1      -3.913  -2.994  -3.291  0.00  0.00     0.034 A 
ATOM      7 Cl   UNL d   1      -6.000  -4.586  -2.738  0.00  0.00    -0.070 Cl
ATOM      8 Cl1  UNL d   1      -4.156  -5.672  -0.285  0.00  0.00    -0.070 Cl
ENDROOT
TORSDOF 0
ENDMDL
