MODEL 1
REMARK minimizedAffinity 0.0336940847
REMARK minimizedRMSD -1
REMARK  0 active torsions:
REMARK  status: ('A' for Active; 'I' for Inactive)
ROOT
ATOM      1  C   UNL d   1       4.408  -0.048   2.337  0.00  0.00     0.020 A 
ATOM      2  C1  UNL d   1       4.256   0.954   1.379  0.00  0.00     0.020 A 
ATOM      3  C2  UNL d   1       3.073   1.695   1.327  0.00  0.00     0.034 A 
ATOM      4  C3  UNL d   1       2.039   1.436   2.234  0.00  0.00     0.017 A 
ATOM      5  C4  UNL d   1       2.193   0.430   3.195  0.00  0.00     0.017 A 
ATOM      6  C5  UNL d   1       3.379  -0.309   3.243  0.00  0.00     0.034 A 
ATOM      7 Cl   UNL d   1       0.961   0.053   4.347  0.00  0.00    -0.070 Cl
ATOM      8 Cl1  UNL d   1       0.605   2.393   2.111  0.00  0.00    -0.070 Cl
ENDROOT
TORSDOF 0
ENDMDL
