MODEL 1
REMARK minimizedAffinity 2.31582332
REMARK minimizedRMSD -1
REMARK  0 active torsions:
REMARK  status: ('A' for Active; 'I' for Inactive)
ROOT
ATOM      1  C   UNL d   1       4.950  -0.613   1.336  0.00  0.00     0.020 A 
ATOM      2  C1  UNL d   1       6.000   0.212   1.739  0.00  0.00     0.020 A 
ATOM      3  C2  UNL d   1       5.879   1.599   1.628  0.00  0.00     0.034 A 
ATOM      4  C3  UNL d   1       4.707   2.165   1.114  0.00  0.00     0.017 A 
ATOM      5  C4  UNL d   1       3.654   1.336   0.711  0.00  0.00     0.017 A 
ATOM      6  C5  UNL d   1       3.780  -0.052   0.824  0.00  0.00     0.034 A 
ATOM      7 Cl   UNL d   1       2.177   1.961   0.067  0.00  0.00    -0.070 Cl
ATOM      8 Cl1  UNL d   1       4.627   3.888   1.006  0.00  0.00    -0.070 Cl
ENDROOT
TORSDOF 0
ENDMDL
