MODEL 1
REMARK minimizedAffinity 4.31381989
REMARK minimizedRMSD -1
REMARK  0 active torsions:
REMARK  status: ('A' for Active; 'I' for Inactive)
ROOT
ATOM      1  C   UNL d   1       3.352   1.551  -2.024  0.00  0.00     0.020 A 
ATOM      2  C1  UNL d   1       2.208   1.920  -1.318  0.00  0.00     0.020 A 
ATOM      3  C2  UNL d   1       2.000   1.437  -0.025  0.00  0.00     0.034 A 
ATOM      4  C3  UNL d   1       2.938   0.583   0.567  0.00  0.00     0.017 A 
ATOM      5  C4  UNL d   1       4.086   0.214  -0.142  0.00  0.00     0.017 A 
ATOM      6  C5  UNL d   1       4.289   0.700  -1.437  0.00  0.00     0.034 A 
ATOM      7 Cl   UNL d   1       5.288  -0.836   0.522  0.00  0.00    -0.070 Cl
ATOM      8 Cl1  UNL d   1       2.616   0.024   2.170  0.00  0.00    -0.070 Cl
ENDROOT
TORSDOF 0
ENDMDL
