MODEL 1
REMARK minimizedAffinity 5.62359476
REMARK minimizedRMSD -1
REMARK  0 active torsions:
REMARK  status: ('A' for Active; 'I' for Inactive)
ROOT
ATOM      1  C   UNL d   1       4.528  -1.140   0.764  0.00  0.00     0.020 A 
ATOM      2  C1  UNL d   1       5.780  -0.637   1.116  0.00  0.00     0.020 A 
ATOM      3  C2  UNL d   1       5.996   0.743   1.141  0.00  0.00     0.034 A 
ATOM      4  C3  UNL d   1       4.960   1.624   0.813  0.00  0.00     0.017 A 
ATOM      5  C4  UNL d   1       3.704   1.118   0.459  0.00  0.00     0.017 A 
ATOM      6  C5  UNL d   1       3.493  -0.264   0.436  0.00  0.00     0.034 A 
ATOM      7 Cl   UNL d   1       2.376   2.142   0.041  0.00  0.00    -0.070 Cl
ATOM      8 Cl1  UNL d   1       5.298   3.317   0.865  0.00  0.00    -0.070 Cl
ENDROOT
TORSDOF 0
ENDMDL
