MODEL 1
REMARK minimizedAffinity 3.4792881
REMARK minimizedRMSD -1
REMARK  0 active torsions:
REMARK  status: ('A' for Active; 'I' for Inactive)
ROOT
ATOM      1  C   UNL d   1       3.754   0.013   0.331  0.00  0.00     0.020 A 
ATOM      2  C1  UNL d   1       2.530   0.594   0.657  0.00  0.00     0.020 A 
ATOM      3  C2  UNL d   1       1.873   1.406  -0.270  0.00  0.00     0.034 A 
ATOM      4  C3  UNL d   1       2.441   1.639  -1.528  0.00  0.00     0.017 A 
ATOM      5  C4  UNL d   1       3.670   1.055  -1.855  0.00  0.00     0.017 A 
ATOM      6  C5  UNL d   1       4.323   0.242  -0.922  0.00  0.00     0.034 A 
ATOM      7 Cl   UNL d   1       4.433   1.296  -3.387  0.00  0.00    -0.070 Cl
ATOM      8 Cl1  UNL d   1       1.574   2.654  -2.626  0.00  0.00    -0.070 Cl
ENDROOT
TORSDOF 0
ENDMDL
