MODEL 1
REMARK minimizedAffinity 9.71284389
REMARK minimizedRMSD -1
REMARK  0 active torsions:
REMARK  status: ('A' for Active; 'I' for Inactive)
ROOT
ATOM      1  C   UNL d   1      -2.419  -3.073  -1.679  0.00  0.00     0.020 A 
ATOM      2  C1  UNL d   1      -2.522  -1.954  -2.505  0.00  0.00     0.020 A 
ATOM      3  C2  UNL d   1      -2.106  -2.029  -3.836  0.00  0.00     0.034 A 
ATOM      4  C3  UNL d   1      -1.584  -3.223  -4.345  0.00  0.00     0.017 A 
ATOM      5  C4  UNL d   1      -1.481  -4.346  -3.515  0.00  0.00     0.017 A 
ATOM      6  C5  UNL d   1      -1.899  -4.266  -2.183  0.00  0.00     0.034 A 
ATOM      7 Cl   UNL d   1      -0.847  -5.855  -4.071  0.00  0.00    -0.070 Cl
ATOM      8 Cl1  UNL d   1      -1.089  -3.244  -6.000  0.00  0.00    -0.070 Cl
ENDROOT
TORSDOF 0
ENDMDL
