MODEL 1
REMARK minimizedAffinity 1.41042352
REMARK minimizedRMSD -1
REMARK  0 active torsions:
REMARK  status: ('A' for Active; 'I' for Inactive)
ROOT
ATOM      1  C   UNL d   1       4.858  -0.579   1.709  0.00  0.00     0.020 A 
ATOM      2  C1  UNL d   1       5.973   0.197   2.025  0.00  0.00     0.020 A 
ATOM      3  C2  UNL d   1       5.940   1.579   1.828  0.00  0.00     0.034 A 
ATOM      4  C3  UNL d   1       4.790   2.190   1.313  0.00  0.00     0.017 A 
ATOM      5  C4  UNL d   1       3.672   1.410   0.997  0.00  0.00     0.017 A 
ATOM      6  C5  UNL d   1       3.710   0.026   1.196  0.00  0.00     0.034 A 
ATOM      7 Cl   UNL d   1       2.218   2.091   0.358  0.00  0.00    -0.070 Cl
ATOM      8 Cl1  UNL d   1       4.819   3.903   1.096  0.00  0.00    -0.070 Cl
ENDROOT
TORSDOF 0
ENDMDL
