MODEL 1
REMARK minimizedAffinity 10.0459585
REMARK minimizedRMSD -1
REMARK  0 active torsions:
REMARK  status: ('A' for Active; 'I' for Inactive)
ROOT
ATOM      1  C   UNL d   1      -2.388  -2.370  -3.645  0.00  0.00     0.020 A 
ATOM      2  C1  UNL d   1      -1.649  -1.689  -2.678  0.00  0.00     0.020 A 
ATOM      3  C2  UNL d   1      -1.691  -2.105  -1.346  0.00  0.00     0.034 A 
ATOM      4  C3  UNL d   1      -2.474  -3.204  -0.976  0.00  0.00     0.017 A 
ATOM      5  C4  UNL d   1      -3.216  -3.887  -1.947  0.00  0.00     0.017 A 
ATOM      6  C5  UNL d   1      -3.169  -3.467  -3.280  0.00  0.00     0.034 A 
ATOM      7 Cl   UNL d   1      -4.205  -5.253  -1.568  0.00  0.00    -0.070 Cl
ATOM      8 Cl1  UNL d   1      -2.479  -3.664   0.689  0.00  0.00    -0.070 Cl
ENDROOT
TORSDOF 0
ENDMDL
