MODEL 1
REMARK minimizedAffinity 13.3359327
REMARK minimizedRMSD -1
REMARK  0 active torsions:
REMARK  status: ('A' for Active; 'I' for Inactive)
ROOT
ATOM      1  C   UNL d   1      -2.289  -2.732  -0.135  0.00  0.00     0.020 A 
ATOM      2  C1  UNL d   1      -1.123  -2.511  -0.867  0.00  0.00     0.020 A 
ATOM      3  C2  UNL d   1      -1.156  -2.552  -2.262  0.00  0.00     0.034 A 
ATOM      4  C3  UNL d   1      -2.357  -2.816  -2.930  0.00  0.00     0.017 A 
ATOM      5  C4  UNL d   1      -3.527  -3.038  -2.195  0.00  0.00     0.017 A 
ATOM      6  C5  UNL d   1      -3.489  -2.995  -0.798  0.00  0.00     0.034 A 
ATOM      7 Cl   UNL d   1      -5.047  -3.369  -2.949  0.00  0.00    -0.070 Cl
ATOM      8 Cl1  UNL d   1      -2.325  -2.852  -4.658  0.00  0.00    -0.070 Cl
ENDROOT
TORSDOF 0
ENDMDL
