MODEL 1
REMARK minimizedAffinity 16.8202
REMARK minimizedRMSD -1
REMARK  0 active torsions:
REMARK  status: ('A' for Active; 'I' for Inactive)
ROOT
ATOM      1  C   UNL d   1       3.918  -0.069   0.422  0.00  0.00     0.020 A 
ATOM      2  C1  UNL d   1       4.086   1.128  -0.273  0.00  0.00     0.020 A 
ATOM      3  C2  UNL d   1       3.228   2.203  -0.030  0.00  0.00     0.034 A 
ATOM      4  C3  UNL d   1       2.199   2.084   0.911  0.00  0.00     0.017 A 
ATOM      5  C4  UNL d   1       2.031   0.882   1.608  0.00  0.00     0.017 A 
ATOM      6  C5  UNL d   1       2.893  -0.191   1.361  0.00  0.00     0.034 A 
ATOM      7 Cl   UNL d   1       0.784   0.659   2.784  0.00  0.00    -0.070 Cl
ATOM      8 Cl1  UNL d   1       1.176   3.453   1.162  0.00  0.00    -0.070 Cl
ENDROOT
TORSDOF 0
ENDMDL
