MODEL 1
REMARK minimizedAffinity 3.7101841
REMARK minimizedRMSD -1
REMARK  0 active torsions:
REMARK  status: ('A' for Active; 'I' for Inactive)
ROOT
ATOM      1  C   UNL d   1       1.322   2.423  -4.926  0.00  0.00     0.020 A 
ATOM      2  C1  UNL d   1       2.293   2.248  -5.912  0.00  0.00     0.020 A 
ATOM      3  C2  UNL d   1       3.527   1.685  -5.584  0.00  0.00     0.034 A 
ATOM      4  C3  UNL d   1       3.795   1.294  -4.267  0.00  0.00     0.017 A 
ATOM      5  C4  UNL d   1       2.820   1.470  -3.278  0.00  0.00     0.017 A 
ATOM      6  C5  UNL d   1       1.585   2.034  -3.612  0.00  0.00     0.034 A 
ATOM      7 Cl   UNL d   1       3.077   1.012  -1.632  0.00  0.00    -0.070 Cl
ATOM      8 Cl1  UNL d   1       5.344   0.604  -3.933  0.00  0.00    -0.070 Cl
ENDROOT
TORSDOF 0
ENDMDL
