MODEL 1
REMARK minimizedAffinity 14.2689543
REMARK minimizedRMSD -1
REMARK  0 active torsions:
REMARK  status: ('A' for Active; 'I' for Inactive)
ROOT
ATOM      1  C   UNL d   1       3.591  -3.165  -4.853  0.00  0.00     0.020 A 
ATOM      2  C1  UNL d   1       3.239  -2.083  -5.658  0.00  0.00     0.020 A 
ATOM      3  C2  UNL d   1       1.902  -1.872  -6.000  0.00  0.00     0.034 A 
ATOM      4  C3  UNL d   1       0.911  -2.744  -5.536  0.00  0.00     0.017 A 
ATOM      5  C4  UNL d   1       1.264  -3.831  -4.727  0.00  0.00     0.017 A 
ATOM      6  C5  UNL d   1       2.605  -4.037  -4.388  0.00  0.00     0.034 A 
ATOM      7 Cl   UNL d   1       0.098  -4.950  -4.117  0.00  0.00    -0.070 Cl
ATOM      8 Cl1  UNL d   1      -0.723  -2.423  -5.997  0.00  0.00    -0.070 Cl
ENDROOT
TORSDOF 0
ENDMDL
