MODEL 1
REMARK minimizedAffinity 12.2467432
REMARK minimizedRMSD -1
REMARK  0 active torsions:
REMARK  status: ('A' for Active; 'I' for Inactive)
ROOT
ATOM      1  C   UNL d   1       5.659  -0.534  -0.179  0.00  0.00     0.020 A 
ATOM      2  C1  UNL d   1       4.748  -0.807   0.840  0.00  0.00     0.020 A 
ATOM      3  C2  UNL d   1       3.463  -0.263   0.791  0.00  0.00     0.034 A 
ATOM      4  C3  UNL d   1       3.085   0.556  -0.279  0.00  0.00     0.017 A 
ATOM      5  C4  UNL d   1       4.001   0.829  -1.302  0.00  0.00     0.017 A 
ATOM      6  C5  UNL d   1       5.286   0.282  -1.248  0.00  0.00     0.034 A 
ATOM      7 Cl   UNL d   1       3.608   1.830  -2.655  0.00  0.00    -0.070 Cl
ATOM      8 Cl1  UNL d   1       1.480   1.194  -0.275  0.00  0.00    -0.070 Cl
ENDROOT
TORSDOF 0
ENDMDL
