MODEL 1
REMARK minimizedAffinity 1.63486826
REMARK minimizedRMSD -1
REMARK  0 active torsions:
REMARK  status: ('A' for Active; 'I' for Inactive)
ROOT
ATOM      1  C   UNL d   1      -1.876  -3.131   0.546  0.00  0.00     0.020 A 
ATOM      2  C1  UNL d   1      -2.677  -4.234   0.837  0.00  0.00     0.020 A 
ATOM      3  C2  UNL d   1      -3.377  -4.877  -0.186  0.00  0.00     0.034 A 
ATOM      4  C3  UNL d   1      -3.277  -4.418  -1.504  0.00  0.00     0.017 A 
ATOM      5  C4  UNL d   1      -2.472  -3.311  -1.795  0.00  0.00     0.017 A 
ATOM      6  C5  UNL d   1      -1.774  -2.670  -0.767  0.00  0.00     0.034 A 
ATOM      7 Cl   UNL d   1      -2.299  -2.686  -3.397  0.00  0.00    -0.070 Cl
ATOM      8 Cl1  UNL d   1      -4.170  -5.262  -2.719  0.00  0.00    -0.070 Cl
ENDROOT
TORSDOF 0
ENDMDL
