MODEL 1
REMARK minimizedAffinity 0.597830236
REMARK minimizedRMSD -1
REMARK  3 active torsions:
REMARK  status: ('A' for Active; 'I' for Inactive)
REMARK    1  A    between atoms: C3'_2  and  C2'_3 
REMARK    2  A    between atoms: C2'_3  and  C1'_4 
REMARK    3  A    between atoms: C1'_4  and  C1_5 
ROOT
ATOM      1  C1  N4B d   1       0.700  -1.237   3.425  0.00  0.00    -0.075 A 
ATOM      2  C2  N4B d   1       0.016  -2.345   3.972  0.00  0.00     0.002 A 
ATOM      3  C3  N4B d   1      -1.349  -2.435   3.854  0.00  0.00     0.002 A 
ATOM      4  C4  N4B d   1      -2.050  -1.426   3.213  0.00  0.00    -0.004 A 
ATOM      5  C5  N4B d   1      -1.380  -0.372   2.664  0.00  0.00     0.002 A 
ATOM      6  C6  N4B d   1      -0.007  -0.270   2.772  0.00  0.00     0.002 A 
ENDROOT
BRANCH   1   7
ATOM      7  C1' N4B d   1       2.182  -1.051   3.603  0.00  0.00     0.057 C 
BRANCH   7   8
ATOM      8  C2' N4B d   1       2.445  -0.390   4.953  0.00  0.00     0.009 C 
BRANCH   8   9
ATOM      9  C3' N4B d   1       3.928  -0.337   5.281  0.00  0.00     0.004 C 
ATOM     10  C4' N4B d   1       4.641   0.772   4.566  0.00  0.00     0.003 C 
ENDBRANCH   8   9
ENDBRANCH   7   8
ENDBRANCH   1   7
TORSDOF 3
ENDMDL
