MODEL 1
REMARK minimizedAffinity -2.42820787
REMARK minimizedRMSD -1
REMARK  3 active torsions:
REMARK  status: ('A' for Active; 'I' for Inactive)
REMARK    1  A    between atoms: C3'_2  and  C2'_3 
REMARK    2  A    between atoms: C2'_3  and  C1'_4 
REMARK    3  A    between atoms: C1'_4  and  C1_5 
ROOT
ATOM      1  C1  N4B d   1      -1.014  -1.033   2.294  0.00  0.00    -0.075 A 
ATOM      2  C2  N4B d   1      -1.034  -2.219   3.061  0.00  0.00     0.002 A 
ATOM      3  C3  N4B d   1       0.082  -2.600   3.765  0.00  0.00     0.002 A 
ATOM      4  C4  N4B d   1       1.230  -1.824   3.703  0.00  0.00    -0.004 A 
ATOM      5  C5  N4B d   1       1.233  -0.667   2.980  0.00  0.00     0.002 A 
ATOM      6  C6  N4B d   1       0.117  -0.270   2.270  0.00  0.00     0.002 A 
ENDROOT
BRANCH   1   7
ATOM      7  C1' N4B d   1      -2.181  -0.621   1.438  0.00  0.00     0.057 C 
BRANCH   7   8
ATOM      8  C2' N4B d   1      -1.660  -0.006   0.143  0.00  0.00     0.009 C 
BRANCH   8   9
ATOM      9  C3' N4B d   1      -1.756  -0.973  -1.025  0.00  0.00     0.004 C 
ATOM     10  C4' N4B d   1      -1.489  -0.317  -2.346  0.00  0.00     0.003 C 
ENDBRANCH   8   9
ENDBRANCH   7   8
ENDBRANCH   1   7
TORSDOF 3
ENDMDL
