MODEL 1
REMARK minimizedAffinity 3.18172145
REMARK minimizedRMSD -1
REMARK  3 active torsions:
REMARK  status: ('A' for Active; 'I' for Inactive)
REMARK    1  A    between atoms: C3'_2  and  C2'_3 
REMARK    2  A    between atoms: C2'_3  and  C1'_4 
REMARK    3  A    between atoms: C1'_4  and  C1_5 
ROOT
ATOM      1  C1  N4B d   1       0.117  -0.811   2.359  0.00  0.00    -0.075 A 
ATOM      2  C2  N4B d   1      -1.032  -1.136   3.113  0.00  0.00     0.002 A 
ATOM      3  C3  N4B d   1      -0.899  -1.664   4.374  0.00  0.00     0.002 A 
ATOM      4  C4  N4B d   1       0.367  -1.891   4.893  0.00  0.00    -0.004 A 
ATOM      5  C5  N4B d   1       1.472  -1.551   4.168  0.00  0.00     0.002 A 
ATOM      6  C6  N4B d   1       1.353  -1.016   2.901  0.00  0.00     0.002 A 
ENDROOT
BRANCH   1   7
ATOM      7  C1' N4B d   1       0.024  -0.312   0.943  0.00  0.00     0.057 C 
BRANCH   7   8
ATOM      8  C2' N4B d   1      -1.413  -0.466   0.453  0.00  0.00     0.009 C 
BRANCH   8   9
ATOM      9  C3' N4B d   1      -1.489  -1.248  -0.847  0.00  0.00     0.004 C 
ATOM     10  C4' N4B d   1      -2.226  -0.513  -1.926  0.00  0.00     0.003 C 
ENDBRANCH   8   9
ENDBRANCH   7   8
ENDBRANCH   1   7
TORSDOF 3
ENDMDL
