MODEL 1
REMARK minimizedAffinity 2.94840956
REMARK minimizedRMSD -1
REMARK  3 active torsions:
REMARK  status: ('A' for Active; 'I' for Inactive)
REMARK    1  A    between atoms: C3'_2  and  C2'_3 
REMARK    2  A    between atoms: C2'_3  and  C1'_4 
REMARK    3  A    between atoms: C1'_4  and  C1_5 
ROOT
ATOM      1  C1  N4B d   1      -0.261  -0.403   2.274  0.00  0.00    -0.075 A 
ATOM      2  C2  N4B d   1      -0.425   0.965   1.967  0.00  0.00     0.002 A 
ATOM      3  C3  N4B d   1      -1.648   1.435   1.556  0.00  0.00     0.002 A 
ATOM      4  C4  N4B d   1      -2.712   0.555   1.427  0.00  0.00    -0.004 A 
ATOM      5  C5  N4B d   1      -2.552  -0.761   1.750  0.00  0.00     0.002 A 
ATOM      6  C6  N4B d   1      -1.329  -1.246   2.168  0.00  0.00     0.002 A 
ENDROOT
BRANCH   1   7
ATOM      7  C1' N4B d   1       1.079  -0.979   2.645  0.00  0.00     0.057 C 
BRANCH   7   8
ATOM      8  C2' N4B d   1       0.921  -1.860   3.880  0.00  0.00     0.009 C 
BRANCH   8   9
ATOM      9  C3' N4B d   1       1.843  -1.429   5.008  0.00  0.00     0.004 C 
ATOM     10  C4' N4B d   1       2.956  -0.539   4.540  0.00  0.00     0.003 C 
ENDBRANCH   8   9
ENDBRANCH   7   8
ENDBRANCH   1   7
TORSDOF 3
ENDMDL
