MODEL 1
REMARK minimizedAffinity 0.177309915
REMARK minimizedRMSD -1
REMARK  3 active torsions:
REMARK  status: ('A' for Active; 'I' for Inactive)
REMARK    1  A    between atoms: C3'_2  and  C2'_3 
REMARK    2  A    between atoms: C2'_3  and  C1'_4 
REMARK    3  A    between atoms: C1'_4  and  C1_5 
ROOT
ATOM      1  C1  N4B d   1       3.604   1.640   2.493  0.00  0.00    -0.075 A 
ATOM      2  C2  N4B d   1       2.640   0.674   2.129  0.00  0.00     0.002 A 
ATOM      3  C3  N4B d   1       2.312  -0.332   3.004  0.00  0.00     0.002 A 
ATOM      4  C4  N4B d   1       2.947  -0.404   4.235  0.00  0.00    -0.004 A 
ATOM      5  C5  N4B d   1       3.858   0.547   4.589  0.00  0.00     0.002 A 
ATOM      6  C6  N4B d   1       4.194   1.567   3.721  0.00  0.00     0.002 A 
ENDROOT
BRANCH   1   7
ATOM      7  C1' N4B d   1       4.057   2.709   1.536  0.00  0.00     0.057 C 
BRANCH   7   8
ATOM      8  C2' N4B d   1       3.154   3.930   1.686  0.00  0.00     0.009 C 
BRANCH   8   9
ATOM      9  C3' N4B d   1       3.648   5.107   0.862  0.00  0.00     0.004 C 
ATOM     10  C4' N4B d   1       2.616   5.618  -0.098  0.00  0.00     0.003 C 
ENDBRANCH   8   9
ENDBRANCH   7   8
ENDBRANCH   1   7
TORSDOF 3
ENDMDL
