MODEL 1
REMARK minimizedAffinity 4.54413843
REMARK minimizedRMSD -1
REMARK  3 active torsions:
REMARK  status: ('A' for Active; 'I' for Inactive)
REMARK    1  A    between atoms: C3'_2  and  C2'_3 
REMARK    2  A    between atoms: C2'_3  and  C1'_4 
REMARK    3  A    between atoms: C1'_4  and  C1_5 
ROOT
ATOM      1  C1  N4B d   1      -0.652  -3.867  -4.668  0.00  0.00    -0.075 A 
ATOM      2  C2  N4B d   1      -0.362  -3.714  -3.294  0.00  0.00     0.002 A 
ATOM      3  C3  N4B d   1       0.298  -4.710  -2.617  0.00  0.00     0.002 A 
ATOM      4  C4  N4B d   1       0.659  -5.870  -3.284  0.00  0.00    -0.004 A 
ATOM      5  C5  N4B d   1       0.398  -6.000  -4.617  0.00  0.00     0.002 A 
ATOM      6  C6  N4B d   1      -0.261  -5.006  -5.312  0.00  0.00     0.002 A 
ENDROOT
BRANCH   1   7
ATOM      7  C1' N4B d   1      -1.447  -2.843  -5.431  0.00  0.00     0.057 C 
BRANCH   7   8
ATOM      8  C2' N4B d   1      -1.610  -1.593  -4.570  0.00  0.00     0.009 C 
BRANCH   8   9
ATOM      9  C3' N4B d   1      -1.447  -0.320  -5.382  0.00  0.00     0.004 C 
ATOM     10  C4' N4B d   1      -0.701   0.750  -4.642  0.00  0.00     0.003 C 
ENDBRANCH   8   9
ENDBRANCH   7   8
ENDBRANCH   1   7
TORSDOF 3
ENDMDL
