MODEL 1
REMARK minimizedAffinity 3.81368208
REMARK minimizedRMSD -1
REMARK  0 active torsions:
REMARK  status: ('A' for Active; 'I' for Inactive)
ROOT
ATOM      1  C1  DEN d   1      -1.834  -0.913   2.873  0.00  0.00     0.130 A 
ATOM      2  C2  DEN d   1      -2.499  -0.717   4.158  0.00  0.00    -0.031 A 
ATOM      3  C3  DEN d   1      -3.957  -0.706   3.921  0.00  0.00     0.027 A 
ATOM      4  C4  DEN d   1      -5.241  -0.979   1.701  0.00  0.00     0.027 A 
ATOM      5  C5  DEN d   1      -5.108  -1.158   0.342  0.00  0.00    -0.003 A 
ATOM      6  C6  DEN d   1      -3.884  -1.234  -0.268  0.00  0.00     0.001 A 
ATOM      7  C7  DEN d   1      -2.744  -1.175   0.489  0.00  0.00     0.017 A 
ATOM      8  C8  DEN d   1      -2.870  -0.987   1.859  0.00  0.00    -0.094 A 
ATOM      9  C9  DEN d   1      -4.116  -0.925   2.458  0.00  0.00    -0.072 A 
ENDROOT
TORSDOF 0
ENDMDL
