MODEL 1
REMARK minimizedAffinity 6.71222782
REMARK minimizedRMSD -1
REMARK  0 active torsions:
REMARK  status: ('A' for Active; 'I' for Inactive)
ROOT
ATOM      1  C1  DEN d   1       3.772   1.915   1.834  0.00  0.00     0.130 A 
ATOM      2  C2  DEN d   1       3.759   3.375   1.864  0.00  0.00    -0.031 A 
ATOM      3  C3  DEN d   1       4.522   3.813   3.050  0.00  0.00     0.027 A 
ATOM      4  C4  DEN d   1       5.721   2.381   4.829  0.00  0.00     0.027 A 
ATOM      5  C5  DEN d   1       5.999   1.094   5.233  0.00  0.00    -0.003 A 
ATOM      6  C6  DEN d   1       5.531  -0.001   4.556  0.00  0.00     0.001 A 
ATOM      7  C7  DEN d   1       4.795   0.171   3.414  0.00  0.00     0.017 A 
ATOM      8  C8  DEN d   1       4.503   1.466   3.005  0.00  0.00    -0.094 A 
ATOM      9  C9  DEN d   1       4.997   2.560   3.695  0.00  0.00    -0.072 A 
ENDROOT
TORSDOF 0
ENDMDL
