MODEL 1
REMARK minimizedAffinity 6.12581778
REMARK minimizedRMSD -1
REMARK  0 active torsions:
REMARK  status: ('A' for Active; 'I' for Inactive)
ROOT
ATOM      1  C1  DEN d   1       4.980   3.634   3.808  0.00  0.00     0.130 A 
ATOM      2  C2  DEN d   1       4.172   3.669   2.593  0.00  0.00    -0.031 A 
ATOM      3  C3  DEN d   1       3.892   2.276   2.191  0.00  0.00     0.027 A 
ATOM      4  C4  DEN d   1       4.623   0.080   3.329  0.00  0.00     0.027 A 
ATOM      5  C5  DEN d   1       5.331  -0.457   4.381  0.00  0.00    -0.003 A 
ATOM      6  C6  DEN d   1       5.995   0.324   5.289  0.00  0.00     0.001 A 
ATOM      7  C7  DEN d   1       5.927   1.688   5.188  0.00  0.00     0.017 A 
ATOM      8  C8  DEN d   1       5.221   2.237   4.126  0.00  0.00    -0.094 A 
ATOM      9  C9  DEN d   1       4.546   1.431   3.225  0.00  0.00    -0.072 A 
ENDROOT
TORSDOF 0
ENDMDL
