MODEL 1
REMARK minimizedAffinity 10.3369436
REMARK minimizedRMSD -1
REMARK  0 active torsions:
REMARK  status: ('A' for Active; 'I' for Inactive)
ROOT
ATOM      1  C1  DEN d   1       4.242   3.436   3.074  0.00  0.00     0.130 A 
ATOM      2  C2  DEN d   1       3.681   3.023   1.791  0.00  0.00    -0.031 A 
ATOM      3  C3  DEN d   1       3.929   1.577   1.628  0.00  0.00     0.027 A 
ATOM      4  C4  DEN d   1       5.117  -0.057   3.232  0.00  0.00     0.027 A 
ATOM      5  C5  DEN d   1       5.772  -0.168   4.439  0.00  0.00    -0.003 A 
ATOM      6  C6  DEN d   1       5.990   0.912   5.253  0.00  0.00     0.001 A 
ATOM      7  C7  DEN d   1       5.511   2.143   4.892  0.00  0.00     0.017 A 
ATOM      8  C8  DEN d   1       4.856   2.264   3.673  0.00  0.00    -0.094 A 
ATOM      9  C9  DEN d   1       4.634   1.159   2.870  0.00  0.00    -0.072 A 
ENDROOT
TORSDOF 0
ENDMDL
