MODEL 1
REMARK minimizedAffinity 5.16263962
REMARK minimizedRMSD -1
REMARK  0 active torsions:
REMARK  status: ('A' for Active; 'I' for Inactive)
ROOT
ATOM      1  C1  DEN d   1       0.762  -0.624  -2.389  0.00  0.00     0.130 A 
ATOM      2  C2  DEN d   1       0.977   0.772  -2.761  0.00  0.00    -0.031 A 
ATOM      3  C3  DEN d   1      -0.009   1.595  -2.034  0.00  0.00     0.027 A 
ATOM      4  C4  DEN d   1      -1.837   0.849  -0.373  0.00  0.00     0.027 A 
ATOM      5  C5  DEN d   1      -2.413  -0.237   0.249  0.00  0.00    -0.003 A 
ATOM      6  C6  DEN d   1      -1.997  -1.520   0.011  0.00  0.00     0.001 A 
ATOM      7  C7  DEN d   1      -0.946  -1.746  -0.837  0.00  0.00     0.017 A 
ATOM      8  C8  DEN d   1      -0.365  -0.658  -1.474  0.00  0.00    -0.094 A 
ATOM      9  C9  DEN d   1      -0.791   0.633  -1.211  0.00  0.00    -0.072 A 
ENDROOT
TORSDOF 0
ENDMDL
