MODEL 1
REMARK minimizedAffinity 6.02814627
REMARK minimizedRMSD -1
REMARK  0 active torsions:
REMARK  status: ('A' for Active; 'I' for Inactive)
ROOT
ATOM      1  C1  DEN d   1      -2.229   1.035   0.992  0.00  0.00     0.130 A 
ATOM      2  C2  DEN d   1      -2.859   0.741  -0.292  0.00  0.00    -0.031 A 
ATOM      3  C3  DEN d   1      -3.842  -0.341  -0.082  0.00  0.00     0.027 A 
ATOM      4  C4  DEN d   1      -4.450  -1.579   2.098  0.00  0.00     0.027 A 
ATOM      5  C5  DEN d   1      -4.174  -1.686   3.443  0.00  0.00    -0.003 A 
ATOM      6  C6  DEN d   1      -3.214  -0.923   4.054  0.00  0.00     0.001 A 
ATOM      7  C7  DEN d   1      -2.527   0.013   3.327  0.00  0.00     0.017 A 
ATOM      8  C8  DEN d   1      -2.795   0.121   1.968  0.00  0.00    -0.094 A 
ATOM      9  C9  DEN d   1      -3.777  -0.651   1.372  0.00  0.00    -0.072 A 
ENDROOT
TORSDOF 0
ENDMDL
