MODEL 1
REMARK minimizedAffinity 8.96191692
REMARK minimizedRMSD -1
REMARK  0 active torsions:
REMARK  status: ('A' for Active; 'I' for Inactive)
ROOT
ATOM      1  C1  DEN d   1      -2.291   0.545   0.321  0.00  0.00     0.130 A 
ATOM      2  C2  DEN d   1      -3.414  -0.233  -0.194  0.00  0.00    -0.031 A 
ATOM      3  C3  DEN d   1      -4.419   0.711  -0.723  0.00  0.00     0.027 A 
ATOM      4  C4  DEN d   1      -4.344   3.288  -0.797  0.00  0.00     0.027 A 
ATOM      5  C5  DEN d   1      -3.599   4.399  -0.468  0.00  0.00    -0.003 A 
ATOM      6  C6  DEN d   1      -2.392   4.305   0.173  0.00  0.00     0.001 A 
ATOM      7  C7  DEN d   1      -1.872   3.072   0.464  0.00  0.00     0.017 A 
ATOM      8  C8  DEN d   1      -2.620   1.947   0.142  0.00  0.00    -0.094 A 
ATOM      9  C9  DEN d   1      -3.833   2.062  -0.517  0.00  0.00    -0.072 A 
ENDROOT
TORSDOF 0
ENDMDL
