MODEL 1
REMARK minimizedAffinity -6.06807423
REMARK minimizedRMSD -1
REMARK  0 active torsions:
REMARK  status: ('A' for Active; 'I' for Inactive)
ROOT
ATOM      1  C1  DEN d   1      -4.374   3.452   5.350  0.00  0.00     0.130 A 
ATOM      2  C2  DEN d   1      -4.583   4.897   5.314  0.00  0.00    -0.031 A 
ATOM      3  C3  DEN d   1      -4.257   5.371   3.954  0.00  0.00     0.027 A 
ATOM      4  C4  DEN d   1      -3.461   4.014   1.910  0.00  0.00     0.027 A 
ATOM      5  C5  DEN d   1      -3.127   2.757   1.458  0.00  0.00    -0.003 A 
ATOM      6  C6  DEN d   1      -3.152   1.657   2.274  0.00  0.00     0.001 A 
ATOM      7  C7  DEN d   1      -3.563   1.786   3.574  0.00  0.00     0.017 A 
ATOM      8  C8  DEN d   1      -3.894   3.052   4.039  0.00  0.00    -0.094 A 
ATOM      9  C9  DEN d   1      -3.874   4.150   3.195  0.00  0.00    -0.072 A 
ENDROOT
TORSDOF 0
ENDMDL
