MODEL 1
REMARK minimizedAffinity 5.9278779
REMARK minimizedRMSD -1
REMARK  0 active torsions:
REMARK  status: ('A' for Active; 'I' for Inactive)
ROOT
ATOM      1  C1  DEN d   1       4.128   1.959   2.257  0.00  0.00     0.130 A 
ATOM      2  C2  DEN d   1       4.397   3.375   2.491  0.00  0.00    -0.031 A 
ATOM      3  C3  DEN d   1       5.177   3.491   3.739  0.00  0.00     0.027 A 
ATOM      4  C4  DEN d   1       5.994   1.626   5.322  0.00  0.00     0.027 A 
ATOM      5  C5  DEN d   1       5.999   0.267   5.547  0.00  0.00    -0.003 A 
ATOM      6  C6  DEN d   1       5.358  -0.613   4.717  0.00  0.00     0.001 A 
ATOM      7  C7  DEN d   1       4.721  -0.148   3.596  0.00  0.00     0.017 A 
ATOM      8  C8  DEN d   1       4.705   1.222   3.367  0.00  0.00    -0.094 A 
ATOM      9  C9  DEN d   1       5.370   2.094   4.212  0.00  0.00    -0.072 A 
ENDROOT
TORSDOF 0
ENDMDL
