MODEL 1
REMARK minimizedAffinity -6.37110424
REMARK minimizedRMSD -1
REMARK  0 active torsions:
REMARK  status: ('A' for Active; 'I' for Inactive)
ROOT
ATOM      1  C1  DEN d   1      -2.883   3.055   2.057  0.00  0.00     0.130 A 
ATOM      2  C2  DEN d   1      -3.326   3.505   3.374  0.00  0.00    -0.031 A 
ATOM      3  C3  DEN d   1      -3.899   2.344   4.084  0.00  0.00     0.027 A 
ATOM      4  C4  DEN d   1      -4.138  -0.095   3.278  0.00  0.00     0.027 A 
ATOM      5  C5  DEN d   1      -3.916  -0.956   2.226  0.00  0.00    -0.003 A 
ATOM      6  C6  DEN d   1      -3.370  -0.537   1.042  0.00  0.00     0.001 A 
ATOM      7  C7  DEN d   1      -2.985   0.770   0.896  0.00  0.00     0.017 A 
ATOM      8  C8  DEN d   1      -3.212   1.646   1.950  0.00  0.00    -0.094 A 
ATOM      9  C9  DEN d   1      -3.754   1.200   3.143  0.00  0.00    -0.072 A 
ENDROOT
TORSDOF 0
ENDMDL
