MODEL 1
REMARK minimizedAffinity 5.63658905
REMARK minimizedRMSD -1
REMARK  0 active torsions:
REMARK  status: ('A' for Active; 'I' for Inactive)
ROOT
ATOM      1  C1  DEN d   1       4.707   3.289   2.327  0.00  0.00     0.130 A 
ATOM      2  C2  DEN d   1       5.337   4.279   3.197  0.00  0.00    -0.031 A 
ATOM      3  C3  DEN d   1       5.954   3.562   4.331  0.00  0.00     0.027 A 
ATOM      4  C4  DEN d   1       6.000   1.030   4.819  0.00  0.00     0.027 A 
ATOM      5  C5  DEN d   1       5.590  -0.207   4.372  0.00  0.00    -0.003 A 
ATOM      6  C6  DEN d   1       4.834  -0.361   3.240  0.00  0.00     0.001 A 
ATOM      7  C7  DEN d   1       4.503   0.737   2.491  0.00  0.00     0.017 A 
ATOM      8  C8  DEN d   1       4.906   1.988   2.939  0.00  0.00    -0.094 A 
ATOM      9  C9  DEN d   1       5.680   2.122   4.079  0.00  0.00    -0.072 A 
ENDROOT
TORSDOF 0
ENDMDL
