MODEL 1
REMARK minimizedAffinity -0.730929255
REMARK minimizedRMSD -1
REMARK  0 active torsions:
REMARK  status: ('A' for Active; 'I' for Inactive)
ROOT
ATOM      1  C1  DEN d   1       2.402   1.977  -4.118  0.00  0.00     0.130 A 
ATOM      2  C2  DEN d   1       1.980   1.032  -3.087  0.00  0.00    -0.031 A 
ATOM      3  C3  DEN d   1       3.006  -0.026  -2.991  0.00  0.00     0.027 A 
ATOM      4  C4  DEN d   1       5.197  -0.288  -4.327  0.00  0.00     0.027 A 
ATOM      5  C5  DEN d   1       5.979   0.260  -5.320  0.00  0.00    -0.003 A 
ATOM      6  C6  DEN d   1       5.610   1.390  -6.000  0.00  0.00     0.001 A 
ATOM      7  C7  DEN d   1       4.449   2.035  -5.664  0.00  0.00     0.017 A 
ATOM      8  C8  DEN d   1       3.651   1.484  -4.669  0.00  0.00    -0.094 A 
ATOM      9  C9  DEN d   1       4.048   0.348  -3.985  0.00  0.00    -0.072 A 
ENDROOT
TORSDOF 0
ENDMDL
