MODEL 1
REMARK minimizedAffinity 5.18751335
REMARK minimizedRMSD -1
REMARK  0 active torsions:
REMARK  status: ('A' for Active; 'I' for Inactive)
ROOT
ATOM      1  C1  DEN d   1      -2.922   4.115   1.173  0.00  0.00     0.130 A 
ATOM      2  C2  DEN d   1      -3.048   4.472  -0.237  0.00  0.00    -0.031 A 
ATOM      3  C3  DEN d   1      -3.164   3.223  -1.016  0.00  0.00     0.027 A 
ATOM      4  C4  DEN d   1      -3.165   0.783  -0.178  0.00  0.00     0.027 A 
ATOM      5  C5  DEN d   1      -3.071  -0.021   0.937  0.00  0.00    -0.003 A 
ATOM      6  C6  DEN d   1      -2.888   0.492   2.194  0.00  0.00     0.001 A 
ATOM      7  C7  DEN d   1      -2.839   1.849   2.373  0.00  0.00     0.017 A 
ATOM      8  C8  DEN d   1      -2.925   2.666   1.253  0.00  0.00    -0.094 A 
ATOM      9  C9  DEN d   1      -3.122   2.129  -0.008  0.00  0.00    -0.072 A 
ENDROOT
TORSDOF 0
ENDMDL
