MODEL 1
REMARK minimizedAffinity 5.76105785
REMARK minimizedRMSD -1
REMARK  0 active torsions:
REMARK  status: ('A' for Active; 'I' for Inactive)
ROOT
ATOM      1  C1  DEN d   1      -2.261   3.180   1.254  0.00  0.00     0.130 A 
ATOM      2  C2  DEN d   1      -2.640   3.720  -0.049  0.00  0.00    -0.031 A 
ATOM      3  C3  DEN d   1      -3.265   2.632  -0.829  0.00  0.00     0.027 A 
ATOM      4  C4  DEN d   1      -3.684   0.180  -0.147  0.00  0.00     0.027 A 
ATOM      5  C5  DEN d   1      -3.524  -0.749   0.857  0.00  0.00    -0.003 A 
ATOM      6  C6  DEN d   1      -2.907  -0.444   2.041  0.00  0.00     0.001 A 
ATOM      7  C7  DEN d   1      -2.467   0.833   2.269  0.00  0.00     0.017 A 
ATOM      8  C8  DEN d   1      -2.617   1.773   1.258  0.00  0.00    -0.094 A 
ATOM      9  C9  DEN d   1      -3.255   1.449   0.072  0.00  0.00    -0.072 A 
ENDROOT
TORSDOF 0
ENDMDL
