MODEL 1
REMARK minimizedAffinity 7.29633474
REMARK minimizedRMSD -1
REMARK  0 active torsions:
REMARK  status: ('A' for Active; 'I' for Inactive)
ROOT
ATOM      1  C1  DEN d   1       2.136   3.338  -5.744  0.00  0.00     0.130 A 
ATOM      2  C2  DEN d   1       2.265   4.680  -5.183  0.00  0.00    -0.031 A 
ATOM      3  C3  DEN d   1       3.661   4.855  -4.735  0.00  0.00     0.027 A 
ATOM      4  C4  DEN d   1       5.627   3.189  -4.859  0.00  0.00     0.027 A 
ATOM      5  C5  DEN d   1       6.000   1.920  -5.242  0.00  0.00    -0.003 A 
ATOM      6  C6  DEN d   1       5.111   1.030  -5.784  0.00  0.00     0.001 A 
ATOM      7  C7  DEN d   1       3.813   1.413  -6.000  0.00  0.00     0.017 A 
ATOM      8  C8  DEN d   1       3.428   2.688  -5.609  0.00  0.00    -0.094 A 
ATOM      9  C9  DEN d   1       4.344   3.578  -5.074  0.00  0.00    -0.072 A 
ENDROOT
TORSDOF 0
ENDMDL
