MODEL 1
REMARK minimizedAffinity -0.659431934
REMARK minimizedRMSD -1
REMARK  1 active torsions:
REMARK  status: ('A' for Active; 'I' for Inactive)
REMARK    1  A    between atoms: C1_2  and  C2_3 
ROOT
ATOM      1  C2  UNL d   1       0.622  -0.780   2.083  0.00  0.00    -0.081 A 
ATOM      2  C3  UNL d   1      -0.613  -0.407   2.626  0.00  0.00     0.006 A 
ATOM      3  C4  UNL d   1      -1.707  -0.159   1.793  0.00  0.00     0.002 A 
ATOM      4  C5  UNL d   1      -1.586  -0.289   0.405  0.00  0.00    -0.080 A 
ATOM      5  C6  UNL d   1      -2.761  -0.055  -0.498  0.00  0.00     0.076 C 
ATOM      6  C7  UNL d   1      -0.347  -0.645  -0.138  0.00  0.00     0.002 A 
ATOM      7  C8  UNL d   1       0.747  -0.892   0.694  0.00  0.00     0.006 A 
ENDROOT
BRANCH   1   8
ATOM      8  C1  UNL d   1       1.786  -1.111   2.982  0.00  0.00     0.054 C 
ATOM      9  C   UNL d   1       1.317  -1.472   4.384  0.00  0.00     0.018 C 
ENDBRANCH   1   8
TORSDOF 1
ENDMDL
