MODEL 1
REMARK minimizedAffinity 0.577218056
REMARK minimizedRMSD -1
REMARK  1 active torsions:
REMARK  status: ('A' for Active; 'I' for Inactive)
REMARK    1  A    between atoms: C1_2  and  C2_3 
ROOT
ATOM      1  C2  UNL d   1      -0.426  -0.921   3.156  0.00  0.00    -0.081 A 
ATOM      2  C3  UNL d   1      -1.802  -0.668   3.099  0.00  0.00     0.006 A 
ATOM      3  C4  UNL d   1      -2.410  -0.333   1.887  0.00  0.00     0.002 A 
ATOM      4  C5  UNL d   1      -1.655  -0.252   0.712  0.00  0.00    -0.080 A 
ATOM      5  C6  UNL d   1      -2.302   0.077  -0.601  0.00  0.00     0.076 C 
ATOM      6  C7  UNL d   1      -0.278  -0.487   0.772  0.00  0.00     0.002 A 
ATOM      7  C8  UNL d   1       0.332  -0.822   1.983  0.00  0.00     0.006 A 
ENDROOT
BRANCH   1   8
ATOM      8  C1  UNL d   1       0.223  -1.346   4.449  0.00  0.00     0.054 C 
ATOM      9  C   UNL d   1       1.716  -1.579   4.269  0.00  0.00     0.018 C 
ENDBRANCH   1   8
TORSDOF 1
ENDMDL
