MODEL 1
REMARK minimizedAffinity 0.144585714
REMARK minimizedRMSD -1
REMARK  1 active torsions:
REMARK  status: ('A' for Active; 'I' for Inactive)
REMARK    1  A    between atoms: C1_2  and  C2_3 
ROOT
ATOM      1  C2  UNL d   1       0.804  -0.334   0.376  0.00  0.00    -0.081 A 
ATOM      2  C3  UNL d   1      -0.137  -0.981  -0.435  0.00  0.00     0.006 A 
ATOM      3  C4  UNL d   1      -1.505  -0.797  -0.217  0.00  0.00     0.002 A 
ATOM      4  C5  UNL d   1      -1.954   0.041   0.809  0.00  0.00    -0.080 A 
ATOM      5  C6  UNL d   1      -3.419   0.270   1.034  0.00  0.00     0.076 C 
ATOM      6  C7  UNL d   1      -1.014   0.673   1.630  0.00  0.00     0.002 A 
ATOM      7  C8  UNL d   1       0.354   0.489   1.413  0.00  0.00     0.006 A 
ENDROOT
BRANCH   1   8
ATOM      8  C1  UNL d   1       2.279  -0.479   0.103  0.00  0.00     0.054 C 
ATOM      9  C   UNL d   1       2.909   0.859  -0.258  0.00  0.00     0.018 C 
ENDBRANCH   1   8
TORSDOF 1
ENDMDL
