MODEL 1
REMARK minimizedAffinity 1.25277436
REMARK minimizedRMSD -1
REMARK  1 active torsions:
REMARK  status: ('A' for Active; 'I' for Inactive)
REMARK    1  A    between atoms: C1_2  and  C2_3 
ROOT
ATOM      1  C2  UNL d   1      -1.870  -0.368   2.865  0.00  0.00    -0.081 A 
ATOM      2  C3  UNL d   1      -0.558  -0.428   3.352  0.00  0.00     0.006 A 
ATOM      3  C4  UNL d   1      -0.205  -1.370   4.321  0.00  0.00     0.002 A 
ATOM      4  C5  UNL d   1      -1.154  -2.271   4.815  0.00  0.00    -0.080 A 
ATOM      5  C6  UNL d   1      -0.781  -3.306   5.834  0.00  0.00     0.076 C 
ATOM      6  C7  UNL d   1      -2.469  -2.200   4.341  0.00  0.00     0.002 A 
ATOM      7  C8  UNL d   1      -2.823  -1.259   3.372  0.00  0.00     0.006 A 
ENDROOT
BRANCH   1   8
ATOM      8  C1  UNL d   1      -2.239   0.603   1.773  0.00  0.00     0.054 C 
ATOM      9  C   UNL d   1      -1.965   0.016   0.395  0.00  0.00     0.018 C 
ENDBRANCH   1   8
TORSDOF 1
ENDMDL
