MODEL 1
REMARK minimizedAffinity 1.38185215
REMARK minimizedRMSD -1
REMARK  1 active torsions:
REMARK  status: ('A' for Active; 'I' for Inactive)
REMARK    1  A    between atoms: C1_2  and  C2_3 
ROOT
ATOM      1  C2  UNL d   1      -0.832  -0.126   1.140  0.00  0.00    -0.081 A 
ATOM      2  C3  UNL d   1      -0.989  -0.686  -0.134  0.00  0.00     0.006 A 
ATOM      3  C4  UNL d   1      -2.166  -0.479  -0.858  0.00  0.00     0.002 A 
ATOM      4  C5  UNL d   1      -3.200   0.297  -0.325  0.00  0.00    -0.080 A 
ATOM      5  C6  UNL d   1      -4.456   0.552  -1.104  0.00  0.00     0.076 C 
ATOM      6  C7  UNL d   1      -3.050   0.842   0.955  0.00  0.00     0.002 A 
ATOM      7  C8  UNL d   1      -1.874   0.635   1.680  0.00  0.00     0.006 A 
ENDROOT
BRANCH   1   8
ATOM      8  C1  UNL d   1       0.461  -0.294   1.896  0.00  0.00     0.054 C 
ATOM      9  C   UNL d   1       1.662  -0.204   0.965  0.00  0.00     0.018 C 
ENDBRANCH   1   8
TORSDOF 1
ENDMDL
