MODEL 1
REMARK minimizedAffinity -2.20960307
REMARK minimizedRMSD -1
REMARK  1 active torsions:
REMARK  status: ('A' for Active; 'I' for Inactive)
REMARK    1  A    between atoms: C1_2  and  C2_3 
ROOT
ATOM      1  C2  UNL d   1       0.587  -1.304   3.960  0.00  0.00    -0.081 A 
ATOM      2  C3  UNL d   1       0.017  -2.372   4.664  0.00  0.00     0.006 A 
ATOM      3  C4  UNL d   1      -1.370  -2.524   4.721  0.00  0.00     0.002 A 
ATOM      4  C5  UNL d   1      -2.211  -1.615   4.068  0.00  0.00    -0.080 A 
ATOM      5  C6  UNL d   1      -3.701  -1.784   4.096  0.00  0.00     0.076 C 
ATOM      6  C7  UNL d   1      -1.642  -0.538   3.380  0.00  0.00     0.002 A 
ATOM      7  C8  UNL d   1      -0.255  -0.386   3.323  0.00  0.00     0.006 A 
ENDROOT
BRANCH   1   8
ATOM      8  C1  UNL d   1       2.084  -1.175   3.843  0.00  0.00     0.054 C 
ATOM      9  C   UNL d   1       2.750  -1.198   5.211  0.00  0.00     0.018 C 
ENDBRANCH   1   8
TORSDOF 1
ENDMDL
