MODEL 1
REMARK minimizedAffinity 13.9576912
REMARK minimizedRMSD -1
REMARK  0 active torsions:
REMARK  status: ('A' for Active; 'I' for Inactive)
ROOT
ATOM      1  C1  DEN d   1       0.726   5.931   0.913  0.00  0.00     0.130 A 
ATOM      2  C2  DEN d   1      -0.407   5.999  -0.007  0.00  0.00    -0.031 A 
ATOM      3  C3  DEN d   1      -0.790   4.618  -0.362  0.00  0.00     0.027 A 
ATOM      4  C4  DEN d   1       0.251   2.393   0.422  0.00  0.00     0.027 A 
ATOM      5  C5  DEN d   1       1.240   1.827   1.195  0.00  0.00    -0.003 A 
ATOM      6  C6  DEN d   1       2.142   2.584   1.896  0.00  0.00     0.001 A 
ATOM      7  C7  DEN d   1       2.043   3.950   1.873  0.00  0.00     0.017 A 
ATOM      8  C8  DEN d   1       1.053   4.528   1.090  0.00  0.00    -0.094 A 
ATOM      9  C9  DEN d   1       0.144   3.745   0.399  0.00  0.00    -0.072 A 
ENDROOT
TORSDOF 0
ENDMDL
