MODEL 1
REMARK minimizedAffinity -1.4740634
REMARK minimizedRMSD -1
REMARK  0 active torsions:
REMARK  status: ('A' for Active; 'I' for Inactive)
ROOT
ATOM      1  C1  DEN d   1       4.647   5.091  -3.004  0.00  0.00     0.130 A 
ATOM      2  C2  DEN d   1       3.377   5.465  -3.620  0.00  0.00    -0.031 A 
ATOM      3  C3  DEN d   1       2.850   4.284  -4.334  0.00  0.00     0.027 A 
ATOM      4  C4  DEN d   1       3.870   1.924  -4.540  0.00  0.00     0.027 A 
ATOM      5  C5  DEN d   1       4.943   1.131  -4.197  0.00  0.00    -0.003 A 
ATOM      6  C6  DEN d   1       5.999   1.608  -3.466  0.00  0.00     0.001 A 
ATOM      7  C7  DEN d   1       5.985   2.902  -3.017  0.00  0.00     0.017 A 
ATOM      8  C8  DEN d   1       4.911   3.709  -3.365  0.00  0.00    -0.094 A 
ATOM      9  C9  DEN d   1       3.847   3.206  -4.094  0.00  0.00    -0.072 A 
ENDROOT
TORSDOF 0
ENDMDL
