MODEL 1
REMARK minimizedAffinity 8.29848289
REMARK minimizedRMSD -1
REMARK  0 active torsions:
REMARK  status: ('A' for Active; 'I' for Inactive)
ROOT
ATOM      1  C1  DEN d   1       2.344   2.620   0.015  0.00  0.00     0.130 A 
ATOM      2  C2  DEN d   1       1.602   2.909   1.239  0.00  0.00    -0.031 A 
ATOM      3  C3  DEN d   1       0.351   2.124   1.211  0.00  0.00     0.027 A 
ATOM      4  C4  DEN d   1      -0.501   0.494  -0.598  0.00  0.00     0.027 A 
ATOM      5  C5  DEN d   1      -0.223  -0.066  -1.825  0.00  0.00    -0.003 A 
ATOM      6  C6  DEN d   1       0.905   0.252  -2.534  0.00  0.00     0.001 A 
ATOM      7  C7  DEN d   1       1.819   1.122  -2.001  0.00  0.00     0.017 A 
ATOM      8  C8  DEN d   1       1.541   1.697  -0.768  0.00  0.00    -0.094 A 
ATOM      9  C9  DEN d   1       0.402   1.353  -0.061  0.00  0.00    -0.072 A 
ENDROOT
TORSDOF 0
ENDMDL
