MODEL 1
REMARK minimizedAffinity -2.44996905
REMARK minimizedRMSD -1
REMARK  0 active torsions:
REMARK  status: ('A' for Active; 'I' for Inactive)
ROOT
ATOM      1  C1  DEN d   1       1.274  -0.992  -1.730  0.00  0.00     0.130 A 
ATOM      2  C2  DEN d   1       1.060  -2.188  -0.919  0.00  0.00    -0.031 A 
ATOM      3  C3  DEN d   1      -0.027  -1.903   0.038  0.00  0.00     0.027 A 
ATOM      4  C4  DEN d   1      -1.396   0.262   0.340  0.00  0.00     0.027 A 
ATOM      5  C5  DEN d   1      -1.570   1.553  -0.109  0.00  0.00    -0.003 A 
ATOM      6  C6  DEN d   1      -0.791   2.092  -1.099  0.00  0.00     0.001 A 
ATOM      7  C7  DEN d   1       0.168   1.323  -1.703  0.00  0.00     0.017 A 
ATOM      8  C8  DEN d   1       0.354   0.023  -1.251  0.00  0.00    -0.094 A 
ATOM      9  C9  DEN d   1      -0.452  -0.508  -0.258  0.00  0.00    -0.072 A 
ENDROOT
TORSDOF 0
ENDMDL
