MODEL 1
REMARK minimizedAffinity -4.18121052
REMARK minimizedRMSD -1
REMARK  0 active torsions:
REMARK  status: ('A' for Active; 'I' for Inactive)
ROOT
ATOM      1  C1  DEN d   1       1.269  -1.525  -5.381  0.00  0.00     0.130 A 
ATOM      2  C2  DEN d   1       1.458  -2.971  -5.442  0.00  0.00    -0.031 A 
ATOM      3  C3  DEN d   1       1.712  -3.456  -4.070  0.00  0.00     0.027 A 
ATOM      4  C4  DEN d   1       1.826  -2.115  -1.870  0.00  0.00     0.027 A 
ATOM      5  C5  DEN d   1       1.742  -0.857  -1.317  0.00  0.00    -0.003 A 
ATOM      6  C6  DEN d   1       1.530   0.263  -2.078  0.00  0.00     0.001 A 
ATOM      7  C7  DEN d   1       1.350   0.140  -3.430  0.00  0.00     0.017 A 
ATOM      8  C8  DEN d   1       1.441  -1.125  -3.996  0.00  0.00    -0.094 A 
ATOM      9  C9  DEN d   1       1.644  -2.246  -3.209  0.00  0.00    -0.072 A 
ENDROOT
TORSDOF 0
ENDMDL
