MODEL 1
REMARK minimizedAffinity 1.52989137
REMARK minimizedRMSD -1
REMARK  0 active torsions:
REMARK  status: ('A' for Active; 'I' for Inactive)
ROOT
ATOM      1  C1  DEN d   1      -0.688  -1.355   0.159  0.00  0.00     0.130 A 
ATOM      2  C2  DEN d   1       0.016  -1.356  -1.120  0.00  0.00    -0.031 A 
ATOM      3  C3  DEN d   1       0.694  -0.053  -1.269  0.00  0.00     0.027 A 
ATOM      4  C4  DEN d   1       0.725   1.955   0.350  0.00  0.00     0.027 A 
ATOM      5  C5  DEN d   1       0.263   2.430   1.558  0.00  0.00    -0.003 A 
ATOM      6  C6  DEN d   1      -0.569   1.696   2.361  0.00  0.00     0.001 A 
ATOM      7  C7  DEN d   1      -0.929   0.428   1.988  0.00  0.00     0.017 A 
ATOM      8  C8  DEN d   1      -0.473  -0.055   0.768  0.00  0.00    -0.094 A 
ATOM      9  C9  DEN d   1       0.377   0.697  -0.024  0.00  0.00    -0.072 A 
ENDROOT
TORSDOF 0
ENDMDL
