MODEL 1
REMARK minimizedAffinity -1.46889961
REMARK minimizedRMSD -1
REMARK  0 active torsions:
REMARK  status: ('A' for Active; 'I' for Inactive)
ROOT
ATOM      1  C1  DEN d   1      -0.737   2.133  -1.698  0.00  0.00     0.130 A 
ATOM      2  C2  DEN d   1      -0.606   0.822  -1.069  0.00  0.00    -0.031 A 
ATOM      3  C3  DEN d   1      -0.403   1.028   0.379  0.00  0.00     0.027 A 
ATOM      4  C4  DEN d   1      -0.285   3.240   1.702  0.00  0.00     0.027 A 
ATOM      5  C5  DEN d   1      -0.331   4.613   1.600  0.00  0.00    -0.003 A 
ATOM      6  C6  DEN d   1      -0.480   5.251   0.397  0.00  0.00     0.001 A 
ATOM      7  C7  DEN d   1      -0.634   4.514  -0.748  0.00  0.00     0.017 A 
ATOM      8  C8  DEN d   1      -0.581   3.130  -0.654  0.00  0.00    -0.094 A 
ATOM      9  C9  DEN d   1      -0.442   2.503   0.573  0.00  0.00    -0.072 A 
ENDROOT
TORSDOF 0
ENDMDL
