MODEL 1
REMARK minimizedAffinity -2.93993759
REMARK minimizedRMSD -1
REMARK  0 active torsions:
REMARK  status: ('A' for Active; 'I' for Inactive)
ROOT
ATOM      1  C1  DEN d   1       0.331   1.253  -1.455  0.00  0.00     0.130 A 
ATOM      2  C2  DEN d   1      -0.436   1.717  -0.302  0.00  0.00    -0.031 A 
ATOM      3  C3  DEN d   1      -0.634   0.570   0.606  0.00  0.00     0.027 A 
ATOM      4  C4  DEN d   1       0.173  -1.866   0.345  0.00  0.00     0.027 A 
ATOM      5  C5  DEN d   1       0.852  -2.741  -0.473  0.00  0.00    -0.003 A 
ATOM      6  C6  DEN d   1       1.371  -2.359  -1.682  0.00  0.00     0.001 A 
ATOM      7  C7  DEN d   1       1.259  -1.055  -2.086  0.00  0.00     0.017 A 
ATOM      8  C8  DEN d   1       0.569  -0.167  -1.270  0.00  0.00    -0.094 A 
ATOM      9  C9  DEN d   1       0.062  -0.571  -0.047  0.00  0.00    -0.072 A 
ENDROOT
TORSDOF 0
ENDMDL
