MODEL 1
REMARK minimizedAffinity -4.19135237
REMARK minimizedRMSD -1
REMARK  0 active torsions:
REMARK  status: ('A' for Active; 'I' for Inactive)
ROOT
ATOM      1  C1  DEN d   1       5.873  -0.152   6.000  0.00  0.00     0.130 A 
ATOM      2  C2  DEN d   1       5.627  -1.494   5.480  0.00  0.00    -0.031 A 
ATOM      3  C3  DEN d   1       5.258  -1.371   4.055  0.00  0.00     0.027 A 
ATOM      4  C4  DEN d   1       5.051   0.756   2.610  0.00  0.00     0.027 A 
ATOM      5  C5  DEN d   1       5.152   2.129   2.614  0.00  0.00    -0.003 A 
ATOM      6  C6  DEN d   1       5.464   2.835   3.746  0.00  0.00     0.001 A 
ATOM      7  C7  DEN d   1       5.731   2.167   4.911  0.00  0.00     0.017 A 
ATOM      8  C8  DEN d   1       5.625   0.782   4.917  0.00  0.00    -0.094 A 
ATOM      9  C9  DEN d   1       5.320   0.086   3.760  0.00  0.00    -0.072 A 
ENDROOT
TORSDOF 0
ENDMDL
