MODEL 1
REMARK minimizedAffinity -3.5434444
REMARK minimizedRMSD -1
REMARK  0 active torsions:
REMARK  status: ('A' for Active; 'I' for Inactive)
ROOT
ATOM      1  C1  DEN d   1      -0.300   1.072  -1.211  0.00  0.00     0.130 A 
ATOM      2  C2  DEN d   1      -1.566   0.994  -0.487  0.00  0.00    -0.031 A 
ATOM      3  C3  DEN d   1      -1.678  -0.360   0.090  0.00  0.00     0.027 A 
ATOM      4  C4  DEN d   1      -0.022  -2.332  -0.061  0.00  0.00     0.027 A 
ATOM      5  C5  DEN d   1       1.185  -2.746  -0.578  0.00  0.00    -0.003 A 
ATOM      6  C6  DEN d   1       1.960  -1.935  -1.365  0.00  0.00     0.001 A 
ATOM      7  C7  DEN d   1       1.557  -0.651  -1.619  0.00  0.00     0.017 A 
ATOM      8  C8  DEN d   1       0.337  -0.228  -1.107  0.00  0.00    -0.094 A 
ATOM      9  C9  DEN d   1      -0.426  -1.059  -0.304  0.00  0.00    -0.072 A 
ENDROOT
TORSDOF 0
ENDMDL
