MODEL 1
REMARK minimizedAffinity 0.313449323
REMARK minimizedRMSD -1
REMARK  0 active torsions:
REMARK  status: ('A' for Active; 'I' for Inactive)
ROOT
ATOM      1  C1  DEN d   1       0.599   1.087  -2.799  0.00  0.00     0.130 A 
ATOM      2  C2  DEN d   1       1.392   0.809  -3.994  0.00  0.00    -0.031 A 
ATOM      3  C3  DEN d   1       1.974  -0.540  -3.852  0.00  0.00     0.027 A 
ATOM      4  C4  DEN d   1       1.723  -2.220  -1.911  0.00  0.00     0.027 A 
ATOM      5  C5  DEN d   1       1.158  -2.427  -0.672  0.00  0.00    -0.003 A 
ATOM      6  C6  DEN d   1       0.401  -1.473  -0.045  0.00  0.00     0.001 A 
ATOM      7  C7  DEN d   1       0.151  -0.283  -0.676  0.00  0.00     0.017 A 
ATOM      8  C8  DEN d   1       0.724  -0.063  -1.922  0.00  0.00    -0.094 A 
ATOM      9  C9  DEN d   1       1.476  -1.046  -2.544  0.00  0.00    -0.072 A 
ENDROOT
TORSDOF 0
ENDMDL
