MODEL 1
REMARK minimizedAffinity -0.491873443
REMARK minimizedRMSD -1
REMARK  0 active torsions:
REMARK  status: ('A' for Active; 'I' for Inactive)
ROOT
ATOM      1  C1  DEN d   1      -0.919  -0.132   0.026  0.00  0.00     0.130 A 
ATOM      2  C2  DEN d   1      -0.742  -1.350   0.812  0.00  0.00    -0.031 A 
ATOM      3  C3  DEN d   1       0.368  -2.120   0.217  0.00  0.00     0.027 A 
ATOM      4  C4  DEN d   1       1.827  -1.546  -1.831  0.00  0.00     0.027 A 
ATOM      5  C5  DEN d   1       2.045  -0.623  -2.830  0.00  0.00    -0.003 A 
ATOM      6  C6  DEN d   1       1.276   0.502  -2.967  0.00  0.00     0.001 A 
ATOM      7  C7  DEN d   1       0.279   0.756  -2.062  0.00  0.00     0.017 A 
ATOM      8  C8  DEN d   1       0.048  -0.173  -1.056  0.00  0.00    -0.094 A 
ATOM      9  C9  DEN d   1       0.845  -1.298  -0.928  0.00  0.00    -0.072 A 
ENDROOT
TORSDOF 0
ENDMDL
