MODEL 1
REMARK minimizedAffinity -3.47422075
REMARK minimizedRMSD -1
REMARK  0 active torsions:
REMARK  status: ('A' for Active; 'I' for Inactive)
ROOT
ATOM      1  C1  DEN d   1      -0.883  -0.302  -1.151  0.00  0.00     0.130 A 
ATOM      2  C2  DEN d   1      -0.760  -1.070   0.085  0.00  0.00    -0.031 A 
ATOM      3  C3  DEN d   1       0.616  -1.603   0.156  0.00  0.00     0.027 A 
ATOM      4  C4  DEN d   1       2.558  -1.311  -1.516  0.00  0.00     0.027 A 
ATOM      5  C5  DEN d   1       2.929  -0.752  -2.719  0.00  0.00    -0.003 A 
ATOM      6  C6  DEN d   1       2.053  -0.039  -3.493  0.00  0.00     0.001 A 
ATOM      7  C7  DEN d   1       0.774   0.173  -3.052  0.00  0.00     0.017 A 
ATOM      8  C8  DEN d   1       0.390  -0.393  -1.844  0.00  0.00    -0.094 A 
ATOM      9  C9  DEN d   1       1.294  -1.101  -1.069  0.00  0.00    -0.072 A 
ENDROOT
TORSDOF 0
ENDMDL
