MODEL 1
REMARK minimizedAffinity -2.87066174
REMARK minimizedRMSD -1
REMARK  0 active torsions:
REMARK  status: ('A' for Active; 'I' for Inactive)
ROOT
ATOM      1  C1  DEN d   1      -2.264  -0.381   2.413  0.00  0.00     0.130 A 
ATOM      2  C2  DEN d   1      -2.014   0.865   3.133  0.00  0.00    -0.031 A 
ATOM      3  C3  DEN d   1      -0.886   1.554   2.475  0.00  0.00     0.027 A 
ATOM      4  C4  DEN d   1       0.488   0.818   0.419  0.00  0.00     0.027 A 
ATOM      5  C5  DEN d   1       0.654  -0.172  -0.524  0.00  0.00    -0.003 A 
ATOM      6  C6  DEN d   1      -0.112  -1.308  -0.533  0.00  0.00     0.001 A 
ATOM      7  C7  DEN d   1      -1.111  -1.461   0.392  0.00  0.00     0.017 A 
ATOM      8  C8  DEN d   1      -1.279  -0.470   1.350  0.00  0.00    -0.094 A 
ATOM      9  C9  DEN d   1      -0.503   0.676   1.336  0.00  0.00    -0.072 A 
ENDROOT
TORSDOF 0
ENDMDL
