MODEL 1
REMARK minimizedAffinity -0.187468678
REMARK minimizedRMSD -1
REMARK  0 active torsions:
REMARK  status: ('A' for Active; 'I' for Inactive)
ROOT
ATOM      1  C1  DEN d   1      -0.726   0.962  -0.766  0.00  0.00     0.130 A 
ATOM      2  C2  DEN d   1      -1.017   0.049   0.335  0.00  0.00    -0.031 A 
ATOM      3  C3  DEN d   1      -0.237  -1.187   0.122  0.00  0.00     0.027 A 
ATOM      4  C4  DEN d   1       1.388  -1.769  -1.794  0.00  0.00     0.027 A 
ATOM      5  C5  DEN d   1       1.950  -1.315  -2.967  0.00  0.00    -0.003 A 
ATOM      6  C6  DEN d   1       1.635  -0.094  -3.502  0.00  0.00     0.001 A 
ATOM      7  C7  DEN d   1       0.769   0.735  -2.839  0.00  0.00     0.017 A 
ATOM      8  C8  DEN d   1       0.193   0.281  -1.660  0.00  0.00    -0.094 A 
ATOM      9  C9  DEN d   1       0.533  -0.952  -1.129  0.00  0.00    -0.072 A 
ENDROOT
TORSDOF 0
ENDMDL
