MODEL 1
REMARK minimizedAffinity -2.71936774
REMARK minimizedRMSD -1
REMARK  0 active torsions:
REMARK  status: ('A' for Active; 'I' for Inactive)
ROOT
ATOM      1  C1  DEN d   1      -0.219  -0.999   0.685  0.00  0.00     0.130 A 
ATOM      2  C2  DEN d   1       0.285  -0.791  -0.669  0.00  0.00    -0.031 A 
ATOM      3  C3  DEN d   1       0.513   0.656  -0.855  0.00  0.00     0.027 A 
ATOM      4  C4  DEN d   1       0.140   2.585   0.817  0.00  0.00     0.027 A 
ATOM      5  C5  DEN d   1      -0.287   2.902   2.087  0.00  0.00    -0.003 A 
ATOM      6  C6  DEN d   1      -0.750   1.954   2.960  0.00  0.00     0.001 A 
ATOM      7  C7  DEN d   1      -0.754   0.635   2.590  0.00  0.00     0.017 A 
ATOM      8  C8  DEN d   1      -0.332   0.308   1.308  0.00  0.00    -0.094 A 
ATOM      9  C9  DEN d   1       0.144   1.280   0.445  0.00  0.00    -0.072 A 
ENDROOT
TORSDOF 0
ENDMDL
