MODEL 1
REMARK minimizedAffinity -4.00374508
REMARK minimizedRMSD -1
REMARK  0 active torsions:
REMARK  status: ('A' for Active; 'I' for Inactive)
ROOT
ATOM      1  C1  DEN d   1      -1.379   0.923  -0.786  0.00  0.00     0.130 A 
ATOM      2  C2  DEN d   1      -0.856   1.843  -1.793  0.00  0.00    -0.031 A 
ATOM      3  C3  DEN d   1       0.365   1.244  -2.368  0.00  0.00     0.027 A 
ATOM      4  C4  DEN d   1       1.489  -1.008  -1.804  0.00  0.00     0.027 A 
ATOM      5  C5  DEN d   1       1.418  -2.129  -1.008  0.00  0.00    -0.003 A 
ATOM      6  C6  DEN d   1       0.438  -2.295  -0.065  0.00  0.00     0.001 A 
ATOM      7  C7  DEN d   1      -0.538  -1.344   0.073  0.00  0.00     0.017 A 
ATOM      8  C8  DEN d   1      -0.470  -0.207  -0.721  0.00  0.00    -0.094 A 
ATOM      9  C9  DEN d   1       0.522  -0.064  -1.677  0.00  0.00    -0.072 A 
ENDROOT
TORSDOF 0
ENDMDL
