MODEL 1
REMARK minimizedAffinity -1.36726499
REMARK minimizedRMSD -1
REMARK  1 active torsions:
REMARK  status: ('A' for Active; 'I' for Inactive)
REMARK    1  A    between atoms: C3_4  and  O_7 
ROOT
ATOM      1  C   UNL d   1       5.734  -1.923  -5.101  0.00  0.00    -0.033 A 
ATOM      2  C1  UNL d   1       4.681  -1.806  -4.192  0.00  0.00     0.039 A 
ATOM      3  C2  UNL d   1       3.894  -0.653  -4.177  0.00  0.00    -0.080 A 
ATOM      4  C3  UNL d   1       4.169   0.374  -5.075  0.00  0.00     0.150 A 
ATOM      5  C4  UNL d   1       5.214   0.263  -5.987  0.00  0.00    -0.007 A 
ATOM      6  C5  UNL d   1       6.000  -0.889  -6.000  0.00  0.00     0.039 A 
ENDROOT
BRANCH   4   7
ATOM      7  O   UNL d   1       3.431   1.520  -5.095  0.00  0.00    -0.526 OA
ATOM      8  H5  UNL d   1       2.763   1.468  -4.392  0.00  0.00     0.418 HD
ENDBRANCH   4   7
TORSDOF 1
ENDMDL
