MODEL 1
REMARK minimizedAffinity 0.967730165
REMARK minimizedRMSD -1
REMARK  1 active torsions:
REMARK  status: ('A' for Active; 'I' for Inactive)
REMARK    1  A    between atoms: C3_4  and  O_7 
ROOT
ATOM      1  C   UNL d   1      -5.786  -5.398  -1.985  0.00  0.00    -0.033 A 
ATOM      2  C1  UNL d   1      -5.932  -6.000  -3.236  0.00  0.00     0.039 A 
ATOM      3  C2  UNL d   1      -5.999  -5.213  -4.388  0.00  0.00    -0.080 A 
ATOM      4  C3  UNL d   1      -5.918  -3.828  -4.275  0.00  0.00     0.150 A 
ATOM      5  C4  UNL d   1      -5.768  -3.222  -3.032  0.00  0.00    -0.007 A 
ATOM      6  C5  UNL d   1      -5.702  -4.009  -1.883  0.00  0.00     0.039 A 
ENDROOT
BRANCH   4   7
ATOM      7  O   UNL d   1      -5.983  -3.019  -5.370  0.00  0.00    -0.526 OA
ATOM      8  H5  UNL d   1      -6.116  -3.574  -6.156  0.00  0.00     0.418 HD
ENDBRANCH   4   7
TORSDOF 1
ENDMDL
