MODEL 1
REMARK minimizedAffinity -2.94099402
REMARK minimizedRMSD -1
REMARK  1 active torsions:
REMARK  status: ('A' for Active; 'I' for Inactive)
REMARK    1  A    between atoms: C3_4  and  O_7 
ROOT
ATOM      1  C   UNL d   1      -4.760  -5.630  -5.761  0.00  0.00    -0.033 A 
ATOM      2  C1  UNL d   1      -5.943  -5.281  -5.106  0.00  0.00     0.039 A 
ATOM      3  C2  UNL d   1      -6.000  -5.292  -3.711  0.00  0.00    -0.080 A 
ATOM      4  C3  UNL d   1      -4.869  -5.652  -2.983  0.00  0.00     0.150 A 
ATOM      5  C4  UNL d   1      -3.686  -5.997  -3.629  0.00  0.00    -0.007 A 
ATOM      6  C5  UNL d   1      -3.631  -5.986  -5.022  0.00  0.00     0.039 A 
ENDROOT
BRANCH   4   7
ATOM      7  O   UNL d   1      -4.878  -5.682  -1.621  0.00  0.00    -0.526 OA
ATOM      8  H5  UNL d   1      -5.770  -5.448  -1.314  0.00  0.00     0.418 HD
ENDBRANCH   4   7
TORSDOF 1
ENDMDL
