MODEL 1
REMARK minimizedAffinity -2.76078367
REMARK minimizedRMSD -1
REMARK  1 active torsions:
REMARK  status: ('A' for Active; 'I' for Inactive)
REMARK    1  A    between atoms: C3_4  and  O_7 
ROOT
ATOM      1  C   UNL d   1      -4.898  -5.978  -3.724  0.00  0.00    -0.033 A 
ATOM      2  C1  UNL d   1      -4.684  -6.000  -5.103  0.00  0.00     0.039 A 
ATOM      3  C2  UNL d   1      -5.045  -4.900  -5.885  0.00  0.00    -0.080 A 
ATOM      4  C3  UNL d   1      -5.618  -3.787  -5.275  0.00  0.00     0.150 A 
ATOM      5  C4  UNL d   1      -5.830  -3.758  -3.901  0.00  0.00    -0.007 A 
ATOM      6  C5  UNL d   1      -5.469  -4.857  -3.122  0.00  0.00     0.039 A 
ENDROOT
BRANCH   4   7
ATOM      7  O   UNL d   1      -5.991  -2.693  -5.997  0.00  0.00    -0.526 OA
ATOM      8  H5  UNL d   1      -5.811  -2.867  -6.935  0.00  0.00     0.418 HD
ENDBRANCH   4   7
TORSDOF 1
ENDMDL
