MODEL 1
REMARK minimizedAffinity -3.8493638
REMARK minimizedRMSD -1
REMARK  1 active torsions:
REMARK  status: ('A' for Active; 'I' for Inactive)
REMARK    1  A    between atoms: C3_4  and  O_7 
ROOT
ATOM      1  C   UNL d   1      -4.493  -4.940  -1.973  0.00  0.00    -0.033 A 
ATOM      2  C1  UNL d   1      -5.252  -3.882  -2.478  0.00  0.00     0.039 A 
ATOM      3  C2  UNL d   1      -5.647  -3.881  -3.817  0.00  0.00    -0.080 A 
ATOM      4  C3  UNL d   1      -5.277  -4.941  -4.640  0.00  0.00     0.150 A 
ATOM      5  C4  UNL d   1      -4.524  -6.000  -4.143  0.00  0.00    -0.007 A 
ATOM      6  C5  UNL d   1      -4.130  -5.999  -2.805  0.00  0.00     0.039 A 
ENDROOT
BRANCH   4   7
ATOM      7  O   UNL d   1      -5.635  -4.981  -5.955  0.00  0.00    -0.526 OA
ATOM      8  H5  UNL d   1      -6.127  -4.170  -6.164  0.00  0.00     0.418 HD
ENDBRANCH   4   7
TORSDOF 1
ENDMDL
