MODEL 1
REMARK minimizedAffinity 0.452043653
REMARK minimizedRMSD -1
REMARK  1 active torsions:
REMARK  status: ('A' for Active; 'I' for Inactive)
REMARK    1  A    between atoms: C3_4  and  O_7 
ROOT
ATOM      1  C   UNL d   1       5.998  -0.670  -4.686  0.00  0.00    -0.033 A 
ATOM      2  C1  UNL d   1       6.000  -1.496  -3.560  0.00  0.00     0.039 A 
ATOM      3  C2  UNL d   1       4.802  -2.031  -3.083  0.00  0.00    -0.080 A 
ATOM      4  C3  UNL d   1       3.611  -1.733  -3.739  0.00  0.00     0.150 A 
ATOM      5  C4  UNL d   1       3.602  -0.914  -4.863  0.00  0.00    -0.007 A 
ATOM      6  C5  UNL d   1       4.799  -0.380  -5.338  0.00  0.00     0.039 A 
ENDROOT
BRANCH   4   7
ATOM      7  O   UNL d   1       2.416  -2.228  -3.306  0.00  0.00    -0.526 OA
ATOM      8  H5  UNL d   1       2.573  -2.754  -2.504  0.00  0.00     0.418 HD
ENDBRANCH   4   7
TORSDOF 1
ENDMDL
