MODEL 1
REMARK minimizedAffinity -1.64387488
REMARK minimizedRMSD -1
REMARK  1 active torsions:
REMARK  status: ('A' for Active; 'I' for Inactive)
REMARK    1  A    between atoms: C3_4  and  O_7 
ROOT
ATOM      1  C   UNL d   1      -5.304  -5.951  -3.575  0.00  0.00    -0.033 A 
ATOM      2  C1  UNL d   1      -5.724  -4.768  -2.964  0.00  0.00     0.039 A 
ATOM      3  C2  UNL d   1      -5.958  -3.627  -3.735  0.00  0.00    -0.080 A 
ATOM      4  C3  UNL d   1      -5.771  -3.683  -5.113  0.00  0.00     0.150 A 
ATOM      5  C4  UNL d   1      -5.357  -4.860  -5.729  0.00  0.00    -0.007 A 
ATOM      6  C5  UNL d   1      -5.123  -5.997  -4.958  0.00  0.00     0.039 A 
ENDROOT
BRANCH   4   7
ATOM      7  O   UNL d   1      -5.983  -2.594  -5.906  0.00  0.00    -0.526 OA
ATOM      8  H5  UNL d   1      -6.237  -1.846  -5.340  0.00  0.00     0.418 HD
ENDBRANCH   4   7
TORSDOF 1
ENDMDL
