MODEL 1
REMARK minimizedAffinity 1.61207759
REMARK minimizedRMSD -1
REMARK  1 active torsions:
REMARK  status: ('A' for Active; 'I' for Inactive)
REMARK    1  A    between atoms: C3_4  and  O_7 
ROOT
ATOM      1  C   UNL d   1       4.640   1.171  -5.999  0.00  0.00    -0.033 A 
ATOM      2  C1  UNL d   1       5.773   0.356  -5.980  0.00  0.00     0.039 A 
ATOM      3  C2  UNL d   1       6.000  -0.504  -4.903  0.00  0.00    -0.080 A 
ATOM      4  C3  UNL d   1       5.086  -0.539  -3.854  0.00  0.00     0.150 A 
ATOM      5  C4  UNL d   1       3.953   0.268  -3.867  0.00  0.00    -0.007 A 
ATOM      6  C5  UNL d   1       3.729   1.126  -4.943  0.00  0.00     0.039 A 
ENDROOT
BRANCH   4   7
ATOM      7  O   UNL d   1       5.266  -1.358  -2.779  0.00  0.00    -0.526 OA
ATOM      8  H5  UNL d   1       6.105  -1.835  -2.893  0.00  0.00     0.418 HD
ENDBRANCH   4   7
TORSDOF 1
ENDMDL
