MODEL 1
REMARK minimizedAffinity 4.78737164
REMARK minimizedRMSD -1
REMARK  0 active torsions:
REMARK  status: ('A' for Active; 'I' for Inactive)
ROOT
ATOM      1  C1  DEN d   1       2.000   2.672  -5.965  0.00  0.00     0.130 A 
ATOM      2  C2  DEN d   1       0.755   3.433  -5.916  0.00  0.00    -0.031 A 
ATOM      3  C3  DEN d   1       1.097   4.869  -5.906  0.00  0.00     0.027 A 
ATOM      4  C4  DEN d   1       3.423   5.983  -5.966  0.00  0.00     0.027 A 
ATOM      5  C5  DEN d   1       4.780   5.748  -6.000  0.00  0.00    -0.003 A 
ATOM      6  C6  DEN d   1       5.302   4.481  -5.990  0.00  0.00     0.001 A 
ATOM      7  C7  DEN d   1       4.460   3.400  -5.991  0.00  0.00     0.017 A 
ATOM      8  C8  DEN d   1       3.091   3.629  -5.949  0.00  0.00    -0.094 A 
ATOM      9  C9  DEN d   1       2.583   4.917  -5.972  0.00  0.00    -0.072 A 
ENDROOT
TORSDOF 0
ENDMDL
