MODEL 1
REMARK minimizedAffinity 19.0424271
REMARK minimizedRMSD -1
REMARK  0 active torsions:
REMARK  status: ('A' for Active; 'I' for Inactive)
ROOT
ATOM      1  C1  DEN d   1      -2.729  -5.890  -0.509  0.00  0.00     0.130 A 
ATOM      2  C2  DEN d   1      -4.008  -6.000  -1.206  0.00  0.00    -0.031 A 
ATOM      3  C3  DEN d   1      -4.674  -4.683  -1.147  0.00  0.00     0.027 A 
ATOM      4  C4  DEN d   1      -3.852  -2.496  -0.055  0.00  0.00     0.027 A 
ATOM      5  C5  DEN d   1      -2.831  -1.915   0.665  0.00  0.00    -0.003 A 
ATOM      6  C6  DEN d   1      -1.730  -2.622   1.070  0.00  0.00     0.001 A 
ATOM      7  C7  DEN d   1      -1.602  -3.939   0.719  0.00  0.00     0.017 A 
ATOM      8  C8  DEN d   1      -2.630  -4.534  -0.001  0.00  0.00    -0.094 A 
ATOM      9  C9  DEN d   1      -3.730  -3.800  -0.412  0.00  0.00    -0.072 A 
ENDROOT
TORSDOF 0
ENDMDL
