MODEL 1
REMARK minimizedAffinity 0.058797542
REMARK minimizedRMSD -1
REMARK  0 active torsions:
REMARK  status: ('A' for Active; 'I' for Inactive)
ROOT
ATOM      1  C1  DEN d   1       2.881   4.392  -3.884  0.00  0.00     0.130 A 
ATOM      2  C2  DEN d   1       2.959   3.466  -2.758  0.00  0.00    -0.031 A 
ATOM      3  C3  DEN d   1       1.694   2.706  -2.703  0.00  0.00     0.027 A 
ATOM      4  C4  DEN d   1      -0.365   2.869  -4.248  0.00  0.00     0.027 A 
ATOM      5  C5  DEN d   1      -0.903   3.520  -5.336  0.00  0.00    -0.003 A 
ATOM      6  C6  DEN d   1      -0.237   4.522  -5.991  0.00  0.00     0.001 A 
ATOM      7  C7  DEN d   1       1.026   4.872  -5.590  0.00  0.00     0.017 A 
ATOM      8  C8  DEN d   1       1.572   4.226  -4.489  0.00  0.00    -0.094 A 
ATOM      9  C9  DEN d   1       0.887   3.207  -3.848  0.00  0.00    -0.072 A 
ENDROOT
TORSDOF 0
ENDMDL
