MODEL 1
REMARK minimizedAffinity 8.23105812
REMARK minimizedRMSD -1
REMARK  0 active torsions:
REMARK  status: ('A' for Active; 'I' for Inactive)
ROOT
ATOM      1  C1  DEN d   1      -0.736   2.162  -4.433  0.00  0.00     0.130 A 
ATOM      2  C2  DEN d   1       0.653   1.841  -4.120  0.00  0.00    -0.031 A 
ATOM      3  C3  DEN d   1       1.487   2.998  -4.503  0.00  0.00     0.027 A 
ATOM      4  C4  DEN d   1       0.764   5.246  -5.541  0.00  0.00     0.027 A 
ATOM      5  C5  DEN d   1      -0.310   5.977  -6.000  0.00  0.00    -0.003 A 
ATOM      6  C6  DEN d   1      -1.586   5.479  -6.000  0.00  0.00     0.001 A 
ATOM      7  C7  DEN d   1      -1.827   4.230  -5.490  0.00  0.00     0.017 A 
ATOM      8  C8  DEN d   1      -0.749   3.484  -5.033  0.00  0.00    -0.094 A 
ATOM      9  C9  DEN d   1       0.532   4.010  -5.030  0.00  0.00    -0.072 A 
ENDROOT
TORSDOF 0
ENDMDL
