MODEL 1
REMARK minimizedAffinity 8.73575497
REMARK minimizedRMSD -1
REMARK  0 active torsions:
REMARK  status: ('A' for Active; 'I' for Inactive)
ROOT
ATOM      1  C1  DEN d   1       1.780   3.370  -3.077  0.00  0.00     0.130 A 
ATOM      2  C2  DEN d   1       1.867   1.913  -3.012  0.00  0.00    -0.031 A 
ATOM      3  C3  DEN d   1       0.910   1.355  -3.989  0.00  0.00     0.027 A 
ATOM      4  C4  DEN d   1      -0.684   2.598  -5.591  0.00  0.00     0.027 A 
ATOM      5  C5  DEN d   1      -1.123   3.838  -6.000  0.00  0.00    -0.003 A 
ATOM      6  C6  DEN d   1      -0.653   4.998  -5.444  0.00  0.00     0.001 A 
ATOM      7  C7  DEN d   1       0.317   4.944  -4.479  0.00  0.00     0.017 A 
ATOM      8  C8  DEN d   1       0.759   3.697  -4.056  0.00  0.00    -0.094 A 
ATOM      9  C9  DEN d   1       0.281   2.536  -4.639  0.00  0.00    -0.072 A 
ENDROOT
TORSDOF 0
ENDMDL
