MODEL 1
REMARK minimizedAffinity 8.97850895
REMARK minimizedRMSD -1
REMARK  0 active torsions:
REMARK  status: ('A' for Active; 'I' for Inactive)
ROOT
ATOM      1  C1  DEN d   1      -0.459  -4.464   3.733  0.00  0.00     0.130 A 
ATOM      2  C2  DEN d   1       0.053  -3.834   2.520  0.00  0.00    -0.031 A 
ATOM      3  C3  DEN d   1      -0.891  -2.769   2.125  0.00  0.00     0.027 A 
ATOM      4  C4  DEN d   1      -3.083  -2.037   3.272  0.00  0.00     0.027 A 
ATOM      5  C5  DEN d   1      -3.936  -2.285   4.324  0.00  0.00    -0.003 A 
ATOM      6  C6  DEN d   1      -3.709  -3.290   5.227  0.00  0.00     0.001 A 
ATOM      7  C7  DEN d   1      -2.579  -4.056   5.120  0.00  0.00     0.017 A 
ATOM      8  C8  DEN d   1      -1.718  -3.818   4.057  0.00  0.00    -0.094 A 
ATOM      9  C9  DEN d   1      -1.958  -2.789   3.162  0.00  0.00    -0.072 A 
ENDROOT
TORSDOF 0
ENDMDL
