MODEL 1
REMARK minimizedAffinity 16.2112465
REMARK minimizedRMSD -1
REMARK  0 active torsions:
REMARK  status: ('A' for Active; 'I' for Inactive)
ROOT
ATOM      1  C1  DEN d   1      -3.751   2.644  -0.748  0.00  0.00     0.130 A 
ATOM      2  C2  DEN d   1      -4.437   1.833   0.254  0.00  0.00    -0.031 A 
ATOM      3  C3  DEN d   1      -3.419   1.274   1.165  0.00  0.00     0.027 A 
ATOM      4  C4  DEN d   1      -0.859   1.590   1.127  0.00  0.00     0.027 A 
ATOM      5  C5  DEN d   1       0.189   2.183   0.458  0.00  0.00    -0.003 A 
ATOM      6  C6  DEN d   1       0.002   2.936  -0.670  0.00  0.00     0.001 A 
ATOM      7  C7  DEN d   1      -1.267   3.155  -1.138  0.00  0.00     0.017 A 
ATOM      8  C8  DEN d   1      -2.328   2.554  -0.473  0.00  0.00    -0.094 A 
ATOM      9  C9  DEN d   1      -2.119   1.806   0.673  0.00  0.00    -0.072 A 
ENDROOT
TORSDOF 0
ENDMDL
