MODEL 1
REMARK minimizedAffinity 11.0334892
REMARK minimizedRMSD -1
REMARK  0 active torsions:
REMARK  status: ('A' for Active; 'I' for Inactive)
ROOT
ATOM      1  C1  DEN d   1       0.170   5.971  -5.880  0.00  0.00     0.130 A 
ATOM      2  C2  DEN d   1       1.131   4.887  -5.694  0.00  0.00    -0.031 A 
ATOM      3  C3  DEN d   1       0.378   3.622  -5.590  0.00  0.00     0.027 A 
ATOM      4  C4  DEN d   1      -2.170   3.236  -5.703  0.00  0.00     0.027 A 
ATOM      5  C5  DEN d   1      -3.394   3.854  -5.839  0.00  0.00    -0.003 A 
ATOM      6  C6  DEN d   1      -3.517   5.212  -5.963  0.00  0.00     0.001 A 
ATOM      7  C7  DEN d   1      -2.393   5.995  -5.999  0.00  0.00     0.017 A 
ATOM      8  C8  DEN d   1      -1.156   5.380  -5.855  0.00  0.00    -0.094 A 
ATOM      9  C9  DEN d   1      -1.052   4.004  -5.743  0.00  0.00    -0.072 A 
ENDROOT
TORSDOF 0
ENDMDL
