MODEL 1
REMARK minimizedAffinity 0.882096112
REMARK minimizedRMSD -1
REMARK  0 active torsions:
REMARK  status: ('A' for Active; 'I' for Inactive)
ROOT
ATOM      1  C1  DEN d   1      -0.287   2.239  -5.911  0.00  0.00     0.130 A 
ATOM      2  C2  DEN d   1       1.125   2.609  -5.940  0.00  0.00    -0.031 A 
ATOM      3  C3  DEN d   1       1.211   4.082  -5.979  0.00  0.00     0.027 A 
ATOM      4  C4  DEN d   1      -0.697   5.818  -5.992  0.00  0.00     0.027 A 
ATOM      5  C5  DEN d   1      -2.064   5.984  -5.988  0.00  0.00    -0.003 A 
ATOM      6  C6  DEN d   1      -2.928   4.921  -5.993  0.00  0.00     0.001 A 
ATOM      7  C7  DEN d   1      -2.434   3.644  -5.956  0.00  0.00     0.017 A 
ATOM      8  C8  DEN d   1      -1.056   3.469  -5.967  0.00  0.00    -0.094 A 
ATOM      9  C9  DEN d   1      -0.199   4.557  -5.950  0.00  0.00    -0.072 A 
ENDROOT
TORSDOF 0
ENDMDL
