MODEL 1
REMARK minimizedAffinity 6.84108448
REMARK minimizedRMSD -1
REMARK  0 active torsions:
REMARK  status: ('A' for Active; 'I' for Inactive)
ROOT
ATOM      1  C1  DEN d   1       0.768   0.890  -3.719  0.00  0.00     0.130 A 
ATOM      2  C2  DEN d   1       2.179   1.190  -3.945  0.00  0.00    -0.031 A 
ATOM      3  C3  DEN d   1       2.260   2.361  -4.840  0.00  0.00     0.027 A 
ATOM      4  C4  DEN d   1       0.347   3.737  -5.888  0.00  0.00     0.027 A 
ATOM      5  C5  DEN d   1      -1.021   3.857  -5.996  0.00  0.00    -0.003 A 
ATOM      6  C6  DEN d   1      -1.881   2.983  -5.385  0.00  0.00     0.001 A 
ATOM      7  C7  DEN d   1      -1.383   1.977  -4.601  0.00  0.00     0.017 A 
ATOM      8  C8  DEN d   1      -0.004   1.845  -4.493  0.00  0.00    -0.094 A 
ATOM      9  C9  DEN d   1       0.848   2.746  -5.109  0.00  0.00    -0.072 A 
ENDROOT
TORSDOF 0
ENDMDL
