MODEL 1
REMARK minimizedAffinity 18.6982651
REMARK minimizedRMSD -1
REMARK  0 active torsions:
REMARK  status: ('A' for Active; 'I' for Inactive)
ROOT
ATOM      1  C1  DEN d   1       3.404   2.824  -5.934  0.00  0.00     0.130 A 
ATOM      2  C2  DEN d   1       4.670   3.551  -5.983  0.00  0.00    -0.031 A 
ATOM      3  C3  DEN d   1       5.113   3.792  -4.595  0.00  0.00     0.027 A 
ATOM      4  C4  DEN d   1       3.970   3.110  -2.386  0.00  0.00     0.027 A 
ATOM      5  C5  DEN d   1       2.872   2.487  -1.836  0.00  0.00    -0.003 A 
ATOM      6  C6  DEN d   1       1.865   1.967  -2.606  0.00  0.00     0.001 A 
ATOM      7  C7  DEN d   1       1.959   2.021  -3.972  0.00  0.00     0.017 A 
ATOM      8  C8  DEN d   1       3.060   2.654  -4.534  0.00  0.00    -0.094 A 
ATOM      9  C9  DEN d   1       4.073   3.162  -3.738  0.00  0.00    -0.072 A 
ENDROOT
TORSDOF 0
ENDMDL
