MODEL 1
REMARK minimizedAffinity 9.07601166
REMARK minimizedRMSD -1
REMARK  0 active torsions:
REMARK  status: ('A' for Active; 'I' for Inactive)
ROOT
ATOM      1  C1  DEN d   1      -3.530  -2.970   5.088  0.00  0.00     0.130 A 
ATOM      2  C2  DEN d   1      -3.592  -4.110   5.998  0.00  0.00    -0.031 A 
ATOM      3  C3  DEN d   1      -2.412  -4.961   5.745  0.00  0.00     0.027 A 
ATOM      4  C4  DEN d   1      -0.501  -4.622   4.046  0.00  0.00     0.027 A 
ATOM      5  C5  DEN d   1      -0.020  -3.805   3.047  0.00  0.00    -0.003 A 
ATOM      6  C6  DEN d   1      -0.686  -2.681   2.638  0.00  0.00     0.001 A 
ATOM      7  C7  DEN d   1      -1.850  -2.316   3.263  0.00  0.00     0.017 A 
ATOM      8  C8  DEN d   1      -2.345  -3.139   4.266  0.00  0.00    -0.094 A 
ATOM      9  C9  DEN d   1      -1.651  -4.265   4.673  0.00  0.00    -0.072 A 
ENDROOT
TORSDOF 0
ENDMDL
