MODEL 1
REMARK minimizedAffinity 0.129058942
REMARK minimizedRMSD -1
REMARK  0 active torsions:
REMARK  status: ('A' for Active; 'I' for Inactive)
ROOT
ATOM      1  C1  DEN d   1      -4.959   3.855  -5.390  0.00  0.00     0.130 A 
ATOM      2  C2  DEN d   1      -5.357   5.223  -5.707  0.00  0.00    -0.031 A 
ATOM      3  C3  DEN d   1      -4.134   5.998  -6.000  0.00  0.00     0.027 A 
ATOM      4  C4  DEN d   1      -1.677   5.214  -6.000  0.00  0.00     0.027 A 
ATOM      5  C5  DEN d   1      -0.841   4.141  -5.781  0.00  0.00    -0.003 A 
ATOM      6  C6  DEN d   1      -1.312   2.917  -5.388  0.00  0.00     0.001 A 
ATOM      7  C7  DEN d   1      -2.661   2.723  -5.244  0.00  0.00     0.017 A 
ATOM      8  C8  DEN d   1      -3.509   3.801  -5.455  0.00  0.00    -0.094 A 
ATOM      9  C9  DEN d   1      -3.015   5.028  -5.864  0.00  0.00    -0.072 A 
ENDROOT
TORSDOF 0
ENDMDL
