MODEL 1
REMARK minimizedAffinity 12.1197319
REMARK minimizedRMSD -1
REMARK  0 active torsions:
REMARK  status: ('A' for Active; 'I' for Inactive)
ROOT
ATOM      1  C1  DEN d   1      -2.538   2.248  -5.103  0.00  0.00     0.130 A 
ATOM      2  C2  DEN d   1      -3.723   2.975  -5.550  0.00  0.00    -0.031 A 
ATOM      3  C3  DEN d   1      -3.297   4.323  -5.978  0.00  0.00     0.027 A 
ATOM      4  C4  DEN d   1      -0.929   5.347  -5.996  0.00  0.00     0.027 A 
ATOM      5  C5  DEN d   1       0.395   5.116  -5.698  0.00  0.00    -0.003 A 
ATOM      6  C6  DEN d   1       0.827   3.936  -5.153  0.00  0.00     0.001 A 
ATOM      7  C7  DEN d   1      -0.069   2.923  -4.931  0.00  0.00     0.017 A 
ATOM      8  C8  DEN d   1      -1.407   3.151  -5.223  0.00  0.00    -0.094 A 
ATOM      9  C9  DEN d   1      -1.822   4.346  -5.784  0.00  0.00    -0.072 A 
ENDROOT
TORSDOF 0
ENDMDL
