MODEL 1
REMARK minimizedAffinity 9.47850323
REMARK minimizedRMSD -1
REMARK  1 active torsions:
REMARK  status: ('A' for Active; 'I' for Inactive)
REMARK    1  A    between atoms: C1_2  and  C2_3 
ROOT
ATOM      1  C2  UNL d   1       1.276  -2.092   4.173  0.00  0.00    -0.081 A 
ATOM      2  C3  UNL d   1       1.867  -0.886   4.570  0.00  0.00     0.006 A 
ATOM      3  C4  UNL d   1       1.600   0.296   3.875  0.00  0.00     0.002 A 
ATOM      4  C5  UNL d   1       0.732   0.294   2.778  0.00  0.00    -0.080 A 
ATOM      5  C6  UNL d   1       0.413   1.561   2.043  0.00  0.00     0.076 C 
ATOM      6  C7  UNL d   1       0.155  -0.914   2.371  0.00  0.00     0.002 A 
ATOM      7  C8  UNL d   1       0.422  -2.096   3.064  0.00  0.00     0.006 A 
ENDROOT
BRANCH   1   8
ATOM      8  C1  UNL d   1       1.512  -3.357   4.959  0.00  0.00     0.054 C 
ATOM      9  C   UNL d   1       2.911  -3.384   5.556  0.00  0.00     0.018 C 
ENDBRANCH   1   8
TORSDOF 1
ENDMDL
