MODEL 1
REMARK minimizedAffinity 8.08358097
REMARK minimizedRMSD -1
REMARK  1 active torsions:
REMARK  status: ('A' for Active; 'I' for Inactive)
REMARK    1  A    between atoms: C1_2  and  C2_3 
ROOT
ATOM      1  C2  UNL d   1      -1.470  -0.410   2.448  0.00  0.00    -0.081 A 
ATOM      2  C3  UNL d   1      -0.417  -1.159   1.908  0.00  0.00     0.006 A 
ATOM      3  C4  UNL d   1       0.902  -0.905   2.289  0.00  0.00     0.002 A 
ATOM      4  C5  UNL d   1       1.190   0.097   3.222  0.00  0.00    -0.080 A 
ATOM      5  C6  UNL d   1       2.600   0.361   3.663  0.00  0.00     0.076 C 
ATOM      6  C7  UNL d   1       0.141   0.858   3.748  0.00  0.00     0.002 A 
ATOM      7  C8  UNL d   1      -1.179   0.604   3.367  0.00  0.00     0.006 A 
ENDROOT
BRANCH   1   8
ATOM      8  C1  UNL d   1      -2.899  -0.725   2.087  0.00  0.00     0.054 C 
ATOM      9  C   UNL d   1      -3.516  -1.704   3.075  0.00  0.00     0.018 C 
ENDBRANCH   1   8
TORSDOF 1
ENDMDL
