MODEL 1
REMARK minimizedAffinity 9.90659904
REMARK minimizedRMSD -1
REMARK  1 active torsions:
REMARK  status: ('A' for Active; 'I' for Inactive)
REMARK    1  A    between atoms: C1_2  and  C2_3 
ROOT
ATOM      1  C2  UNL d   1      -0.078  -1.459  -4.195  0.00  0.00    -0.081 A 
ATOM      2  C3  UNL d   1       0.026  -1.861  -5.532  0.00  0.00     0.006 A 
ATOM      3  C4  UNL d   1      -0.699  -2.959  -6.000  0.00  0.00     0.002 A 
ATOM      4  C5  UNL d   1      -1.545  -3.669  -5.141  0.00  0.00    -0.080 A 
ATOM      5  C6  UNL d   1      -2.352  -4.832  -5.638  0.00  0.00     0.076 C 
ATOM      6  C7  UNL d   1      -1.635  -3.278  -3.801  0.00  0.00     0.002 A 
ATOM      7  C8  UNL d   1      -0.910  -2.180  -3.332  0.00  0.00     0.006 A 
ENDROOT
BRANCH   1   8
ATOM      8  C1  UNL d   1       0.653  -0.235  -3.703  0.00  0.00     0.054 C 
ATOM      9  C   UNL d   1       2.011  -0.094  -4.377  0.00  0.00     0.018 C 
ENDBRANCH   1   8
TORSDOF 1
ENDMDL
