MODEL 1
REMARK minimizedAffinity 0.84953618
REMARK minimizedRMSD -1
REMARK  1 active torsions:
REMARK  status: ('A' for Active; 'I' for Inactive)
REMARK    1  A    between atoms: C1_2  and  C2_3 
ROOT
ATOM      1  C2  UNL d   1      -1.392  -3.627  -4.829  0.00  0.00    -0.081 A 
ATOM      2  C3  UNL d   1      -1.739  -2.892  -3.688  0.00  0.00     0.006 A 
ATOM      3  C4  UNL d   1      -1.055  -1.717  -3.368  0.00  0.00     0.002 A 
ATOM      4  C5  UNL d   1      -0.021  -1.252  -4.186  0.00  0.00    -0.080 A 
ATOM      5  C6  UNL d   1       0.701   0.024  -3.870  0.00  0.00     0.076 C 
ATOM      6  C7  UNL d   1       0.337  -1.995  -5.316  0.00  0.00     0.002 A 
ATOM      7  C8  UNL d   1      -0.345  -3.171  -5.637  0.00  0.00     0.006 A 
ENDROOT
BRANCH   1   8
ATOM      8  C1  UNL d   1      -2.170  -4.860  -5.212  0.00  0.00     0.054 C 
ATOM      9  C   UNL d   1      -3.422  -4.502  -6.000  0.00  0.00     0.018 C 
ENDBRANCH   1   8
TORSDOF 1
ENDMDL
