MODEL 1
REMARK minimizedAffinity 14.2411985
REMARK minimizedRMSD -1
REMARK  1 active torsions:
REMARK  status: ('A' for Active; 'I' for Inactive)
REMARK    1  A    between atoms: C1_2  and  C2_3 
ROOT
ATOM      1  C2  UNL d   1       0.347  -0.776   3.174  0.00  0.00    -0.081 A 
ATOM      2  C3  UNL d   1      -0.866  -0.554   2.511  0.00  0.00     0.006 A 
ATOM      3  C4  UNL d   1      -1.461   0.710   2.525  0.00  0.00     0.002 A 
ATOM      4  C5  UNL d   1      -0.849   1.774   3.196  0.00  0.00    -0.080 A 
ATOM      5  C6  UNL d   1      -1.461   3.143   3.195  0.00  0.00     0.076 C 
ATOM      6  C7  UNL d   1       0.354   1.548   3.874  0.00  0.00     0.002 A 
ATOM      7  C8  UNL d   1       0.949   0.284   3.860  0.00  0.00     0.006 A 
ENDROOT
BRANCH   1   8
ATOM      8  C1  UNL d   1       1.023  -2.122   3.106  0.00  0.00     0.054 C 
ATOM      9  C   UNL d   1       1.240  -2.703   4.496  0.00  0.00     0.018 C 
ENDBRANCH   1   8
TORSDOF 1
ENDMDL
