MODEL 1
REMARK minimizedAffinity 8.13169193
REMARK minimizedRMSD -1
REMARK  1 active torsions:
REMARK  status: ('A' for Active; 'I' for Inactive)
REMARK    1  A    between atoms: C1_2  and  C2_3 
ROOT
ATOM      1  C2  UNL d   1      -0.041  -1.345  -3.506  0.00  0.00    -0.081 A 
ATOM      2  C3  UNL d   1       0.929  -1.967  -4.302  0.00  0.00     0.006 A 
ATOM      3  C4  UNL d   1       2.088  -1.279  -4.672  0.00  0.00     0.002 A 
ATOM      4  C5  UNL d   1       2.299   0.036  -4.247  0.00  0.00    -0.080 A 
ATOM      5  C6  UNL d   1       3.552   0.775  -4.612  0.00  0.00     0.076 C 
ATOM      6  C7  UNL d   1       1.322   0.663  -3.466  0.00  0.00     0.002 A 
ATOM      7  C8  UNL d   1       0.163  -0.023  -3.096  0.00  0.00     0.006 A 
ENDROOT
BRANCH   1   8
ATOM      8  C1  UNL d   1      -1.261  -2.105  -3.051  0.00  0.00     0.054 C 
ATOM      9  C   UNL d   1      -1.342  -2.163  -1.532  0.00  0.00     0.018 C 
ENDBRANCH   1   8
TORSDOF 1
ENDMDL
