MODEL 1
REMARK minimizedAffinity 12.6506824
REMARK minimizedRMSD -1
REMARK  1 active torsions:
REMARK  status: ('A' for Active; 'I' for Inactive)
REMARK    1  A    between atoms: C1_2  and  C2_3 
ROOT
ATOM      1  C2  UNL d   1      -0.945  -1.074   1.142  0.00  0.00    -0.081 A 
ATOM      2  C3  UNL d   1      -1.179   0.162   1.758  0.00  0.00     0.006 A 
ATOM      3  C4  UNL d   1      -0.253   0.688   2.662  0.00  0.00     0.002 A 
ATOM      4  C5  UNL d   1       0.924  -0.008   2.959  0.00  0.00    -0.080 A 
ATOM      5  C6  UNL d   1       1.940   0.560   3.905  0.00  0.00     0.076 C 
ATOM      6  C7  UNL d   1       1.148  -1.250   2.357  0.00  0.00     0.002 A 
ATOM      7  C8  UNL d   1       0.223  -1.777   1.454  0.00  0.00     0.006 A 
ENDROOT
BRANCH   1   8
ATOM      8  C1  UNL d   1      -1.910  -1.614   0.117  0.00  0.00     0.054 C 
ATOM      9  C   UNL d   1      -1.186  -2.058  -1.145  0.00  0.00     0.018 C 
ENDBRANCH   1   8
TORSDOF 1
ENDMDL
