MODEL 1
REMARK minimizedAffinity 8.95848179
REMARK minimizedRMSD -1
REMARK  1 active torsions:
REMARK  status: ('A' for Active; 'I' for Inactive)
REMARK    1  A    between atoms: C1_2  and  C2_3 
ROOT
ATOM      1  C2  UNL d   1       2.026   1.243   3.377  0.00  0.00    -0.081 A 
ATOM      2  C3  UNL d   1       2.196  -0.142   3.262  0.00  0.00     0.006 A 
ATOM      3  C4  UNL d   1       1.151  -0.949   2.804  0.00  0.00     0.002 A 
ATOM      4  C5  UNL d   1      -0.078  -0.383   2.446  0.00  0.00    -0.080 A 
ATOM      5  C6  UNL d   1      -1.197  -1.234   1.925  0.00  0.00     0.076 C 
ATOM      6  C7  UNL d   1      -0.253   0.999   2.578  0.00  0.00     0.002 A 
ATOM      7  C8  UNL d   1       0.790   1.805   3.036  0.00  0.00     0.006 A 
ENDROOT
BRANCH   1   8
ATOM      8  C1  UNL d   1       3.171   2.123   3.809  0.00  0.00     0.054 C 
ATOM      9  C   UNL d   1       4.513   1.477   3.495  0.00  0.00     0.018 C 
ENDBRANCH   1   8
TORSDOF 1
ENDMDL
