MODEL 1
REMARK minimizedAffinity 7.26265097
REMARK minimizedRMSD -1
REMARK  1 active torsions:
REMARK  status: ('A' for Active; 'I' for Inactive)
REMARK    1  A    between atoms: C1_2  and  C2_3 
ROOT
ATOM      1  C2  UNL d   1       1.799  -0.159   3.526  0.00  0.00    -0.081 A 
ATOM      2  C3  UNL d   1       1.334  -1.422   3.141  0.00  0.00     0.006 A 
ATOM      3  C4  UNL d   1       0.034  -1.579   2.653  0.00  0.00     0.002 A 
ATOM      4  C5  UNL d   1      -0.818  -0.476   2.535  0.00  0.00    -0.080 A 
ATOM      5  C6  UNL d   1      -2.205  -0.627   1.985  0.00  0.00     0.076 C 
ATOM      6  C7  UNL d   1      -0.359   0.783   2.937  0.00  0.00     0.002 A 
ATOM      7  C8  UNL d   1       0.940   0.941   3.425  0.00  0.00     0.006 A 
ENDROOT
BRANCH   1   8
ATOM      8  C1  UNL d   1       3.221   0.025   3.991  0.00  0.00     0.054 C 
ATOM      9  C   UNL d   1       3.906   1.161   3.244  0.00  0.00     0.018 C 
ENDBRANCH   1   8
TORSDOF 1
ENDMDL
