MODEL 1
REMARK minimizedAffinity -4.55172396
REMARK minimizedRMSD -1
REMARK  1 active torsions:
REMARK  status: ('A' for Active; 'I' for Inactive)
REMARK    1  A    between atoms: C1_2  and  C2_3 
ROOT
ATOM      1  C2  UNL d   1      -0.428   0.979  -0.497  0.00  0.00    -0.081 A 
ATOM      2  C3  UNL d   1       0.677   0.462  -1.185  0.00  0.00     0.006 A 
ATOM      3  C4  UNL d   1       1.389  -0.623  -0.667  0.00  0.00     0.002 A 
ATOM      4  C5  UNL d   1       1.003  -1.213   0.542  0.00  0.00    -0.080 A 
ATOM      5  C6  UNL d   1       1.740  -2.397   1.094  0.00  0.00     0.076 C 
ATOM      6  C7  UNL d   1      -0.090  -0.685   1.237  0.00  0.00     0.002 A 
ATOM      7  C8  UNL d   1      -0.801   0.400   0.720  0.00  0.00     0.006 A 
ENDROOT
BRANCH   1   8
ATOM      8  C1  UNL d   1      -1.237   2.107  -1.085  0.00  0.00     0.054 C 
ATOM      9  C   UNL d   1      -2.529   1.596  -1.707  0.00  0.00     0.018 C 
ENDBRANCH   1   8
TORSDOF 1
ENDMDL
