MODEL 1
REMARK minimizedAffinity -5.70399904
REMARK minimizedRMSD -1
REMARK  1 active torsions:
REMARK  status: ('A' for Active; 'I' for Inactive)
REMARK    1  A    between atoms: C1_2  and  C2_3 
ROOT
ATOM      1  C2  UNL d   1      -0.226   1.011  -0.622  0.00  0.00    -0.081 A 
ATOM      2  C3  UNL d   1       1.083   0.532  -0.750  0.00  0.00     0.006 A 
ATOM      3  C4  UNL d   1       1.514  -0.562   0.005  0.00  0.00     0.002 A 
ATOM      4  C5  UNL d   1       0.641  -1.200   0.893  0.00  0.00    -0.080 A 
ATOM      5  C6  UNL d   1       1.081  -2.394   1.686  0.00  0.00     0.076 C 
ATOM      6  C7  UNL d   1      -0.662  -0.710   1.033  0.00  0.00     0.002 A 
ATOM      7  C8  UNL d   1      -1.093   0.384   0.279  0.00  0.00     0.006 A 
ENDROOT
BRANCH   1   8
ATOM      8  C1  UNL d   1      -0.713   2.149  -1.482  0.00  0.00     0.054 C 
ATOM      9  C   UNL d   1      -1.788   1.688  -2.455  0.00  0.00     0.018 C 
ENDBRANCH   1   8
TORSDOF 1
ENDMDL
