MODEL 1
REMARK minimizedAffinity 0.292765975
REMARK minimizedRMSD -1
REMARK  1 active torsions:
REMARK  status: ('A' for Active; 'I' for Inactive)
REMARK    1  A    between atoms: C1_2  and  C2_3 
ROOT
ATOM      1  C2  UNL d   1      -0.460   3.739  -4.528  0.00  0.00    -0.081 A 
ATOM      2  C3  UNL d   1      -1.536   3.115  -5.170  0.00  0.00     0.006 A 
ATOM      3  C4  UNL d   1      -2.467   2.377  -4.435  0.00  0.00     0.002 A 
ATOM      4  C5  UNL d   1      -2.342   2.257  -3.047  0.00  0.00    -0.080 A 
ATOM      5  C6  UNL d   1      -3.352   1.493  -2.243  0.00  0.00     0.076 C 
ATOM      6  C7  UNL d   1      -1.257   2.866  -2.408  0.00  0.00     0.002 A 
ATOM      7  C8  UNL d   1      -0.325   3.603  -3.141  0.00  0.00     0.006 A 
ENDROOT
BRANCH   1   8
ATOM      8  C1  UNL d   1       0.510   4.590  -5.308  0.00  0.00     0.054 C 
ATOM      9  C   UNL d   1       0.664   5.969  -4.682  0.00  0.00     0.018 C 
ENDBRANCH   1   8
TORSDOF 1
ENDMDL
