MODEL 1
REMARK minimizedAffinity -4.79876852
REMARK minimizedRMSD -1
REMARK  1 active torsions:
REMARK  status: ('A' for Active; 'I' for Inactive)
REMARK    1  A    between atoms: C1_2  and  C2_3 
ROOT
ATOM      1  C2  UNL d   1      -0.232  -0.087   0.396  0.00  0.00    -0.081 A 
ATOM      2  C3  UNL d   1      -0.864  -0.599   1.536  0.00  0.00     0.006 A 
ATOM      3  C4  UNL d   1      -0.322  -1.692   2.215  0.00  0.00     0.002 A 
ATOM      4  C5  UNL d   1       0.864  -2.287   1.772  0.00  0.00    -0.080 A 
ATOM      5  C6  UNL d   1       1.472  -3.442   2.510  0.00  0.00     0.076 C 
ATOM      6  C7  UNL d   1       1.486  -1.787   0.623  0.00  0.00     0.002 A 
ATOM      7  C8  UNL d   1       0.945  -0.694  -0.057  0.00  0.00     0.006 A 
ENDROOT
BRANCH   1   8
ATOM      8  C1  UNL d   1      -0.779   1.132  -0.302  0.00  0.00     0.054 C 
ATOM      9  C   UNL d   1      -0.094   1.355  -1.643  0.00  0.00     0.018 C 
ENDBRANCH   1   8
TORSDOF 1
ENDMDL
