MODEL 1
REMARK minimizedAffinity -4.62379122
REMARK minimizedRMSD -1
REMARK  1 active torsions:
REMARK  status: ('A' for Active; 'I' for Inactive)
REMARK    1  A    between atoms: C1_2  and  C2_3 
ROOT
ATOM      1  C2  UNL d   1      -0.621   0.616  -0.016  0.00  0.00    -0.081 A 
ATOM      2  C3  UNL d   1       0.586   0.491  -0.715  0.00  0.00     0.006 A 
ATOM      3  C4  UNL d   1       1.501  -0.508  -0.375  0.00  0.00     0.002 A 
ATOM      4  C5  UNL d   1       1.222  -1.403   0.663  0.00  0.00    -0.080 A 
ATOM      5  C6  UNL d   1       2.183  -2.499   1.019  0.00  0.00     0.076 C 
ATOM      6  C7  UNL d   1       0.024  -1.268   1.373  0.00  0.00     0.002 A 
ATOM      7  C8  UNL d   1      -0.891  -0.269   1.034  0.00  0.00     0.006 A 
ENDROOT
BRANCH   1   8
ATOM      8  C1  UNL d   1      -1.639   1.651  -0.422  0.00  0.00     0.054 C 
ATOM      9  C   UNL d   1      -1.515   1.999  -1.898  0.00  0.00     0.018 C 
ENDBRANCH   1   8
TORSDOF 1
ENDMDL
