MODEL 1
REMARK minimizedAffinity -1.30591524
REMARK minimizedRMSD -1
REMARK  1 active torsions:
REMARK  status: ('A' for Active; 'I' for Inactive)
REMARK    1  A    between atoms: C1_2  and  C2_3 
ROOT
ATOM      1  C2  UNL d   1      -0.588   1.053  -0.361  0.00  0.00    -0.081 A 
ATOM      2  C3  UNL d   1       0.715   0.996  -0.871  0.00  0.00     0.006 A 
ATOM      3  C4  UNL d   1       1.622   0.047  -0.394  0.00  0.00     0.002 A 
ATOM      4  C5  UNL d   1       1.239  -0.865   0.596  0.00  0.00    -0.080 A 
ATOM      5  C6  UNL d   1       2.194  -1.909   1.096  0.00  0.00     0.076 C 
ATOM      6  C7  UNL d   1      -0.057  -0.797   1.118  0.00  0.00     0.002 A 
ATOM      7  C8  UNL d   1      -0.964   0.152   0.641  0.00  0.00     0.006 A 
ENDROOT
BRANCH   1   8
ATOM      8  C1  UNL d   1      -1.587   2.033  -0.920  0.00  0.00     0.054 C 
ATOM      9  C   UNL d   1      -1.956   1.689  -2.356  0.00  0.00     0.018 C 
ENDBRANCH   1   8
TORSDOF 1
ENDMDL
