MODEL 1
REMARK minimizedAffinity -5.7924552
REMARK minimizedRMSD -1
REMARK  1 active torsions:
REMARK  status: ('A' for Active; 'I' for Inactive)
REMARK    1  A    between atoms: C1_2  and  C2_3 
ROOT
ATOM      1  C2  UNL d   1       0.384  -1.743   1.912  0.00  0.00    -0.081 A 
ATOM      2  C3  UNL d   1       1.745  -1.832   1.598  0.00  0.00     0.006 A 
ATOM      3  C4  UNL d   1       2.268  -1.129   0.509  0.00  0.00     0.002 A 
ATOM      4  C5  UNL d   1       1.440  -0.320  -0.277  0.00  0.00    -0.080 A 
ATOM      5  C6  UNL d   1       1.994   0.463  -1.429  0.00  0.00     0.076 C 
ATOM      6  C7  UNL d   1       0.077  -0.245   0.027  0.00  0.00     0.002 A 
ATOM      7  C8  UNL d   1      -0.447  -0.948   1.115  0.00  0.00     0.006 A 
ENDROOT
BRANCH   1   8
ATOM      8  C1  UNL d   1      -0.171  -2.449   3.124  0.00  0.00     0.054 C 
ATOM      9  C   UNL d   1      -1.173  -1.574   3.863  0.00  0.00     0.018 C 
ENDBRANCH   1   8
TORSDOF 1
ENDMDL
