MODEL 1
REMARK minimizedAffinity -3.74380684
REMARK minimizedRMSD -1
REMARK  1 active torsions:
REMARK  status: ('A' for Active; 'I' for Inactive)
REMARK    1  A    between atoms: C1_2  and  C2_3 
ROOT
ATOM      1  C2  UNL d   1      -0.049   0.470  -0.133  0.00  0.00    -0.081 A 
ATOM      2  C3  UNL d   1       1.254   0.055  -0.437  0.00  0.00     0.006 A 
ATOM      3  C4  UNL d   1       1.780  -1.104   0.138  0.00  0.00     0.002 A 
ATOM      4  C5  UNL d   1       1.012  -1.871   1.020  0.00  0.00    -0.080 A 
ATOM      5  C6  UNL d   1       1.555  -3.133   1.621  0.00  0.00     0.076 C 
ATOM      6  C7  UNL d   1      -0.283  -1.447   1.338  0.00  0.00     0.002 A 
ATOM      7  C8  UNL d   1      -0.810  -0.288   0.764  0.00  0.00     0.006 A 
ENDROOT
BRANCH   1   8
ATOM      8  C1  UNL d   1      -0.643   1.684  -0.801  0.00  0.00     0.054 C 
ATOM      9  C   UNL d   1      -1.530   1.291  -1.974  0.00  0.00     0.018 C 
ENDBRANCH   1   8
TORSDOF 1
ENDMDL
