MODEL 1
REMARK minimizedAffinity -0.167112485
REMARK minimizedRMSD -1
REMARK  0 active torsions:
REMARK  status: ('A' for Active; 'I' for Inactive)
ROOT
ATOM      1  C   UNL d   1       1.121  -1.517   0.877  0.00  0.00     0.124 A 
ATOM      2  C1  UNL d   1       2.004  -0.818   0.065  0.00  0.00     0.062 A 
ATOM      3  C2  UNL d   1       1.567   0.293  -0.650  0.00  0.00     0.162 A 
ATOM      4  C3  UNL d   1       0.240   0.713  -0.556  0.00  0.00    -0.034 A 
ATOM      5  C4  UNL d   1      -0.642   0.004   0.261  0.00  0.00     0.162 A 
ATOM      6  C5  UNL d   1      -0.201  -1.105   0.974  0.00  0.00     0.062 A 
ATOM      7  F   UNL d   1      -1.055  -1.780   1.758  0.00  0.00    -0.097 F 
ATOM      8  F1  UNL d   1      -1.925   0.381   0.375  0.00  0.00    -0.096 F 
ATOM      9  I   UNL d   1      -0.418   2.374  -1.624  0.00  0.00    -0.060 I 
ATOM     10  F2  UNL d   1       2.441   0.949  -1.426  0.00  0.00    -0.096 F 
ATOM     11  F3  UNL d   1       3.281  -1.214  -0.031  0.00  0.00    -0.097 F 
ATOM     12  F4  UNL d   1       1.544  -2.586   1.564  0.00  0.00    -0.092 F 
ENDROOT
TORSDOF 0
ENDMDL
