MODEL 1
REMARK minimizedAffinity -3.38263631
REMARK minimizedRMSD -1
REMARK  0 active torsions:
REMARK  status: ('A' for Active; 'I' for Inactive)
ROOT
ATOM      1  C   UNL d   1       1.348  -1.376   1.540  0.00  0.00     0.124 A 
ATOM      2  C1  UNL d   1       0.051  -0.966   1.817  0.00  0.00     0.062 A 
ATOM      3  C2  UNL d   1      -0.640  -0.172   0.907  0.00  0.00     0.162 A 
ATOM      4  C3  UNL d   1      -0.037   0.218  -0.289  0.00  0.00    -0.034 A 
ATOM      5  C4  UNL d   1       1.269  -0.198  -0.559  0.00  0.00     0.162 A 
ATOM      6  C5  UNL d   1       1.955  -0.992   0.353  0.00  0.00     0.062 A 
ATOM      7  F   UNL d   1       3.208  -1.387   0.085  0.00  0.00    -0.097 F 
ATOM      8  F1  UNL d   1       1.879   0.158  -1.699  0.00  0.00    -0.096 F 
ATOM      9  I   UNL d   1      -1.067   1.406  -1.652  0.00  0.00    -0.060 I 
ATOM     10  F2  UNL d   1      -1.892   0.210   1.200  0.00  0.00    -0.096 F 
ATOM     11  F3  UNL d   1      -0.537  -1.335   2.963  0.00  0.00    -0.097 F 
ATOM     12  F4  UNL d   1       2.012  -2.140   2.418  0.00  0.00    -0.092 F 
ENDROOT
TORSDOF 0
ENDMDL
