MODEL 1
REMARK minimizedAffinity 0.60345614
REMARK minimizedRMSD -1
REMARK  0 active torsions:
REMARK  status: ('A' for Active; 'I' for Inactive)
ROOT
ATOM      1  C   UNL d   1       0.825  -1.048   1.541  0.00  0.00     0.124 A 
ATOM      2  C1  UNL d   1       1.630  -0.632   0.490  0.00  0.00     0.062 A 
ATOM      3  C2  UNL d   1       1.194   0.372  -0.370  0.00  0.00     0.162 A 
ATOM      4  C3  UNL d   1      -0.053   0.968  -0.182  0.00  0.00    -0.034 A 
ATOM      5  C4  UNL d   1      -0.857   0.544   0.877  0.00  0.00     0.162 A 
ATOM      6  C5  UNL d   1      -0.417  -0.460   1.734  0.00  0.00     0.062 A 
ATOM      7  F   UNL d   1      -1.196  -0.861   2.749  0.00  0.00    -0.097 F 
ATOM      8  F1  UNL d   1      -2.061   1.096   1.087  0.00  0.00    -0.096 F 
ATOM      9  I   UNL d   1      -0.707   2.470  -1.466  0.00  0.00    -0.060 I 
ATOM     10  F2  UNL d   1       1.993   0.754  -1.378  0.00  0.00    -0.096 F 
ATOM     11  F3  UNL d   1       2.830  -1.199   0.301  0.00  0.00    -0.097 F 
ATOM     12  F4  UNL d   1       1.246  -2.015   2.366  0.00  0.00    -0.092 F 
ENDROOT
TORSDOF 0
ENDMDL
