MODEL 1
REMARK minimizedAffinity 0.795408309
REMARK minimizedRMSD -1
REMARK  0 active torsions:
REMARK  status: ('A' for Active; 'I' for Inactive)
ROOT
ATOM      1  C   UNL d   1       1.204  -1.299   1.606  0.00  0.00     0.124 A 
ATOM      2  C1  UNL d   1      -0.098  -0.835   1.732  0.00  0.00     0.062 A 
ATOM      3  C2  UNL d   1      -0.640   0.003   0.762  0.00  0.00     0.162 A 
ATOM      4  C3  UNL d   1       0.120   0.383  -0.344  0.00  0.00    -0.034 A 
ATOM      5  C4  UNL d   1       1.430  -0.086  -0.463  0.00  0.00     0.162 A 
ATOM      6  C5  UNL d   1       1.966  -0.923   0.509  0.00  0.00     0.062 A 
ATOM      7  F   UNL d   1       3.225  -1.370   0.385  0.00  0.00    -0.097 F 
ATOM      8  F1  UNL d   1       2.188   0.260  -1.514  0.00  0.00    -0.096 F 
ATOM      9  I   UNL d   1      -0.686   1.637  -1.796  0.00  0.00    -0.060 I 
ATOM     10  F2  UNL d   1      -1.901   0.436   0.910  0.00  0.00    -0.096 F 
ATOM     11  F3  UNL d   1      -0.837  -1.196   2.792  0.00  0.00    -0.097 F 
ATOM     12  F4  UNL d   1       1.723  -2.104   2.541  0.00  0.00    -0.092 F 
ENDROOT
TORSDOF 0
ENDMDL
