MODEL 1
REMARK minimizedAffinity -0.169580132
REMARK minimizedRMSD -1
REMARK  0 active torsions:
REMARK  status: ('A' for Active; 'I' for Inactive)
ROOT
ATOM      1  C   UNL d   1      -0.209  -0.784   1.347  0.00  0.00     0.124 A 
ATOM      2  C1  UNL d   1       1.061  -1.329   1.472  0.00  0.00     0.062 A 
ATOM      3  C2  UNL d   1       2.142  -0.742   0.820  0.00  0.00     0.162 A 
ATOM      4  C3  UNL d   1       1.957   0.398   0.038  0.00  0.00    -0.034 A 
ATOM      5  C4  UNL d   1       0.677   0.940  -0.084  0.00  0.00     0.162 A 
ATOM      6  C5  UNL d   1      -0.400   0.349   0.569  0.00  0.00     0.062 A 
ATOM      7  F   UNL d   1      -1.627   0.877   0.448  0.00  0.00    -0.097 F 
ATOM      8  F1  UNL d   1       0.464   2.035  -0.828  0.00  0.00    -0.096 F 
ATOM      9  I   UNL d   1       3.571   1.279  -0.938  0.00  0.00    -0.060 I 
ATOM     10  F2  UNL d   1       3.358  -1.290   0.959  0.00  0.00    -0.096 F 
ATOM     11  F3  UNL d   1       1.248  -2.425   2.221  0.00  0.00    -0.097 F 
ATOM     12  F4  UNL d   1      -1.247  -1.352   1.974  0.00  0.00    -0.092 F 
ENDROOT
TORSDOF 0
ENDMDL
