MODEL 1
REMARK minimizedAffinity -2.5005486
REMARK minimizedRMSD -1
REMARK  0 active torsions:
REMARK  status: ('A' for Active; 'I' for Inactive)
ROOT
ATOM      1  C   UNL d   1       1.198  -1.427   2.335  0.00  0.00     0.124 A 
ATOM      2  C1  UNL d   1       1.736  -1.336   1.059  0.00  0.00     0.062 A 
ATOM      3  C2  UNL d   1       1.061  -0.635   0.063  0.00  0.00     0.162 A 
ATOM      4  C3  UNL d   1      -0.159  -0.019   0.340  0.00  0.00    -0.034 A 
ATOM      5  C4  UNL d   1      -0.694  -0.116   1.626  0.00  0.00     0.162 A 
ATOM      6  C5  UNL d   1      -0.016  -0.818   2.618  0.00  0.00     0.062 A 
ATOM      7  F   UNL d   1      -0.537  -0.905   3.850  0.00  0.00    -0.097 F 
ATOM      8  F1  UNL d   1      -1.865   0.464   1.927  0.00  0.00    -0.096 F 
ATOM      9  I   UNL d   1      -1.171   1.029  -1.146  0.00  0.00    -0.060 I 
ATOM     10  F2  UNL d   1       1.604  -0.564  -1.161  0.00  0.00    -0.096 F 
ATOM     11  F3  UNL d   1       2.909  -1.925   0.783  0.00  0.00    -0.097 F 
ATOM     12  F4  UNL d   1       1.849  -2.103   3.291  0.00  0.00    -0.092 F 
ENDROOT
TORSDOF 0
ENDMDL
