MODEL 1
REMARK minimizedAffinity -1.98276067
REMARK minimizedRMSD -1
REMARK  0 active torsions:
REMARK  status: ('A' for Active; 'I' for Inactive)
ROOT
ATOM      1  C   UNL d   1       1.318  -1.036   0.888  0.00  0.00     0.124 A 
ATOM      2  C1  UNL d   1       0.062  -0.511   1.158  0.00  0.00     0.062 A 
ATOM      3  C2  UNL d   1      -0.685   0.076   0.140  0.00  0.00     0.162 A 
ATOM      4  C3  UNL d   1      -0.179   0.139  -1.158  0.00  0.00    -0.034 A 
ATOM      5  C4  UNL d   1       1.086  -0.391  -1.422  0.00  0.00     0.162 A 
ATOM      6  C5  UNL d   1       1.828  -0.976  -0.401  0.00  0.00     0.062 A 
ATOM      7  F   UNL d   1       3.042  -1.483  -0.664  0.00  0.00    -0.097 F 
ATOM      8  F1  UNL d   1       1.603  -0.347  -2.659  0.00  0.00    -0.096 F 
ATOM      9  I   UNL d   1      -1.293   1.014  -2.682  0.00  0.00    -0.060 I 
ATOM     10  F2  UNL d   1      -1.896   0.575   0.430  0.00  0.00    -0.096 F 
ATOM     11  F3  UNL d   1      -0.433  -0.567   2.403  0.00  0.00    -0.097 F 
ATOM     12  F4  UNL d   1       2.035  -1.598   1.869  0.00  0.00    -0.092 F 
ENDROOT
TORSDOF 0
ENDMDL
