MODEL 1
REMARK minimizedAffinity 1.95640004
REMARK minimizedRMSD -1
REMARK  0 active torsions:
REMARK  status: ('A' for Active; 'I' for Inactive)
ROOT
ATOM      1  C   UNL d   1      -1.848   0.814   0.185  0.00  0.00     0.124 A 
ATOM      2  C1  UNL d   1      -0.830   0.769  -0.758  0.00  0.00     0.062 A 
ATOM      3  C2  UNL d   1       0.386   0.168  -0.447  0.00  0.00     0.162 A 
ATOM      4  C3  UNL d   1       0.591  -0.395   0.812  0.00  0.00    -0.034 A 
ATOM      5  C4  UNL d   1      -0.437  -0.346   1.756  0.00  0.00     0.162 A 
ATOM      6  C5  UNL d   1      -1.650   0.256   1.441  0.00  0.00     0.062 A 
ATOM      7  F   UNL d   1      -2.632   0.299   2.353  0.00  0.00    -0.097 F 
ATOM      8  F1  UNL d   1      -0.273  -0.877   2.976  0.00  0.00    -0.096 F 
ATOM      9  I   UNL d   1       2.408  -1.296   1.281  0.00  0.00    -0.060 I 
ATOM     10  F2  UNL d   1       1.351   0.139  -1.378  0.00  0.00    -0.096 F 
ATOM     11  F3  UNL d   1      -1.019   1.308  -1.971  0.00  0.00    -0.097 F 
ATOM     12  F4  UNL d   1      -3.017   1.394  -0.116  0.00  0.00    -0.092 F 
ENDROOT
TORSDOF 0
ENDMDL
