MODEL 1
REMARK minimizedAffinity -2.11191487
REMARK minimizedRMSD -1
REMARK  0 active torsions:
REMARK  status: ('A' for Active; 'I' for Inactive)
ROOT
ATOM      1  C   UNL d   1       1.176  -1.460   1.188  0.00  0.00     0.124 A 
ATOM      2  C1  UNL d   1      -0.131  -1.012   1.322  0.00  0.00     0.062 A 
ATOM      3  C2  UNL d   1      -0.623  -0.025   0.473  0.00  0.00     0.162 A 
ATOM      4  C3  UNL d   1       0.192   0.520  -0.520  0.00  0.00    -0.034 A 
ATOM      5  C4  UNL d   1       1.505   0.065  -0.648  0.00  0.00     0.162 A 
ATOM      6  C5  UNL d   1       1.992  -0.922   0.203  0.00  0.00     0.062 A 
ATOM      7  F   UNL d   1       3.255  -1.354   0.072  0.00  0.00    -0.097 F 
ATOM      8  F1  UNL d   1       2.315   0.567  -1.592  0.00  0.00    -0.096 F 
ATOM      9  I   UNL d   1      -0.541   1.996  -1.791  0.00  0.00    -0.060 I 
ATOM     10  F2  UNL d   1      -1.889   0.390   0.626  0.00  0.00    -0.096 F 
ATOM     11  F3  UNL d   1      -0.921  -1.529   2.273  0.00  0.00    -0.097 F 
ATOM     12  F4  UNL d   1       1.647  -2.409   2.007  0.00  0.00    -0.092 F 
ENDROOT
TORSDOF 0
ENDMDL
