MODEL 1
REMARK minimizedAffinity -1.30006671
REMARK minimizedRMSD -1
REMARK  0 active torsions:
REMARK  status: ('A' for Active; 'I' for Inactive)
ROOT
ATOM      1  C   UNL d   1       2.905  -0.661   0.493  0.00  0.00     0.124 A 
ATOM      2  C1  UNL d   1       1.842  -1.395   1.000  0.00  0.00     0.062 A 
ATOM      3  C2  UNL d   1       0.540  -0.919   0.874  0.00  0.00     0.162 A 
ATOM      4  C3  UNL d   1       0.294   0.297   0.238  0.00  0.00    -0.034 A 
ATOM      5  C4  UNL d   1       1.368   1.031  -0.269  0.00  0.00     0.162 A 
ATOM      6  C5  UNL d   1       2.668   0.551  -0.140  0.00  0.00     0.062 A 
ATOM      7  F   UNL d   1       3.694   1.261  -0.631  0.00  0.00    -0.097 F 
ATOM      8  F1  UNL d   1       1.167   2.204  -0.887  0.00  0.00    -0.096 F 
ATOM      9  I   UNL d   1      -1.652   1.012   0.047  0.00  0.00    -0.060 I 
ATOM     10  F2  UNL d   1      -0.468  -1.649   1.373  0.00  0.00    -0.096 F 
ATOM     11  F3  UNL d   1       2.069  -2.565   1.614  0.00  0.00    -0.097 F 
ATOM     12  F4  UNL d   1       4.157  -1.120   0.617  0.00  0.00    -0.092 F 
ENDROOT
TORSDOF 0
ENDMDL
