MODEL 1
REMARK minimizedAffinity 0.650002837
REMARK minimizedRMSD -1
REMARK  0 active torsions:
REMARK  status: ('A' for Active; 'I' for Inactive)
ROOT
ATOM      1  C   UNL d   1      -0.022  -0.726   1.507  0.00  0.00     0.124 A 
ATOM      2  C1  UNL d   1      -0.312   0.336   0.662  0.00  0.00     0.062 A 
ATOM      3  C2  UNL d   1       0.688   0.893  -0.131  0.00  0.00     0.162 A 
ATOM      4  C3  UNL d   1       1.987   0.388  -0.083  0.00  0.00    -0.034 A 
ATOM      5  C4  UNL d   1       2.271  -0.680   0.770  0.00  0.00     0.162 A 
ATOM      6  C5  UNL d   1       1.269  -1.233   1.560  0.00  0.00     0.062 A 
ATOM      7  F   UNL d   1       1.551  -2.259   2.376  0.00  0.00    -0.097 F 
ATOM      8  F1  UNL d   1       3.510  -1.190   0.841  0.00  0.00    -0.096 F 
ATOM      9  I   UNL d   1       3.484   1.217  -1.267  0.00  0.00    -0.060 I 
ATOM     10  F2  UNL d   1       0.379   1.918  -0.938  0.00  0.00    -0.096 F 
ATOM     11  F3  UNL d   1      -1.558   0.828   0.609  0.00  0.00    -0.097 F 
ATOM     12  F4  UNL d   1      -0.985  -1.259   2.269  0.00  0.00    -0.092 F 
ENDROOT
TORSDOF 0
ENDMDL
