MODEL 1
REMARK minimizedAffinity 2.56572247
REMARK minimizedRMSD -1
REMARK  0 active torsions:
REMARK  status: ('A' for Active; 'I' for Inactive)
ROOT
ATOM      1  C   UNL d   1      -2.543   1.036  -2.614  0.00  0.00     0.124 A 
ATOM      2  C1  UNL d   1      -1.452   1.845  -2.327  0.00  0.00     0.062 A 
ATOM      3  C2  UNL d   1      -0.541   1.470  -1.344  0.00  0.00     0.162 A 
ATOM      4  C3  UNL d   1      -0.716   0.277  -0.641  0.00  0.00    -0.034 A 
ATOM      5  C4  UNL d   1      -1.816  -0.531  -0.935  0.00  0.00     0.162 A 
ATOM      6  C5  UNL d   1      -2.723  -0.151  -1.918  0.00  0.00     0.062 A 
ATOM      7  F   UNL d   1      -3.776  -0.934  -2.195  0.00  0.00    -0.097 F 
ATOM      8  F1  UNL d   1      -2.014  -1.684  -0.278  0.00  0.00    -0.096 F 
ATOM      9  I   UNL d   1       0.644  -0.288   0.829  0.00  0.00    -0.060 I 
ATOM     10  F2  UNL d   1       0.503   2.271  -1.087  0.00  0.00    -0.096 F 
ATOM     11  F3  UNL d   1      -1.276   2.993  -2.997  0.00  0.00    -0.097 F 
ATOM     12  F4  UNL d   1      -3.418   1.400  -3.560  0.00  0.00    -0.092 F 
ENDROOT
TORSDOF 0
ENDMDL
