MODEL 1
REMARK minimizedAffinity 1.11900043
REMARK minimizedRMSD -1
REMARK  0 active torsions:
REMARK  status: ('A' for Active; 'I' for Inactive)
ROOT
ATOM      1  C   UNL d   1      -2.445   0.151   0.024  0.00  0.00     0.124 A 
ATOM      2  C1  UNL d   1      -1.805  -0.229   1.196  0.00  0.00     0.062 A 
ATOM      3  C2  UNL d   1      -0.421  -0.376   1.221  0.00  0.00     0.162 A 
ATOM      4  C3  UNL d   1       0.333  -0.142   0.071  0.00  0.00    -0.034 A 
ATOM      5  C4  UNL d   1      -0.318   0.239  -1.104  0.00  0.00     0.162 A 
ATOM      6  C5  UNL d   1      -1.701   0.384  -1.124  0.00  0.00     0.062 A 
ATOM      7  F   UNL d   1      -2.318   0.751  -2.257  0.00  0.00    -0.097 F 
ATOM      8  F1  UNL d   1       0.376   0.472  -2.227  0.00  0.00    -0.096 F 
ATOM      9  I   UNL d   1       2.402  -0.360   0.106  0.00  0.00    -0.060 I 
ATOM     10  F2  UNL d   1       0.171  -0.743   2.367  0.00  0.00    -0.096 F 
ATOM     11  F3  UNL d   1      -2.522  -0.456   2.306  0.00  0.00    -0.097 F 
ATOM     12  F4  UNL d   1      -3.777   0.290   0.002  0.00  0.00    -0.092 F 
ENDROOT
TORSDOF 0
ENDMDL
