MODEL 1
REMARK minimizedAffinity 20.2706413
REMARK minimizedRMSD -1
REMARK  0 active torsions:
REMARK  status: ('A' for Active; 'I' for Inactive)
ROOT
ATOM      1  C   UNL d   1       2.605  -0.691   1.641  0.00  0.00     0.124 A 
ATOM      2  C1  UNL d   1       1.292  -0.372   1.959  0.00  0.00     0.062 A 
ATOM      3  C2  UNL d   1       0.480   0.265   1.026  0.00  0.00     0.162 A 
ATOM      4  C3  UNL d   1       0.979   0.588  -0.236  0.00  0.00    -0.034 A 
ATOM      5  C4  UNL d   1       2.300   0.265  -0.549  0.00  0.00     0.162 A 
ATOM      6  C5  UNL d   1       3.107  -0.373   0.387  0.00  0.00     0.062 A 
ATOM      7  F   UNL d   1       4.375  -0.680   0.077  0.00  0.00    -0.097 F 
ATOM      8  F1  UNL d   1       2.811   0.561  -1.754  0.00  0.00    -0.096 F 
ATOM      9  I   UNL d   1      -0.232   1.542  -1.635  0.00  0.00    -0.060 I 
ATOM     10  F2  UNL d   1      -0.784   0.562   1.361  0.00  0.00    -0.096 F 
ATOM     11  F3  UNL d   1       0.804  -0.679   3.170  0.00  0.00    -0.097 F 
ATOM     12  F4  UNL d   1       3.384  -1.304   2.541  0.00  0.00    -0.092 F 
ENDROOT
TORSDOF 0
ENDMDL
