MODEL 1
REMARK minimizedAffinity -3.96029925
REMARK minimizedRMSD -1
REMARK  0 active torsions:
REMARK  status: ('A' for Active; 'I' for Inactive)
ROOT
ATOM      1  C   UNL d   1       0.396  -1.883   1.756  0.00  0.00     0.124 A 
ATOM      2  C1  UNL d   1       0.908  -1.805   0.468  0.00  0.00     0.062 A 
ATOM      3  C2  UNL d   1       0.447  -0.829  -0.410  0.00  0.00     0.162 A 
ATOM      4  C3  UNL d   1      -0.532   0.078  -0.004  0.00  0.00    -0.034 A 
ATOM      5  C4  UNL d   1      -1.043  -0.008   1.292  0.00  0.00     0.162 A 
ATOM      6  C5  UNL d   1      -0.579  -0.985   2.167  0.00  0.00     0.062 A 
ATOM      7  F   UNL d   1      -1.075  -1.059   3.410  0.00  0.00    -0.097 F 
ATOM      8  F1  UNL d   1      -1.984   0.849   1.716  0.00  0.00    -0.096 F 
ATOM      9  I   UNL d   1      -1.224   1.539  -1.314  0.00  0.00    -0.060 I 
ATOM     10  F2  UNL d   1       0.960  -0.776  -1.649  0.00  0.00    -0.096 F 
ATOM     11  F3  UNL d   1       1.849  -2.673   0.068  0.00  0.00    -0.097 F 
ATOM     12  F4  UNL d   1       0.841  -2.824   2.599  0.00  0.00    -0.092 F 
ENDROOT
TORSDOF 0
ENDMDL
