MODEL 1
REMARK minimizedAffinity 13.4925394
REMARK minimizedRMSD -1
REMARK  0 active torsions:
REMARK  status: ('A' for Active; 'I' for Inactive)
ROOT
ATOM      1  C1  DEN d   1       5.742   1.943   2.513  0.00  0.00     0.130 A 
ATOM      2  C2  DEN d   1       5.933   3.333   2.107  0.00  0.00    -0.031 A 
ATOM      3  C3  DEN d   1       4.839   3.693   1.184  0.00  0.00     0.027 A 
ATOM      4  C4  DEN d   1       2.875   2.243   0.350  0.00  0.00     0.027 A 
ATOM      5  C5  DEN d   1       2.297   0.994   0.411  0.00  0.00    -0.003 A 
ATOM      6  C6  DEN d   1       2.842  -0.028   1.143  0.00  0.00     0.001 A 
ATOM      7  C7  DEN d   1       3.974   0.195   1.881  0.00  0.00     0.017 A 
ATOM      8  C8  DEN d   1       4.566   1.449   1.820  0.00  0.00    -0.094 A 
ATOM      9  C9  DEN d   1       3.994   2.473   1.083  0.00  0.00    -0.072 A 
ENDROOT
TORSDOF 0
ENDMDL
