MODEL 1
REMARK minimizedAffinity 11.1831055
REMARK minimizedRMSD -1
REMARK  0 active torsions:
REMARK  status: ('A' for Active; 'I' for Inactive)
ROOT
ATOM      1  C1  DEN d   1      -2.562  -0.491   0.063  0.00  0.00     0.130 A 
ATOM      2  C2  DEN d   1      -3.768   0.331   0.017  0.00  0.00    -0.031 A 
ATOM      3  C3  DEN d   1      -3.913   1.002   1.324  0.00  0.00     0.027 A 
ATOM      4  C4  DEN d   1      -2.393   0.852   3.402  0.00  0.00     0.027 A 
ATOM      5  C5  DEN d   1      -1.258   0.272   3.923  0.00  0.00    -0.003 A 
ATOM      6  C6  DEN d   1      -0.502  -0.622   3.211  0.00  0.00     0.001 A 
ATOM      7  C7  DEN d   1      -0.848  -0.928   1.922  0.00  0.00     0.017 A 
ATOM      8  C8  DEN d   1      -1.996  -0.353   1.392  0.00  0.00    -0.094 A 
ATOM      9  C9  DEN d   1      -2.739   0.558   2.124  0.00  0.00    -0.072 A 
ENDROOT
TORSDOF 0
ENDMDL
