MODEL 1
REMARK minimizedAffinity 6.64399242
REMARK minimizedRMSD -1
REMARK  0 active torsions:
REMARK  status: ('A' for Active; 'I' for Inactive)
ROOT
ATOM      1  C1  DEN d   1      -1.735   0.394   4.470  0.00  0.00     0.130 A 
ATOM      2  C2  DEN d   1      -2.933   1.161   4.138  0.00  0.00    -0.031 A 
ATOM      3  C3  DEN d   1      -3.355   0.782   2.775  0.00  0.00     0.027 A 
ATOM      4  C4  DEN d   1      -2.278  -0.913   1.156  0.00  0.00     0.027 A 
ATOM      5  C5  DEN d   1      -1.239  -1.801   0.989  0.00  0.00    -0.003 A 
ATOM      6  C6  DEN d   1      -0.281  -1.994   1.948  0.00  0.00     0.001 A 
ATOM      7  C7  DEN d   1      -0.368  -1.321   3.138  0.00  0.00     0.017 A 
ATOM      8  C8  DEN d   1      -1.409  -0.418   3.312  0.00  0.00    -0.094 A 
ATOM      9  C9  DEN d   1      -2.374  -0.247   2.334  0.00  0.00    -0.072 A 
ENDROOT
TORSDOF 0
ENDMDL
