MODEL 1
REMARK minimizedAffinity 14.9190779
REMARK minimizedRMSD -1
REMARK  0 active torsions:
REMARK  status: ('A' for Active; 'I' for Inactive)
ROOT
ATOM      1  C1  DEN d   1      -5.352   1.269   2.405  0.00  0.00     0.130 A 
ATOM      2  C2  DEN d   1      -5.723   0.852   1.055  0.00  0.00    -0.031 A 
ATOM      3  C3  DEN d   1      -4.574   0.134   0.467  0.00  0.00     0.027 A 
ATOM      4  C4  DEN d   1      -2.272  -0.376   1.513  0.00  0.00     0.027 A 
ATOM      5  C5  DEN d   1      -1.487  -0.213   2.633  0.00  0.00    -0.003 A 
ATOM      6  C6  DEN d   1      -1.920   0.478   3.734  0.00  0.00     0.001 A 
ATOM      7  C7  DEN d   1      -3.188   0.995   3.756  0.00  0.00     0.017 A 
ATOM      8  C8  DEN d   1      -3.983   0.841   2.627  0.00  0.00    -0.094 A 
ATOM      9  C9  DEN d   1      -3.532   0.128   1.529  0.00  0.00    -0.072 A 
ENDROOT
TORSDOF 0
ENDMDL
