MODEL 1
REMARK minimizedAffinity 8.86486053
REMARK minimizedRMSD -1
REMARK  0 active torsions:
REMARK  status: ('A' for Active; 'I' for Inactive)
ROOT
ATOM      1  C1  DEN d   1      -3.788  -4.840   1.984  0.00  0.00     0.130 A 
ATOM      2  C2  DEN d   1      -3.540  -3.438   1.661  0.00  0.00    -0.031 A 
ATOM      3  C3  DEN d   1      -3.769  -2.640   2.883  0.00  0.00     0.027 A 
ATOM      4  C4  DEN d   1      -4.477  -3.437   5.232  0.00  0.00     0.027 A 
ATOM      5  C5  DEN d   1      -4.816  -4.536   5.989  0.00  0.00    -0.003 A 
ATOM      6  C6  DEN d   1      -4.869  -5.799   5.461  0.00  0.00     0.001 A 
ATOM      7  C7  DEN d   1      -4.534  -6.000   4.148  0.00  0.00     0.017 A 
ATOM      8  C8  DEN d   1      -4.198  -4.895   3.376  0.00  0.00    -0.094 A 
ATOM      9  C9  DEN d   1      -4.139  -3.629   3.931  0.00  0.00    -0.072 A 
ENDROOT
TORSDOF 0
ENDMDL
