MODEL 1
REMARK minimizedAffinity 14.7249136
REMARK minimizedRMSD -1
REMARK  0 active torsions:
REMARK  status: ('A' for Active; 'I' for Inactive)
ROOT
ATOM      1  C1  DEN d   1       3.103   1.298  -0.453  0.00  0.00     0.130 A 
ATOM      2  C2  DEN d   1       1.774   1.476   0.124  0.00  0.00    -0.031 A 
ATOM      3  C3  DEN d   1       1.866   2.514   1.171  0.00  0.00     0.027 A 
ATOM      4  C4  DEN d   1       3.927   3.858   1.945  0.00  0.00     0.027 A 
ATOM      5  C5  DEN d   1       5.278   4.048   1.758  0.00  0.00    -0.003 A 
ATOM      6  C6  DEN d   1       6.000   3.317   0.852  0.00  0.00     0.001 A 
ATOM      7  C7  DEN d   1       5.365   2.392   0.066  0.00  0.00     0.017 A 
ATOM      8  C8  DEN d   1       4.004   2.190   0.254  0.00  0.00    -0.094 A 
ATOM      9  C9  DEN d   1       3.289   2.948   1.167  0.00  0.00    -0.072 A 
ENDROOT
TORSDOF 0
ENDMDL
