MODEL 1
REMARK minimizedAffinity 16.9820194
REMARK minimizedRMSD -1
REMARK  0 active torsions:
REMARK  status: ('A' for Active; 'I' for Inactive)
ROOT
ATOM      1  C1  DEN d   1      -0.340  -1.392   2.112  0.00  0.00     0.130 A 
ATOM      2  C2  DEN d   1      -1.343  -1.088   1.096  0.00  0.00    -0.031 A 
ATOM      3  C3  DEN d   1      -2.305  -0.129   1.676  0.00  0.00     0.027 A 
ATOM      4  C4  DEN d   1      -2.333   0.914   4.035  0.00  0.00     0.027 A 
ATOM      5  C5  DEN d   1      -1.692   0.951   5.253  0.00  0.00    -0.003 A 
ATOM      6  C6  DEN d   1      -0.585   0.190   5.519  0.00  0.00     0.001 A 
ATOM      7  C7  DEN d   1      -0.057  -0.607   4.538  0.00  0.00     0.017 A 
ATOM      8  C8  DEN d   1      -0.702  -0.655   3.309  0.00  0.00    -0.094 A 
ATOM      9  C9  DEN d   1      -1.813   0.131   3.056  0.00  0.00    -0.072 A 
ENDROOT
TORSDOF 0
ENDMDL
