MODEL 1
REMARK minimizedAffinity 18.6256142
REMARK minimizedRMSD -1
REMARK  0 active torsions:
REMARK  status: ('A' for Active; 'I' for Inactive)
ROOT
ATOM      1  C1  DEN d   1       1.426   3.684  -2.107  0.00  0.00     0.130 A 
ATOM      2  C2  DEN d   1       2.073   3.547  -3.409  0.00  0.00    -0.031 A 
ATOM      3  C3  DEN d   1       3.059   2.453  -3.316  0.00  0.00     0.027 A 
ATOM      4  C4  DEN d   1       3.642   0.961  -1.295  0.00  0.00     0.027 A 
ATOM      5  C5  DEN d   1       3.366   0.708   0.031  0.00  0.00    -0.003 A 
ATOM      6  C6  DEN d   1       2.455   1.446   0.740  0.00  0.00     0.001 A 
ATOM      7  C7  DEN d   1       1.755   2.444   0.115  0.00  0.00     0.017 A 
ATOM      8  C8  DEN d   1       2.034   2.709  -1.219  0.00  0.00    -0.094 A 
ATOM      9  C9  DEN d   1       2.949   1.944  -1.922  0.00  0.00    -0.072 A 
ENDROOT
TORSDOF 0
ENDMDL
