MODEL 1
REMARK minimizedAffinity 7.14065933
REMARK minimizedRMSD -1
REMARK  0 active torsions:
REMARK  status: ('A' for Active; 'I' for Inactive)
ROOT
ATOM      1  C1  DEN d   1      -4.847   1.250   0.971  0.00  0.00     0.130 A 
ATOM      2  C2  DEN d   1      -5.124   0.574  -0.294  0.00  0.00    -0.031 A 
ATOM      3  C3  DEN d   1      -4.129  -0.504  -0.462  0.00  0.00     0.027 A 
ATOM      4  C4  DEN d   1      -2.201  -1.192   1.107  0.00  0.00     0.027 A 
ATOM      5  C5  DEN d   1      -1.562  -0.904   2.293  0.00  0.00    -0.003 A 
ATOM      6  C6  DEN d   1      -1.948   0.135   3.098  0.00  0.00     0.001 A 
ATOM      7  C7  DEN d   1      -3.032   0.896   2.749  0.00  0.00     0.017 A 
ATOM      8  C8  DEN d   1      -3.677   0.617   1.552  0.00  0.00    -0.094 A 
ATOM      9  C9  DEN d   1      -3.279  -0.445   0.758  0.00  0.00    -0.072 A 
ENDROOT
TORSDOF 0
ENDMDL
