MODEL 1
REMARK minimizedAffinity 15.6033983
REMARK minimizedRMSD -1
REMARK  0 active torsions:
REMARK  status: ('A' for Active; 'I' for Inactive)
ROOT
ATOM      1  C1  DEN d   1      -2.877   5.364  -5.027  0.00  0.00     0.130 A 
ATOM      2  C2  DEN d   1      -1.434   5.271  -5.228  0.00  0.00    -0.031 A 
ATOM      3  C3  DEN d   1      -0.786   5.284  -3.901  0.00  0.00     0.027 A 
ATOM      4  C4  DEN d   1      -1.872   5.434  -1.567  0.00  0.00     0.027 A 
ATOM      5  C5  DEN d   1      -3.066   5.542  -0.889  0.00  0.00    -0.003 A 
ATOM      6  C6  DEN d   1      -4.269   5.632  -1.539  0.00  0.00     0.001 A 
ATOM      7  C7  DEN d   1      -4.307   5.570  -2.907  0.00  0.00     0.017 A 
ATOM      8  C8  DEN d   1      -3.107   5.469  -3.597  0.00  0.00    -0.094 A 
ATOM      9  C9  DEN d   1      -1.903   5.366  -2.922  0.00  0.00    -0.072 A 
ENDROOT
TORSDOF 0
ENDMDL
