MODEL 1
REMARK minimizedAffinity 10.7362175
REMARK minimizedRMSD -1
REMARK  0 active torsions:
REMARK  status: ('A' for Active; 'I' for Inactive)
ROOT
ATOM      1  C1  DEN d   1       0.469  -1.856   2.927  0.00  0.00     0.130 A 
ATOM      2  C2  DEN d   1       0.081  -1.896   1.520  0.00  0.00    -0.031 A 
ATOM      3  C3  DEN d   1      -1.066  -0.984   1.336  0.00  0.00     0.027 A 
ATOM      4  C4  DEN d   1      -2.268   0.483   3.085  0.00  0.00     0.027 A 
ATOM      5  C5  DEN d   1      -2.304   0.843   4.414  0.00  0.00    -0.003 A 
ATOM      6  C6  DEN d   1      -1.448   0.308   5.339  0.00  0.00     0.001 A 
ATOM      7  C7  DEN d   1      -0.488  -0.584   4.939  0.00  0.00     0.017 A 
ATOM      8  C8  DEN d   1      -0.450  -0.958   3.602  0.00  0.00    -0.094 A 
ATOM      9  C9  DEN d   1      -1.317  -0.396   2.680  0.00  0.00    -0.072 A 
ENDROOT
TORSDOF 0
ENDMDL
