MODEL 1
REMARK minimizedAffinity 20.0764523
REMARK minimizedRMSD -1
REMARK  0 active torsions:
REMARK  status: ('A' for Active; 'I' for Inactive)
ROOT
ATOM      1  C1  DEN d   1       5.926   3.501  -0.314  0.00  0.00     0.130 A 
ATOM      2  C2  DEN d   1       5.967   4.686   0.538  0.00  0.00    -0.031 A 
ATOM      3  C3  DEN d   1       5.972   5.876  -0.336  0.00  0.00     0.027 A 
ATOM      4  C4  DEN d   1       5.915   5.998  -2.912  0.00  0.00     0.027 A 
ATOM      5  C5  DEN d   1       5.887   5.254  -4.071  0.00  0.00    -0.003 A 
ATOM      6  C6  DEN d   1       5.904   3.885  -4.060  0.00  0.00     0.001 A 
ATOM      7  C7  DEN d   1       5.905   3.216  -2.864  0.00  0.00     0.017 A 
ATOM      8  C8  DEN d   1       5.941   3.959  -1.692  0.00  0.00    -0.094 A 
ATOM      9  C9  DEN d   1       5.911   5.343  -1.724  0.00  0.00    -0.072 A 
ENDROOT
TORSDOF 0
ENDMDL
