MODEL 1
REMARK minimizedAffinity 16.3103428
REMARK minimizedRMSD -1
REMARK  0 active torsions:
REMARK  status: ('A' for Active; 'I' for Inactive)
ROOT
ATOM      1  C1  DEN d   1       2.654   2.265  -3.742  0.00  0.00     0.130 A 
ATOM      2  C2  DEN d   1       1.977   2.142  -2.453  0.00  0.00    -0.031 A 
ATOM      3  C3  DEN d   1       2.795   2.839  -1.440  0.00  0.00     0.027 A 
ATOM      4  C4  DEN d   1       5.028   4.094  -1.740  0.00  0.00     0.027 A 
ATOM      5  C5  DEN d   1       5.998   4.457  -2.648  0.00  0.00    -0.003 A 
ATOM      6  C6  DEN d   1       5.939   4.090  -3.966  0.00  0.00     0.001 A 
ATOM      7  C7  DEN d   1       4.865   3.374  -4.424  0.00  0.00     0.017 A 
ATOM      8  C8  DEN d   1       3.886   2.997  -3.513  0.00  0.00    -0.094 A 
ATOM      9  C9  DEN d   1       3.958   3.389  -2.187  0.00  0.00    -0.072 A 
ENDROOT
TORSDOF 0
ENDMDL
