MODEL 1
REMARK minimizedAffinity 13.8910198
REMARK minimizedRMSD -1
REMARK  0 active torsions:
REMARK  status: ('A' for Active; 'I' for Inactive)
ROOT
ATOM      1  C1  DEN d   1      -2.193  -4.368  -3.809  0.00  0.00     0.130 A 
ATOM      2  C2  DEN d   1      -1.251  -5.209  -4.543  0.00  0.00    -0.031 A 
ATOM      3  C3  DEN d   1      -2.016  -5.999  -5.528  0.00  0.00     0.027 A 
ATOM      4  C4  DEN d   1      -4.554  -5.999  -5.989  0.00  0.00     0.027 A 
ATOM      5  C5  DEN d   1      -5.763  -5.460  -5.611  0.00  0.00    -0.003 A 
ATOM      6  C6  DEN d   1      -5.871  -4.552  -4.591  0.00  0.00     0.001 A 
ATOM      7  C7  DEN d   1      -4.743  -4.121  -3.944  0.00  0.00     0.017 A 
ATOM      8  C8  DEN d   1      -3.521  -4.666  -4.315  0.00  0.00    -0.094 A 
ATOM      9  C9  DEN d   1      -3.431  -5.573  -5.356  0.00  0.00    -0.072 A 
ENDROOT
TORSDOF 0
ENDMDL
