MODEL 1
REMARK minimizedAffinity 13.6075172
REMARK minimizedRMSD -1
REMARK  0 active torsions:
REMARK  status: ('A' for Active; 'I' for Inactive)
ROOT
ATOM      1  C1  DEN d   1      -5.392   0.201   1.548  0.00  0.00     0.130 A 
ATOM      2  C2  DEN d   1      -5.618   0.827   0.248  0.00  0.00    -0.031 A 
ATOM      3  C3  DEN d   1      -4.311   0.972  -0.423  0.00  0.00     0.027 A 
ATOM      4  C4  DEN d   1      -1.971   0.288   0.418  0.00  0.00     0.027 A 
ATOM      5  C5  DEN d   1      -1.274  -0.270   1.467  0.00  0.00    -0.003 A 
ATOM      6  C6  DEN d   1      -1.891  -0.675   2.621  0.00  0.00     0.001 A 
ATOM      7  C7  DEN d   1      -3.252  -0.570   2.736  0.00  0.00     0.017 A 
ATOM      8  C8  DEN d   1      -3.961  -0.002   1.685  0.00  0.00    -0.094 A 
ATOM      9  C9  DEN d   1      -3.320   0.390   0.522  0.00  0.00    -0.072 A 
ENDROOT
TORSDOF 0
ENDMDL
