MODEL 1
REMARK minimizedAffinity -2.07230163
REMARK minimizedRMSD -1
REMARK  2 active torsions:
REMARK  status: ('A' for Active; 'I' for Inactive)
REMARK    1  A    between atoms: C2'_3  and  C1'_4 
REMARK    2  A    between atoms: C1'_4  and  C1_5 
ROOT
ATOM      1  C1  I4B d   1       0.156  -0.704  -0.567  0.00  0.00    -0.075 A 
ATOM      2  C2  I4B d   1      -0.463   0.357  -1.180  0.00  0.00     0.003 A 
ATOM      3  C3  I4B d   1      -0.742   1.538  -0.449  0.00  0.00     0.002 A 
ATOM      4  C4  I4B d   1      -0.433   1.595   0.894  0.00  0.00    -0.004 A 
ATOM      5  C5  I4B d   1       0.215   0.526   1.508  0.00  0.00     0.002 A 
ATOM      6  C6  I4B d   1       0.523  -0.626   0.770  0.00  0.00     0.003 A 
ENDROOT
BRANCH   1   7
ATOM      7  C1' I4B d   1       0.407  -1.948  -1.360  0.00  0.00     0.060 C 
BRANCH   7   8
ATOM      8  C2' I4B d   1      -0.461  -3.050  -0.786  0.00  0.00    -0.013 C 
ATOM      9  C4' I4B d   1      -1.626  -3.353  -1.690  0.00  0.00     0.013 C 
ATOM     10  C3' I4B d   1       0.401  -4.261  -0.588  0.00  0.00     0.013 C 
ENDBRANCH   7   8
ENDBRANCH   1   7
TORSDOF 2
ENDMDL
