MODEL 1
REMARK minimizedAffinity 9.0898838
REMARK minimizedRMSD -1
REMARK  2 active torsions:
REMARK  status: ('A' for Active; 'I' for Inactive)
REMARK    1  A    between atoms: C2'_3  and  C1'_4 
REMARK    2  A    between atoms: C1'_4  and  C1_5 
ROOT
ATOM      1  C1  I4B d   1       1.415   0.013   2.326  0.00  0.00    -0.075 A 
ATOM      2  C2  I4B d   1       0.854   1.156   2.838  0.00  0.00     0.003 A 
ATOM      3  C3  I4B d   1       0.275   2.115   1.972  0.00  0.00     0.002 A 
ATOM      4  C4  I4B d   1       0.324   1.916   0.607  0.00  0.00    -0.004 A 
ATOM      5  C5  I4B d   1       0.872   0.745   0.091  0.00  0.00     0.002 A 
ATOM      6  C6  I4B d   1       1.410  -0.219   0.956  0.00  0.00     0.003 A 
ENDROOT
BRANCH   1   7
ATOM      7  C1' I4B d   1       2.046  -0.964   3.267  0.00  0.00     0.060 C 
BRANCH   7   8
ATOM      8  C2' I4B d   1       3.514  -1.077   2.906  0.00  0.00    -0.013 C 
ATOM      9  C4' I4B d   1       4.116   0.278   2.642  0.00  0.00     0.013 C 
ATOM     10  C3' I4B d   1       4.216  -1.771   4.035  0.00  0.00     0.013 C 
ENDBRANCH   7   8
ENDBRANCH   1   7
TORSDOF 2
ENDMDL
