MODEL 1
REMARK minimizedAffinity 3.18730879
REMARK minimizedRMSD -1
REMARK  2 active torsions:
REMARK  status: ('A' for Active; 'I' for Inactive)
REMARK    1  A    between atoms: C2'_3  and  C1'_4 
REMARK    2  A    between atoms: C1'_4  and  C1_5 
ROOT
ATOM      1  C1  I4B d   1      -0.750   0.107  -0.481  0.00  0.00    -0.075 A 
ATOM      2  C2  I4B d   1       0.151   0.982  -1.034  0.00  0.00     0.003 A 
ATOM      3  C3  I4B d   1      -0.196   1.729  -2.186  0.00  0.00     0.002 A 
ATOM      4  C4  I4B d   1      -1.427   1.533  -2.778  0.00  0.00    -0.004 A 
ATOM      5  C5  I4B d   1      -2.348   0.662  -2.202  0.00  0.00     0.002 A 
ATOM      6  C6  I4B d   1      -2.013  -0.046  -1.039  0.00  0.00     0.003 A 
ENDROOT
BRANCH   1   7
ATOM      7  C1' I4B d   1      -0.339  -0.690   0.717  0.00  0.00     0.060 C 
BRANCH   7   8
ATOM      8  C2' I4B d   1       0.676   0.125   1.493  0.00  0.00    -0.013 C 
ATOM      9  C4' I4B d   1      -0.001   1.151   2.364  0.00  0.00     0.013 C 
ATOM     10  C3' I4B d   1       1.500  -0.822   2.313  0.00  0.00     0.013 C 
ENDBRANCH   7   8
ENDBRANCH   1   7
TORSDOF 2
ENDMDL
