MODEL 1
REMARK minimizedAffinity 4.86021852
REMARK minimizedRMSD -1
REMARK  2 active torsions:
REMARK  status: ('A' for Active; 'I' for Inactive)
REMARK    1  A    between atoms: C2'_3  and  C1'_4 
REMARK    2  A    between atoms: C1'_4  and  C1_5 
ROOT
ATOM      1  C1  I4B d   1      -0.982   2.197   1.246  0.00  0.00    -0.075 A 
ATOM      2  C2  I4B d   1      -1.346   3.520   1.211  0.00  0.00     0.003 A 
ATOM      3  C3  I4B d   1      -1.472   4.192  -0.029  0.00  0.00     0.002 A 
ATOM      4  C4  I4B d   1      -1.177   3.521  -1.198  0.00  0.00    -0.004 A 
ATOM      5  C5  I4B d   1      -0.831   2.174  -1.162  0.00  0.00     0.002 A 
ATOM      6  C6  I4B d   1      -0.744   1.504   0.067  0.00  0.00     0.003 A 
ENDROOT
BRANCH   1   7
ATOM      7  C1' I4B d   1      -0.826   1.528   2.575  0.00  0.00     0.060 C 
BRANCH   7   8
ATOM      8  C2' I4B d   1       0.500   0.795   2.576  0.00  0.00    -0.013 C 
ATOM      9  C4' I4B d   1       1.656   1.759   2.538  0.00  0.00     0.013 C 
ATOM     10  C3' I4B d   1       0.552  -0.066   3.803  0.00  0.00     0.013 C 
ENDBRANCH   7   8
ENDBRANCH   1   7
TORSDOF 2
ENDMDL
