MODEL 1
REMARK minimizedAffinity -4.05464077
REMARK minimizedRMSD -1
REMARK  0 active torsions:
REMARK  status: ('A' for Active; 'I' for Inactive)
ROOT
ATOM      1  C   UNL d   1       0.382  -1.958  -2.645  0.00  0.00     0.172 C 
ATOM      2  N   UNL d   1       0.092  -1.930  -1.230  0.00  0.00    -0.070 N 
ATOM      3  C1  UNL d   1      -0.231  -3.015  -0.460  0.00  0.00    -0.004 A 
ATOM      4  C2  UNL d   1      -0.431  -2.572   0.830  0.00  0.00    -0.047 A 
ATOM      5  C3  UNL d   1      -0.222  -1.173   0.834  0.00  0.00    -0.047 A 
ATOM      6  C4  UNL d   1       0.101  -0.801  -0.454  0.00  0.00    -0.004 A 
ENDROOT
TORSDOF 0
ENDMDL
