MODEL 1
REMARK minimizedAffinity -3.88415194
REMARK minimizedRMSD -1
REMARK  0 active torsions:
REMARK  status: ('A' for Active; 'I' for Inactive)
ROOT
ATOM      1  C   UNL d   1       0.206  -0.384   0.611  0.00  0.00     0.172 C 
ATOM      2  N   UNL d   1       0.129  -1.618  -0.134  0.00  0.00    -0.070 N 
ATOM      3  C1  UNL d   1       0.241  -1.739  -1.494  0.00  0.00    -0.004 A 
ATOM      4  C2  UNL d   1       0.112  -3.074  -1.811  0.00  0.00    -0.047 A 
ATOM      5  C3  UNL d   1      -0.085  -3.780  -0.601  0.00  0.00    -0.047 A 
ATOM      6  C4  UNL d   1      -0.070  -2.855   0.422  0.00  0.00    -0.004 A 
ENDROOT
TORSDOF 0
ENDMDL
