MODEL 1
REMARK minimizedAffinity -3.23606968
REMARK minimizedRMSD -1
REMARK  0 active torsions:
REMARK  status: ('A' for Active; 'I' for Inactive)
ROOT
ATOM      1  C   UNL d   1       0.483   0.181  -0.258  0.00  0.00     0.172 C 
ATOM      2  N   UNL d   1       0.022  -1.150   0.060  0.00  0.00    -0.070 N 
ATOM      3  C1  UNL d   1      -1.167  -1.460   0.666  0.00  0.00    -0.004 A 
ATOM      4  C2  UNL d   1      -1.232  -2.830   0.791  0.00  0.00    -0.047 A 
ATOM      5  C3  UNL d   1      -0.041  -3.363   0.243  0.00  0.00    -0.047 A 
ATOM      6  C4  UNL d   1       0.717  -2.301  -0.202  0.00  0.00    -0.004 A 
ENDROOT
TORSDOF 0
ENDMDL
