MODEL 1
REMARK minimizedAffinity -2.62897825
REMARK minimizedRMSD -1
REMARK  0 active torsions:
REMARK  status: ('A' for Active; 'I' for Inactive)
ROOT
ATOM      1  C   UNL d   1      -0.599  -2.461  -2.716  0.00  0.00     0.172 C 
ATOM      2  N   UNL d   1      -0.606  -1.562  -1.585  0.00  0.00    -0.070 N 
ATOM      3  C1  UNL d   1      -1.057  -1.865  -0.328  0.00  0.00    -0.004 A 
ATOM      4  C2  UNL d   1      -0.894  -0.746   0.459  0.00  0.00    -0.047 A 
ATOM      5  C3  UNL d   1      -0.326   0.265  -0.353  0.00  0.00    -0.047 A 
ATOM      6  C4  UNL d   1      -0.158  -0.268  -1.614  0.00  0.00    -0.004 A 
ENDROOT
TORSDOF 0
ENDMDL
