MODEL 1
REMARK minimizedAffinity -3.33049965
REMARK minimizedRMSD -1
REMARK  0 active torsions:
REMARK  status: ('A' for Active; 'I' for Inactive)
ROOT
ATOM      1  C   UNL d   1      -0.009  -2.987   0.746  0.00  0.00     0.172 C 
ATOM      2  N   UNL d   1       0.060  -1.580   0.428  0.00  0.00    -0.070 N 
ATOM      3  C1  UNL d   1       0.258  -1.053  -0.820  0.00  0.00    -0.004 A 
ATOM      4  C2  UNL d   1       0.259   0.320  -0.703  0.00  0.00    -0.047 A 
ATOM      5  C3  UNL d   1       0.056   0.629   0.663  0.00  0.00    -0.047 A 
ATOM      6  C4  UNL d   1      -0.065  -0.566   1.340  0.00  0.00    -0.004 A 
ENDROOT
TORSDOF 0
ENDMDL
