MODEL 1
REMARK minimizedAffinity -3.2130239
REMARK minimizedRMSD -1
REMARK  0 active torsions:
REMARK  status: ('A' for Active; 'I' for Inactive)
ROOT
ATOM      1  C   UNL d   1       0.321   1.539   0.007  0.00  0.00     0.172 C 
ATOM      2  N   UNL d   1      -0.099   0.173   0.213  0.00  0.00    -0.070 N 
ATOM      3  C1  UNL d   1       0.123  -0.869  -0.647  0.00  0.00    -0.004 A 
ATOM      4  C2  UNL d   1      -0.430  -2.002  -0.090  0.00  0.00    -0.047 A 
ATOM      5  C3  UNL d   1      -1.006  -1.627   1.147  0.00  0.00    -0.047 A 
ATOM      6  C4  UNL d   1      -0.786  -0.276   1.310  0.00  0.00    -0.004 A 
ENDROOT
TORSDOF 0
ENDMDL
