MODEL 1
REMARK minimizedAffinity 0.163853973
REMARK minimizedRMSD -1
REMARK  0 active torsions:
REMARK  status: ('A' for Active; 'I' for Inactive)
ROOT
ATOM      1  C   UNL d   1       0.971   2.170   0.040  0.00  0.00     0.172 C 
ATOM      2  N   UNL d   1       0.272   0.932   0.295  0.00  0.00    -0.070 N 
ATOM      3  C1  UNL d   1      -0.004   0.410   1.530  0.00  0.00    -0.004 A 
ATOM      4  C2  UNL d   1      -0.681  -0.776   1.346  0.00  0.00    -0.047 A 
ATOM      5  C3  UNL d   1      -0.817  -0.974  -0.049  0.00  0.00    -0.047 A 
ATOM      6  C4  UNL d   1      -0.218   0.098  -0.676  0.00  0.00    -0.004 A 
ENDROOT
TORSDOF 0
ENDMDL
