MODEL 1
REMARK minimizedAffinity -2.25602627
REMARK minimizedRMSD -1
REMARK  0 active torsions:
REMARK  status: ('A' for Active; 'I' for Inactive)
ROOT
ATOM      1  C   UNL d   1       0.537   1.209   0.016  0.00  0.00     0.172 C 
ATOM      2  N   UNL d   1       0.185  -0.145   0.373  0.00  0.00    -0.070 N 
ATOM      3  C1  UNL d   1       0.953  -1.256   0.147  0.00  0.00    -0.004 A 
ATOM      4  C2  UNL d   1       0.268  -2.349   0.633  0.00  0.00    -0.047 A 
ATOM      5  C3  UNL d   1      -0.955  -1.878   1.168  0.00  0.00    -0.047 A 
ATOM      6  C4  UNL d   1      -0.980  -0.511   0.994  0.00  0.00    -0.004 A 
ENDROOT
TORSDOF 0
ENDMDL
