MODEL 1
REMARK minimizedAffinity -4.10365486
REMARK minimizedRMSD -1
REMARK  0 active torsions:
REMARK  status: ('A' for Active; 'I' for Inactive)
ROOT
ATOM      1  C   UNL d   1      -0.376  -0.556   1.203  0.00  0.00     0.172 C 
ATOM      2  N   UNL d   1      -0.259  -1.436   0.064  0.00  0.00    -0.070 N 
ATOM      3  C1  UNL d   1      -0.490  -2.786   0.070  0.00  0.00    -0.004 A 
ATOM      4  C2  UNL d   1      -0.273  -3.257  -1.206  0.00  0.00    -0.047 A 
ATOM      5  C3  UNL d   1       0.101  -2.153  -2.008  0.00  0.00    -0.047 A 
ATOM      6  C4  UNL d   1       0.102  -1.038  -1.196  0.00  0.00    -0.004 A 
ENDROOT
TORSDOF 0
ENDMDL
