MODEL 1
REMARK minimizedAffinity -3.61543894
REMARK minimizedRMSD -1
REMARK  0 active torsions:
REMARK  status: ('A' for Active; 'I' for Inactive)
ROOT
ATOM      1  C   UNL d   1      -0.505   1.075  -0.634  0.00  0.00     0.172 C 
ATOM      2  N   UNL d   1      -0.514   0.085   0.418  0.00  0.00    -0.070 N 
ATOM      3  C1  UNL d   1      -1.523  -0.806   0.666  0.00  0.00    -0.004 A 
ATOM      4  C2  UNL d   1      -1.150  -1.575   1.747  0.00  0.00    -0.047 A 
ATOM      5  C3  UNL d   1       0.127  -1.129   2.164  0.00  0.00    -0.047 A 
ATOM      6  C4  UNL d   1       0.497  -0.101   1.323  0.00  0.00    -0.004 A 
ENDROOT
TORSDOF 0
ENDMDL
