MODEL 1
REMARK minimizedAffinity -2.24012423
REMARK minimizedRMSD -1
REMARK  0 active torsions:
REMARK  status: ('A' for Active; 'I' for Inactive)
ROOT
ATOM      1  C   UNL d   1       0.301   1.008  -0.045  0.00  0.00     0.172 C 
ATOM      2  N   UNL d   1      -0.029  -0.362   0.268  0.00  0.00    -0.070 N 
ATOM      3  C1  UNL d   1      -1.193  -0.790   0.849  0.00  0.00    -0.004 A 
ATOM      4  C2  UNL d   1      -1.121  -2.160   0.978  0.00  0.00    -0.047 A 
ATOM      5  C3  UNL d   1       0.129  -2.570   0.457  0.00  0.00    -0.047 A 
ATOM      6  C4  UNL d   1       0.785  -1.437   0.024  0.00  0.00    -0.004 A 
ENDROOT
TORSDOF 0
ENDMDL
