MODEL 1
REMARK minimizedAffinity -2.76812768
REMARK minimizedRMSD -1
REMARK  0 active torsions:
REMARK  status: ('A' for Active; 'I' for Inactive)
ROOT
ATOM      1  C   UNL d   1      -0.286  -2.969   0.765  0.00  0.00     0.172 C 
ATOM      2  N   UNL d   1      -0.145  -1.571   0.435  0.00  0.00    -0.070 N 
ATOM      3  C1  UNL d   1       0.390  -1.073  -0.723  0.00  0.00    -0.004 A 
ATOM      4  C2  UNL d   1       0.344   0.302  -0.653  0.00  0.00    -0.047 A 
ATOM      5  C3  UNL d   1      -0.238   0.644   0.591  0.00  0.00    -0.047 A 
ATOM      6  C4  UNL d   1      -0.531  -0.535   1.245  0.00  0.00    -0.004 A 
ENDROOT
TORSDOF 0
ENDMDL
