MODEL 1
REMARK minimizedAffinity -3.84776354
REMARK minimizedRMSD -1
REMARK  0 active torsions:
REMARK  status: ('A' for Active; 'I' for Inactive)
ROOT
ATOM      1  C   UNL d   1       0.418   1.431   0.289  0.00  0.00     0.172 C 
ATOM      2  N   UNL d   1      -0.007   0.060   0.453  0.00  0.00    -0.070 N 
ATOM      3  C1  UNL d   1       0.224  -0.959  -0.432  0.00  0.00    -0.004 A 
ATOM      4  C2  UNL d   1      -0.337  -2.105   0.088  0.00  0.00    -0.047 A 
ATOM      5  C3  UNL d   1      -0.926  -1.763   1.328  0.00  0.00    -0.047 A 
ATOM      6  C4  UNL d   1      -0.707  -0.417   1.530  0.00  0.00    -0.004 A 
ENDROOT
TORSDOF 0
ENDMDL
