MODEL 1
REMARK minimizedAffinity -2.62904668
REMARK minimizedRMSD -1
REMARK  0 active torsions:
REMARK  status: ('A' for Active; 'I' for Inactive)
ROOT
ATOM      1  C   UNL d   1       0.288  -1.601  -2.071  0.00  0.00     0.172 C 
ATOM      2  N   UNL d   1      -0.041  -1.632  -0.665  0.00  0.00    -0.070 N 
ATOM      3  C1  UNL d   1      -0.284  -0.538   0.122  0.00  0.00    -0.004 A 
ATOM      4  C2  UNL d   1      -0.560  -0.987   1.395  0.00  0.00    -0.047 A 
ATOM      5  C3  UNL d   1      -0.478  -2.400   1.373  0.00  0.00    -0.047 A 
ATOM      6  C4  UNL d   1      -0.155  -2.772   0.085  0.00  0.00    -0.004 A 
ENDROOT
TORSDOF 0
ENDMDL
