MODEL 1
REMARK minimizedAffinity 9.09361458
REMARK minimizedRMSD -1
REMARK  0 active torsions:
REMARK  status: ('A' for Active; 'I' for Inactive)
ROOT
ATOM      1  C   UNL d   1      -3.143   0.129   1.407  0.00  0.00     0.077 C 
ATOM      2  C1  UNL d   1      -2.645  -1.285   1.345  0.00  0.00    -0.074 A 
ATOM      3  C2  UNL d   1      -1.852  -1.813   2.369  0.00  0.00    -0.005 A 
ATOM      4  C3  UNL d   1      -1.405  -3.132   2.302  0.00  0.00     0.006 A 
ATOM      5  C4  UNL d   1      -1.745  -3.936   1.213  0.00  0.00    -0.005 A 
ATOM      6  C5  UNL d   1      -2.538  -3.425   0.180  0.00  0.00    -0.074 A 
ATOM      7  C6  UNL d   1      -2.921  -4.278  -0.993  0.00  0.00     0.077 C 
ATOM      8  C7  UNL d   1      -2.989  -2.100   0.258  0.00  0.00    -0.001 A 
ENDROOT
TORSDOF 0
ENDMDL
