MODEL 1
REMARK minimizedAffinity -1.86722052
REMARK minimizedRMSD -1
REMARK  0 active torsions:
REMARK  status: ('A' for Active; 'I' for Inactive)
ROOT
ATOM      1  C   UNL d   1       2.303   2.263   1.574  0.00  0.00     0.077 C 
ATOM      2  C1  UNL d   1       1.166   1.533   0.922  0.00  0.00    -0.074 A 
ATOM      3  C2  UNL d   1       1.401   0.581  -0.075  0.00  0.00    -0.005 A 
ATOM      4  C3  UNL d   1       0.334  -0.096  -0.665  0.00  0.00     0.006 A 
ATOM      5  C4  UNL d   1      -0.976   0.171  -0.265  0.00  0.00    -0.005 A 
ATOM      6  C5  UNL d   1      -1.230   1.119   0.731  0.00  0.00    -0.074 A 
ATOM      7  C6  UNL d   1      -2.631   1.412   1.180  0.00  0.00     0.077 C 
ATOM      8  C7  UNL d   1      -0.152   1.791   1.324  0.00  0.00    -0.001 A 
ENDROOT
TORSDOF 0
ENDMDL
