MODEL 1
REMARK minimizedAffinity 12.4993067
REMARK minimizedRMSD -1
REMARK  0 active torsions:
REMARK  status: ('A' for Active; 'I' for Inactive)
ROOT
ATOM      1  C   UNL d   1      -1.420   4.937  -5.930  0.00  0.00     0.077 C 
ATOM      2  C1  UNL d   1      -0.951   3.547  -5.619  0.00  0.00    -0.074 A 
ATOM      3  C2  UNL d   1       0.324   3.117  -6.000  0.00  0.00    -0.005 A 
ATOM      4  C3  UNL d   1       0.749   1.824  -5.696  0.00  0.00     0.006 A 
ATOM      5  C4  UNL d   1      -0.094   0.950  -5.009  0.00  0.00    -0.005 A 
ATOM      6  C5  UNL d   1      -1.372   1.363  -4.619  0.00  0.00    -0.074 A 
ATOM      7  C6  UNL d   1      -2.287   0.439  -3.871  0.00  0.00     0.077 C 
ATOM      8  C7  UNL d   1      -1.790   2.666  -4.922  0.00  0.00    -0.001 A 
ENDROOT
TORSDOF 0
ENDMDL
