MODEL 1
REMARK minimizedAffinity 8.133358
REMARK minimizedRMSD -1
REMARK  0 active torsions:
REMARK  status: ('A' for Active; 'I' for Inactive)
ROOT
ATOM      1  C   UNL d   1       2.957   3.749  -0.473  0.00  0.00     0.077 C 
ATOM      2  C1  UNL d   1       3.759   3.647   0.791  0.00  0.00    -0.074 A 
ATOM      3  C2  UNL d   1       4.147   2.402   1.297  0.00  0.00    -0.005 A 
ATOM      4  C3  UNL d   1       4.901   2.324   2.468  0.00  0.00     0.006 A 
ATOM      5  C4  UNL d   1       5.273   3.487   3.144  0.00  0.00    -0.005 A 
ATOM      6  C5  UNL d   1       4.895   4.740   2.652  0.00  0.00    -0.074 A 
ATOM      7  C6  UNL d   1       5.295   6.000   3.360  0.00  0.00     0.077 C 
ATOM      8  C7  UNL d   1       4.144   4.811   1.471  0.00  0.00    -0.001 A 
ENDROOT
TORSDOF 0
ENDMDL
