MODEL 1
REMARK minimizedAffinity -0.115336217
REMARK minimizedRMSD -1
REMARK  0 active torsions:
REMARK  status: ('A' for Active; 'I' for Inactive)
ROOT
ATOM      1  C   UNL d   1      -5.576   5.999  -5.097  0.00  0.00     0.077 C 
ATOM      2  C1  UNL d   1      -5.710   5.233  -3.814  0.00  0.00    -0.074 A 
ATOM      3  C2  UNL d   1      -5.736   3.835  -3.811  0.00  0.00    -0.005 A 
ATOM      4  C3  UNL d   1      -5.851   3.137  -2.609  0.00  0.00     0.006 A 
ATOM      5  C4  UNL d   1      -5.940   3.828  -1.400  0.00  0.00    -0.005 A 
ATOM      6  C5  UNL d   1      -5.915   5.226  -1.384  0.00  0.00    -0.074 A 
ATOM      7  C6  UNL d   1      -6.000   5.985  -0.093  0.00  0.00     0.077 C 
ATOM      8  C7  UNL d   1      -5.792   5.921  -2.595  0.00  0.00    -0.001 A 
ENDROOT
TORSDOF 0
ENDMDL
