MODEL 1
REMARK minimizedAffinity 4.8332653
REMARK minimizedRMSD -1
REMARK  0 active torsions:
REMARK  status: ('A' for Active; 'I' for Inactive)
ROOT
ATOM      1  C   UNL d   1      -1.306  -0.385   1.131  0.00  0.00     0.077 C 
ATOM      2  C1  UNL d   1      -1.471  -1.835   0.784  0.00  0.00    -0.074 A 
ATOM      3  C2  UNL d   1      -0.681  -2.815   1.394  0.00  0.00    -0.005 A 
ATOM      4  C3  UNL d   1      -0.852  -4.160   1.068  0.00  0.00     0.006 A 
ATOM      5  C4  UNL d   1      -1.814  -4.538   0.130  0.00  0.00    -0.005 A 
ATOM      6  C5  UNL d   1      -2.614  -3.573  -0.489  0.00  0.00    -0.074 A 
ATOM      7  C6  UNL d   1      -3.659  -3.964  -1.491  0.00  0.00     0.077 C 
ATOM      8  C7  UNL d   1      -2.440  -2.224  -0.151  0.00  0.00    -0.001 A 
ENDROOT
TORSDOF 0
ENDMDL
