MODEL 1
REMARK minimizedAffinity -0.0296905655
REMARK minimizedRMSD -1
REMARK  0 active torsions:
REMARK  status: ('A' for Active; 'I' for Inactive)
ROOT
ATOM      1  C   UNL d   1      -1.153   2.019   1.160  0.00  0.00     0.077 C 
ATOM      2  C1  UNL d   1      -0.583   0.770   0.556  0.00  0.00    -0.074 A 
ATOM      3  C2  UNL d   1      -0.716  -0.465   1.199  0.00  0.00    -0.005 A 
ATOM      4  C3  UNL d   1      -0.188  -1.619   0.621  0.00  0.00     0.006 A 
ATOM      5  C4  UNL d   1       0.476  -1.551  -0.604  0.00  0.00    -0.005 A 
ATOM      6  C5  UNL d   1       0.618  -0.325  -1.263  0.00  0.00    -0.074 A 
ATOM      7  C6  UNL d   1       1.320  -0.235  -2.585  0.00  0.00     0.077 C 
ATOM      8  C7  UNL d   1       0.079   0.829  -0.678  0.00  0.00    -0.001 A 
ENDROOT
TORSDOF 0
ENDMDL
