MODEL 1
REMARK minimizedAffinity 2.39313555
REMARK minimizedRMSD -1
REMARK  0 active torsions:
REMARK  status: ('A' for Active; 'I' for Inactive)
ROOT
ATOM      1  C   UNL d   1       5.770   1.903  -5.983  0.00  0.00     0.077 C 
ATOM      2  C1  UNL d   1       5.157   3.272  -5.970  0.00  0.00    -0.074 A 
ATOM      3  C2  UNL d   1       5.959   4.419  -5.961  0.00  0.00    -0.005 A 
ATOM      4  C3  UNL d   1       5.374   5.685  -5.958  0.00  0.00     0.006 A 
ATOM      5  C4  UNL d   1       3.985   5.818  -5.965  0.00  0.00    -0.005 A 
ATOM      6  C5  UNL d   1       3.168   4.683  -5.975  0.00  0.00    -0.074 A 
ATOM      7  C6  UNL d   1       1.673   4.808  -5.993  0.00  0.00     0.077 C 
ATOM      8  C7  UNL d   1       3.763   3.414  -5.985  0.00  0.00    -0.001 A 
ENDROOT
TORSDOF 0
ENDMDL
