MODEL 1
REMARK minimizedAffinity 3.45967484
REMARK minimizedRMSD -1
REMARK  0 active torsions:
REMARK  status: ('A' for Active; 'I' for Inactive)
ROOT
ATOM      1  C   UNL d   1       3.486   3.599   2.123  0.00  0.00     0.077 C 
ATOM      2  C1  UNL d   1       2.384   2.645   1.771  0.00  0.00    -0.074 A 
ATOM      3  C2  UNL d   1       2.627   1.536   0.954  0.00  0.00    -0.005 A 
ATOM      4  C3  UNL d   1       1.594   0.652   0.643  0.00  0.00     0.006 A 
ATOM      5  C4  UNL d   1       0.310   0.867   1.145  0.00  0.00    -0.005 A 
ATOM      6  C5  UNL d   1       0.049   1.970   1.964  0.00  0.00    -0.074 A 
ATOM      7  C6  UNL d   1      -1.324   2.210   2.520  0.00  0.00     0.077 C 
ATOM      8  C7  UNL d   1       1.093   2.850   2.278  0.00  0.00    -0.001 A 
ENDROOT
TORSDOF 0
ENDMDL
