MODEL 1
REMARK minimizedAffinity 5.4281249
REMARK minimizedRMSD -1
REMARK  0 active torsions:
REMARK  status: ('A' for Active; 'I' for Inactive)
ROOT
ATOM      1  C   UNL d   1      -2.959  -1.787  -2.058  0.00  0.00     0.077 C 
ATOM      2  C1  UNL d   1      -2.820  -3.258  -2.317  0.00  0.00    -0.074 A 
ATOM      3  C2  UNL d   1      -3.810  -4.156  -1.906  0.00  0.00    -0.005 A 
ATOM      4  C3  UNL d   1      -3.672  -5.520  -2.161  0.00  0.00     0.006 A 
ATOM      5  C4  UNL d   1      -2.545  -5.999  -2.830  0.00  0.00    -0.005 A 
ATOM      6  C5  UNL d   1      -1.545  -5.116  -3.249  0.00  0.00    -0.074 A 
ATOM      7  C6  UNL d   1      -0.332  -5.613  -3.977  0.00  0.00     0.077 C 
ATOM      8  C7  UNL d   1      -1.694  -3.746  -2.995  0.00  0.00    -0.001 A 
ENDROOT
TORSDOF 0
ENDMDL
