MODEL 1
REMARK minimizedAffinity 0.489282072
REMARK minimizedRMSD -1
REMARK  0 active torsions:
REMARK  status: ('A' for Active; 'I' for Inactive)
ROOT
ATOM      1  C   UNL d   1       4.515   5.999   1.726  0.00  0.00     0.077 C 
ATOM      2  C1  UNL d   1       4.320   5.990   3.213  0.00  0.00    -0.074 A 
ATOM      3  C2  UNL d   1       5.417   5.995   4.082  0.00  0.00    -0.005 A 
ATOM      4  C3  UNL d   1       5.220   5.996   5.463  0.00  0.00     0.006 A 
ATOM      5  C4  UNL d   1       3.928   5.992   5.988  0.00  0.00    -0.005 A 
ATOM      6  C5  UNL d   1       2.819   5.988   5.136  0.00  0.00    -0.074 A 
ATOM      7  C6  UNL d   1       1.423   5.994   5.684  0.00  0.00     0.077 C 
ATOM      8  C7  UNL d   1       3.025   5.994   3.749  0.00  0.00    -0.001 A 
ENDROOT
TORSDOF 0
ENDMDL
