MODEL 1
REMARK minimizedAffinity -2.37785077
REMARK minimizedRMSD -1
REMARK  0 active torsions:
REMARK  status: ('A' for Active; 'I' for Inactive)
ROOT
ATOM      1  C   UNL d   1      -5.465   5.764  -5.909  0.00  0.00     0.077 C 
ATOM      2  C1  UNL d   1      -5.657   4.433  -5.245  0.00  0.00    -0.074 A 
ATOM      3  C2  UNL d   1      -5.739   3.259  -6.000  0.00  0.00    -0.005 A 
ATOM      4  C3  UNL d   1      -5.907   2.027  -5.367  0.00  0.00     0.006 A 
ATOM      5  C4  UNL d   1      -5.996   1.957  -3.977  0.00  0.00    -0.005 A 
ATOM      6  C5  UNL d   1      -5.915   3.121  -3.206  0.00  0.00    -0.074 A 
ATOM      7  C6  UNL d   1      -5.999   3.063  -1.709  0.00  0.00     0.077 C 
ATOM      8  C7  UNL d   1      -5.739   4.355  -3.848  0.00  0.00    -0.001 A 
ENDROOT
TORSDOF 0
ENDMDL
