MODEL 1
REMARK minimizedAffinity 10.1966009
REMARK minimizedRMSD -1
REMARK  0 active torsions:
REMARK  status: ('A' for Active; 'I' for Inactive)
ROOT
ATOM      1  C   UNL d   1       5.999   3.005   3.109  0.00  0.00     0.077 C 
ATOM      2  C1  UNL d   1       5.596   3.684   1.835  0.00  0.00    -0.074 A 
ATOM      3  C2  UNL d   1       4.875   4.883   1.856  0.00  0.00    -0.005 A 
ATOM      4  C3  UNL d   1       4.515   5.508   0.662  0.00  0.00     0.006 A 
ATOM      5  C4  UNL d   1       4.872   4.942  -0.563  0.00  0.00    -0.005 A 
ATOM      6  C5  UNL d   1       5.593   3.745  -0.604  0.00  0.00    -0.074 A 
ATOM      7  C6  UNL d   1       5.993   3.129  -1.911  0.00  0.00     0.077 C 
ATOM      8  C7  UNL d   1       5.957   3.126   0.600  0.00  0.00    -0.001 A 
ENDROOT
TORSDOF 0
ENDMDL
