MODEL 1
REMARK minimizedAffinity -1.63591754
REMARK minimizedRMSD -1
REMARK  0 active torsions:
REMARK  status: ('A' for Active; 'I' for Inactive)
ROOT
ATOM      1  C   UNL d   1      -1.889  -0.474   1.019  0.00  0.00     0.077 C 
ATOM      2  C1  UNL d   1      -2.110  -1.923   0.702  0.00  0.00    -0.074 A 
ATOM      3  C2  UNL d   1      -1.805  -2.918   1.637  0.00  0.00    -0.005 A 
ATOM      4  C3  UNL d   1      -2.024  -4.261   1.331  0.00  0.00     0.006 A 
ATOM      5  C4  UNL d   1      -2.550  -4.622   0.090  0.00  0.00    -0.005 A 
ATOM      6  C5  UNL d   1      -2.862  -3.641  -0.857  0.00  0.00    -0.074 A 
ATOM      7  C6  UNL d   1      -3.437  -4.012  -2.192  0.00  0.00     0.077 C 
ATOM      8  C7  UNL d   1      -2.645  -2.293  -0.540  0.00  0.00    -0.001 A 
ENDROOT
TORSDOF 0
ENDMDL
