MODEL 1
REMARK minimizedAffinity 4.08266544
REMARK minimizedRMSD -1
REMARK  0 active torsions:
REMARK  status: ('A' for Active; 'I' for Inactive)
ROOT
ATOM      1  C   UNL d   1      -2.343  -1.394  -2.656  0.00  0.00     0.077 C 
ATOM      2  C1  UNL d   1      -2.665  -2.672  -1.940  0.00  0.00    -0.074 A 
ATOM      3  C2  UNL d   1      -1.650  -3.463  -1.390  0.00  0.00    -0.005 A 
ATOM      4  C3  UNL d   1      -1.965  -4.644  -0.718  0.00  0.00     0.006 A 
ATOM      5  C4  UNL d   1      -3.295  -5.046  -0.590  0.00  0.00    -0.005 A 
ATOM      6  C5  UNL d   1      -4.323  -4.269  -1.133  0.00  0.00    -0.074 A 
ATOM      7  C6  UNL d   1      -5.758  -4.682  -0.995  0.00  0.00     0.077 C 
ATOM      8  C7  UNL d   1      -3.999  -3.080  -1.800  0.00  0.00    -0.001 A 
ENDROOT
TORSDOF 0
ENDMDL
