MODEL 1
REMARK minimizedAffinity 9.09364605
REMARK minimizedRMSD -1
REMARK  0 active torsions:
REMARK  status: ('A' for Active; 'I' for Inactive)
ROOT
ATOM      1  C   UNL d   1      -1.071  -4.167   1.405  0.00  0.00     0.077 C 
ATOM      2  C1  UNL d   1      -1.895  -3.078   2.025  0.00  0.00    -0.074 A 
ATOM      3  C2  UNL d   1      -2.339  -3.176   3.347  0.00  0.00    -0.005 A 
ATOM      4  C3  UNL d   1      -3.096  -2.151   3.913  0.00  0.00     0.006 A 
ATOM      5  C4  UNL d   1      -3.416  -1.018   3.164  0.00  0.00    -0.005 A 
ATOM      6  C5  UNL d   1      -2.979  -0.901   1.840  0.00  0.00    -0.074 A 
ATOM      7  C6  UNL d   1      -3.306   0.314   1.024  0.00  0.00     0.077 C 
ATOM      8  C7  UNL d   1      -2.213  -1.933   1.281  0.00  0.00    -0.001 A 
ENDROOT
TORSDOF 0
ENDMDL
