MODEL 1
REMARK minimizedAffinity 3.30928564
REMARK minimizedRMSD -1
REMARK  0 active torsions:
REMARK  status: ('A' for Active; 'I' for Inactive)
ROOT
ATOM      1  C   UNL d   1      -0.144   1.102   0.572  0.00  0.00     0.077 C 
ATOM      2  C1  UNL d   1      -1.230   0.102   0.839  0.00  0.00    -0.074 A 
ATOM      3  C2  UNL d   1      -2.553   0.361   0.469  0.00  0.00    -0.005 A 
ATOM      4  C3  UNL d   1      -3.550  -0.582   0.716  0.00  0.00     0.006 A 
ATOM      5  C4  UNL d   1      -3.235  -1.793   1.334  0.00  0.00    -0.005 A 
ATOM      6  C5  UNL d   1      -1.917  -2.070   1.711  0.00  0.00    -0.074 A 
ATOM      7  C6  UNL d   1      -1.559  -3.370   2.367  0.00  0.00     0.077 C 
ATOM      8  C7  UNL d   1      -0.919  -1.120   1.453  0.00  0.00    -0.001 A 
ENDROOT
TORSDOF 0
ENDMDL
