MODEL 1
REMARK minimizedAffinity 17.0275993
REMARK minimizedRMSD -1
REMARK  0 active torsions:
REMARK  status: ('A' for Active; 'I' for Inactive)
ROOT
ATOM      1  C   UNL d   1      -2.668  -2.073   1.767  0.00  0.00     0.077 C 
ATOM      2  C1  UNL d   1      -3.068  -3.216   0.882  0.00  0.00    -0.074 A 
ATOM      3  C2  UNL d   1      -2.449  -4.465   0.997  0.00  0.00    -0.005 A 
ATOM      4  C3  UNL d   1      -2.839  -5.521   0.174  0.00  0.00     0.006 A 
ATOM      5  C4  UNL d   1      -3.849  -5.340  -0.771  0.00  0.00    -0.005 A 
ATOM      6  C5  UNL d   1      -4.480  -4.099  -0.900  0.00  0.00    -0.074 A 
ATOM      7  C6  UNL d   1      -5.575  -3.890  -1.904  0.00  0.00     0.077 C 
ATOM      8  C7  UNL d   1      -4.088  -3.044  -0.064  0.00  0.00    -0.001 A 
ENDROOT
TORSDOF 0
ENDMDL
