MODEL 1
REMARK minimizedAffinity -5.33068514
REMARK minimizedRMSD -1
REMARK  1 active torsions:
REMARK  status: ('A' for Active; 'I' for Inactive)
REMARK    1  A    between atoms: C1_2  and  C2_3 
ROOT
ATOM      1  C2  UNL d   1      -0.032  -0.170  -0.010  0.00  0.00    -0.076 A 
ATOM      2  C3  UNL d   1       0.332  -0.343   1.336  0.00  0.00     0.004 A 
ATOM      3  C4  UNL d   1      -0.018   0.600   2.301  0.00  0.00    -0.003 A 
ATOM      4  C5  UNL d   1      -0.739   1.731   1.935  0.00  0.00     0.000 A 
ATOM      5  C6  UNL d   1      -1.125   1.910   0.607  0.00  0.00     0.000 A 
ATOM      6  C7  UNL d   1      -0.794   0.961  -0.375  0.00  0.00    -0.073 A 
ATOM      7  C8  UNL d   1      -1.230   1.207  -1.794  0.00  0.00     0.078 C 
ENDROOT
BRANCH   1   8
ATOM      8  C1  UNL d   1       0.399  -1.213  -1.017  0.00  0.00     0.053 C 
ATOM      9  C   UNL d   1      -0.553  -2.398  -1.073  0.00  0.00     0.018 C 
ENDBRANCH   1   8
TORSDOF 1
ENDMDL
