MODEL 1
REMARK minimizedAffinity -4.7741766
REMARK minimizedRMSD -1
REMARK  1 active torsions:
REMARK  status: ('A' for Active; 'I' for Inactive)
REMARK    1  A    between atoms: C1_2  and  C2_3 
ROOT
ATOM      1  C2  UNL d   1       0.055   0.021   0.272  0.00  0.00    -0.076 A 
ATOM      2  C3  UNL d   1      -1.023   0.736  -0.277  0.00  0.00     0.004 A 
ATOM      3  C4  UNL d   1      -1.662   1.740   0.448  0.00  0.00    -0.003 A 
ATOM      4  C5  UNL d   1      -1.232   2.046   1.735  0.00  0.00     0.000 A 
ATOM      5  C6  UNL d   1      -0.153   1.359   2.289  0.00  0.00     0.000 A 
ATOM      6  C7  UNL d   1       0.513   0.355   1.565  0.00  0.00    -0.073 A 
ATOM      7  C8  UNL d   1       1.667  -0.358   2.214  0.00  0.00     0.078 C 
ENDROOT
BRANCH   1   8
ATOM      8  C1  UNL d   1       0.691  -1.076  -0.551  0.00  0.00     0.053 C 
ATOM      9  C   UNL d   1      -0.309  -2.140  -0.977  0.00  0.00     0.018 C 
ENDBRANCH   1   8
TORSDOF 1
ENDMDL
