MODEL 1
REMARK minimizedAffinity -2.68532205
REMARK minimizedRMSD -1
REMARK  1 active torsions:
REMARK  status: ('A' for Active; 'I' for Inactive)
REMARK    1  A    between atoms: C1_2  and  C2_3 
ROOT
ATOM      1  C2  UNL d   1       0.141  -0.152   0.289  0.00  0.00    -0.076 A 
ATOM      2  C3  UNL d   1      -0.934   0.565  -0.265  0.00  0.00     0.004 A 
ATOM      3  C4  UNL d   1      -1.555   1.591   0.446  0.00  0.00    -0.003 A 
ATOM      4  C5  UNL d   1      -1.110   1.917   1.723  0.00  0.00     0.000 A 
ATOM      5  C6  UNL d   1      -0.034   1.229   2.281  0.00  0.00     0.000 A 
ATOM      6  C7  UNL d   1       0.614   0.203   1.571  0.00  0.00    -0.073 A 
ATOM      7  C8  UNL d   1       1.765  -0.511   2.224  0.00  0.00     0.078 C 
ENDROOT
BRANCH   1   8
ATOM      8  C1  UNL d   1       0.757  -1.272  -0.518  0.00  0.00     0.053 C 
ATOM      9  C   UNL d   1      -0.277  -2.274  -1.008  0.00  0.00     0.018 C 
ENDBRANCH   1   8
TORSDOF 1
ENDMDL
