MODEL 1
REMARK minimizedAffinity -4.08335924
REMARK minimizedRMSD -1
REMARK  1 active torsions:
REMARK  status: ('A' for Active; 'I' for Inactive)
REMARK    1  A    between atoms: C1_2  and  C2_3 
ROOT
ATOM      1  C2  UNL d   1       0.384   0.656   1.213  0.00  0.00    -0.076 A 
ATOM      2  C3  UNL d   1       0.650   1.648   2.174  0.00  0.00     0.004 A 
ATOM      3  C4  UNL d   1      -0.019   2.870   2.146  0.00  0.00    -0.003 A 
ATOM      4  C5  UNL d   1      -0.964   3.121   1.158  0.00  0.00     0.000 A 
ATOM      5  C6  UNL d   1      -1.253   2.142   0.208  0.00  0.00     0.000 A 
ATOM      6  C7  UNL d   1      -0.600   0.898   0.231  0.00  0.00    -0.073 A 
ATOM      7  C8  UNL d   1      -0.947  -0.119  -0.822  0.00  0.00     0.078 C 
ENDROOT
BRANCH   1   8
ATOM      8  C1  UNL d   1       1.160  -0.640   1.277  0.00  0.00     0.053 C 
ATOM      9  C   UNL d   1       2.218  -0.633   2.369  0.00  0.00     0.018 C 
ENDBRANCH   1   8
TORSDOF 1
ENDMDL
