MODEL 1
REMARK minimizedAffinity 6.65958023
REMARK minimizedRMSD -1
REMARK  1 active torsions:
REMARK  status: ('A' for Active; 'I' for Inactive)
REMARK    1  A    between atoms: C1_2  and  C2_3 
ROOT
ATOM      1  C2  UNL d   1      -3.532   2.218  -1.686  0.00  0.00    -0.076 A 
ATOM      2  C3  UNL d   1      -3.216   3.567  -1.925  0.00  0.00     0.004 A 
ATOM      3  C4  UNL d   1      -3.907   4.307  -2.882  0.00  0.00    -0.003 A 
ATOM      4  C5  UNL d   1      -4.926   3.711  -3.617  0.00  0.00     0.000 A 
ATOM      5  C6  UNL d   1      -5.265   2.379  -3.381  0.00  0.00     0.000 A 
ATOM      6  C7  UNL d   1      -4.589   1.623  -2.407  0.00  0.00    -0.073 A 
ATOM      7  C8  UNL d   1      -4.991   0.189  -2.199  0.00  0.00     0.078 C 
ENDROOT
BRANCH   1   8
ATOM      8  C1  UNL d   1      -2.730   1.458  -0.654  0.00  0.00     0.053 C 
ATOM      9  C   UNL d   1      -1.333   1.109  -1.143  0.00  0.00     0.018 C 
ENDBRANCH   1   8
TORSDOF 1
ENDMDL
