MODEL 1
REMARK minimizedAffinity 14.3849049
REMARK minimizedRMSD -1
REMARK  0 active torsions:
REMARK  status: ('A' for Active; 'I' for Inactive)
ROOT
ATOM      1  C   UNL d   1       5.999  -2.326  -4.803  0.00  0.00     0.077 C 
ATOM      2  C1  UNL d   1       5.617  -2.803  -3.433  0.00  0.00    -0.074 A 
ATOM      3  C2  UNL d   1       6.000  -2.091  -2.292  0.00  0.00    -0.005 A 
ATOM      4  C3  UNL d   1       5.629  -2.542  -1.025  0.00  0.00     0.006 A 
ATOM      5  C4  UNL d   1       4.872  -3.706  -0.887  0.00  0.00    -0.005 A 
ATOM      6  C5  UNL d   1       4.480  -4.430  -2.017  0.00  0.00    -0.074 A 
ATOM      7  C6  UNL d   1       3.658  -5.679  -1.888  0.00  0.00     0.077 C 
ATOM      8  C7  UNL d   1       4.850  -3.967  -3.287  0.00  0.00    -0.001 A 
ENDROOT
TORSDOF 0
ENDMDL
