MODEL 1
REMARK minimizedAffinity 7.1768651
REMARK minimizedRMSD -1
REMARK  0 active torsions:
REMARK  status: ('A' for Active; 'I' for Inactive)
ROOT
ATOM      1  C   UNL d   1       1.098  -0.516  -1.247  0.00  0.00     0.077 C 
ATOM      2  C1  UNL d   1       0.820  -1.939  -1.631  0.00  0.00    -0.074 A 
ATOM      3  C2  UNL d   1      -0.492  -2.402  -1.774  0.00  0.00    -0.005 A 
ATOM      4  C3  UNL d   1      -0.735  -3.725  -2.142  0.00  0.00     0.006 A 
ATOM      5  C4  UNL d   1       0.330  -4.598  -2.370  0.00  0.00    -0.005 A 
ATOM      6  C5  UNL d   1       1.649  -4.153  -2.232  0.00  0.00    -0.074 A 
ATOM      7  C6  UNL d   1       2.805  -5.075  -2.483  0.00  0.00     0.077 C 
ATOM      8  C7  UNL d   1       1.884  -2.820  -1.869  0.00  0.00    -0.001 A 
ENDROOT
TORSDOF 0
ENDMDL
