MODEL 1
REMARK minimizedAffinity 16.9998245
REMARK minimizedRMSD -1
REMARK  0 active torsions:
REMARK  status: ('A' for Active; 'I' for Inactive)
ROOT
ATOM      1  C   UNL d   1      -1.805   2.334   2.884  0.00  0.00     0.077 C 
ATOM      2  C1  UNL d   1      -0.926   2.993   1.862  0.00  0.00    -0.074 A 
ATOM      3  C2  UNL d   1       0.409   2.608   1.708  0.00  0.00    -0.005 A 
ATOM      4  C3  UNL d   1       1.212   3.223   0.747  0.00  0.00     0.006 A 
ATOM      5  C4  UNL d   1       0.688   4.227  -0.068  0.00  0.00    -0.005 A 
ATOM      6  C5  UNL d   1      -0.646   4.624   0.071  0.00  0.00    -0.074 A 
ATOM      7  C6  UNL d   1      -1.228   5.695  -0.803  0.00  0.00     0.077 C 
ATOM      8  C7  UNL d   1      -1.448   3.997   1.034  0.00  0.00    -0.001 A 
ENDROOT
TORSDOF 0
ENDMDL
