MODEL 1
REMARK minimizedAffinity 17.2586117
REMARK minimizedRMSD -1
REMARK  0 active torsions:
REMARK  status: ('A' for Active; 'I' for Inactive)
ROOT
ATOM      1  C   UNL d   1       5.740  -4.792  -3.127  0.00  0.00     0.077 C 
ATOM      2  C1  UNL d   1       5.405  -3.785  -2.066  0.00  0.00    -0.074 A 
ATOM      3  C2  UNL d   1       6.000  -2.520  -2.063  0.00  0.00    -0.005 A 
ATOM      4  C3  UNL d   1       5.672  -1.591  -1.075  0.00  0.00     0.006 A 
ATOM      5  C4  UNL d   1       4.746  -1.918  -0.083  0.00  0.00    -0.005 A 
ATOM      6  C5  UNL d   1       4.140  -3.178  -0.071  0.00  0.00    -0.074 A 
ATOM      7  C6  UNL d   1       3.137  -3.542   0.982  0.00  0.00     0.077 C 
ATOM      8  C7  UNL d   1       4.470  -4.103  -1.071  0.00  0.00    -0.001 A 
ENDROOT
TORSDOF 0
ENDMDL
