MODEL 1
REMARK minimizedAffinity 15.5977011
REMARK minimizedRMSD -1
REMARK  0 active torsions:
REMARK  status: ('A' for Active; 'I' for Inactive)
ROOT
ATOM      1  C   UNL d   1       3.559   1.697   4.100  0.00  0.00     0.077 C 
ATOM      2  C1  UNL d   1       2.673   0.493   4.227  0.00  0.00    -0.074 A 
ATOM      3  C2  UNL d   1       1.513   0.534   5.006  0.00  0.00    -0.005 A 
ATOM      4  C3  UNL d   1       0.694  -0.591   5.107  0.00  0.00     0.006 A 
ATOM      5  C4  UNL d   1       1.027  -1.765   4.430  0.00  0.00    -0.005 A 
ATOM      6  C5  UNL d   1       2.183  -1.824   3.646  0.00  0.00    -0.074 A 
ATOM      7  C6  UNL d   1       2.550  -3.075   2.905  0.00  0.00     0.077 C 
ATOM      8  C7  UNL d   1       2.997  -0.688   3.544  0.00  0.00    -0.001 A 
ENDROOT
TORSDOF 0
ENDMDL
