MODEL 1
REMARK minimizedAffinity 3.40828204
REMARK minimizedRMSD -1
REMARK  0 active torsions:
REMARK  status: ('A' for Active; 'I' for Inactive)
ROOT
ATOM      1  C   UNL d   1       5.999  -1.871  -2.736  0.00  0.00     0.077 C 
ATOM      2  C1  UNL d   1       5.594  -3.301  -2.531  0.00  0.00    -0.074 A 
ATOM      3  C2  UNL d   1       4.868  -3.990  -3.508  0.00  0.00    -0.005 A 
ATOM      4  C3  UNL d   1       4.507  -5.322  -3.308  0.00  0.00     0.006 A 
ATOM      5  C4  UNL d   1       4.868  -5.978  -2.130  0.00  0.00    -0.005 A 
ATOM      6  C5  UNL d   1       5.595  -5.306  -1.143  0.00  0.00    -0.074 A 
ATOM      7  C6  UNL d   1       6.000  -5.999   0.124  0.00  0.00     0.077 C 
ATOM      8  C7  UNL d   1       5.960  -3.969  -1.355  0.00  0.00    -0.001 A 
ENDROOT
TORSDOF 0
ENDMDL
