MODEL 1
REMARK minimizedAffinity 9.61084175
REMARK minimizedRMSD -1
REMARK  0 active torsions:
REMARK  status: ('A' for Active; 'I' for Inactive)
ROOT
ATOM      1  C   UNL d   1       3.001   4.696   2.465  0.00  0.00     0.077 C 
ATOM      2  C1  UNL d   1       1.869   4.531   1.495  0.00  0.00    -0.074 A 
ATOM      3  C2  UNL d   1       1.455   5.595   0.687  0.00  0.00    -0.005 A 
ATOM      4  C3  UNL d   1       0.407   5.424  -0.218  0.00  0.00     0.006 A 
ATOM      5  C4  UNL d   1      -0.236   4.190  -0.323  0.00  0.00    -0.005 A 
ATOM      6  C5  UNL d   1       0.165   3.115   0.477  0.00  0.00    -0.074 A 
ATOM      7  C6  UNL d   1      -0.509   1.779   0.369  0.00  0.00     0.077 C 
ATOM      8  C7  UNL d   1       1.224   3.292   1.378  0.00  0.00    -0.001 A 
ENDROOT
TORSDOF 0
ENDMDL
