MODEL 1
REMARK minimizedAffinity 13.2168055
REMARK minimizedRMSD -1
REMARK  0 active torsions:
REMARK  status: ('A' for Active; 'I' for Inactive)
ROOT
ATOM      1  C   UNL d   1       5.426  -4.235  -3.162  0.00  0.00     0.077 C 
ATOM      2  C1  UNL d   1       5.245  -3.223  -2.069  0.00  0.00    -0.074 A 
ATOM      3  C2  UNL d   1       6.000  -2.046  -2.048  0.00  0.00    -0.005 A 
ATOM      4  C3  UNL d   1       5.814  -1.110  -1.031  0.00  0.00     0.006 A 
ATOM      5  C4  UNL d   1       4.874  -1.342  -0.026  0.00  0.00    -0.005 A 
ATOM      6  C5  UNL d   1       4.110  -2.513  -0.031  0.00  0.00    -0.074 A 
ATOM      7  C6  UNL d   1       3.088  -2.773   1.036  0.00  0.00     0.077 C 
ATOM      8  C7  UNL d   1       4.297  -3.445  -1.061  0.00  0.00    -0.001 A 
ENDROOT
TORSDOF 0
ENDMDL
