MODEL 1
REMARK minimizedAffinity -4.13230705
REMARK minimizedRMSD -1
REMARK  2 active torsions:
REMARK  status: ('A' for Active; 'I' for Inactive)
REMARK    1  A    between atoms: C1_2  and  C2_3 
REMARK    2  A    between atoms: C2_3  and  C3_4 
ROOT
ATOM      1  C3  UNL d   1      -0.048   0.210  -1.009  0.00  0.00    -0.075 A 
ATOM      2  C4  UNL d   1       1.099   0.365  -0.217  0.00  0.00     0.002 A 
ATOM      3  C5  UNL d   1       1.045   0.140   1.159  0.00  0.00     0.002 A 
ATOM      4  C6  UNL d   1      -0.155  -0.232   1.761  0.00  0.00    -0.004 A 
ATOM      5  C7  UNL d   1      -1.304  -0.372   0.986  0.00  0.00     0.002 A 
ATOM      6  C8  UNL d   1      -1.253  -0.152  -0.391  0.00  0.00     0.002 A 
ENDROOT
BRANCH   1   7
ATOM      7  C2  UNL d   1       0.010   0.424  -2.503  0.00  0.00     0.056 C 
BRANCH   7   8
ATOM      8  C1  UNL d   1       1.054  -0.441  -3.216  0.00  0.00     0.007 C 
ATOM      9  C   UNL d   1       0.444  -1.423  -4.208  0.00  0.00     0.009 C 
ENDBRANCH   7   8
ENDBRANCH   1   7
TORSDOF 2
ENDMDL
