MODEL 1
REMARK minimizedAffinity -4.55545473
REMARK minimizedRMSD -1
REMARK  2 active torsions:
REMARK  status: ('A' for Active; 'I' for Inactive)
REMARK    1  A    between atoms: C1_2  and  C2_3 
REMARK    2  A    between atoms: C2_3  and  C3_4 
ROOT
ATOM      1  C3  UNL d   1       0.378   0.163  -0.150  0.00  0.00    -0.075 A 
ATOM      2  C4  UNL d   1       1.352   0.725   0.689  0.00  0.00     0.002 A 
ATOM      3  C5  UNL d   1       1.193   0.701   2.074  0.00  0.00     0.002 A 
ATOM      4  C6  UNL d   1       0.056   0.127   2.638  0.00  0.00    -0.004 A 
ATOM      5  C7  UNL d   1      -0.926  -0.419   1.814  0.00  0.00     0.002 A 
ATOM      6  C8  UNL d   1      -0.767  -0.401   0.427  0.00  0.00     0.002 A 
ENDROOT
BRANCH   1   7
ATOM      7  C2  UNL d   1       0.559   0.159  -1.649  0.00  0.00     0.056 C 
BRANCH   7   8
ATOM      8  C1  UNL d   1       0.328  -1.208  -2.301  0.00  0.00     0.007 C 
ATOM      9  C   UNL d   1       1.057  -1.371  -3.628  0.00  0.00     0.009 C 
ENDBRANCH   7   8
ENDBRANCH   1   7
TORSDOF 2
ENDMDL
