MODEL 1
REMARK minimizedAffinity -4.66453028
REMARK minimizedRMSD -1
REMARK  2 active torsions:
REMARK  status: ('A' for Active; 'I' for Inactive)
REMARK    1  A    between atoms: C1_2  and  C2_3 
REMARK    2  A    between atoms: C2_3  and  C3_4 
ROOT
ATOM      1  C3  UNL d   1      -0.720   0.210  -0.491  0.00  0.00    -0.075 A 
ATOM      2  C4  UNL d   1      -0.321  -0.190   0.793  0.00  0.00     0.002 A 
ATOM      3  C5  UNL d   1      -1.250  -0.265   1.831  0.00  0.00     0.002 A 
ATOM      4  C6  UNL d   1      -2.583   0.066   1.603  0.00  0.00    -0.004 A 
ATOM      5  C7  UNL d   1      -2.988   0.481   0.336  0.00  0.00     0.002 A 
ATOM      6  C8  UNL d   1      -2.062   0.553  -0.706  0.00  0.00     0.002 A 
ENDROOT
BRANCH   1   7
ATOM      7  C2  UNL d   1       0.273   0.265  -1.627  0.00  0.00     0.056 C 
BRANCH   7   8
ATOM      8  C1  UNL d   1       0.672  -1.109  -2.175  0.00  0.00     0.007 C 
ATOM      9  C   UNL d   1       0.799  -1.137  -3.692  0.00  0.00     0.009 C 
ENDBRANCH   7   8
ENDBRANCH   1   7
TORSDOF 2
ENDMDL
