MODEL 1
REMARK minimizedAffinity -5.90052795
REMARK minimizedRMSD -1
REMARK  2 active torsions:
REMARK  status: ('A' for Active; 'I' for Inactive)
REMARK    1  A    between atoms: C1_2  and  C2_3 
REMARK    2  A    between atoms: C2_3  and  C3_4 
ROOT
ATOM      1  C3  UNL d   1      -0.581   0.026   1.370  0.00  0.00    -0.075 A 
ATOM      2  C4  UNL d   1      -1.872   0.160   0.840  0.00  0.00     0.002 A 
ATOM      3  C5  UNL d   1      -2.980   0.242   1.685  0.00  0.00     0.002 A 
ATOM      4  C6  UNL d   1      -2.812   0.180   3.066  0.00  0.00    -0.004 A 
ATOM      5  C7  UNL d   1      -1.535   0.029   3.603  0.00  0.00     0.002 A 
ATOM      6  C8  UNL d   1      -0.425  -0.048   2.760  0.00  0.00     0.002 A 
ENDROOT
BRANCH   1   7
ATOM      7  C2  UNL d   1       0.624  -0.034   0.462  0.00  0.00     0.056 C 
BRANCH   7   8
ATOM      8  C1  UNL d   1       0.339   0.393  -0.982  0.00  0.00     0.007 C 
ATOM      9  C   UNL d   1       1.194  -0.343  -2.005  0.00  0.00     0.009 C 
ENDBRANCH   7   8
ENDBRANCH   1   7
TORSDOF 2
ENDMDL
