MODEL 1
REMARK minimizedAffinity -2.88398862
REMARK minimizedRMSD -1
REMARK  2 active torsions:
REMARK  status: ('A' for Active; 'I' for Inactive)
REMARK    1  A    between atoms: C1_2  and  C2_3 
REMARK    2  A    between atoms: C2_3  and  C3_4 
ROOT
ATOM      1  C3  UNL d   1      -0.505  -0.600   1.152  0.00  0.00    -0.075 A 
ATOM      2  C4  UNL d   1      -0.160  -0.511   2.508  0.00  0.00     0.002 A 
ATOM      3  C5  UNL d   1       0.987   0.178   2.904  0.00  0.00     0.002 A 
ATOM      4  C6  UNL d   1       1.806   0.778   1.950  0.00  0.00    -0.004 A 
ATOM      5  C7  UNL d   1       1.482   0.682   0.599  0.00  0.00     0.002 A 
ATOM      6  C8  UNL d   1       0.333  -0.003   0.200  0.00  0.00     0.002 A 
ENDROOT
BRANCH   1   7
ATOM      7  C2  UNL d   1      -1.760  -1.319   0.719  0.00  0.00     0.056 C 
BRANCH   7   8
ATOM      8  C1  UNL d   1      -2.963  -0.396   0.495  0.00  0.00     0.007 C 
ATOM      9  C   UNL d   1      -2.731   0.636  -0.601  0.00  0.00     0.009 C 
ENDBRANCH   7   8
ENDBRANCH   1   7
TORSDOF 2
ENDMDL
