MODEL 1
REMARK minimizedAffinity -4.55929184
REMARK minimizedRMSD -1
REMARK  2 active torsions:
REMARK  status: ('A' for Active; 'I' for Inactive)
REMARK    1  A    between atoms: C1_2  and  C2_3 
REMARK    2  A    between atoms: C2_3  and  C3_4 
ROOT
ATOM      1  C3  UNL d   1       0.784   0.478  -0.737  0.00  0.00    -0.075 A 
ATOM      2  C4  UNL d   1      -0.044  -0.061   0.258  0.00  0.00     0.002 A 
ATOM      3  C5  UNL d   1       0.310   0.037   1.604  0.00  0.00     0.002 A 
ATOM      4  C6  UNL d   1       1.499   0.664   1.970  0.00  0.00    -0.004 A 
ATOM      5  C7  UNL d   1       2.337   1.188   0.989  0.00  0.00     0.002 A 
ATOM      6  C8  UNL d   1       1.983   1.095  -0.358  0.00  0.00     0.002 A 
ENDROOT
BRANCH   1   7
ATOM      7  C2  UNL d   1       0.391   0.401  -2.193  0.00  0.00     0.056 C 
BRANCH   7   8
ATOM      8  C1  UNL d   1       1.481  -0.174  -3.104  0.00  0.00     0.007 C 
ATOM      9  C   UNL d   1       1.071  -1.473  -3.785  0.00  0.00     0.009 C 
ENDBRANCH   7   8
ENDBRANCH   1   7
TORSDOF 2
ENDMDL
