MODEL 1
REMARK minimizedAffinity -2.94087958
REMARK minimizedRMSD -1
REMARK  2 active torsions:
REMARK  status: ('A' for Active; 'I' for Inactive)
REMARK    1  A    between atoms: C1_2  and  C2_3 
REMARK    2  A    between atoms: C2_3  and  C3_4 
ROOT
ATOM      1  C3  UNL d   1      -0.001   0.301  -0.058  0.00  0.00    -0.075 A 
ATOM      2  C4  UNL d   1      -1.159   0.003   0.674  0.00  0.00     0.002 A 
ATOM      3  C5  UNL d   1      -1.084  -0.255   2.043  0.00  0.00     0.002 A 
ATOM      4  C6  UNL d   1       0.148  -0.229   2.694  0.00  0.00    -0.004 A 
ATOM      5  C7  UNL d   1       1.307   0.050   1.973  0.00  0.00     0.002 A 
ATOM      6  C8  UNL d   1       1.234   0.313   0.604  0.00  0.00     0.002 A 
ENDROOT
BRANCH   1   7
ATOM      7  C2  UNL d   1      -0.079   0.610  -1.534  0.00  0.00     0.056 C 
BRANCH   7   8
ATOM      8  C1  UNL d   1       1.086   0.044  -2.353  0.00  0.00     0.007 C 
ATOM      9  C   UNL d   1       0.636  -0.864  -3.490  0.00  0.00     0.009 C 
ENDBRANCH   7   8
ENDBRANCH   1   7
TORSDOF 2
ENDMDL
