MODEL 1
REMARK minimizedAffinity 2.69282746
REMARK minimizedRMSD -1
REMARK  2 active torsions:
REMARK  status: ('A' for Active; 'I' for Inactive)
REMARK    1  A    between atoms: C1_2  and  C2_3 
REMARK    2  A    between atoms: C2_3  and  C3_4 
ROOT
ATOM      1  C3  UNL d   1      -1.707  -0.052   1.592  0.00  0.00    -0.075 A 
ATOM      2  C4  UNL d   1      -0.986   0.194   0.415  0.00  0.00     0.002 A 
ATOM      3  C5  UNL d   1      -1.649   0.531  -0.765  0.00  0.00     0.002 A 
ATOM      4  C6  UNL d   1      -3.040   0.615  -0.786  0.00  0.00    -0.004 A 
ATOM      5  C7  UNL d   1      -3.767   0.356   0.373  0.00  0.00     0.002 A 
ATOM      6  C8  UNL d   1      -3.106   0.024   1.557  0.00  0.00     0.002 A 
ENDROOT
BRANCH   1   7
ATOM      7  C2  UNL d   1      -0.993  -0.388   2.880  0.00  0.00     0.056 C 
BRANCH   7   8
ATOM      8  C1  UNL d   1       0.354   0.323   3.050  0.00  0.00     0.007 C 
ATOM      9  C   UNL d   1       1.543  -0.627   3.018  0.00  0.00     0.009 C 
ENDBRANCH   7   8
ENDBRANCH   1   7
TORSDOF 2
ENDMDL
