MODEL 1
REMARK minimizedAffinity -3.67975211
REMARK minimizedRMSD -1
REMARK  2 active torsions:
REMARK  status: ('A' for Active; 'I' for Inactive)
REMARK    1  A    between atoms: C1_2  and  C2_3 
REMARK    2  A    between atoms: C2_3  and  C3_4 
ROOT
ATOM      1  C3  UNL d   1      -0.078   0.187   0.042  0.00  0.00    -0.075 A 
ATOM      2  C4  UNL d   1       0.706   0.853   0.995  0.00  0.00     0.002 A 
ATOM      3  C5  UNL d   1       0.625   0.509   2.345  0.00  0.00     0.002 A 
ATOM      4  C6  UNL d   1      -0.246  -0.495   2.760  0.00  0.00    -0.004 A 
ATOM      5  C7  UNL d   1      -1.043  -1.152   1.824  0.00  0.00     0.002 A 
ATOM      6  C8  UNL d   1      -0.960  -0.813   0.472  0.00  0.00     0.002 A 
ENDROOT
BRANCH   1   7
ATOM      7  C2  UNL d   1       0.026   0.534  -1.424  0.00  0.00     0.056 C 
BRANCH   7   8
ATOM      8  C1  UNL d   1       0.491  -0.628  -2.308  0.00  0.00     0.007 C 
ATOM      9  C   UNL d   1       1.733  -0.301  -3.125  0.00  0.00     0.009 C 
ENDBRANCH   7   8
ENDBRANCH   1   7
TORSDOF 2
ENDMDL
