MODEL 1
REMARK minimizedAffinity -3.92944074
REMARK minimizedRMSD -1
REMARK  2 active torsions:
REMARK  status: ('A' for Active; 'I' for Inactive)
REMARK    1  A    between atoms: C1_2  and  C2_3 
REMARK    2  A    between atoms: C2_3  and  C3_4 
ROOT
ATOM      1  C3  UNL d   1      -0.224   0.067   0.080  0.00  0.00    -0.075 A 
ATOM      2  C4  UNL d   1      -1.391   0.062   0.858  0.00  0.00     0.002 A 
ATOM      3  C5  UNL d   1      -1.314  -0.004   2.249  0.00  0.00     0.002 A 
ATOM      4  C6  UNL d   1      -0.073  -0.075   2.879  0.00  0.00    -0.004 A 
ATOM      5  C7  UNL d   1       1.092  -0.088   2.115  0.00  0.00     0.002 A 
ATOM      6  C8  UNL d   1       1.018  -0.017   0.723  0.00  0.00     0.002 A 
ENDROOT
BRANCH   1   7
ATOM      7  C2  UNL d   1      -0.300   0.168  -1.425  0.00  0.00     0.056 C 
BRANCH   7   8
ATOM      8  C1  UNL d   1       0.579  -0.847  -2.163  0.00  0.00     0.007 C 
ATOM      9  C   UNL d   1       1.104  -0.330  -3.496  0.00  0.00     0.009 C 
ENDBRANCH   7   8
ENDBRANCH   1   7
TORSDOF 2
ENDMDL
