MODEL 1
REMARK minimizedAffinity -5.61418533
REMARK minimizedRMSD -1
REMARK  2 active torsions:
REMARK  status: ('A' for Active; 'I' for Inactive)
REMARK    1  A    between atoms: C1_2  and  C2_3 
REMARK    2  A    between atoms: C2_3  and  C3_4 
ROOT
ATOM      1  C3  UNL d   1       0.074   0.276  -0.215  0.00  0.00    -0.075 A 
ATOM      2  C4  UNL d   1       1.318   0.545   0.374  0.00  0.00     0.002 A 
ATOM      3  C5  UNL d   1       1.574   0.168   1.693  0.00  0.00     0.002 A 
ATOM      4  C6  UNL d   1       0.588  -0.472   2.441  0.00  0.00    -0.004 A 
ATOM      5  C7  UNL d   1      -0.657  -0.730   1.871  0.00  0.00     0.002 A 
ATOM      6  C8  UNL d   1      -0.914  -0.358   0.550  0.00  0.00     0.002 A 
ENDROOT
BRANCH   1   7
ATOM      7  C2  UNL d   1      -0.199   0.655  -1.651  0.00  0.00     0.056 C 
BRANCH   7   8
ATOM      8  C1  UNL d   1      -0.005  -0.493  -2.647  0.00  0.00     0.007 C 
ATOM      9  C   UNL d   1       1.323  -0.426  -3.390  0.00  0.00     0.009 C 
ENDBRANCH   7   8
ENDBRANCH   1   7
TORSDOF 2
ENDMDL
