MODEL 1
REMARK minimizedAffinity -3.99424839
REMARK minimizedRMSD -1
REMARK  2 active torsions:
REMARK  status: ('A' for Active; 'I' for Inactive)
REMARK    1  A    between atoms: C1_2  and  C2_3 
REMARK    2  A    between atoms: C2_3  and  C3_4 
ROOT
ATOM      1  C3  UNL d   1      -0.709  -0.072   0.563  0.00  0.00    -0.075 A 
ATOM      2  C4  UNL d   1      -0.798  -0.142   1.961  0.00  0.00     0.002 A 
ATOM      3  C5  UNL d   1      -2.020   0.055   2.604  0.00  0.00     0.002 A 
ATOM      4  C6  UNL d   1      -3.164   0.335   1.860  0.00  0.00    -0.004 A 
ATOM      5  C7  UNL d   1      -3.084   0.424   0.472  0.00  0.00     0.002 A 
ATOM      6  C8  UNL d   1      -1.863   0.223  -0.174  0.00  0.00     0.002 A 
ENDROOT
BRANCH   1   7
ATOM      7  C2  UNL d   1       0.605  -0.313  -0.140  0.00  0.00     0.056 C 
BRANCH   7   8
ATOM      8  C1  UNL d   1       0.605   0.089  -1.619  0.00  0.00     0.007 C 
ATOM      9  C   UNL d   1       0.917  -1.069  -2.557  0.00  0.00     0.009 C 
ENDBRANCH   7   8
ENDBRANCH   1   7
TORSDOF 2
ENDMDL
