MODEL 1
REMARK minimizedAffinity -4.47562647
REMARK minimizedRMSD -1
REMARK  2 active torsions:
REMARK  status: ('A' for Active; 'I' for Inactive)
REMARK    1  A    between atoms: C1_2  and  C2_3 
REMARK    2  A    between atoms: C2_3  and  C3_4 
ROOT
ATOM      1  C3  UNL d   1       0.593   0.296  -1.726  0.00  0.00    -0.075 A 
ATOM      2  C4  UNL d   1       1.395   0.024  -0.608  0.00  0.00     0.002 A 
ATOM      3  C5  UNL d   1       0.860   0.084   0.679  0.00  0.00     0.002 A 
ATOM      4  C6  UNL d   1      -0.477   0.427   0.866  0.00  0.00    -0.004 A 
ATOM      5  C7  UNL d   1      -1.279   0.716  -0.236  0.00  0.00     0.002 A 
ATOM      6  C8  UNL d   1      -0.748   0.652  -1.526  0.00  0.00     0.002 A 
ENDROOT
BRANCH   1   7
ATOM      7  C2  UNL d   1       1.157   0.204  -3.123  0.00  0.00     0.056 C 
BRANCH   7   8
ATOM      8  C1  UNL d   1       1.063  -1.194  -3.743  0.00  0.00     0.007 C 
ATOM      9  C   UNL d   1       2.364  -1.981  -3.650  0.00  0.00     0.009 C 
ENDBRANCH   7   8
ENDBRANCH   1   7
TORSDOF 2
ENDMDL
