MODEL 1
REMARK minimizedAffinity 1.6666646
REMARK minimizedRMSD -1
REMARK  2 active torsions:
REMARK  status: ('A' for Active; 'I' for Inactive)
REMARK    1  A    between atoms: C1_2  and  C2_3 
REMARK    2  A    between atoms: C2_3  and  C3_4 
ROOT
ATOM      1  C3  UNL d   1      -1.295  -0.644   0.025  0.00  0.00    -0.075 A 
ATOM      2  C4  UNL d   1      -1.616  -0.389   1.367  0.00  0.00     0.002 A 
ATOM      3  C5  UNL d   1      -2.265  -1.355   2.136  0.00  0.00     0.002 A 
ATOM      4  C6  UNL d   1      -2.611  -2.582   1.573  0.00  0.00    -0.004 A 
ATOM      5  C7  UNL d   1      -2.312  -2.839   0.236  0.00  0.00     0.002 A 
ATOM      6  C8  UNL d   1      -1.659  -1.876  -0.534  0.00  0.00     0.002 A 
ENDROOT
BRANCH   1   7
ATOM      7  C2  UNL d   1      -0.566   0.386  -0.804  0.00  0.00     0.056 C 
BRANCH   7   8
ATOM      8  C1  UNL d   1       0.952   0.187  -0.851  0.00  0.00     0.007 C 
ATOM      9  C   UNL d   1       1.679   0.832   0.322  0.00  0.00     0.009 C 
ENDBRANCH   7   8
ENDBRANCH   1   7
TORSDOF 2
ENDMDL
