MODEL 1
REMARK minimizedAffinity -5.06589222
REMARK minimizedRMSD -1
REMARK  2 active torsions:
REMARK  status: ('A' for Active; 'I' for Inactive)
REMARK    1  A    between atoms: C1_2  and  C2_3 
REMARK    2  A    between atoms: C2_3  and  C3_4 
ROOT
ATOM      1  C3  UNL d   1      -0.247  -0.006   0.919  0.00  0.00    -0.075 A 
ATOM      2  C4  UNL d   1       0.019  -0.028   2.296  0.00  0.00     0.002 A 
ATOM      3  C5  UNL d   1      -1.017  -0.200   3.214  0.00  0.00     0.002 A 
ATOM      4  C6  UNL d   1      -2.330  -0.342   2.770  0.00  0.00    -0.004 A 
ATOM      5  C7  UNL d   1      -2.607  -0.305   1.405  0.00  0.00     0.002 A 
ATOM      6  C8  UNL d   1      -1.572  -0.138   0.484  0.00  0.00     0.002 A 
ENDROOT
BRANCH   1   7
ATOM      7  C2  UNL d   1       0.873   0.150  -0.082  0.00  0.00     0.056 C 
BRANCH   7   8
ATOM      8  C1  UNL d   1       0.399   0.295  -1.532  0.00  0.00     0.007 C 
ATOM      9  C   UNL d   1       1.469  -0.067  -2.553  0.00  0.00     0.009 C 
ENDBRANCH   7   8
ENDBRANCH   1   7
TORSDOF 2
ENDMDL
