MODEL 1
REMARK minimizedAffinity -4.19444799
REMARK minimizedRMSD -1
REMARK  1 active torsions:
REMARK  status: ('A' for Active; 'I' for Inactive)
REMARK    1  A    between atoms: C1_2  and  C2_3 
ROOT
ATOM      1  C2  UNL d   1       0.066   0.756   0.456  0.00  0.00    -0.077 A 
ATOM      2  C3  UNL d   1      -0.341   1.342   1.663  0.00  0.00     0.002 A 
ATOM      3  C4  UNL d   1      -1.542   2.050   1.734  0.00  0.00     0.002 A 
ATOM      4  C5  UNL d   1      -2.347   2.176   0.604  0.00  0.00    -0.004 A 
ATOM      5  C6  UNL d   1      -1.950   1.598  -0.601  0.00  0.00     0.002 A 
ATOM      6  C7  UNL d   1      -0.749   0.891  -0.674  0.00  0.00     0.002 A 
ENDROOT
BRANCH   1   7
ATOM      7  C1  UNL d   1       1.337  -0.051   0.390  0.00  0.00     0.055 C 
ATOM      8  C   UNL d   1       1.819  -0.439   1.780  0.00  0.00     0.019 C 
ENDBRANCH   1   7
TORSDOF 1
ENDMDL
