MODEL 1
REMARK minimizedAffinity -5.45651436
REMARK minimizedRMSD -1
REMARK  1 active torsions:
REMARK  status: ('A' for Active; 'I' for Inactive)
REMARK    1  A    between atoms: C1_2  and  C2_3 
ROOT
ATOM      1  C2  UNL d   1      -0.617   1.325   0.201  0.00  0.00    -0.077 A 
ATOM      2  C3  UNL d   1       0.146   0.253   0.685  0.00  0.00     0.002 A 
ATOM      3  C4  UNL d   1       0.847  -0.571  -0.198  0.00  0.00     0.002 A 
ATOM      4  C5  UNL d   1       0.795  -0.328  -1.570  0.00  0.00    -0.004 A 
ATOM      5  C6  UNL d   1       0.038   0.735  -2.061  0.00  0.00     0.002 A 
ATOM      6  C7  UNL d   1      -0.664   1.558  -1.180  0.00  0.00     0.002 A 
ENDROOT
BRANCH   1   7
ATOM      7  C1  UNL d   1      -1.333   2.244   1.155  0.00  0.00     0.055 C 
ATOM      8  C   UNL d   1      -0.378   2.825   2.187  0.00  0.00     0.019 C 
ENDBRANCH   1   7
TORSDOF 1
ENDMDL
