MODEL 1
REMARK minimizedAffinity -2.86656117
REMARK minimizedRMSD -1
REMARK  1 active torsions:
REMARK  status: ('A' for Active; 'I' for Inactive)
REMARK    1  A    between atoms: C3_4  and  O_7 
ROOT
ATOM      1  C   UNL d   1      -0.442  -0.483   0.010  0.00  0.00    -0.033 A 
ATOM      2  C1  UNL d   1      -1.157   0.118   1.048  0.00  0.00     0.039 A 
ATOM      3  C2  UNL d   1      -0.818   1.401   1.480  0.00  0.00    -0.080 A 
ATOM      4  C3  UNL d   1       0.235   2.073   0.866  0.00  0.00     0.150 A 
ATOM      5  C4  UNL d   1       0.949   1.482  -0.172  0.00  0.00    -0.007 A 
ATOM      6  C5  UNL d   1       0.610   0.200  -0.601  0.00  0.00     0.039 A 
ENDROOT
BRANCH   4   7
ATOM      7  O   UNL d   1       0.606   3.326   1.256  0.00  0.00    -0.526 OA
ATOM      8  H5  UNL d   1       0.043   3.595   2.001  0.00  0.00     0.418 HD
ENDBRANCH   4   7
TORSDOF 1
ENDMDL
