MODEL 1
REMARK minimizedAffinity -4.40886736
REMARK minimizedRMSD -1
REMARK  1 active torsions:
REMARK  status: ('A' for Active; 'I' for Inactive)
REMARK    1  A    between atoms: C3_4  and  O_7 
ROOT
ATOM      1  C   UNL d   1       1.035   2.209   1.317  0.00  0.00    -0.033 A 
ATOM      2  C1  UNL d   1      -0.041   1.549   1.915  0.00  0.00     0.039 A 
ATOM      3  C2  UNL d   1      -0.565   0.394   1.332  0.00  0.00    -0.080 A 
ATOM      4  C3  UNL d   1      -0.004  -0.091   0.153  0.00  0.00     0.150 A 
ATOM      5  C4  UNL d   1       1.070   0.559  -0.446  0.00  0.00    -0.007 A 
ATOM      6  C5  UNL d   1       1.591   1.713   0.138  0.00  0.00     0.039 A 
ENDROOT
BRANCH   4   7
ATOM      7  O   UNL d   1      -0.485  -1.212  -0.456  0.00  0.00    -0.526 OA
ATOM      8  H5  UNL d   1      -1.245  -1.538   0.055  0.00  0.00     0.418 HD
ENDBRANCH   4   7
TORSDOF 1
ENDMDL
