MODEL 1
REMARK minimizedAffinity -2.70913053
REMARK minimizedRMSD -1
REMARK  1 active torsions:
REMARK  status: ('A' for Active; 'I' for Inactive)
REMARK    1  A    between atoms: C3_4  and  O_7 
ROOT
ATOM      1  C   UNL d   1      -0.780  -0.432   0.900  0.00  0.00    -0.033 A 
ATOM      2  C1  UNL d   1      -0.623  -0.003   2.219  0.00  0.00     0.039 A 
ATOM      3  C2  UNL d   1       0.143   1.130   2.500  0.00  0.00    -0.080 A 
ATOM      4  C3  UNL d   1       0.746   1.824   1.454  0.00  0.00     0.150 A 
ATOM      5  C4  UNL d   1       0.590   1.404   0.137  0.00  0.00    -0.007 A 
ATOM      6  C5  UNL d   1      -0.175   0.272  -0.141  0.00  0.00     0.039 A 
ENDROOT
BRANCH   4   7
ATOM      7  O   UNL d   1       1.507   2.932   1.680  0.00  0.00    -0.526 OA
ATOM      8  H5  UNL d   1       1.549   3.087   2.638  0.00  0.00     0.418 HD
ENDBRANCH   4   7
TORSDOF 1
ENDMDL
