MODEL 1
REMARK minimizedAffinity -2.66643691
REMARK minimizedRMSD -1
REMARK  1 active torsions:
REMARK  status: ('A' for Active; 'I' for Inactive)
REMARK    1  A    between atoms: C3_4  and  O_7 
ROOT
ATOM      1  C   UNL d   1       0.337  -1.477  -1.267  0.00  0.00    -0.033 A 
ATOM      2  C1  UNL d   1      -0.761  -1.039  -0.523  0.00  0.00     0.039 A 
ATOM      3  C2  UNL d   1      -0.645   0.081   0.301  0.00  0.00    -0.080 A 
ATOM      4  C3  UNL d   1       0.571   0.755   0.372  0.00  0.00     0.150 A 
ATOM      5  C4  UNL d   1       1.667   0.327  -0.369  0.00  0.00    -0.007 A 
ATOM      6  C5  UNL d   1       1.550  -0.793  -1.191  0.00  0.00     0.039 A 
ENDROOT
BRANCH   4   7
ATOM      7  O   UNL d   1       0.733   1.851   1.167  0.00  0.00    -0.526 OA
ATOM      8  H5  UNL d   1      -0.099   2.013   1.641  0.00  0.00     0.418 HD
ENDBRANCH   4   7
TORSDOF 1
ENDMDL
