MODEL 1
REMARK minimizedAffinity -2.27898908
REMARK minimizedRMSD -1
REMARK  1 active torsions:
REMARK  status: ('A' for Active; 'I' for Inactive)
REMARK    1  A    between atoms: C3_4  and  O_7 
ROOT
ATOM      1  C   UNL d   1      -2.871  -1.403  -3.226  0.00  0.00    -0.033 A 
ATOM      2  C1  UNL d   1      -3.110  -1.666  -1.875  0.00  0.00     0.039 A 
ATOM      3  C2  UNL d   1      -2.041  -1.791  -0.987  0.00  0.00    -0.080 A 
ATOM      4  C3  UNL d   1      -0.739  -1.651  -1.460  0.00  0.00     0.150 A 
ATOM      5  C4  UNL d   1      -0.494  -1.385  -2.803  0.00  0.00    -0.007 A 
ATOM      6  C5  UNL d   1      -1.563  -1.261  -3.689  0.00  0.00     0.039 A 
ENDROOT
BRANCH   4   7
ATOM      7  O   UNL d   1       0.337  -1.769  -0.631  0.00  0.00    -0.526 OA
ATOM      8  H5  UNL d   1       0.016  -1.981   0.261  0.00  0.00     0.418 HD
ENDBRANCH   4   7
TORSDOF 1
ENDMDL
