MODEL 1
REMARK minimizedAffinity -4.56984711
REMARK minimizedRMSD -1
REMARK  1 active torsions:
REMARK  status: ('A' for Active; 'I' for Inactive)
REMARK    1  A    between atoms: C3_4  and  O_7 
ROOT
ATOM      1  C   UNL d   1      -0.222  -0.694  -0.070  0.00  0.00    -0.033 A 
ATOM      2  C1  UNL d   1      -1.085  -0.002   0.782  0.00  0.00     0.039 A 
ATOM      3  C2  UNL d   1      -0.765   1.290   1.204  0.00  0.00    -0.080 A 
ATOM      4  C3  UNL d   1       0.418   1.878   0.767  0.00  0.00     0.150 A 
ATOM      5  C4  UNL d   1       1.280   1.196  -0.086  0.00  0.00    -0.007 A 
ATOM      6  C5  UNL d   1       0.960  -0.094  -0.505  0.00  0.00     0.039 A 
ENDROOT
BRANCH   4   7
ATOM      7  O   UNL d   1       0.775   3.135   1.155  0.00  0.00    -0.526 OA
ATOM      8  H5  UNL d   1       0.099   3.472   1.766  0.00  0.00     0.418 HD
ENDBRANCH   4   7
TORSDOF 1
ENDMDL
