MODEL 1
REMARK minimizedAffinity -4.82696629
REMARK minimizedRMSD -1
REMARK  1 active torsions:
REMARK  status: ('A' for Active; 'I' for Inactive)
REMARK    1  A    between atoms: C3_4  and  O_7 
ROOT
ATOM      1  C   UNL d   1      -0.308  -0.350  -0.701  0.00  0.00    -0.033 A 
ATOM      2  C1  UNL d   1      -1.414   0.378  -0.261  0.00  0.00     0.039 A 
ATOM      3  C2  UNL d   1      -1.287   1.266   0.808  0.00  0.00    -0.080 A 
ATOM      4  C3  UNL d   1      -0.050   1.417   1.428  0.00  0.00     0.150 A 
ATOM      5  C4  UNL d   1       1.058   0.698   0.992  0.00  0.00    -0.007 A 
ATOM      6  C5  UNL d   1       0.929  -0.190  -0.076  0.00  0.00     0.039 A 
ENDROOT
BRANCH   4   7
ATOM      7  O   UNL d   1       0.122   2.269   2.479  0.00  0.00    -0.526 OA
ATOM      8  H5  UNL d   1      -0.735   2.676   2.688  0.00  0.00     0.418 HD
ENDBRANCH   4   7
TORSDOF 1
ENDMDL
