MODEL 1
REMARK minimizedAffinity -1.70018756
REMARK minimizedRMSD -1
REMARK  1 active torsions:
REMARK  status: ('A' for Active; 'I' for Inactive)
REMARK    1  A    between atoms: C3_4  and  O_7 
ROOT
ATOM      1  C   UNL d   1      -1.162  -0.260   0.507  0.00  0.00    -0.033 A 
ATOM      2  C1  UNL d   1      -0.358   0.710   1.108  0.00  0.00     0.039 A 
ATOM      3  C2  UNL d   1       0.995   0.801   0.777  0.00  0.00    -0.080 A 
ATOM      4  C3  UNL d   1       1.531  -0.082  -0.156  0.00  0.00     0.150 A 
ATOM      5  C4  UNL d   1       0.735  -1.049  -0.762  0.00  0.00    -0.007 A 
ATOM      6  C5  UNL d   1      -0.616  -1.139  -0.429  0.00  0.00     0.039 A 
ENDROOT
BRANCH   4   7
ATOM      7  O   UNL d   1       2.848  -0.035  -0.507  0.00  0.00    -0.526 OA
ATOM      8  H5  UNL d   1       3.280   0.663   0.012  0.00  0.00     0.418 HD
ENDBRANCH   4   7
TORSDOF 1
ENDMDL
