MODEL 1
REMARK minimizedAffinity -3.36355591
REMARK minimizedRMSD -1
REMARK  1 active torsions:
REMARK  status: ('A' for Active; 'I' for Inactive)
REMARK    1  A    between atoms: C3_4  and  O_7 
ROOT
ATOM      1  C   UNL d   1       0.591   2.527   1.678  0.00  0.00    -0.033 A 
ATOM      2  C1  UNL d   1      -0.604   1.843   1.911  0.00  0.00     0.039 A 
ATOM      3  C2  UNL d   1      -0.929   0.721   1.146  0.00  0.00    -0.080 A 
ATOM      4  C3  UNL d   1      -0.052   0.294   0.153  0.00  0.00     0.150 A 
ATOM      5  C4  UNL d   1       1.142   0.968  -0.082  0.00  0.00    -0.007 A 
ATOM      6  C5  UNL d   1       1.465   2.088   0.683  0.00  0.00     0.039 A 
ENDROOT
BRANCH   4   7
ATOM      7  O   UNL d   1      -0.328  -0.793  -0.622  0.00  0.00    -0.526 OA
ATOM      8  H5  UNL d   1      -1.199  -1.140  -0.366  0.00  0.00     0.418 HD
ENDBRANCH   4   7
TORSDOF 1
ENDMDL
