MODEL 1
REMARK minimizedAffinity -4.30501652
REMARK minimizedRMSD -1
REMARK  1 active torsions:
REMARK  status: ('A' for Active; 'I' for Inactive)
REMARK    1  A    between atoms: C3_4  and  O_7 
ROOT
ATOM      1  C   UNL d   1       0.250  -0.935  -0.263  0.00  0.00    -0.033 A 
ATOM      2  C1  UNL d   1      -0.574  -0.346   0.697  0.00  0.00     0.039 A 
ATOM      3  C2  UNL d   1      -0.257   0.912   1.215  0.00  0.00    -0.080 A 
ATOM      4  C3  UNL d   1       0.884   1.569   0.764  0.00  0.00     0.150 A 
ATOM      5  C4  UNL d   1       1.708   0.989  -0.196  0.00  0.00    -0.007 A 
ATOM      6  C5  UNL d   1       1.390  -0.267  -0.711  0.00  0.00     0.039 A 
ENDROOT
BRANCH   4   7
ATOM      7  O   UNL d   1       1.236   2.795   1.243  0.00  0.00    -0.526 OA
ATOM      8  H5  UNL d   1       0.591   3.058   1.920  0.00  0.00     0.418 HD
ENDBRANCH   4   7
TORSDOF 1
ENDMDL
