MODEL 1
REMARK minimizedAffinity -2.89090633
REMARK minimizedRMSD -1
REMARK  1 active torsions:
REMARK  status: ('A' for Active; 'I' for Inactive)
REMARK    1  A    between atoms: C3_4  and  O_7 
ROOT
ATOM      1  C   UNL d   1      -0.316  -0.538   0.069  0.00  0.00    -0.033 A 
ATOM      2  C1  UNL d   1      -1.080   0.051   1.079  0.00  0.00     0.039 A 
ATOM      3  C2  UNL d   1      -0.708   1.290   1.605  0.00  0.00    -0.080 A 
ATOM      4  C3  UNL d   1       0.427   1.928   1.113  0.00  0.00     0.150 A 
ATOM      5  C4  UNL d   1       1.190   1.349   0.105  0.00  0.00    -0.007 A 
ATOM      6  C5  UNL d   1       0.818   0.112  -0.419  0.00  0.00     0.039 A 
ENDROOT
BRANCH   4   7
ATOM      7  O   UNL d   1       0.831   3.136   1.599  0.00  0.00    -0.526 OA
ATOM      8  H5  UNL d   1       0.225   3.401   2.311  0.00  0.00     0.418 HD
ENDBRANCH   4   7
TORSDOF 1
ENDMDL
