MODEL 1
REMARK minimizedAffinity -5.18454695
REMARK minimizedRMSD -1
REMARK  1 active torsions:
REMARK  status: ('A' for Active; 'I' for Inactive)
REMARK    1  A    between atoms: C3_4  and  O_7 
ROOT
ATOM      1  C   UNL d   1       0.609  -0.334  -0.398  0.00  0.00    -0.033 A 
ATOM      2  C1  UNL d   1      -0.551   0.023   0.293  0.00  0.00     0.039 A 
ATOM      3  C2  UNL d   1      -0.560   1.159   1.104  0.00  0.00    -0.080 A 
ATOM      4  C3  UNL d   1       0.595   1.929   1.216  0.00  0.00     0.150 A 
ATOM      5  C4  UNL d   1       1.752   1.581   0.528  0.00  0.00    -0.007 A 
ATOM      6  C5  UNL d   1       1.760   0.446  -0.282  0.00  0.00     0.039 A 
ENDROOT
BRANCH   4   7
ATOM      7  O   UNL d   1       0.635   3.044   2.000  0.00  0.00    -0.526 OA
ATOM      8  H5  UNL d   1      -0.227   3.144   2.436  0.00  0.00     0.418 HD
ENDBRANCH   4   7
TORSDOF 1
ENDMDL
