MODEL 1
REMARK minimizedAffinity -2.2898612
REMARK minimizedRMSD -1
REMARK  1 active torsions:
REMARK  status: ('A' for Active; 'I' for Inactive)
REMARK    1  A    between atoms: C3_4  and  O_7 
ROOT
ATOM      1  C   UNL d   1       0.127  -0.352   0.123  0.00  0.00    -0.033 A 
ATOM      2  C1  UNL d   1       1.146   0.284  -0.589  0.00  0.00     0.039 A 
ATOM      3  C2  UNL d   1       1.580   1.555  -0.205  0.00  0.00    -0.080 A 
ATOM      4  C3  UNL d   1       0.988   2.177   0.891  0.00  0.00     0.150 A 
ATOM      5  C4  UNL d   1      -0.024   1.547   1.607  0.00  0.00    -0.007 A 
ATOM      6  C5  UNL d   1      -0.457   0.279   1.222  0.00  0.00     0.039 A 
ENDROOT
BRANCH   4   7
ATOM      7  O   UNL d   1       1.375   3.418   1.300  0.00  0.00    -0.526 OA
ATOM      8  H5  UNL d   1       2.063   3.742   0.694  0.00  0.00     0.418 HD
ENDBRANCH   4   7
TORSDOF 1
ENDMDL
