MODEL 1
REMARK minimizedAffinity -3.81583643
REMARK minimizedRMSD -1
REMARK  1 active torsions:
REMARK  status: ('A' for Active; 'I' for Inactive)
REMARK    1  A    between atoms: C3_4  and  O_7 
ROOT
ATOM      1  C   UNL d   1      -0.109   0.042   0.058  0.00  0.00    -0.033 A 
ATOM      2  C1  UNL d   1      -0.270   0.395   1.399  0.00  0.00     0.039 A 
ATOM      3  C2  UNL d   1       0.226   1.613   1.866  0.00  0.00    -0.080 A 
ATOM      4  C3  UNL d   1       0.881   2.469   0.984  0.00  0.00     0.150 A 
ATOM      5  C4  UNL d   1       1.042   2.125  -0.354  0.00  0.00    -0.007 A 
ATOM      6  C5  UNL d   1       0.546   0.908  -0.819  0.00  0.00     0.039 A 
ENDROOT
BRANCH   4   7
ATOM      7  O   UNL d   1       1.386   3.666   1.395  0.00  0.00    -0.526 OA
ATOM      8  H5  UNL d   1       1.226   3.756   2.349  0.00  0.00     0.418 HD
ENDBRANCH   4   7
TORSDOF 1
ENDMDL
