MODEL 1
REMARK minimizedAffinity 7.34027529
REMARK minimizedRMSD -1
REMARK  0 active torsions:
REMARK  status: ('A' for Active; 'I' for Inactive)
ROOT
ATOM      1  C   UNL d   1      -1.003  -1.418   0.186  0.00  0.00     0.020 A 
ATOM      2  C1  UNL d   1      -0.317  -0.218   0.372  0.00  0.00     0.020 A 
ATOM      3  C2  UNL d   1      -0.847   0.973  -0.128  0.00  0.00     0.034 A 
ATOM      4  C3  UNL d   1      -2.065   0.968  -0.817  0.00  0.00     0.017 A 
ATOM      5  C4  UNL d   1      -2.752  -0.237  -1.003  0.00  0.00     0.017 A 
ATOM      6  C5  UNL d   1      -2.217  -1.427  -0.500  0.00  0.00     0.034 A 
ATOM      7 Cl   UNL d   1      -4.260  -0.324  -1.843  0.00  0.00    -0.070 Cl
ATOM      8 Cl1  UNL d   1      -2.661   2.478  -1.409  0.00  0.00    -0.070 Cl
ENDROOT
TORSDOF 0
ENDMDL
