MODEL 1
REMARK minimizedAffinity 1.92410827
REMARK minimizedRMSD -1
REMARK  0 active torsions:
REMARK  status: ('A' for Active; 'I' for Inactive)
ROOT
ATOM      1  C   UNL d   1      -2.265   4.382  -3.486  0.00  0.00     0.020 A 
ATOM      2  C1  UNL d   1      -3.011   4.094  -2.343  0.00  0.00     0.020 A 
ATOM      3  C2  UNL d   1      -2.499   3.226  -1.377  0.00  0.00     0.034 A 
ATOM      4  C3  UNL d   1      -1.239   2.642  -1.551  0.00  0.00     0.017 A 
ATOM      5  C4  UNL d   1      -0.492   2.931  -2.698  0.00  0.00     0.017 A 
ATOM      6  C5  UNL d   1      -1.008   3.802  -3.663  0.00  0.00     0.034 A 
ATOM      7 Cl   UNL d   1       1.071   2.250  -2.983  0.00  0.00    -0.070 Cl
ATOM      8 Cl1  UNL d   1      -0.669   1.577  -0.315  0.00  0.00    -0.070 Cl
ENDROOT
TORSDOF 0
ENDMDL
