MODEL 1
REMARK minimizedAffinity 4.24671841
REMARK minimizedRMSD -1
REMARK  0 active torsions:
REMARK  status: ('A' for Active; 'I' for Inactive)
ROOT
ATOM      1  C   UNL d   1      -2.437  -5.990  -5.481  0.00  0.00     0.020 A 
ATOM      2  C1  UNL d   1      -1.154  -5.821  -6.000  0.00  0.00     0.020 A 
ATOM      3  C2  UNL d   1      -0.080  -5.572  -5.142  0.00  0.00     0.034 A 
ATOM      4  C3  UNL d   1      -0.288  -5.491  -3.760  0.00  0.00     0.017 A 
ATOM      5  C4  UNL d   1      -1.576  -5.661  -3.240  0.00  0.00     0.017 A 
ATOM      6  C5  UNL d   1      -2.647  -5.910  -4.103  0.00  0.00     0.034 A 
ATOM      7 Cl   UNL d   1      -1.911  -5.575  -1.546  0.00  0.00    -0.070 Cl
ATOM      8 Cl1  UNL d   1       1.085  -5.181  -2.758  0.00  0.00    -0.070 Cl
ENDROOT
TORSDOF 0
ENDMDL
