MODEL 1
REMARK minimizedAffinity 12.6564655
REMARK minimizedRMSD -1
REMARK  0 active torsions:
REMARK  status: ('A' for Active; 'I' for Inactive)
ROOT
ATOM      1  C   UNL d   1       4.472  -2.281   1.384  0.00  0.00     0.020 A 
ATOM      2  C1  UNL d   1       5.091  -1.122   1.848  0.00  0.00     0.020 A 
ATOM      3  C2  UNL d   1       4.417   0.100   1.793  0.00  0.00     0.034 A 
ATOM      4  C3  UNL d   1       3.120   0.165   1.272  0.00  0.00     0.017 A 
ATOM      5  C4  UNL d   1       2.499  -0.999   0.807  0.00  0.00     0.017 A 
ATOM      6  C5  UNL d   1       3.178  -2.220   0.864  0.00  0.00     0.034 A 
ATOM      7 Cl   UNL d   1       0.900  -0.998   0.151  0.00  0.00    -0.070 Cl
ATOM      8 Cl1  UNL d   1       2.346   1.709   1.234  0.00  0.00    -0.070 Cl
ENDROOT
TORSDOF 0
ENDMDL
