MODEL 1
REMARK minimizedAffinity 5.14837503
REMARK minimizedRMSD -1
REMARK  0 active torsions:
REMARK  status: ('A' for Active; 'I' for Inactive)
ROOT
ATOM      1  C   UNL d   1      -0.969  -4.301  -5.788  0.00  0.00     0.020 A 
ATOM      2  C1  UNL d   1      -1.338  -5.646  -5.787  0.00  0.00     0.020 A 
ATOM      3  C2  UNL d   1      -2.687  -6.000  -5.852  0.00  0.00     0.034 A 
ATOM      4  C3  UNL d   1      -3.673  -5.008  -5.918  0.00  0.00     0.017 A 
ATOM      5  C4  UNL d   1      -3.302  -3.659  -5.918  0.00  0.00     0.017 A 
ATOM      6  C5  UNL d   1      -1.949  -3.310  -5.853  0.00  0.00     0.034 A 
ATOM      7 Cl   UNL d   1      -4.461  -2.379  -5.997  0.00  0.00    -0.070 Cl
ATOM      8 Cl1  UNL d   1      -5.322  -5.518  -5.996  0.00  0.00    -0.070 Cl
ENDROOT
TORSDOF 0
ENDMDL
