MODEL 1
REMARK minimizedAffinity 8.15988541
REMARK minimizedRMSD -1
REMARK  0 active torsions:
REMARK  status: ('A' for Active; 'I' for Inactive)
ROOT
ATOM      1  C   UNL d   1      -1.881  -4.135  -2.132  0.00  0.00     0.020 A 
ATOM      2  C1  UNL d   1      -0.892  -5.118  -2.132  0.00  0.00     0.020 A 
ATOM      3  C2  UNL d   1      -0.467  -5.681  -3.337  0.00  0.00     0.034 A 
ATOM      4  C3  UNL d   1      -1.030  -5.261  -4.547  0.00  0.00     0.017 A 
ATOM      5  C4  UNL d   1      -2.023  -4.274  -4.547  0.00  0.00     0.017 A 
ATOM      6  C5  UNL d   1      -2.445  -3.714  -3.337  0.00  0.00     0.034 A 
ATOM      7 Cl   UNL d   1      -2.765  -3.705  -6.000  0.00  0.00    -0.070 Cl
ATOM      8 Cl1  UNL d   1      -0.456  -6.000  -6.000  0.00  0.00    -0.070 Cl
ENDROOT
TORSDOF 0
ENDMDL
