MODEL 1
REMARK minimizedAffinity 0.599348009
REMARK minimizedRMSD -1
REMARK  0 active torsions:
REMARK  status: ('A' for Active; 'I' for Inactive)
ROOT
ATOM      1  C   UNL d   1       0.852  -0.989   0.633  0.00  0.00     0.020 A 
ATOM      2  C1  UNL d   1      -0.498  -0.657   0.742  0.00  0.00     0.020 A 
ATOM      3  C2  UNL d   1      -1.270  -1.203   1.770  0.00  0.00     0.034 A 
ATOM      4  C3  UNL d   1      -0.694  -2.083   2.692  0.00  0.00     0.017 A 
ATOM      5  C4  UNL d   1       0.661  -2.416   2.582  0.00  0.00     0.017 A 
ATOM      6  C5  UNL d   1       1.430  -1.867   1.551  0.00  0.00     0.034 A 
ATOM      7 Cl   UNL d   1       1.443  -3.496   3.682  0.00  0.00    -0.070 Cl
ATOM      8 Cl1  UNL d   1      -1.708  -2.720   3.937  0.00  0.00    -0.070 Cl
ENDROOT
TORSDOF 0
ENDMDL
