MODEL 1
REMARK minimizedAffinity 11.3733683
REMARK minimizedRMSD -1
REMARK  0 active torsions:
REMARK  status: ('A' for Active; 'I' for Inactive)
ROOT
ATOM      1  C   UNL d   1      -3.523  -4.289  -5.657  0.00  0.00     0.020 A 
ATOM      2  C1  UNL d   1      -2.873  -5.476  -5.990  0.00  0.00     0.020 A 
ATOM      3  C2  UNL d   1      -1.879  -5.987  -5.153  0.00  0.00     0.034 A 
ATOM      4  C3  UNL d   1      -1.532  -5.309  -3.978  0.00  0.00     0.017 A 
ATOM      5  C4  UNL d   1      -2.185  -4.117  -3.645  0.00  0.00     0.017 A 
ATOM      6  C5  UNL d   1      -3.180  -3.611  -4.487  0.00  0.00     0.034 A 
ATOM      7 Cl   UNL d   1      -1.811  -3.226  -2.212  0.00  0.00    -0.070 Cl
ATOM      8 Cl1  UNL d   1      -0.293  -5.998  -2.990  0.00  0.00    -0.070 Cl
ENDROOT
TORSDOF 0
ENDMDL
