MODEL 1
REMARK minimizedAffinity 7.75240707
REMARK minimizedRMSD -1
REMARK  0 active torsions:
REMARK  status: ('A' for Active; 'I' for Inactive)
ROOT
ATOM      1  C   UNL d   1       0.396  -3.579   5.008  0.00  0.00     0.020 A 
ATOM      2  C1  UNL d   1      -0.835  -3.009   4.688  0.00  0.00     0.020 A 
ATOM      3  C2  UNL d   1      -0.982  -2.284   3.503  0.00  0.00     0.034 A 
ATOM      4  C3  UNL d   1       0.104  -2.128   2.634  0.00  0.00     0.017 A 
ATOM      5  C4  UNL d   1       1.340  -2.701   2.957  0.00  0.00     0.017 A 
ATOM      6  C5  UNL d   1       1.481  -3.425   4.144  0.00  0.00     0.034 A 
ATOM      7 Cl   UNL d   1       2.726  -2.551   1.935  0.00  0.00    -0.070 Cl
ATOM      8 Cl1  UNL d   1      -0.149  -1.220   1.186  0.00  0.00    -0.070 Cl
ENDROOT
TORSDOF 0
ENDMDL
