MODEL 1
REMARK minimizedAffinity 6.17556238
REMARK minimizedRMSD -1
REMARK  0 active torsions:
REMARK  status: ('A' for Active; 'I' for Inactive)
ROOT
ATOM      1  C   UNL d   1      -0.432  -5.713  -4.076  0.00  0.00     0.020 A 
ATOM      2  C1  UNL d   1      -0.615  -5.700  -5.458  0.00  0.00     0.020 A 
ATOM      3  C2  UNL d   1      -1.902  -5.781  -5.993  0.00  0.00     0.034 A 
ATOM      4  C3  UNL d   1      -3.012  -5.875  -5.145  0.00  0.00     0.017 A 
ATOM      5  C4  UNL d   1      -2.827  -5.887  -3.758  0.00  0.00     0.017 A 
ATOM      6  C5  UNL d   1      -1.536  -5.806  -3.228  0.00  0.00     0.034 A 
ATOM      7 Cl   UNL d   1      -4.147  -6.000  -2.648  0.00  0.00    -0.070 Cl
ATOM      8 Cl1  UNL d   1      -4.575  -5.971  -5.875  0.00  0.00    -0.070 Cl
ENDROOT
TORSDOF 0
ENDMDL
