MODEL 1
REMARK minimizedAffinity 2.73409843
REMARK minimizedRMSD -1
REMARK  0 active torsions:
REMARK  status: ('A' for Active; 'I' for Inactive)
ROOT
ATOM      1  C   UNL d   1      -4.675  -0.012  -1.915  0.00  0.00     0.020 A 
ATOM      2  C1  UNL d   1      -5.610  -1.037  -2.046  0.00  0.00     0.020 A 
ATOM      3  C2  UNL d   1      -6.000  -1.468  -3.316  0.00  0.00     0.034 A 
ATOM      4  C3  UNL d   1      -5.454  -0.874  -4.460  0.00  0.00     0.017 A 
ATOM      5  C4  UNL d   1      -4.514   0.155  -4.326  0.00  0.00     0.017 A 
ATOM      6  C5  UNL d   1      -4.128   0.583  -3.052  0.00  0.00     0.034 A 
ATOM      7 Cl   UNL d   1      -3.796   0.937  -5.691  0.00  0.00    -0.070 Cl
ATOM      8 Cl1  UNL d   1      -5.981  -1.457  -5.998  0.00  0.00    -0.070 Cl
ENDROOT
TORSDOF 0
ENDMDL
