MODEL 1
REMARK minimizedAffinity 0.171123326
REMARK minimizedRMSD -1
REMARK  0 active torsions:
REMARK  status: ('A' for Active; 'I' for Inactive)
ROOT
ATOM      1  C   UNL d   1      -5.673  -0.804  -2.189  0.00  0.00     0.020 A 
ATOM      2  C1  UNL d   1      -6.000  -0.653  -3.536  0.00  0.00     0.020 A 
ATOM      3  C2  UNL d   1      -5.269  -1.333  -4.512  0.00  0.00     0.034 A 
ATOM      4  C3  UNL d   1      -4.207  -2.167  -4.143  0.00  0.00     0.017 A 
ATOM      5  C4  UNL d   1      -3.880  -2.318  -2.791  0.00  0.00     0.017 A 
ATOM      6  C5  UNL d   1      -4.616  -1.635  -1.817  0.00  0.00     0.034 A 
ATOM      7 Cl   UNL d   1      -2.584  -3.330  -2.258  0.00  0.00    -0.070 Cl
ATOM      8 Cl1  UNL d   1      -3.346  -2.977  -5.403  0.00  0.00    -0.070 Cl
ENDROOT
TORSDOF 0
ENDMDL
