MODEL 1
REMARK minimizedAffinity -0.0192857049
REMARK minimizedRMSD -1
REMARK  0 active torsions:
REMARK  status: ('A' for Active; 'I' for Inactive)
ROOT
ATOM      1  C   UNL d   1      -5.309  -1.495  -1.377  0.00  0.00     0.020 A 
ATOM      2  C1  UNL d   1      -5.795  -0.192  -1.485  0.00  0.00     0.020 A 
ATOM      3  C2  UNL d   1      -6.000   0.374  -2.745  0.00  0.00     0.034 A 
ATOM      4  C3  UNL d   1      -5.719  -0.363  -3.902  0.00  0.00     0.017 A 
ATOM      5  C4  UNL d   1      -5.232  -1.670  -3.792  0.00  0.00     0.017 A 
ATOM      6  C5  UNL d   1      -5.029  -2.232  -2.528  0.00  0.00     0.034 A 
ATOM      7 Cl   UNL d   1      -4.863  -2.641  -5.174  0.00  0.00    -0.070 Cl
ATOM      8 Cl1  UNL d   1      -5.997   0.400  -5.427  0.00  0.00    -0.070 Cl
ENDROOT
TORSDOF 0
ENDMDL
