MODEL 1
REMARK minimizedAffinity 0.308111757
REMARK minimizedRMSD -1
REMARK  0 active torsions:
REMARK  status: ('A' for Active; 'I' for Inactive)
ROOT
ATOM      1  C   UNL d   1      -2.038  -5.389  -5.857  0.00  0.00     0.020 A 
ATOM      2  C1  UNL d   1      -1.922  -4.000  -5.857  0.00  0.00     0.020 A 
ATOM      3  C2  UNL d   1      -3.069  -3.204  -5.901  0.00  0.00     0.034 A 
ATOM      4  C3  UNL d   1      -4.336  -3.797  -5.946  0.00  0.00     0.017 A 
ATOM      5  C4  UNL d   1      -4.451  -5.192  -5.946  0.00  0.00     0.017 A 
ATOM      6  C5  UNL d   1      -3.299  -5.984  -5.901  0.00  0.00     0.034 A 
ATOM      7 Cl   UNL d   1      -5.980  -5.996  -5.999  0.00  0.00    -0.070 Cl
ATOM      8 Cl1  UNL d   1      -5.711  -2.752  -6.000  0.00  0.00    -0.070 Cl
ENDROOT
TORSDOF 0
ENDMDL
