MODEL 1
REMARK minimizedAffinity -0.631850362
REMARK minimizedRMSD -1
REMARK  0 active torsions:
REMARK  status: ('A' for Active; 'I' for Inactive)
ROOT
ATOM      1  C   UNL d   1      -1.419  -4.588  -5.888  0.00  0.00     0.020 A 
ATOM      2  C1  UNL d   1      -1.992  -5.859  -5.853  0.00  0.00     0.020 A 
ATOM      3  C2  UNL d   1      -3.382  -5.999  -5.861  0.00  0.00     0.034 A 
ATOM      4  C3  UNL d   1      -4.203  -4.866  -5.905  0.00  0.00     0.017 A 
ATOM      5  C4  UNL d   1      -3.626  -3.591  -5.941  0.00  0.00     0.017 A 
ATOM      6  C5  UNL d   1      -2.235  -3.457  -5.932  0.00  0.00     0.034 A 
ATOM      7 Cl   UNL d   1      -4.574  -2.147  -5.996  0.00  0.00    -0.070 Cl
ATOM      8 Cl1  UNL d   1      -5.913  -5.113  -5.914  0.00  0.00    -0.070 Cl
ENDROOT
TORSDOF 0
ENDMDL
