MODEL 1
REMARK minimizedAffinity 3.46096897
REMARK minimizedRMSD -1
REMARK  0 active torsions:
REMARK  status: ('A' for Active; 'I' for Inactive)
ROOT
ATOM      1  C   UNL d   1       1.854   1.188   0.831  0.00  0.00     0.020 A 
ATOM      2  C1  UNL d   1       1.084   0.252   0.143  0.00  0.00     0.020 A 
ATOM      3  C2  UNL d   1       1.571  -1.042  -0.058  0.00  0.00     0.034 A 
ATOM      4  C3  UNL d   1       2.832  -1.402   0.431  0.00  0.00     0.017 A 
ATOM      5  C4  UNL d   1       3.605  -0.462   1.122  0.00  0.00     0.017 A 
ATOM      6  C5  UNL d   1       3.112   0.832   1.320  0.00  0.00     0.034 A 
ATOM      7 Cl   UNL d   1       5.170  -0.833   1.755  0.00  0.00    -0.070 Cl
ATOM      8 Cl1  UNL d   1       3.372  -3.019   0.147  0.00  0.00    -0.070 Cl
ENDROOT
TORSDOF 0
ENDMDL
