MODEL 1
REMARK minimizedAffinity 9.16842651
REMARK minimizedRMSD -1
REMARK  0 active torsions:
REMARK  status: ('A' for Active; 'I' for Inactive)
ROOT
ATOM      1  C   UNL d   1      -0.580  -1.580   0.222  0.00  0.00     0.020 A 
ATOM      2  C1  UNL d   1       0.151  -0.429   0.511  0.00  0.00     0.020 A 
ATOM      3  C2  UNL d   1      -0.370   0.827   0.193  0.00  0.00     0.034 A 
ATOM      4  C3  UNL d   1      -1.625   0.935  -0.416  0.00  0.00     0.017 A 
ATOM      5  C4  UNL d   1      -2.358  -0.222  -0.706  0.00  0.00     0.017 A 
ATOM      6  C5  UNL d   1      -1.832  -1.477  -0.385  0.00  0.00     0.034 A 
ATOM      7 Cl   UNL d   1      -3.915  -0.169  -1.456  0.00  0.00    -0.070 Cl
ATOM      8 Cl1  UNL d   1      -2.208   2.520  -0.781  0.00  0.00    -0.070 Cl
ENDROOT
TORSDOF 0
ENDMDL
