MODEL 1
REMARK minimizedAffinity 13.7643414
REMARK minimizedRMSD -1
REMARK  0 active torsions:
REMARK  status: ('A' for Active; 'I' for Inactive)
ROOT
ATOM      1  N1  IND d   1      -3.210  -2.286   4.135  0.00  0.00    -0.196 N 
ATOM      2  C2  IND d   1      -3.783  -2.642   2.946  0.00  0.00     0.054 A 
ATOM      3  C3  IND d   1      -2.950  -2.357   1.920  0.00  0.00    -0.031 A 
ATOM      4  C4  IND d   1      -0.561  -1.399   1.969  0.00  0.00     0.051 A 
ATOM      5  C5  IND d   1       0.376  -0.884   2.821  0.00  0.00    -0.031 A 
ATOM      6  C6  IND d   1       0.162  -0.812   4.182  0.00  0.00     0.015 A 
ATOM      7  C7  IND d   1      -0.998  -1.264   4.746  0.00  0.00    -0.016 A 
ATOM      8  C8  IND d   1      -1.954  -1.780   3.883  0.00  0.00    -0.047 A 
ATOM      9  C9  IND d   1      -1.760  -1.817   2.497  0.00  0.00    -0.096 A 
ATOM     10  HN1 IND d   1      -3.574  -2.365   4.911  0.00  0.00     0.298 HD
ENDROOT
TORSDOF 0
ENDMDL
