MODEL 1
REMARK minimizedAffinity 19.411129
REMARK minimizedRMSD -1
REMARK  0 active torsions:
REMARK  status: ('A' for Active; 'I' for Inactive)
ROOT
ATOM      1  N1  IND d   1       1.451  -5.743   1.878  0.00  0.00    -0.196 N 
ATOM      2  C2  IND d   1       1.129  -6.000   3.182  0.00  0.00     0.054 A 
ATOM      3  C3  IND d   1       0.504  -4.934   3.730  0.00  0.00    -0.031 A 
ATOM      4  C4  IND d   1      -0.184  -2.703   2.645  0.00  0.00     0.051 A 
ATOM      5  C5  IND d   1      -0.073  -1.991   1.484  0.00  0.00    -0.031 A 
ATOM      6  C6  IND d   1       0.563  -2.504   0.371  0.00  0.00     0.015 A 
ATOM      7  C7  IND d   1       1.103  -3.759   0.375  0.00  0.00    -0.016 A 
ATOM      8  C8  IND d   1       0.998  -4.483   1.555  0.00  0.00    -0.047 A 
ATOM      9  C9  IND d   1       0.392  -3.951   2.700  0.00  0.00    -0.096 A 
ATOM     10  HN1 IND d   1       1.867  -6.278   1.349  0.00  0.00     0.298 HD
ENDROOT
TORSDOF 0
ENDMDL
