MODEL 1
REMARK minimizedAffinity 14.3174868
REMARK minimizedRMSD -1
REMARK  0 active torsions:
REMARK  status: ('A' for Active; 'I' for Inactive)
ROOT
ATOM      1  N1  IND d   1      -1.186   4.102  -2.654  0.00  0.00    -0.196 N 
ATOM      2  C2  IND d   1      -1.732   2.912  -3.048  0.00  0.00     0.054 A 
ATOM      3  C3  IND d   1      -1.210   1.894  -2.328  0.00  0.00    -0.031 A 
ATOM      4  C4  IND d   1       0.477   1.962  -0.385  0.00  0.00     0.051 A 
ATOM      5  C5  IND d   1       1.286   2.817   0.310  0.00  0.00    -0.031 A 
ATOM      6  C6  IND d   1       1.310   4.172   0.049  0.00  0.00     0.015 A 
ATOM      7  C7  IND d   1       0.515   4.726  -0.913  0.00  0.00    -0.016 A 
ATOM      8  C8  IND d   1      -0.302   3.860  -1.626  0.00  0.00    -0.047 A 
ATOM      9  C9  IND d   1      -0.300   2.479  -1.394  0.00  0.00    -0.096 A 
ATOM     10  HN1 IND d   1      -1.365   4.872  -2.992  0.00  0.00     0.298 HD
ENDROOT
TORSDOF 0
ENDMDL
