MODEL 1
REMARK minimizedAffinity 17.8825531
REMARK minimizedRMSD -1
REMARK  0 active torsions:
REMARK  status: ('A' for Active; 'I' for Inactive)
ROOT
ATOM      1  N1  IND d   1       1.290  -4.293   1.322  0.00  0.00    -0.196 N 
ATOM      2  C2  IND d   1       0.585  -5.242   2.008  0.00  0.00     0.054 A 
ATOM      3  C3  IND d   1      -0.434  -4.670   2.689  0.00  0.00    -0.031 A 
ATOM      4  C4  IND d   1      -1.190  -2.209   2.739  0.00  0.00     0.051 A 
ATOM      5  C5  IND d   1      -0.837  -0.965   2.299  0.00  0.00    -0.031 A 
ATOM      6  C6  IND d   1       0.265  -0.762   1.493  0.00  0.00     0.015 A 
ATOM      7  C7  IND d   1       1.050  -1.803   1.085  0.00  0.00    -0.016 A 
ATOM      8  C8  IND d   1       0.698  -3.067   1.535  0.00  0.00    -0.047 A 
ATOM      9  C9  IND d   1      -0.394  -3.274   2.388  0.00  0.00    -0.096 A 
ATOM     10  HN1 IND d   1       1.986  -4.437   0.838  0.00  0.00     0.298 HD
ENDROOT
TORSDOF 0
ENDMDL
