MODEL 1
REMARK minimizedAffinity 12.1300182
REMARK minimizedRMSD -1
REMARK  0 active torsions:
REMARK  status: ('A' for Active; 'I' for Inactive)
ROOT
ATOM      1  N1  IND d   1      -3.213  -3.429   3.426  0.00  0.00    -0.196 N 
ATOM      2  C2  IND d   1      -2.764  -4.530   2.752  0.00  0.00     0.054 A 
ATOM      3  C3  IND d   1      -3.397  -5.641   3.191  0.00  0.00    -0.031 A 
ATOM      4  C4  IND d   1      -5.279  -5.870   4.933  0.00  0.00     0.051 A 
ATOM      5  C5  IND d   1      -5.998  -5.147   5.844  0.00  0.00    -0.031 A 
ATOM      6  C6  IND d   1      -5.824  -3.787   5.995  0.00  0.00     0.015 A 
ATOM      7  C7  IND d   1      -4.928  -3.093   5.231  0.00  0.00    -0.016 A 
ATOM      8  C8  IND d   1      -4.191  -3.825   4.311  0.00  0.00    -0.047 A 
ATOM      9  C9  IND d   1      -4.333  -5.213   4.182  0.00  0.00    -0.096 A 
ATOM     10  HN1 IND d   1      -2.932  -2.624   3.315  0.00  0.00     0.298 HD
ENDROOT
TORSDOF 0
ENDMDL
