MODEL 1
REMARK minimizedAffinity 14.6414289
REMARK minimizedRMSD -1
REMARK  0 active torsions:
REMARK  status: ('A' for Active; 'I' for Inactive)
ROOT
ATOM      1  N1  IND d   1      -1.794  -0.438   3.140  0.00  0.00    -0.196 N 
ATOM      2  C2  IND d   1      -2.555  -1.563   3.289  0.00  0.00     0.054 A 
ATOM      3  C3  IND d   1      -1.964  -2.615   2.679  0.00  0.00    -0.031 A 
ATOM      4  C4  IND d   1       0.303  -2.739   1.465  0.00  0.00     0.051 A 
ATOM      5  C5  IND d   1       1.342  -1.959   1.042  0.00  0.00    -0.031 A 
ATOM      6  C6  IND d   1       1.392  -0.605   1.304  0.00  0.00     0.015 A 
ATOM      7  C7  IND d   1       0.404   0.020   2.012  0.00  0.00    -0.016 A 
ATOM      8  C8  IND d   1      -0.656  -0.768   2.437  0.00  0.00    -0.047 A 
ATOM      9  C9  IND d   1      -0.732  -2.134   2.138  0.00  0.00    -0.096 A 
ATOM     10  HN1 IND d   1      -1.993   0.345   3.435  0.00  0.00     0.298 HD
ENDROOT
TORSDOF 0
ENDMDL
