MODEL 1
REMARK minimizedAffinity 18.5114803
REMARK minimizedRMSD -1
REMARK  0 active torsions:
REMARK  status: ('A' for Active; 'I' for Inactive)
ROOT
ATOM      1  N1  IND d   1       4.837  -1.520  -1.970  0.00  0.00    -0.196 N 
ATOM      2  C2  IND d   1       5.473  -0.613  -2.771  0.00  0.00     0.054 A 
ATOM      3  C3  IND d   1       5.338   0.634  -2.268  0.00  0.00    -0.031 A 
ATOM      4  C4  IND d   1       4.202   1.405  -0.090  0.00  0.00     0.051 A 
ATOM      5  C5  IND d   1       3.451   0.945   0.955  0.00  0.00    -0.031 A 
ATOM      6  C6  IND d   1       3.119  -0.389   1.082  0.00  0.00     0.015 A 
ATOM      7  C7  IND d   1       3.537  -1.317   0.171  0.00  0.00    -0.016 A 
ATOM      8  C8  IND d   1       4.294  -0.852  -0.895  0.00  0.00    -0.047 A 
ATOM      9  C9  IND d   1       4.598   0.507  -1.052  0.00  0.00    -0.096 A 
ATOM     10  HN1 IND d   1       4.784  -2.366  -2.114  0.00  0.00     0.298 HD
ENDROOT
TORSDOF 0
ENDMDL
