MODEL 1
REMARK minimizedAffinity 16.4484158
REMARK minimizedRMSD -1
REMARK  0 active torsions:
REMARK  status: ('A' for Active; 'I' for Inactive)
ROOT
ATOM      1  N1  IND d   1       1.761  -5.227   1.402  0.00  0.00    -0.196 N 
ATOM      2  C2  IND d   1       1.411  -5.993   2.478  0.00  0.00     0.054 A 
ATOM      3  C3  IND d   1       0.622  -5.288   3.320  0.00  0.00    -0.031 A 
ATOM      4  C4  IND d   1      -0.303  -2.898   3.079  0.00  0.00     0.051 A 
ATOM      5  C5  IND d   1      -0.230  -1.790   2.282  0.00  0.00    -0.031 A 
ATOM      6  C6  IND d   1       0.523  -1.772   1.126  0.00  0.00     0.015 A 
ATOM      7  C7  IND d   1       1.226  -2.870   0.716  0.00  0.00    -0.016 A 
ATOM      8  C8  IND d   1       1.160  -3.994   1.527  0.00  0.00    -0.047 A 
ATOM      9  C9  IND d   1       0.431  -4.005   2.723  0.00  0.00    -0.096 A 
ATOM     10  HN1 IND d   1       2.271  -5.474   0.755  0.00  0.00     0.298 HD
ENDROOT
TORSDOF 0
ENDMDL
