MODEL 1
REMARK minimizedAffinity 14.2524471
REMARK minimizedRMSD -1
REMARK  0 active torsions:
REMARK  status: ('A' for Active; 'I' for Inactive)
ROOT
ATOM      1  N1  IND d   1       2.968  -1.468   0.249  0.00  0.00    -0.196 N 
ATOM      2  C2  IND d   1       2.862  -2.711  -0.310  0.00  0.00     0.054 A 
ATOM      3  C3  IND d   1       1.748  -3.334   0.136  0.00  0.00    -0.031 A 
ATOM      4  C4  IND d   1      -0.096  -2.461   1.707  0.00  0.00     0.051 A 
ATOM      5  C5  IND d   1      -0.421  -1.396   2.499  0.00  0.00    -0.031 A 
ATOM      6  C6  IND d   1       0.382  -0.277   2.581  0.00  0.00     0.015 A 
ATOM      7  C7  IND d   1       1.539  -0.176   1.862  0.00  0.00    -0.016 A 
ATOM      8  C8  IND d   1       1.876  -1.258   1.062  0.00  0.00    -0.047 A 
ATOM      9  C9  IND d   1       1.087  -2.415   1.007  0.00  0.00    -0.096 A 
ATOM     10  HN1 IND d   1       3.609  -0.911   0.115  0.00  0.00     0.298 HD
ENDROOT
TORSDOF 0
ENDMDL
