MODEL 1
REMARK minimizedAffinity 12.5566578
REMARK minimizedRMSD -1
REMARK  0 active torsions:
REMARK  status: ('A' for Active; 'I' for Inactive)
ROOT
ATOM      1  N1  IND d   1      -2.360   3.833  -5.413  0.00  0.00    -0.196 N 
ATOM      2  C2  IND d   1      -1.885   4.977  -5.992  0.00  0.00     0.054 A 
ATOM      3  C3  IND d   1      -1.916   6.000  -5.108  0.00  0.00    -0.031 A 
ATOM      4  C4  IND d   1      -2.612   5.999  -2.630  0.00  0.00     0.051 A 
ATOM      5  C5  IND d   1      -3.151   5.198  -1.663  0.00  0.00    -0.031 A 
ATOM      6  C6  IND d   1      -3.458   3.874  -1.900  0.00  0.00     0.015 A 
ATOM      7  C7  IND d   1      -3.225   3.295  -3.116  0.00  0.00    -0.016 A 
ATOM      8  C8  IND d   1      -2.684   4.108  -4.102  0.00  0.00    -0.047 A 
ATOM      9  C9  IND d   1      -2.410   5.463  -3.880  0.00  0.00    -0.096 A 
ATOM     10  HN1 IND d   1      -2.442   3.071  -5.802  0.00  0.00     0.298 HD
ENDROOT
TORSDOF 0
ENDMDL
