MODEL 1
REMARK minimizedAffinity 15.5609684
REMARK minimizedRMSD -1
REMARK  0 active torsions:
REMARK  status: ('A' for Active; 'I' for Inactive)
ROOT
ATOM      1  N1  IND d   1      -2.082   3.872  -5.497  0.00  0.00    -0.196 N 
ATOM      2  C2  IND d   1      -1.481   4.993  -5.997  0.00  0.00     0.054 A 
ATOM      3  C3  IND d   1      -1.540   6.000  -5.097  0.00  0.00    -0.031 A 
ATOM      4  C4  IND d   1      -2.487   5.999  -2.703  0.00  0.00     0.051 A 
ATOM      5  C5  IND d   1      -3.171   5.217  -1.816  0.00  0.00    -0.031 A 
ATOM      6  C6  IND d   1      -3.532   3.919  -2.115  0.00  0.00     0.015 A 
ATOM      7  C7  IND d   1      -3.211   3.349  -3.314  0.00  0.00    -0.016 A 
ATOM      8  C8  IND d   1      -2.522   4.143  -4.221  0.00  0.00    -0.047 A 
ATOM      9  C9  IND d   1      -2.191   5.474  -3.939  0.00  0.00    -0.096 A 
ATOM     10  HN1 IND d   1      -2.170   3.123  -5.911  0.00  0.00     0.298 HD
ENDROOT
TORSDOF 0
ENDMDL
