MODEL 1
REMARK minimizedAffinity 11.3842735
REMARK minimizedRMSD -1
REMARK  0 active torsions:
REMARK  status: ('A' for Active; 'I' for Inactive)
ROOT
ATOM      1  N1  IND d   1      -2.267   3.852  -5.434  0.00  0.00    -0.196 N 
ATOM      2  C2  IND d   1      -1.740   4.980  -5.999  0.00  0.00     0.054 A 
ATOM      3  C3  IND d   1      -1.736   5.995  -5.105  0.00  0.00    -0.031 A 
ATOM      4  C4  IND d   1      -2.452   6.000  -2.633  0.00  0.00     0.051 A 
ATOM      5  C5  IND d   1      -3.033   5.213  -1.678  0.00  0.00    -0.031 A 
ATOM      6  C6  IND d   1      -3.392   3.905  -1.930  0.00  0.00     0.015 A 
ATOM      7  C7  IND d   1      -3.173   3.329  -3.150  0.00  0.00    -0.016 A 
ATOM      8  C8  IND d   1      -2.591   4.127  -4.124  0.00  0.00    -0.047 A 
ATOM      9  C9  IND d   1      -2.263   5.468  -3.886  0.00  0.00    -0.096 A 
ATOM     10  HN1 IND d   1      -2.377   3.097  -5.831  0.00  0.00     0.298 HD
ENDROOT
TORSDOF 0
ENDMDL
