MODEL 1
REMARK minimizedAffinity 5.02220821
REMARK minimizedRMSD -1
REMARK  0 active torsions:
REMARK  status: ('A' for Active; 'I' for Inactive)
ROOT
ATOM      1  N1  IND d   1      -4.355  -5.982   0.301  0.00  0.00    -0.196 N 
ATOM      2  C2  IND d   1      -3.910  -5.135  -0.675  0.00  0.00     0.054 A 
ATOM      3  C3  IND d   1      -3.583  -3.936  -0.143  0.00  0.00    -0.031 A 
ATOM      4  C4  IND d   1      -3.603  -3.178   2.317  0.00  0.00     0.051 A 
ATOM      5  C5  IND d   1      -3.966  -3.590   3.568  0.00  0.00    -0.031 A 
ATOM      6  C6  IND d   1      -4.485  -4.847   3.799  0.00  0.00     0.015 A 
ATOM      7  C7  IND d   1      -4.651  -5.747   2.785  0.00  0.00    -0.016 A 
ATOM      8  C8  IND d   1      -4.290  -5.329   1.512  0.00  0.00    -0.047 A 
ATOM      9  C9  IND d   1      -3.802  -4.040   1.265  0.00  0.00    -0.096 A 
ATOM     10  HN1 IND d   1      -4.629  -6.788   0.178  0.00  0.00     0.298 HD
ENDROOT
TORSDOF 0
ENDMDL
