MODEL 1
REMARK minimizedAffinity 2.70020866
REMARK minimizedRMSD -1
REMARK  0 active torsions:
REMARK  status: ('A' for Active; 'I' for Inactive)
ROOT
ATOM      1  N1  IND d   1      -3.545  -5.121   1.957  0.00  0.00    -0.196 N 
ATOM      2  C2  IND d   1      -4.662  -4.993   2.735  0.00  0.00     0.054 A 
ATOM      3  C3  IND d   1      -5.777  -5.171   1.991  0.00  0.00    -0.031 A 
ATOM      4  C4  IND d   1      -6.000  -5.784  -0.500  0.00  0.00     0.051 A 
ATOM      5  C5  IND d   1      -5.260  -5.971  -1.633  0.00  0.00    -0.031 A 
ATOM      6  C6  IND d   1      -3.883  -5.885  -1.628  0.00  0.00     0.015 A 
ATOM      7  C7  IND d   1      -3.190  -5.619  -0.480  0.00  0.00    -0.016 A 
ATOM      8  C8  IND d   1      -3.939  -5.422   0.671  0.00  0.00    -0.047 A 
ATOM      9  C9  IND d   1      -5.339  -5.465   0.663  0.00  0.00    -0.096 A 
ATOM     10  HN1 IND d   1      -2.733  -5.030   2.225  0.00  0.00     0.298 HD
ENDROOT
TORSDOF 0
ENDMDL
