MODEL 1
REMARK minimizedAffinity 7.45374966
REMARK minimizedRMSD -1
REMARK  0 active torsions:
REMARK  status: ('A' for Active; 'I' for Inactive)
ROOT
ATOM      1  C   UNL d   1       0.796   2.989  -1.940  0.00  0.00     0.023 A 
ATOM      2  C1  UNL d   1       0.775   1.625  -1.646  0.00  0.00     0.003 A 
ATOM      3  C2  UNL d   1       0.080   1.162  -0.526  0.00  0.00     0.048 A 
ATOM      4  C3  UNL d   1      -0.592   2.068   0.294  0.00  0.00     0.023 A 
ATOM      5  C4  UNL d   1      -0.574   3.433   0.003  0.00  0.00     0.048 A 
ATOM      6  C5  UNL d   1       0.122   3.891  -1.117  0.00  0.00     0.003 A 
ATOM      7  I   UNL d   1      -1.626   1.381   1.961  0.00  0.00    -0.146 I 
ENDROOT
TORSDOF 0
ENDMDL
