MODEL 1
REMARK minimizedAffinity 0.380746752
REMARK minimizedRMSD -1
REMARK  0 active torsions:
REMARK  status: ('A' for Active; 'I' for Inactive)
ROOT
ATOM      1  C   UNL d   1      -2.550   4.103   0.376  0.00  0.00     0.023 A 
ATOM      2  C1  UNL d   1      -2.624   2.743   0.679  0.00  0.00     0.003 A 
ATOM      3  C2  UNL d   1      -1.639   1.869   0.217  0.00  0.00     0.048 A 
ATOM      4  C3  UNL d   1      -0.581   2.360  -0.546  0.00  0.00     0.023 A 
ATOM      5  C4  UNL d   1      -0.501   3.720  -0.851  0.00  0.00     0.048 A 
ATOM      6  C5  UNL d   1      -1.489   4.591  -0.388  0.00  0.00     0.003 A 
ATOM      7  I   UNL d   1       0.888   1.060  -1.234  0.00  0.00    -0.146 I 
ENDROOT
TORSDOF 0
ENDMDL
