MODEL 1
REMARK minimizedAffinity -1.38405073
REMARK minimizedRMSD -1
REMARK  0 active torsions:
REMARK  status: ('A' for Active; 'I' for Inactive)
ROOT
ATOM      1  C   UNL d   1      -2.595   3.838   0.919  0.00  0.00     0.023 A 
ATOM      2  C1  UNL d   1      -2.244   2.608   1.476  0.00  0.00     0.003 A 
ATOM      3  C2  UNL d   1      -1.253   1.827   0.878  0.00  0.00     0.048 A 
ATOM      4  C3  UNL d   1      -0.616   2.282  -0.276  0.00  0.00     0.023 A 
ATOM      5  C4  UNL d   1      -0.963   3.513  -0.836  0.00  0.00     0.048 A 
ATOM      6  C5  UNL d   1      -1.955   4.290  -0.235  0.00  0.00     0.003 A 
ATOM      7  I   UNL d   1       0.859   1.121  -1.167  0.00  0.00    -0.146 I 
ENDROOT
TORSDOF 0
ENDMDL
