MODEL 1
REMARK minimizedAffinity 1.91912508
REMARK minimizedRMSD -1
REMARK  0 active torsions:
REMARK  status: ('A' for Active; 'I' for Inactive)
ROOT
ATOM      1  C   UNL d   1      -0.084   3.447  -0.754  0.00  0.00     0.023 A 
ATOM      2  C1  UNL d   1       0.218   2.092  -0.891  0.00  0.00     0.003 A 
ATOM      3  C2  UNL d   1      -0.220   1.176   0.068  0.00  0.00     0.048 A 
ATOM      4  C3  UNL d   1      -0.962   1.622   1.161  0.00  0.00     0.023 A 
ATOM      5  C4  UNL d   1      -1.268   2.977   1.302  0.00  0.00     0.048 A 
ATOM      6  C5  UNL d   1      -0.826   3.889   0.341  0.00  0.00     0.003 A 
ATOM      7  I   UNL d   1      -1.616   0.262   2.589  0.00  0.00    -0.146 I 
ENDROOT
TORSDOF 0
ENDMDL
