MODEL 1
REMARK minimizedAffinity 2.21240592
REMARK minimizedRMSD -1
REMARK  0 active torsions:
REMARK  status: ('A' for Active; 'I' for Inactive)
ROOT
ATOM      1  C   UNL d   1      -0.545   3.870   1.447  0.00  0.00     0.023 A 
ATOM      2  C1  UNL d   1      -0.948   2.566   1.733  0.00  0.00     0.003 A 
ATOM      3  C2  UNL d   1      -0.788   1.559   0.779  0.00  0.00     0.048 A 
ATOM      4  C3  UNL d   1      -0.222   1.863  -0.459  0.00  0.00     0.023 A 
ATOM      5  C4  UNL d   1       0.184   3.167  -0.749  0.00  0.00     0.048 A 
ATOM      6  C5  UNL d   1       0.020   4.170   0.207  0.00  0.00     0.003 A 
ATOM      7  I   UNL d   1       0.018   0.366  -1.881  0.00  0.00    -0.146 I 
ENDROOT
TORSDOF 0
ENDMDL
