MODEL 1
REMARK minimizedAffinity 3.13375998
REMARK minimizedRMSD -1
REMARK  0 active torsions:
REMARK  status: ('A' for Active; 'I' for Inactive)
ROOT
ATOM      1  C   UNL d   1       0.740   5.151  -1.488  0.00  0.00     0.023 A 
ATOM      2  C1  UNL d   1       0.736   5.526  -0.145  0.00  0.00     0.003 A 
ATOM      3  C2  UNL d   1       0.273   4.639   0.829  0.00  0.00     0.048 A 
ATOM      4  C3  UNL d   1      -0.185   3.377   0.452  0.00  0.00     0.023 A 
ATOM      5  C4  UNL d   1      -0.182   2.996  -0.891  0.00  0.00     0.048 A 
ATOM      6  C5  UNL d   1       0.282   3.887  -1.861  0.00  0.00     0.003 A 
ATOM      7  I   UNL d   1      -0.874   2.053   1.898  0.00  0.00    -0.146 I 
ENDROOT
TORSDOF 0
ENDMDL
