MODEL 1
REMARK minimizedAffinity 6.24049139
REMARK minimizedRMSD -1
REMARK  0 active torsions:
REMARK  status: ('A' for Active; 'I' for Inactive)
ROOT
ATOM      1  C   UNL d   1      -1.153   0.085   2.708  0.00  0.00     0.023 A 
ATOM      2  C1  UNL d   1       0.184   0.444   2.535  0.00  0.00     0.003 A 
ATOM      3  C2  UNL d   1       0.516   1.544   1.742  0.00  0.00     0.048 A 
ATOM      4  C3  UNL d   1      -0.495   2.281   1.125  0.00  0.00     0.023 A 
ATOM      5  C4  UNL d   1      -1.834   1.926   1.296  0.00  0.00     0.048 A 
ATOM      6  C5  UNL d   1      -2.160   0.825   2.089  0.00  0.00     0.003 A 
ATOM      7  I   UNL d   1      -0.003   3.920  -0.056  0.00  0.00    -0.146 I 
ENDROOT
TORSDOF 0
ENDMDL
