MODEL 1
REMARK minimizedAffinity -1.99217224
REMARK minimizedRMSD -1
REMARK  0 active torsions:
REMARK  status: ('A' for Active; 'I' for Inactive)
ROOT
ATOM      1  C   UNL d   1      -1.547   4.055   0.211  0.00  0.00     0.023 A 
ATOM      2  C1  UNL d   1      -1.318   4.120  -1.164  0.00  0.00     0.003 A 
ATOM      3  C2  UNL d   1      -0.793   3.016  -1.838  0.00  0.00     0.048 A 
ATOM      4  C3  UNL d   1      -0.499   1.850  -1.131  0.00  0.00     0.023 A 
ATOM      5  C4  UNL d   1      -0.728   1.780   0.244  0.00  0.00     0.048 A 
ATOM      6  C5  UNL d   1      -1.253   2.887   0.914  0.00  0.00     0.003 A 
ATOM      7  I   UNL d   1       0.283   0.205  -2.133  0.00  0.00    -0.146 I 
ENDROOT
TORSDOF 0
ENDMDL
