MODEL 1
REMARK minimizedAffinity 4.70825624
REMARK minimizedRMSD -1
REMARK  0 active torsions:
REMARK  status: ('A' for Active; 'I' for Inactive)
ROOT
ATOM      1  C   UNL d   1       0.735   2.960  -2.477  0.00  0.00     0.023 A 
ATOM      2  C1  UNL d   1       0.081   3.859  -1.635  0.00  0.00     0.003 A 
ATOM      3  C2  UNL d   1      -0.488   3.411  -0.441  0.00  0.00     0.048 A 
ATOM      4  C3  UNL d   1      -0.398   2.064  -0.095  0.00  0.00     0.023 A 
ATOM      5  C4  UNL d   1       0.257   1.161  -0.934  0.00  0.00     0.048 A 
ATOM      6  C5  UNL d   1       0.823   1.612  -2.127  0.00  0.00     0.003 A 
ATOM      7  I   UNL d   1      -1.243   1.395   1.682  0.00  0.00    -0.146 I 
ENDROOT
TORSDOF 0
ENDMDL
