MODEL 1
REMARK minimizedAffinity 3.87715006
REMARK minimizedRMSD -1
REMARK  0 active torsions:
REMARK  status: ('A' for Active; 'I' for Inactive)
ROOT
ATOM      1  C   UNL d   1       0.221  -1.181  -2.340  0.00  0.00     0.023 A 
ATOM      2  C1  UNL d   1       1.202  -0.631  -1.515  0.00  0.00     0.003 A 
ATOM      3  C2  UNL d   1       0.916   0.499  -0.746  0.00  0.00     0.048 A 
ATOM      4  C3  UNL d   1      -0.354   1.073  -0.806  0.00  0.00     0.023 A 
ATOM      5  C4  UNL d   1      -1.339   0.526  -1.630  0.00  0.00     0.048 A 
ATOM      6  C5  UNL d   1      -1.048  -0.604  -2.397  0.00  0.00     0.003 A 
ATOM      7  I   UNL d   1      -0.782   2.755   0.337  0.00  0.00    -0.146 I 
ENDROOT
TORSDOF 0
ENDMDL
