MODEL 1
REMARK minimizedAffinity 8.72302818
REMARK minimizedRMSD -1
REMARK  0 active torsions:
REMARK  status: ('A' for Active; 'I' for Inactive)
ROOT
ATOM      1  C   UNL d   1       0.331   3.356  -1.868  0.00  0.00     0.023 A 
ATOM      2  C1  UNL d   1       0.134   1.977  -1.797  0.00  0.00     0.003 A 
ATOM      3  C2  UNL d   1      -0.214   1.382  -0.582  0.00  0.00     0.048 A 
ATOM      4  C3  UNL d   1      -0.364   2.172   0.557  0.00  0.00     0.023 A 
ATOM      5  C4  UNL d   1      -0.169   3.552   0.490  0.00  0.00     0.048 A 
ATOM      6  C5  UNL d   1       0.179   4.143  -0.726  0.00  0.00     0.003 A 
ATOM      7  I   UNL d   1      -0.883   1.288   2.365  0.00  0.00    -0.146 I 
ENDROOT
TORSDOF 0
ENDMDL
