MODEL 1
REMARK minimizedAffinity 2.00544763
REMARK minimizedRMSD -1
REMARK  0 active torsions:
REMARK  status: ('A' for Active; 'I' for Inactive)
ROOT
ATOM      1  C   UNL d   1      -1.467   3.505   0.804  0.00  0.00     0.023 A 
ATOM      2  C1  UNL d   1      -1.322   2.253   1.403  0.00  0.00     0.003 A 
ATOM      3  C2  UNL d   1      -0.497   1.290   0.820  0.00  0.00     0.048 A 
ATOM      4  C3  UNL d   1       0.182   1.585  -0.362  0.00  0.00     0.023 A 
ATOM      5  C4  UNL d   1       0.041   2.836  -0.964  0.00  0.00     0.048 A 
ATOM      6  C5  UNL d   1      -0.786   3.796  -0.378  0.00  0.00     0.003 A 
ATOM      7  I   UNL d   1       1.411   0.152  -1.232  0.00  0.00    -0.146 I 
ENDROOT
TORSDOF 0
ENDMDL
