MODEL 1
REMARK minimizedAffinity 8.4833889
REMARK minimizedRMSD -1
REMARK  0 active torsions:
REMARK  status: ('A' for Active; 'I' for Inactive)
ROOT
ATOM      1  C   UNL d   1       0.018   3.780  -1.242  0.00  0.00     0.023 A 
ATOM      2  C1  UNL d   1      -0.342   4.251   0.021  0.00  0.00     0.003 A 
ATOM      3  C2  UNL d   1      -0.740   3.354   1.014  0.00  0.00     0.048 A 
ATOM      4  C3  UNL d   1      -0.774   1.988   0.739  0.00  0.00     0.023 A 
ATOM      5  C4  UNL d   1      -0.414   1.512  -0.523  0.00  0.00     0.048 A 
ATOM      6  C5  UNL d   1      -0.018   2.413  -1.514  0.00  0.00     0.003 A 
ATOM      7  I   UNL d   1      -1.366   0.651   2.216  0.00  0.00    -0.146 I 
ENDROOT
TORSDOF 0
ENDMDL
