MODEL 1
REMARK minimizedAffinity 1.9245106
REMARK minimizedRMSD -1
REMARK  1 active torsions:
REMARK  status: ('A' for Active; 'I' for Inactive)
REMARK    1  A    between atoms: C1_2  and  C2_3 
ROOT
ATOM      1  C2  UNL d   1       4.480   1.424   0.409  0.00  0.00    -0.076 A 
ATOM      2  C3  UNL d   1       5.638   2.139   0.057  0.00  0.00     0.004 A 
ATOM      3  C4  UNL d   1       5.991   2.320  -1.279  0.00  0.00    -0.003 A 
ATOM      4  C5  UNL d   1       5.192   1.789  -2.285  0.00  0.00     0.000 A 
ATOM      5  C6  UNL d   1       4.030   1.092  -1.955  0.00  0.00     0.000 A 
ATOM      6  C7  UNL d   1       3.651   0.915  -0.614  0.00  0.00    -0.073 A 
ATOM      7  C8  UNL d   1       2.391   0.149  -0.315  0.00  0.00     0.078 C 
ENDROOT
BRANCH   1   8
ATOM      8  C1  UNL d   1       4.161   1.237   1.875  0.00  0.00     0.053 C 
ATOM      9  C   UNL d   1       4.435  -0.181   2.354  0.00  0.00     0.018 C 
ENDBRANCH   1   8
TORSDOF 1
ENDMDL
