MODEL 1
REMARK minimizedAffinity 18.2837067
REMARK minimizedRMSD -1
REMARK  1 active torsions:
REMARK  status: ('A' for Active; 'I' for Inactive)
REMARK    1  A    between atoms: C1_2  and  C2_3 
ROOT
ATOM      1  C2  UNL d   1      -3.994  -0.263  -1.461  0.00  0.00    -0.076 A 
ATOM      2  C3  UNL d   1      -3.410  -0.046  -2.721  0.00  0.00     0.004 A 
ATOM      3  C4  UNL d   1      -4.091  -0.371  -3.893  0.00  0.00    -0.003 A 
ATOM      4  C5  UNL d   1      -5.368  -0.918  -3.823  0.00  0.00     0.000 A 
ATOM      5  C6  UNL d   1      -5.969  -1.124  -2.582  0.00  0.00     0.000 A 
ATOM      6  C7  UNL d   1      -5.303  -0.787  -1.392  0.00  0.00    -0.073 A 
ATOM      7  C8  UNL d   1      -5.996  -1.036  -0.080  0.00  0.00     0.078 C 
ENDROOT
BRANCH   1   8
ATOM      8  C1  UNL d   1      -3.196   0.084  -0.224  0.00  0.00     0.053 C 
ATOM      9  C   UNL d   1      -3.693   1.351   0.453  0.00  0.00     0.018 C 
ENDBRANCH   1   8
TORSDOF 1
ENDMDL
