MODEL 1
REMARK minimizedAffinity 12.9277906
REMARK minimizedRMSD -1
REMARK  1 active torsions:
REMARK  status: ('A' for Active; 'I' for Inactive)
REMARK    1  A    between atoms: C1_2  and  C2_3 
ROOT
ATOM      1  C2  UNL d   1       3.059  -0.029   4.869  0.00  0.00    -0.076 A 
ATOM      2  C3  UNL d   1       3.880  -0.189   6.000  0.00  0.00     0.004 A 
ATOM      3  C4  UNL d   1       5.108  -0.842   5.908  0.00  0.00    -0.003 A 
ATOM      4  C5  UNL d   1       5.536  -1.345   4.685  0.00  0.00     0.000 A 
ATOM      5  C6  UNL d   1       4.743  -1.179   3.549  0.00  0.00     0.000 A 
ATOM      6  C7  UNL d   1       3.510  -0.510   3.621  0.00  0.00    -0.073 A 
ATOM      7  C8  UNL d   1       2.693  -0.366   2.367  0.00  0.00     0.078 C 
ENDROOT
BRANCH   1   8
ATOM      8  C1  UNL d   1       1.725   0.663   5.035  0.00  0.00     0.053 C 
ATOM      9  C   UNL d   1       1.850   2.179   5.020  0.00  0.00     0.018 C 
ENDBRANCH   1   8
TORSDOF 1
ENDMDL
