MODEL 1
REMARK minimizedAffinity 14.0959902
REMARK minimizedRMSD -1
REMARK  0 active torsions:
REMARK  status: ('A' for Active; 'I' for Inactive)
ROOT
ATOM      1  C2' OXE d   1       5.635   4.360  -0.504  0.00  0.00     0.078 C 
ATOM      2  C1' OXE d   1       5.956   3.648   2.192  0.00  0.00     0.078 C 
ATOM      3  C1  OXE d   1       4.975   2.853   1.366  0.00  0.00    -0.078 A 
ATOM      4  C2  OXE d   1       4.790   3.239   0.060  0.00  0.00    -0.078 A 
ATOM      5  C3  OXE d   1       3.938   2.505  -0.760  0.00  0.00     0.003 A 
ATOM      6  C4  OXE d   1       3.152   1.476  -0.227  0.00  0.00    -0.002 A 
ATOM      7  C5  OXE d   1       3.296   1.093   1.111  0.00  0.00    -0.002 A 
ATOM      8  C6  OXE d   1       4.232   1.743   1.908  0.00  0.00     0.003 A 
ENDROOT
TORSDOF 0
ENDMDL
