MODEL 1
REMARK minimizedAffinity 13.4201403
REMARK minimizedRMSD -1
REMARK  0 active torsions:
REMARK  status: ('A' for Active; 'I' for Inactive)
ROOT
ATOM      1  C2' OXE d   1       3.054   3.479  -3.512  0.00  0.00     0.078 C 
ATOM      2  C1' OXE d   1       0.767   4.684  -2.417  0.00  0.00     0.078 C 
ATOM      3  C1  OXE d   1       1.273   3.418  -1.771  0.00  0.00    -0.078 A 
ATOM      4  C2  OXE d   1       2.365   2.810  -2.342  0.00  0.00    -0.078 A 
ATOM      5  C3  OXE d   1       2.904   1.670  -1.754  0.00  0.00     0.003 A 
ATOM      6  C4  OXE d   1       2.255   1.052  -0.678  0.00  0.00    -0.002 A 
ATOM      7  C5  OXE d   1       1.118   1.633  -0.106  0.00  0.00    -0.002 A 
ATOM      8  C6  OXE d   1       0.640   2.837  -0.613  0.00  0.00     0.003 A 
ENDROOT
TORSDOF 0
ENDMDL
