MODEL 1
REMARK minimizedAffinity 9.26080418
REMARK minimizedRMSD -1
REMARK  0 active torsions:
REMARK  status: ('A' for Active; 'I' for Inactive)
ROOT
ATOM      1  C2' OXE d   1      -2.249   4.892  -5.146  0.00  0.00     0.078 C 
ATOM      2  C1' OXE d   1      -3.478   5.501  -2.697  0.00  0.00     0.078 C 
ATOM      3  C1  OXE d   1      -1.974   5.591  -2.771  0.00  0.00    -0.078 A 
ATOM      4  C2  OXE d   1      -1.378   5.246  -3.961  0.00  0.00    -0.078 A 
ATOM      5  C3  OXE d   1       0.002   5.364  -4.100  0.00  0.00     0.003 A 
ATOM      6  C4  OXE d   1       0.801   5.683  -2.995  0.00  0.00    -0.002 A 
ATOM      7  C5  OXE d   1       0.217   6.000  -1.764  0.00  0.00    -0.002 A 
ATOM      8  C6  OXE d   1      -1.169   6.000  -1.647  0.00  0.00     0.003 A 
ENDROOT
TORSDOF 0
ENDMDL
