MODEL 1
REMARK minimizedAffinity 14.7086506
REMARK minimizedRMSD -1
REMARK  0 active torsions:
REMARK  status: ('A' for Active; 'I' for Inactive)
ROOT
ATOM      1  C2' OXE d   1       3.021   3.147  -3.018  0.00  0.00     0.078 C 
ATOM      2  C1' OXE d   1       5.248   4.028  -4.482  0.00  0.00     0.078 C 
ATOM      3  C1  OXE d   1       5.065   4.569  -3.086  0.00  0.00    -0.078 A 
ATOM      4  C2  OXE d   1       3.947   4.169  -2.394  0.00  0.00    -0.078 A 
ATOM      5  C3  OXE d   1       3.759   4.596  -1.083  0.00  0.00     0.003 A 
ATOM      6  C4  OXE d   1       4.615   5.548  -0.518  0.00  0.00    -0.002 A 
ATOM      7  C5  OXE d   1       5.738   6.000  -1.220  0.00  0.00    -0.002 A 
ATOM      8  C6  OXE d   1       6.000   5.489  -2.486  0.00  0.00     0.003 A 
ENDROOT
TORSDOF 0
ENDMDL
