MODEL 1
REMARK minimizedAffinity 12.094265
REMARK minimizedRMSD -1
REMARK  0 active torsions:
REMARK  status: ('A' for Active; 'I' for Inactive)
ROOT
ATOM      1  C2' OXE d   1       6.000   4.121  -4.470  0.00  0.00     0.078 C 
ATOM      2  C1' OXE d   1       5.571   4.898  -1.807  0.00  0.00     0.078 C 
ATOM      3  C1  OXE d   1       4.477   4.124  -2.498  0.00  0.00    -0.078 A 
ATOM      4  C2  OXE d   1       4.676   3.788  -3.816  0.00  0.00    -0.078 A 
ATOM      5  C3  OXE d   1       3.722   3.027  -4.485  0.00  0.00     0.003 A 
ATOM      6  C4  OXE d   1       2.497   2.731  -3.876  0.00  0.00    -0.002 A 
ATOM      7  C5  OXE d   1       2.257   3.098  -2.548  0.00  0.00    -0.002 A 
ATOM      8  C6  OXE d   1       3.252   3.756  -1.833  0.00  0.00     0.003 A 
ENDROOT
TORSDOF 0
ENDMDL
