MODEL 1
REMARK minimizedAffinity 11.5808134
REMARK minimizedRMSD -1
REMARK  0 active torsions:
REMARK  status: ('A' for Active; 'I' for Inactive)
ROOT
ATOM      1  C2' OXE d   1      -5.090   3.284  -0.283  0.00  0.00     0.078 C 
ATOM      2  C1' OXE d   1      -5.327   0.982   1.306  0.00  0.00     0.078 C 
ATOM      3  C1  OXE d   1      -5.475   0.825  -0.187  0.00  0.00    -0.078 A 
ATOM      4  C2  OXE d   1      -5.404   1.964  -0.953  0.00  0.00    -0.078 A 
ATOM      5  C3  OXE d   1      -5.480   1.868  -2.339  0.00  0.00     0.003 A 
ATOM      6  C4  OXE d   1      -5.780   0.645  -2.950  0.00  0.00    -0.002 A 
ATOM      7  C5  OXE d   1      -5.896  -0.521  -2.185  0.00  0.00    -0.002 A 
ATOM      8  C6  OXE d   1      -5.704  -0.455  -0.810  0.00  0.00     0.003 A 
ENDROOT
TORSDOF 0
ENDMDL
