MODEL 1
REMARK minimizedAffinity 20.6582298
REMARK minimizedRMSD -1
REMARK  0 active torsions:
REMARK  status: ('A' for Active; 'I' for Inactive)
ROOT
ATOM      1  C2' OXE d   1       0.152   5.604  -2.590  0.00  0.00     0.078 C 
ATOM      2  C1' OXE d   1      -1.474   5.541  -4.878  0.00  0.00     0.078 C 
ATOM      3  C1  OXE d   1      -2.152   5.504  -3.531  0.00  0.00    -0.078 A 
ATOM      4  C2  OXE d   1      -1.347   5.488  -2.418  0.00  0.00    -0.078 A 
ATOM      5  C3  OXE d   1      -1.923   5.510  -1.151  0.00  0.00     0.003 A 
ATOM      6  C4  OXE d   1      -3.310   5.392  -1.000  0.00  0.00    -0.002 A 
ATOM      7  C5  OXE d   1      -4.146   5.367  -2.121  0.00  0.00    -0.002 A 
ATOM      8  C6  OXE d   1      -3.587   5.464  -3.391  0.00  0.00     0.003 A 
ENDROOT
TORSDOF 0
ENDMDL
