MODEL 1
REMARK minimizedAffinity 11.38346
REMARK minimizedRMSD -1
REMARK  0 active torsions:
REMARK  status: ('A' for Active; 'I' for Inactive)
ROOT
ATOM      1  C2' OXE d   1      -2.979   1.044   3.245  0.00  0.00     0.078 C 
ATOM      2  C1' OXE d   1      -3.123  -1.104   1.443  0.00  0.00     0.078 C 
ATOM      3  C1  OXE d   1      -3.812  -1.257   2.776  0.00  0.00    -0.078 A 
ATOM      4  C2  OXE d   1      -3.697  -0.220   3.670  0.00  0.00    -0.078 A 
ATOM      5  C3  OXE d   1      -4.359  -0.287   4.892  0.00  0.00     0.003 A 
ATOM      6  C4  OXE d   1      -5.012  -1.463   5.281  0.00  0.00    -0.002 A 
ATOM      7  C5  OXE d   1      -5.107  -2.546   4.401  0.00  0.00    -0.002 A 
ATOM      8  C6  OXE d   1      -4.550  -2.443   3.131  0.00  0.00     0.003 A 
ENDROOT
TORSDOF 0
ENDMDL
