MODEL 1
REMARK minimizedAffinity 5.45692635
REMARK minimizedRMSD -1
REMARK  0 active torsions:
REMARK  status: ('A' for Active; 'I' for Inactive)
ROOT
ATOM      1  C2' OXE d   1      -1.643   0.163   1.642  0.00  0.00     0.078 C 
ATOM      2  C1' OXE d   1      -4.014   0.377   0.154  0.00  0.00     0.078 C 
ATOM      3  C1  OXE d   1      -4.023  -0.520   1.367  0.00  0.00    -0.078 A 
ATOM      4  C2  OXE d   1      -2.846  -0.655   2.062  0.00  0.00    -0.078 A 
ATOM      5  C3  OXE d   1      -2.814  -1.427   3.220  0.00  0.00     0.003 A 
ATOM      6  C4  OXE d   1      -3.927  -2.188   3.595  0.00  0.00    -0.002 A 
ATOM      7  C5  OXE d   1      -5.125  -2.096   2.878  0.00  0.00    -0.002 A 
ATOM      8  C6  OXE d   1      -5.202  -1.235   1.789  0.00  0.00     0.003 A 
ENDROOT
TORSDOF 0
ENDMDL
