MODEL 1
REMARK minimizedAffinity 14.0293741
REMARK minimizedRMSD -1
REMARK  0 active torsions:
REMARK  status: ('A' for Active; 'I' for Inactive)
ROOT
ATOM      1  C2' OXE d   1       3.378   2.986  -5.992  0.00  0.00     0.078 C 
ATOM      2  C1' OXE d   1       2.429   2.999  -3.350  0.00  0.00     0.078 C 
ATOM      3  C1  OXE d   1       3.677   3.790  -3.653  0.00  0.00    -0.078 A 
ATOM      4  C2  OXE d   1       4.160   3.740  -4.939  0.00  0.00    -0.078 A 
ATOM      5  C3  OXE d   1       5.276   4.496  -5.285  0.00  0.00     0.003 A 
ATOM      6  C4  OXE d   1       6.000   5.183  -4.303  0.00  0.00    -0.002 A 
ATOM      7  C5  OXE d   1       5.547   5.215  -2.980  0.00  0.00    -0.002 A 
ATOM      8  C6  OXE d   1       4.366   4.560  -2.648  0.00  0.00     0.003 A 
ENDROOT
TORSDOF 0
ENDMDL
