MODEL 1
REMARK minimizedAffinity 10.566165
REMARK minimizedRMSD -1
REMARK  0 active torsions:
REMARK  status: ('A' for Active; 'I' for Inactive)
ROOT
ATOM      1  C2' OXE d   1      -2.306  -1.772   0.896  0.00  0.00     0.078 C 
ATOM      2  C1' OXE d   1      -4.784  -0.519   0.487  0.00  0.00     0.078 C 
ATOM      3  C1  OXE d   1      -3.915  -0.010   1.609  0.00  0.00    -0.078 A 
ATOM      4  C2  OXE d   1      -2.724  -0.659   1.832  0.00  0.00    -0.078 A 
ATOM      5  C3  OXE d   1      -1.860  -0.195   2.819  0.00  0.00     0.003 A 
ATOM      6  C4  OXE d   1      -2.260   0.829   3.687  0.00  0.00    -0.002 A 
ATOM      7  C5  OXE d   1      -3.485   1.478   3.503  0.00  0.00    -0.002 A 
ATOM      8  C6  OXE d   1      -4.304   1.100   2.444  0.00  0.00     0.003 A 
ENDROOT
TORSDOF 0
ENDMDL
