MODEL 1
REMARK minimizedAffinity 16.0897923
REMARK minimizedRMSD -1
REMARK  0 active torsions:
REMARK  status: ('A' for Active; 'I' for Inactive)
ROOT
ATOM      1  C2' OXE d   1      -2.779  -1.938   1.285  0.00  0.00     0.078 C 
ATOM      2  C1' OXE d   1      -5.103  -0.404   0.925  0.00  0.00     0.078 C 
ATOM      3  C1  OXE d   1      -4.047   0.127   1.862  0.00  0.00    -0.078 A 
ATOM      4  C2  OXE d   1      -2.934  -0.652   2.068  0.00  0.00    -0.078 A 
ATOM      5  C3  OXE d   1      -1.905  -0.183   2.880  0.00  0.00     0.003 A 
ATOM      6  C4  OXE d   1      -2.061   1.002   3.608  0.00  0.00    -0.002 A 
ATOM      7  C5  OXE d   1      -3.204   1.792   3.444  0.00  0.00    -0.002 A 
ATOM      8  C6  OXE d   1      -4.186   1.391   2.544  0.00  0.00     0.003 A 
ENDROOT
TORSDOF 0
ENDMDL
