MODEL 1
REMARK minimizedAffinity -2.2090745
REMARK minimizedRMSD -1
REMARK  0 active torsions:
REMARK  status: ('A' for Active; 'I' for Inactive)
ROOT
ATOM      1  C2' OXE d   1      -5.229   1.098   3.643  0.00  0.00     0.078 C 
ATOM      2  C1' OXE d   1      -5.230  -0.545   1.367  0.00  0.00     0.078 C 
ATOM      3  C1  OXE d   1      -3.911  -0.299   2.057  0.00  0.00    -0.078 A 
ATOM      4  C2  OXE d   1      -3.913   0.544   3.142  0.00  0.00    -0.078 A 
ATOM      5  C3  OXE d   1      -2.733   0.761   3.848  0.00  0.00     0.003 A 
ATOM      6  C4  OXE d   1      -1.518   0.253   3.372  0.00  0.00    -0.002 A 
ATOM      7  C5  OXE d   1      -1.488  -0.575   2.245  0.00  0.00    -0.002 A 
ATOM      8  C6  OXE d   1      -2.679  -0.895   1.602  0.00  0.00     0.003 A 
ENDROOT
TORSDOF 0
ENDMDL
