MODEL 1
REMARK minimizedAffinity 8.75751972
REMARK minimizedRMSD -1
REMARK  0 active torsions:
REMARK  status: ('A' for Active; 'I' for Inactive)
ROOT
ATOM      1  C2' OXE d   1      -4.394  -1.160   2.419  0.00  0.00     0.078 C 
ATOM      2  C1' OXE d   1      -2.665   0.561   3.808  0.00  0.00     0.078 C 
ATOM      3  C1  OXE d   1      -2.050  -0.571   3.023  0.00  0.00    -0.078 A 
ATOM      4  C2  OXE d   1      -2.906  -1.436   2.385  0.00  0.00    -0.078 A 
ATOM      5  C3  OXE d   1      -2.390  -2.465   1.602  0.00  0.00     0.003 A 
ATOM      6  C4  OXE d   1      -1.013  -2.719   1.583  0.00  0.00    -0.002 A 
ATOM      7  C5  OXE d   1      -0.126  -1.874   2.258  0.00  0.00    -0.002 A 
ATOM      8  C6  OXE d   1      -0.624  -0.773   2.946  0.00  0.00     0.003 A 
ENDROOT
TORSDOF 0
ENDMDL
