MODEL 1
REMARK minimizedAffinity 8.61146355
REMARK minimizedRMSD -1
REMARK  0 active torsions:
REMARK  status: ('A' for Active; 'I' for Inactive)
ROOT
ATOM      1  C2' OXE d   1       5.920   3.753   2.253  0.00  0.00     0.078 C 
ATOM      2  C1' OXE d   1       5.998   4.300  -0.499  0.00  0.00     0.078 C 
ATOM      3  C1  OXE d   1       4.937   3.352  -0.000  0.00  0.00    -0.078 A 
ATOM      4  C2  OXE d   1       4.935   3.054   1.341  0.00  0.00    -0.078 A 
ATOM      5  C3  OXE d   1       3.944   2.228   1.863  0.00  0.00     0.003 A 
ATOM      6  C4  OXE d   1       3.042   1.578   1.012  0.00  0.00    -0.002 A 
ATOM      7  C5  OXE d   1       3.052   1.836  -0.363  0.00  0.00    -0.002 A 
ATOM      8  C6  OXE d   1       3.963   2.751  -0.878  0.00  0.00     0.003 A 
ENDROOT
TORSDOF 0
ENDMDL
