MODEL 1
REMARK minimizedAffinity 3.50075197
REMARK minimizedRMSD -1
REMARK  0 active torsions:
REMARK  status: ('A' for Active; 'I' for Inactive)
ROOT
ATOM      1  C2' OXE d   1      -2.299   1.117   3.223  0.00  0.00     0.078 C 
ATOM      2  C1' OXE d   1      -3.124  -0.820   1.366  0.00  0.00     0.078 C 
ATOM      3  C1  OXE d   1      -1.883  -1.104   2.175  0.00  0.00    -0.078 A 
ATOM      4  C2  OXE d   1      -1.461  -0.131   3.048  0.00  0.00    -0.078 A 
ATOM      5  C3  OXE d   1      -0.353  -0.365   3.858  0.00  0.00     0.003 A 
ATOM      6  C4  OXE d   1       0.423  -1.517   3.683  0.00  0.00    -0.002 A 
ATOM      7  C5  OXE d   1       0.032  -2.504   2.771  0.00  0.00    -0.002 A 
ATOM      8  C6  OXE d   1      -1.139  -2.332   2.042  0.00  0.00     0.003 A 
ENDROOT
TORSDOF 0
ENDMDL
