MODEL 1
REMARK minimizedAffinity 16.8735943
REMARK minimizedRMSD -1
REMARK  0 active torsions:
REMARK  status: ('A' for Active; 'I' for Inactive)
ROOT
ATOM      1  C2' OXE d   1       1.809   2.230   1.108  0.00  0.00     0.078 C 
ATOM      2  C1' OXE d   1       3.553   0.655  -0.427  0.00  0.00     0.078 C 
ATOM      3  C1  OXE d   1       4.134   1.839   0.303  0.00  0.00    -0.078 A 
ATOM      4  C2  OXE d   1       3.265   2.632   1.014  0.00  0.00    -0.078 A 
ATOM      5  C3  OXE d   1       3.758   3.706   1.751  0.00  0.00     0.003 A 
ATOM      6  C4  OXE d   1       5.104   4.076   1.650  0.00  0.00    -0.002 A 
ATOM      7  C5  OXE d   1       5.998   3.306   0.900  0.00  0.00    -0.002 A 
ATOM      8  C6  OXE d   1       5.539   2.162   0.256  0.00  0.00     0.003 A 
ENDROOT
TORSDOF 0
ENDMDL
