MODEL 1
REMARK minimizedAffinity 13.6406155
REMARK minimizedRMSD -1
REMARK  0 active torsions:
REMARK  status: ('A' for Active; 'I' for Inactive)
ROOT
ATOM      1  C2' OXE d   1       3.051   1.217  -1.916  0.00  0.00     0.078 C 
ATOM      2  C1' OXE d   1       3.737   3.078  -3.902  0.00  0.00     0.078 C 
ATOM      3  C1  OXE d   1       2.397   3.231  -3.228  0.00  0.00    -0.078 A 
ATOM      4  C2  OXE d   1       2.050   2.288  -2.290  0.00  0.00    -0.078 A 
ATOM      5  C3  OXE d   1       0.848   2.413  -1.599  0.00  0.00     0.003 A 
ATOM      6  C4  OXE d   1      -0.077   3.401  -1.959  0.00  0.00    -0.002 A 
ATOM      7  C5  OXE d   1       0.240   4.347  -2.939  0.00  0.00    -0.002 A 
ATOM      8  C6  OXE d   1       1.487   4.302  -3.552  0.00  0.00     0.003 A 
ENDROOT
TORSDOF 0
ENDMDL
