MODEL 1
REMARK minimizedAffinity -0.563745856
REMARK minimizedRMSD -1
REMARK  0 active torsions:
REMARK  status: ('A' for Active; 'I' for Inactive)
ROOT
ATOM      1  O1  BZF d   1       1.417  -0.312  -3.273  0.00  0.00    -0.204 OA
ATOM      2  C2  BZF d   1       1.915   0.915  -3.668  0.00  0.00     0.174 A 
ATOM      3  C3  BZF d   1       1.276   1.358  -4.770  0.00  0.00    -0.012 A 
ATOM      4  C3A BZF d   1       0.256   0.388  -5.030  0.00  0.00    -0.107 A 
ATOM      5  C4  BZF d   1      -0.716   0.281  -5.982  0.00  0.00     0.055 A 
ATOM      6  C5  BZF d   1      -1.504  -0.827  -6.000  0.00  0.00    -0.016 A 
ATOM      7  C6  BZF d   1      -1.343  -1.847  -5.085  0.00  0.00     0.022 A 
ATOM      8  C7  BZF d   1      -0.395  -1.783  -4.118  0.00  0.00     0.029 A 
ATOM      9  C7A BZF d   1       0.380  -0.650  -4.077  0.00  0.00     0.058 A 
ENDROOT
TORSDOF 0
ENDMDL
