MODEL 1
REMARK minimizedAffinity -2.39024997
REMARK minimizedRMSD -1
REMARK  0 active torsions:
REMARK  status: ('A' for Active; 'I' for Inactive)
ROOT
ATOM      1  O1  BZF d   1       0.311   1.569  -3.525  0.00  0.00    -0.204 OA
ATOM      2  C2  BZF d   1       1.217   1.027  -4.416  0.00  0.00     0.174 A 
ATOM      3  C3  BZF d   1       1.819  -0.057  -3.884  0.00  0.00    -0.012 A 
ATOM      4  C3A BZF d   1       1.187  -0.255  -2.616  0.00  0.00    -0.107 A 
ATOM      5  C4  BZF d   1       1.341  -1.182  -1.625  0.00  0.00     0.055 A 
ATOM      6  C5  BZF d   1       0.619  -1.051  -0.481  0.00  0.00    -0.016 A 
ATOM      7  C6  BZF d   1      -0.260  -0.005  -0.293  0.00  0.00     0.022 A 
ATOM      8  C7  BZF d   1      -0.450   0.937  -1.249  0.00  0.00     0.029 A 
ATOM      9  C7A BZF d   1       0.254   0.789  -2.420  0.00  0.00     0.058 A 
ENDROOT
TORSDOF 0
ENDMDL
