MODEL 1
REMARK minimizedAffinity -2.55238581
REMARK minimizedRMSD -1
REMARK  0 active torsions:
REMARK  status: ('A' for Active; 'I' for Inactive)
ROOT
ATOM      1  O1  BZF d   1       0.598   0.944   2.558  0.00  0.00    -0.204 OA
ATOM      2  C2  BZF d   1      -0.640   1.323   3.041  0.00  0.00     0.174 A 
ATOM      3  C3  BZF d   1      -1.609   1.040   2.147  0.00  0.00    -0.012 A 
ATOM      4  C3A BZF d   1      -0.947   0.363   1.075  0.00  0.00    -0.107 A 
ATOM      5  C4  BZF d   1      -1.378  -0.183  -0.100  0.00  0.00     0.055 A 
ATOM      6  C5  BZF d   1      -0.465  -0.706  -0.960  0.00  0.00    -0.016 A 
ATOM      7  C6  BZF d   1       0.886  -0.695  -0.680  0.00  0.00     0.022 A 
ATOM      8  C7  BZF d   1       1.361  -0.170   0.476  0.00  0.00     0.029 A 
ATOM      9  C7A BZF d   1       0.438   0.330   1.362  0.00  0.00     0.058 A 
ENDROOT
TORSDOF 0
ENDMDL
