MODEL 1
REMARK minimizedAffinity -4.84815979
REMARK minimizedRMSD -1
REMARK  0 active torsions:
REMARK  status: ('A' for Active; 'I' for Inactive)
ROOT
ATOM      1  O1  BZF d   1      -1.830   1.082   1.989  0.00  0.00    -0.204 OA
ATOM      2  C2  BZF d   1      -0.908   1.738   2.781  0.00  0.00     0.174 A 
ATOM      3  C3  BZF d   1       0.350   1.443   2.394  0.00  0.00    -0.012 A 
ATOM      4  C3A BZF d   1       0.204   0.619   1.234  0.00  0.00    -0.107 A 
ATOM      5  C4  BZF d   1       1.095   0.021   0.388  0.00  0.00     0.055 A 
ATOM      6  C5  BZF d   1       0.627  -0.777  -0.607  0.00  0.00    -0.016 A 
ATOM      7  C6  BZF d   1      -0.722  -1.004  -0.782  0.00  0.00     0.022 A 
ATOM      8  C7  BZF d   1      -1.644  -0.429   0.028  0.00  0.00     0.029 A 
ATOM      9  C7A BZF d   1      -1.176   0.405   1.014  0.00  0.00     0.058 A 
ENDROOT
TORSDOF 0
ENDMDL
