MODEL 1
REMARK minimizedAffinity -3.66299343
REMARK minimizedRMSD -1
REMARK  0 active torsions:
REMARK  status: ('A' for Active; 'I' for Inactive)
ROOT
ATOM      1  O1  BZF d   1       1.166  -0.763  -0.431  0.00  0.00    -0.204 OA
ATOM      2  C2  BZF d   1       0.175  -0.876  -1.387  0.00  0.00     0.174 A 
ATOM      3  C3  BZF d   1      -0.969  -0.302  -0.960  0.00  0.00    -0.012 A 
ATOM      4  C3A BZF d   1      -0.647   0.282   0.306  0.00  0.00    -0.107 A 
ATOM      5  C4  BZF d   1      -1.364   1.005   1.216  0.00  0.00     0.055 A 
ATOM      6  C5  BZF d   1      -0.775   1.364   2.387  0.00  0.00    -0.016 A 
ATOM      7  C6  BZF d   1       0.526   1.012   2.683  0.00  0.00     0.022 A 
ATOM      8  C7  BZF d   1       1.279   0.300   1.809  0.00  0.00     0.029 A 
ATOM      9  C7A BZF d   1       0.697  -0.035   0.611  0.00  0.00     0.058 A 
ENDROOT
TORSDOF 0
ENDMDL
