MODEL 1
REMARK minimizedAffinity -4.59315395
REMARK minimizedRMSD -1
REMARK  0 active torsions:
REMARK  status: ('A' for Active; 'I' for Inactive)
ROOT
ATOM      1  O1  BZF d   1       1.052  -0.997  -0.406  0.00  0.00    -0.204 OA
ATOM      2  C2  BZF d   1      -0.024  -0.476  -1.099  0.00  0.00     0.174 A 
ATOM      3  C3  BZF d   1      -0.673   0.443  -0.355  0.00  0.00    -0.012 A 
ATOM      4  C3A BZF d   1       0.096   0.567   0.845  0.00  0.00    -0.107 A 
ATOM      5  C4  BZF d   1      -0.031   1.336   1.966  0.00  0.00     0.055 A 
ATOM      6  C5  BZF d   1       0.848   1.164   2.988  0.00  0.00    -0.016 A 
ATOM      7  C6  BZF d   1       1.861   0.230   2.925  0.00  0.00     0.022 A 
ATOM      8  C7  BZF d   1       2.031  -0.552   1.831  0.00  0.00     0.029 A 
ATOM      9  C7A BZF d   1       1.164  -0.358   0.783  0.00  0.00     0.058 A 
ENDROOT
TORSDOF 0
ENDMDL
