MODEL 1
REMARK minimizedAffinity -3.2905829
REMARK minimizedRMSD -1
REMARK  0 active torsions:
REMARK  status: ('A' for Active; 'I' for Inactive)
ROOT
ATOM      1  O1  BZF d   1       0.426   0.189  -0.648  0.00  0.00    -0.204 OA
ATOM      2  C2  BZF d   1      -0.690  -0.308  -1.291  0.00  0.00     0.174 A 
ATOM      3  C3  BZF d   1      -1.768  -0.265  -0.481  0.00  0.00    -0.012 A 
ATOM      4  C3A BZF d   1      -1.315   0.379   0.713  0.00  0.00    -0.107 A 
ATOM      5  C4  BZF d   1      -1.929   0.726   1.883  0.00  0.00     0.055 A 
ATOM      6  C5  BZF d   1      -1.188   1.277   2.879  0.00  0.00    -0.016 A 
ATOM      7  C6  BZF d   1       0.168   1.491   2.742  0.00  0.00     0.022 A 
ATOM      8  C7  BZF d   1       0.820   1.168   1.599  0.00  0.00     0.029 A 
ATOM      9  C7A BZF d   1       0.068   0.641   0.578  0.00  0.00     0.058 A 
ENDROOT
TORSDOF 0
ENDMDL
