MODEL 1
REMARK minimizedAffinity 0.285714388
REMARK minimizedRMSD -1
REMARK  0 active torsions:
REMARK  status: ('A' for Active; 'I' for Inactive)
ROOT
ATOM      1  O1  BZF d   1      -0.645   0.180  -1.357  0.00  0.00    -0.204 OA
ATOM      2  C2  BZF d   1       0.599  -0.419  -1.405  0.00  0.00     0.174 A 
ATOM      3  C3  BZF d   1       1.075  -0.634  -0.162  0.00  0.00    -0.012 A 
ATOM      4  C3A BZF d   1       0.025  -0.222   0.719  0.00  0.00    -0.107 A 
ATOM      5  C4  BZF d   1      -0.108  -0.207   2.078  0.00  0.00     0.055 A 
ATOM      6  C5  BZF d   1      -1.232   0.325   2.626  0.00  0.00    -0.016 A 
ATOM      7  C6  BZF d   1      -2.238   0.856   1.846  0.00  0.00     0.022 A 
ATOM      8  C7  BZF d   1      -2.153   0.859   0.493  0.00  0.00     0.029 A 
ATOM      9  C7A BZF d   1      -1.034   0.292  -0.064  0.00  0.00     0.058 A 
ENDROOT
TORSDOF 0
ENDMDL
