MODEL 1
REMARK minimizedAffinity -6.06613016
REMARK minimizedRMSD -1
REMARK  1 active torsions:
REMARK  status: ('A' for Active; 'I' for Inactive)
REMARK    1  A    between atoms: C1_2  and  C2_3 
ROOT
ATOM      1  C2  UNL d   1      -0.376   0.297  -0.752  0.00  0.00    -0.073 A 
ATOM      2  C3  UNL d   1      -0.004  -1.035  -0.536  0.00  0.00    -0.002 A 
ATOM      3  C4  UNL d   1       1.190  -1.527  -1.064  0.00  0.00     0.004 A 
ATOM      4  C5  UNL d   1       2.027  -0.694  -1.805  0.00  0.00    -0.004 A 
ATOM      5  C6  UNL d   1       1.679   0.643  -2.022  0.00  0.00    -0.075 A 
ATOM      6  C7  UNL d   1       2.567   1.552  -2.819  0.00  0.00     0.076 C 
ATOM      7  C8  UNL d   1       0.477   1.130  -1.491  0.00  0.00     0.001 A 
ENDROOT
BRANCH   1   8
ATOM      8  C1  UNL d   1      -1.661   0.836  -0.179  0.00  0.00     0.053 C 
ATOM      9  C   UNL d   1      -1.669   0.795   1.341  0.00  0.00     0.018 C 
ENDBRANCH   1   8
TORSDOF 1
ENDMDL
