MODEL 1
REMARK minimizedAffinity -3.37085438
REMARK minimizedRMSD -1
REMARK  1 active torsions:
REMARK  status: ('A' for Active; 'I' for Inactive)
REMARK    1  A    between atoms: C1_2  and  C2_3 
ROOT
ATOM      1  C2  UNL d   1       0.299  -0.388  -0.304  0.00  0.00    -0.073 A 
ATOM      2  C3  UNL d   1       0.248   0.712  -1.168  0.00  0.00    -0.002 A 
ATOM      3  C4  UNL d   1      -0.787   1.642  -1.064  0.00  0.00     0.004 A 
ATOM      4  C5  UNL d   1      -1.776   1.487  -0.092  0.00  0.00    -0.004 A 
ATOM      5  C6  UNL d   1      -1.735   0.401   0.788  0.00  0.00    -0.075 A 
ATOM      6  C7  UNL d   1      -2.792   0.218   1.837  0.00  0.00     0.076 C 
ATOM      7  C8  UNL d   1      -0.695  -0.531   0.675  0.00  0.00     0.001 A 
ENDROOT
BRANCH   1   8
ATOM      8  C1  UNL d   1       1.418  -1.392  -0.409  0.00  0.00     0.053 C 
ATOM      9  C   UNL d   1       2.069  -1.378  -1.782  0.00  0.00     0.018 C 
ENDBRANCH   1   8
TORSDOF 1
ENDMDL
