MODEL 1
REMARK minimizedAffinity -1.46506202
REMARK minimizedRMSD -1
REMARK  1 active torsions:
REMARK  status: ('A' for Active; 'I' for Inactive)
REMARK    1  A    between atoms: C1_2  and  C2_3 
ROOT
ATOM      1  C2  UNL d   1      -0.275  -0.703   0.366  0.00  0.00    -0.073 A 
ATOM      2  C3  UNL d   1      -0.973   0.014  -0.612  0.00  0.00    -0.002 A 
ATOM      3  C4  UNL d   1      -1.918   0.972  -0.243  0.00  0.00     0.004 A 
ATOM      4  C5  UNL d   1      -2.170   1.227   1.105  0.00  0.00    -0.004 A 
ATOM      5  C6  UNL d   1      -1.474   0.529   2.097  0.00  0.00    -0.075 A 
ATOM      6  C7  UNL d   1      -1.735   0.789   3.552  0.00  0.00     0.076 C 
ATOM      7  C8  UNL d   1      -0.529  -0.434   1.719  0.00  0.00     0.001 A 
ENDROOT
BRANCH   1   8
ATOM      8  C1  UNL d   1       0.751  -1.734  -0.027  0.00  0.00     0.053 C 
ATOM      9  C   UNL d   1       1.285  -1.501  -1.432  0.00  0.00     0.018 C 
ENDBRANCH   1   8
TORSDOF 1
ENDMDL
