MODEL 1
REMARK minimizedAffinity -3.36464047
REMARK minimizedRMSD -1
REMARK  1 active torsions:
REMARK  status: ('A' for Active; 'I' for Inactive)
REMARK    1  A    between atoms: C1_2  and  C2_3 
ROOT
ATOM      1  C2  UNL d   1       0.193  -0.114  -0.111  0.00  0.00    -0.073 A 
ATOM      2  C3  UNL d   1       0.031  -1.496   0.034  0.00  0.00    -0.002 A 
ATOM      3  C4  UNL d   1       0.984  -2.375  -0.482  0.00  0.00     0.004 A 
ATOM      4  C5  UNL d   1       2.110  -1.882  -1.141  0.00  0.00    -0.004 A 
ATOM      5  C6  UNL d   1       2.295  -0.503  -1.286  0.00  0.00    -0.075 A 
ATOM      6  C7  UNL d   1       3.500   0.043  -1.994  0.00  0.00     0.076 C 
ATOM      7  C8  UNL d   1       1.332   0.373  -0.767  0.00  0.00     0.001 A 
ENDROOT
BRANCH   1   8
ATOM      8  C1  UNL d   1      -0.831   0.840   0.450  0.00  0.00     0.053 C 
ATOM      9  C   UNL d   1      -1.565   0.250   1.643  0.00  0.00     0.018 C 
ENDBRANCH   1   8
TORSDOF 1
ENDMDL
