MODEL 1
REMARK minimizedAffinity -5.59707594
REMARK minimizedRMSD -1
REMARK  1 active torsions:
REMARK  status: ('A' for Active; 'I' for Inactive)
REMARK    1  A    between atoms: C1_2  and  C2_3 
ROOT
ATOM      1  C2  UNL d   1      -1.450   0.747   0.796  0.00  0.00    -0.073 A 
ATOM      2  C3  UNL d   1      -1.583   1.737  -0.184  0.00  0.00    -0.002 A 
ATOM      3  C4  UNL d   1      -0.602   1.894  -1.164  0.00  0.00     0.004 A 
ATOM      4  C5  UNL d   1       0.515   1.061  -1.179  0.00  0.00    -0.004 A 
ATOM      5  C6  UNL d   1       0.660   0.057  -0.216  0.00  0.00    -0.075 A 
ATOM      6  C7  UNL d   1       1.858  -0.846  -0.217  0.00  0.00     0.076 C 
ATOM      7  C8  UNL d   1      -0.327  -0.093   0.767  0.00  0.00     0.001 A 
ENDROOT
BRANCH   1   8
ATOM      8  C1  UNL d   1      -2.510   0.568   1.853  0.00  0.00     0.053 C 
ATOM      9  C   UNL d   1      -2.137   1.258   3.156  0.00  0.00     0.018 C 
ENDBRANCH   1   8
TORSDOF 1
ENDMDL
