MODEL 1
REMARK minimizedAffinity -1.62499368
REMARK minimizedRMSD -1
REMARK  1 active torsions:
REMARK  status: ('A' for Active; 'I' for Inactive)
REMARK    1  A    between atoms: C1_2  and  C2_3 
ROOT
ATOM      1  C2  UNL d   1       1.328  -0.272  -2.158  0.00  0.00    -0.073 A 
ATOM      2  C3  UNL d   1       1.907  -1.476  -1.739  0.00  0.00    -0.002 A 
ATOM      3  C4  UNL d   1       1.510  -2.068  -0.540  0.00  0.00     0.004 A 
ATOM      4  C5  UNL d   1       0.527  -1.469   0.248  0.00  0.00    -0.004 A 
ATOM      5  C6  UNL d   1      -0.071  -0.273  -0.160  0.00  0.00    -0.075 A 
ATOM      6  C7  UNL d   1      -1.128   0.386   0.678  0.00  0.00     0.076 C 
ATOM      7  C8  UNL d   1       0.334   0.318  -1.364  0.00  0.00     0.001 A 
ENDROOT
BRANCH   1   8
ATOM      8  C1  UNL d   1       1.749   0.368  -3.456  0.00  0.00     0.053 C 
ATOM      9  C   UNL d   1       1.383   1.843  -3.508  0.00  0.00     0.018 C 
ENDBRANCH   1   8
TORSDOF 1
ENDMDL
