MODEL 1
REMARK minimizedAffinity -0.658706546
REMARK minimizedRMSD -1
REMARK  0 active torsions:
REMARK  status: ('A' for Active; 'I' for Inactive)
ROOT
ATOM      1  C   UNL d   1       0.828  -1.601   1.106  0.00  0.00     0.124 A 
ATOM      2  C1  UNL d   1       1.349  -1.484  -0.176  0.00  0.00     0.062 A 
ATOM      3  C2  UNL d   1       0.843  -0.527  -1.052  0.00  0.00     0.162 A 
ATOM      4  C3  UNL d   1      -0.188   0.321  -0.649  0.00  0.00    -0.034 A 
ATOM      5  C4  UNL d   1      -0.707   0.196   0.641  0.00  0.00     0.162 A 
ATOM      6  C5  UNL d   1      -0.199  -0.761   1.513  0.00  0.00     0.062 A 
ATOM      7  F   UNL d   1      -0.702  -0.872   2.751  0.00  0.00    -0.097 F 
ATOM      8  F1  UNL d   1      -1.699   0.996   1.061  0.00  0.00    -0.096 F 
ATOM      9  I   UNL d   1      -0.947   1.752  -1.956  0.00  0.00    -0.060 I 
ATOM     10  F2  UNL d   1       1.365  -0.437  -2.284  0.00  0.00    -0.096 F 
ATOM     11  F3  UNL d   1       2.340  -2.294  -0.572  0.00  0.00    -0.097 F 
ATOM     12  F4  UNL d   1       1.316  -2.522   1.946  0.00  0.00    -0.092 F 
ENDROOT
TORSDOF 0
ENDMDL
