MODEL 1
REMARK minimizedAffinity -0.418718487
REMARK minimizedRMSD -1
REMARK  0 active torsions:
REMARK  status: ('A' for Active; 'I' for Inactive)
ROOT
ATOM      1  C   UNL d   1       0.990  -1.489   1.607  0.00  0.00     0.124 A 
ATOM      2  C1  UNL d   1      -0.030  -0.615   1.956  0.00  0.00     0.062 A 
ATOM      3  C2  UNL d   1      -0.620   0.193   0.989  0.00  0.00     0.162 A 
ATOM      4  C3  UNL d   1      -0.193   0.131  -0.338  0.00  0.00    -0.034 A 
ATOM      5  C4  UNL d   1       0.834  -0.750  -0.681  0.00  0.00     0.162 A 
ATOM      6  C5  UNL d   1       1.421  -1.556   0.289  0.00  0.00     0.062 A 
ATOM      7  F   UNL d   1       2.407  -2.400  -0.050  0.00  0.00    -0.097 F 
ATOM      8  F1  UNL d   1       1.270  -0.835  -1.946  0.00  0.00    -0.096 F 
ATOM      9  I   UNL d   1      -1.073   1.338  -1.786  0.00  0.00    -0.060 I 
ATOM     10  F2  UNL d   1      -1.604   1.028   1.354  0.00  0.00    -0.096 F 
ATOM     11  F3  UNL d   1      -0.448  -0.549   3.228  0.00  0.00    -0.097 F 
ATOM     12  F4  UNL d   1       1.557  -2.266   2.539  0.00  0.00    -0.092 F 
ENDROOT
TORSDOF 0
ENDMDL
