MODEL 1
REMARK minimizedAffinity 3.06333899
REMARK minimizedRMSD -1
REMARK  0 active torsions:
REMARK  status: ('A' for Active; 'I' for Inactive)
ROOT
ATOM      1  C   UNL d   1       1.010  -1.465   1.298  0.00  0.00     0.124 A 
ATOM      2  C1  UNL d   1       1.483  -1.256   0.010  0.00  0.00     0.062 A 
ATOM      3  C2  UNL d   1       0.799  -0.409  -0.858  0.00  0.00     0.162 A 
ATOM      4  C3  UNL d   1      -0.365   0.236  -0.440  0.00  0.00    -0.034 A 
ATOM      5  C4  UNL d   1      -0.835   0.020   0.857  0.00  0.00     0.162 A 
ATOM      6  C5  UNL d   1      -0.148  -0.828   1.720  0.00  0.00     0.062 A 
ATOM      7  F   UNL d   1      -0.607  -1.029   2.964  0.00  0.00    -0.097 F 
ATOM      8  F1  UNL d   1      -1.951   0.624   1.291  0.00  0.00    -0.096 F 
ATOM      9  I   UNL d   1      -1.390   1.503  -1.734  0.00  0.00    -0.060 I 
ATOM     10  F2  UNL d   1       1.279  -0.225  -2.097  0.00  0.00    -0.096 F 
ATOM     11  F3  UNL d   1       2.601  -1.871  -0.401  0.00  0.00    -0.097 F 
ATOM     12  F4  UNL d   1       1.669  -2.281   2.130  0.00  0.00    -0.092 F 
ENDROOT
TORSDOF 0
ENDMDL
