MODEL 1
REMARK minimizedAffinity 2.22246504
REMARK minimizedRMSD -1
REMARK  0 active torsions:
REMARK  status: ('A' for Active; 'I' for Inactive)
ROOT
ATOM      1  C   UNL d   1       0.851  -1.348   1.082  0.00  0.00     0.124 A 
ATOM      2  C1  UNL d   1       1.312  -1.073  -0.198  0.00  0.00     0.062 A 
ATOM      3  C2  UNL d   1       0.626  -0.175  -1.011  0.00  0.00     0.162 A 
ATOM      4  C3  UNL d   1      -0.528   0.456  -0.546  0.00  0.00    -0.034 A 
ATOM      5  C4  UNL d   1      -0.986   0.173   0.743  0.00  0.00     0.162 A 
ATOM      6  C5  UNL d   1      -0.296  -0.725   1.551  0.00  0.00     0.062 A 
ATOM      7  F   UNL d   1      -0.743  -0.990   2.787  0.00  0.00    -0.097 F 
ATOM      8  F1  UNL d   1      -2.092   0.762   1.221  0.00  0.00    -0.096 F 
ATOM      9  I   UNL d   1      -1.556   1.799  -1.758  0.00  0.00    -0.060 I 
ATOM     10  F2  UNL d   1       1.094   0.072  -2.244  0.00  0.00    -0.096 F 
ATOM     11  F3  UNL d   1       2.420  -1.674  -0.654  0.00  0.00    -0.097 F 
ATOM     12  F4  UNL d   1       1.513  -2.213   1.861  0.00  0.00    -0.092 F 
ENDROOT
TORSDOF 0
ENDMDL
