MODEL 1
REMARK minimizedAffinity -0.504472554
REMARK minimizedRMSD -1
REMARK  0 active torsions:
REMARK  status: ('A' for Active; 'I' for Inactive)
ROOT
ATOM      1  C   UNL d   1       1.349  -1.472   1.251  0.00  0.00     0.124 A 
ATOM      2  C1  UNL d   1       0.375  -0.586   1.691  0.00  0.00     0.062 A 
ATOM      3  C2  UNL d   1      -0.343   0.176   0.774  0.00  0.00     0.162 A 
ATOM      4  C3  UNL d   1      -0.090   0.057  -0.592  0.00  0.00    -0.034 A 
ATOM      5  C4  UNL d   1       0.892  -0.835  -1.027  0.00  0.00     0.162 A 
ATOM      6  C5  UNL d   1       1.607  -1.595  -0.107  0.00  0.00     0.062 A 
ATOM      7  F   UNL d   1       2.548  -2.450  -0.534  0.00  0.00    -0.097 F 
ATOM      8  F1  UNL d   1       1.161  -0.975  -2.333  0.00  0.00    -0.096 F 
ATOM      9  I   UNL d   1      -1.161   1.195  -1.966  0.00  0.00    -0.060 I 
ATOM     10  F2  UNL d   1      -1.279   1.024   1.227  0.00  0.00    -0.096 F 
ATOM     11  F3  UNL d   1       0.124  -0.464   3.002  0.00  0.00    -0.097 F 
ATOM     12  F4  UNL d   1       2.039  -2.204   2.135  0.00  0.00    -0.092 F 
ENDROOT
TORSDOF 0
ENDMDL
