MODEL 1
REMARK minimizedAffinity 17.1678009
REMARK minimizedRMSD -1
REMARK  0 active torsions:
REMARK  status: ('A' for Active; 'I' for Inactive)
ROOT
ATOM      1  C   UNL d   1      -1.212   0.374   1.607  0.00  0.00     0.124 A 
ATOM      2  C1  UNL d   1      -0.048   1.130   1.561  0.00  0.00     0.062 A 
ATOM      3  C2  UNL d   1       0.920   0.866   0.596  0.00  0.00     0.162 A 
ATOM      4  C3  UNL d   1       0.728  -0.158  -0.332  0.00  0.00    -0.034 A 
ATOM      5  C4  UNL d   1      -0.445  -0.914  -0.278  0.00  0.00     0.162 A 
ATOM      6  C5  UNL d   1      -1.409  -0.646   0.688  0.00  0.00     0.062 A 
ATOM      7  F   UNL d   1      -2.532  -1.377   0.732  0.00  0.00    -0.097 F 
ATOM      8  F1  UNL d   1      -0.662  -1.906  -1.154  0.00  0.00    -0.096 F 
ATOM      9  I   UNL d   1       2.172  -0.556  -1.776  0.00  0.00    -0.060 I 
ATOM     10  F2  UNL d   1       2.034   1.611   0.574  0.00  0.00    -0.096 F 
ATOM     11  F3  UNL d   1       0.145   2.116   2.448  0.00  0.00    -0.097 F 
ATOM     12  F4  UNL d   1      -2.141   0.630   2.537  0.00  0.00    -0.092 F 
ENDROOT
TORSDOF 0
ENDMDL
