MODEL 1
REMARK minimizedAffinity -1.27954352
REMARK minimizedRMSD -1
REMARK  0 active torsions:
REMARK  status: ('A' for Active; 'I' for Inactive)
ROOT
ATOM      1  C   UNL d   1       1.368  -1.930   1.593  0.00  0.00     0.124 A 
ATOM      2  C1  UNL d   1       0.208  -1.227   1.886  0.00  0.00     0.062 A 
ATOM      3  C2  UNL d   1      -0.440  -0.499   0.892  0.00  0.00     0.162 A 
ATOM      4  C3  UNL d   1       0.071  -0.471  -0.405  0.00  0.00    -0.034 A 
ATOM      5  C4  UNL d   1       1.240  -1.180  -0.692  0.00  0.00     0.162 A 
ATOM      6  C5  UNL d   1       1.883  -1.905   0.305  0.00  0.00     0.062 A 
ATOM      7  F   UNL d   1       3.004  -2.584   0.020  0.00  0.00    -0.097 F 
ATOM      8  F1  UNL d   1       1.758  -1.174  -1.929  0.00  0.00    -0.096 F 
ATOM      9  I   UNL d   1      -0.894   0.616  -1.895  0.00  0.00    -0.060 I 
ATOM     10  F2  UNL d   1      -1.559   0.170   1.204  0.00  0.00    -0.096 F 
ATOM     11  F3  UNL d   1      -0.291  -1.248   3.131  0.00  0.00    -0.097 F 
ATOM     12  F4  UNL d   1       1.990  -2.628   2.552  0.00  0.00    -0.092 F 
ENDROOT
TORSDOF 0
ENDMDL
