MODEL 1
REMARK minimizedAffinity -3.67566109
REMARK minimizedRMSD -1
REMARK  0 active torsions:
REMARK  status: ('A' for Active; 'I' for Inactive)
ROOT
ATOM      1  C   UNL d   1       1.407  -1.366   2.705  0.00  0.00     0.124 A 
ATOM      2  C1  UNL d   1       2.286  -0.949   1.715  0.00  0.00     0.062 A 
ATOM      3  C2  UNL d   1       1.826  -0.189   0.644  0.00  0.00     0.162 A 
ATOM      4  C3  UNL d   1       0.478   0.161   0.557  0.00  0.00    -0.034 A 
ATOM      5  C4  UNL d   1      -0.400  -0.263   1.556  0.00  0.00     0.162 A 
ATOM      6  C5  UNL d   1       0.065  -1.022   2.624  0.00  0.00     0.062 A 
ATOM      7  F   UNL d   1      -0.786  -1.424   3.580  0.00  0.00    -0.097 F 
ATOM      8  F1  UNL d   1      -1.702   0.056   1.504  0.00  0.00    -0.096 F 
ATOM      9  I   UNL d   1      -0.215   1.298  -1.043  0.00  0.00    -0.060 I 
ATOM     10  F2  UNL d   1       2.698   0.200  -0.298  0.00  0.00    -0.096 F 
ATOM     11  F3  UNL d   1       3.584  -1.281   1.790  0.00  0.00    -0.097 F 
ATOM     12  F4  UNL d   1       1.853  -2.098   3.734  0.00  0.00    -0.092 F 
ENDROOT
TORSDOF 0
ENDMDL
