MODEL 1
REMARK minimizedAffinity -5.13744688
REMARK minimizedRMSD -1
REMARK  0 active torsions:
REMARK  status: ('A' for Active; 'I' for Inactive)
ROOT
ATOM      1  C   UNL d   1       2.703  -1.167   1.908  0.00  0.00     0.124 A 
ATOM      2  C1  UNL d   1       1.913  -0.067   2.214  0.00  0.00     0.062 A 
ATOM      3  C2  UNL d   1       1.068   0.478   1.251  0.00  0.00     0.162 A 
ATOM      4  C3  UNL d   1       1.008  -0.078  -0.027  0.00  0.00    -0.034 A 
ATOM      5  C4  UNL d   1       1.806  -1.183  -0.327  0.00  0.00     0.162 A 
ATOM      6  C5  UNL d   1       2.649  -1.724   0.638  0.00  0.00     0.062 A 
ATOM      7  F   UNL d   1       3.411  -2.786   0.341  0.00  0.00    -0.097 F 
ATOM      8  F1  UNL d   1       1.773  -1.742  -1.546  0.00  0.00    -0.096 F 
ATOM      9  I   UNL d   1      -0.254   0.733  -1.470  0.00  0.00    -0.060 I 
ATOM     10  F2  UNL d   1       0.317   1.540   1.574  0.00  0.00    -0.096 F 
ATOM     11  F3  UNL d   1       1.964   0.474   3.440  0.00  0.00    -0.097 F 
ATOM     12  F4  UNL d   1       3.516  -1.688   2.837  0.00  0.00    -0.092 F 
ENDROOT
TORSDOF 0
ENDMDL
