MODEL 1
REMARK minimizedAffinity -1.54010677
REMARK minimizedRMSD -1
REMARK  0 active torsions:
REMARK  status: ('A' for Active; 'I' for Inactive)
ROOT
ATOM      1  C   UNL d   1       1.250  -4.676   1.876  0.00  0.00     0.124 A 
ATOM      2  C1  UNL d   1       2.253  -4.169   1.061  0.00  0.00     0.062 A 
ATOM      3  C2  UNL d   1       2.437  -2.794   0.950  0.00  0.00     0.162 A 
ATOM      4  C3  UNL d   1       1.615  -1.915   1.656  0.00  0.00    -0.034 A 
ATOM      5  C4  UNL d   1       0.607  -2.433   2.472  0.00  0.00     0.162 A 
ATOM      6  C5  UNL d   1       0.428  -3.808   2.580  0.00  0.00     0.062 A 
ATOM      7  F   UNL d   1      -0.541  -4.296   3.367  0.00  0.00    -0.097 F 
ATOM      8  F1  UNL d   1      -0.200  -1.616   3.165  0.00  0.00    -0.096 F 
ATOM      9  I   UNL d   1       1.886   0.142   1.492  0.00  0.00    -0.060 I 
ATOM     10  F2  UNL d   1       3.414  -2.332   0.156  0.00  0.00    -0.096 F 
ATOM     11  F3  UNL d   1       3.048  -5.006   0.379  0.00  0.00    -0.097 F 
ATOM     12  F4  UNL d   1       1.075  -6.000   1.980  0.00  0.00    -0.092 F 
ENDROOT
TORSDOF 0
ENDMDL
