MODEL 1
REMARK minimizedAffinity 2.73696804
REMARK minimizedRMSD -1
REMARK  0 active torsions:
REMARK  status: ('A' for Active; 'I' for Inactive)
ROOT
ATOM      1  C   UNL d   1       1.107  -2.002   2.006  0.00  0.00     0.124 A 
ATOM      2  C1  UNL d   1      -0.023  -1.249   2.296  0.00  0.00     0.062 A 
ATOM      3  C2  UNL d   1      -0.601  -0.448   1.316  0.00  0.00     0.162 A 
ATOM      4  C3  UNL d   1      -0.051  -0.396   0.035  0.00  0.00    -0.034 A 
ATOM      5  C4  UNL d   1       1.085  -1.155  -0.249  0.00  0.00     0.162 A 
ATOM      6  C5  UNL d   1       1.660  -1.954   0.734  0.00  0.00     0.062 A 
ATOM      7  F   UNL d   1       2.751  -2.680   0.452  0.00  0.00    -0.097 F 
ATOM      8  F1  UNL d   1       1.640  -1.128  -1.470  0.00  0.00    -0.096 F 
ATOM      9  I   UNL d   1      -0.913   0.800  -1.434  0.00  0.00    -0.060 I 
ATOM     10  F2  UNL d   1      -1.692   0.268   1.624  0.00  0.00    -0.096 F 
ATOM     11  F3  UNL d   1      -0.558  -1.293   3.525  0.00  0.00    -0.097 F 
ATOM     12  F4  UNL d   1       1.662  -2.771   2.952  0.00  0.00    -0.092 F 
ENDROOT
TORSDOF 0
ENDMDL
