MODEL 1
REMARK minimizedAffinity 2.22597289
REMARK minimizedRMSD -1
REMARK  0 active torsions:
REMARK  status: ('A' for Active; 'I' for Inactive)
ROOT
ATOM      1  C   UNL d   1       1.759  -2.827   0.861  0.00  0.00     0.124 A 
ATOM      2  C1  UNL d   1       3.034  -3.270   1.182  0.00  0.00     0.062 A 
ATOM      3  C2  UNL d   1       4.104  -2.380   1.189  0.00  0.00     0.162 A 
ATOM      4  C3  UNL d   1       3.903  -1.036   0.875  0.00  0.00    -0.034 A 
ATOM      5  C4  UNL d   1       2.617  -0.597   0.553  0.00  0.00     0.162 A 
ATOM      6  C5  UNL d   1       1.551  -1.491   0.547  0.00  0.00     0.062 A 
ATOM      7  F   UNL d   1       0.320  -1.061   0.237  0.00  0.00    -0.097 F 
ATOM      8  F1  UNL d   1       2.388   0.688   0.246  0.00  0.00    -0.096 F 
ATOM      9  I   UNL d   1       5.499   0.299   0.884  0.00  0.00    -0.060 I 
ATOM     10  F2  UNL d   1       5.326  -2.836   1.503  0.00  0.00    -0.096 F 
ATOM     11  F3  UNL d   1       3.238  -4.561   1.485  0.00  0.00    -0.097 F 
ATOM     12  F4  UNL d   1       0.732  -3.686   0.854  0.00  0.00    -0.092 F 
ENDROOT
TORSDOF 0
ENDMDL
