MODEL 1
REMARK minimizedAffinity 7.05454826
REMARK minimizedRMSD -1
REMARK  0 active torsions:
REMARK  status: ('A' for Active; 'I' for Inactive)
ROOT
ATOM      1  C   UNL d   1       2.217  -2.881   1.036  0.00  0.00     0.124 A 
ATOM      2  C1  UNL d   1       1.968  -1.520   0.932  0.00  0.00     0.062 A 
ATOM      3  C2  UNL d   1       3.026  -0.615   0.901  0.00  0.00     0.162 A 
ATOM      4  C3  UNL d   1       4.343  -1.070   0.973  0.00  0.00    -0.034 A 
ATOM      5  C4  UNL d   1       4.585  -2.441   1.079  0.00  0.00     0.162 A 
ATOM      6  C5  UNL d   1       3.524  -3.340   1.110  0.00  0.00     0.062 A 
ATOM      7  F   UNL d   1       3.766  -4.655   1.211  0.00  0.00    -0.097 F 
ATOM      8  F1  UNL d   1       5.838  -2.912   1.151  0.00  0.00    -0.096 F 
ATOM      9  I   UNL d   1       5.927   0.279   0.927  0.00  0.00    -0.060 I 
ATOM     10  F2  UNL d   1       2.756   0.695   0.799  0.00  0.00    -0.096 F 
ATOM     11  F3  UNL d   1       0.706  -1.073   0.861  0.00  0.00    -0.097 F 
ATOM     12  F4  UNL d   1       1.197  -3.749   1.067  0.00  0.00    -0.092 F 
ENDROOT
TORSDOF 0
ENDMDL
