MODEL 1
REMARK minimizedAffinity 15.4958124
REMARK minimizedRMSD -1
REMARK  0 active torsions:
REMARK  status: ('A' for Active; 'I' for Inactive)
ROOT
ATOM      1  C   UNL d   1       2.594  -3.051   0.544  0.00  0.00     0.124 A 
ATOM      2  C1  UNL d   1       2.082  -4.338   0.626  0.00  0.00     0.062 A 
ATOM      3  C2  UNL d   1       0.930  -4.588   1.366  0.00  0.00     0.162 A 
ATOM      4  C3  UNL d   1       0.281  -3.546   2.030  0.00  0.00    -0.034 A 
ATOM      5  C4  UNL d   1       0.803  -2.254   1.943  0.00  0.00     0.162 A 
ATOM      6  C5  UNL d   1       1.954  -2.011   1.202  0.00  0.00     0.062 A 
ATOM      7  F   UNL d   1       2.448  -0.766   1.124  0.00  0.00    -0.097 F 
ATOM      8  F1  UNL d   1       0.204  -1.230   2.569  0.00  0.00    -0.096 F 
ATOM      9  I   UNL d   1      -1.442  -3.915   3.137  0.00  0.00    -0.060 I 
ATOM     10  F2  UNL d   1       0.457  -5.841   1.428  0.00  0.00    -0.096 F 
ATOM     11  F3  UNL d   1       2.699  -5.346  -0.009  0.00  0.00    -0.097 F 
ATOM     12  F4  UNL d   1       3.704  -2.814  -0.168  0.00  0.00    -0.092 F 
ENDROOT
TORSDOF 0
ENDMDL
