MODEL 1
REMARK minimizedAffinity 16.8592796
REMARK minimizedRMSD -1
REMARK  0 active torsions:
REMARK  status: ('A' for Active; 'I' for Inactive)
ROOT
ATOM      1  C   UNL d   1       2.967  -3.404   2.508  0.00  0.00     0.124 A 
ATOM      2  C1  UNL d   1       2.738  -2.655   3.654  0.00  0.00     0.062 A 
ATOM      3  C2  UNL d   1       1.595  -1.867   3.758  0.00  0.00     0.162 A 
ATOM      4  C3  UNL d   1       0.672  -1.825   2.713  0.00  0.00    -0.034 A 
ATOM      5  C4  UNL d   1       0.910  -2.580   1.563  0.00  0.00     0.162 A 
ATOM      6  C5  UNL d   1       2.053  -3.366   1.464  0.00  0.00     0.062 A 
ATOM      7  F   UNL d   1       2.273  -4.089   0.356  0.00  0.00    -0.097 F 
ATOM      8  F1  UNL d   1       0.043  -2.563   0.540  0.00  0.00    -0.096 F 
ATOM      9  I   UNL d   1      -1.038  -0.648   2.865  0.00  0.00    -0.060 I 
ATOM     10  F2  UNL d   1       1.399  -1.154   4.877  0.00  0.00    -0.096 F 
ATOM     11  F3  UNL d   1       3.620  -2.690   4.663  0.00  0.00    -0.097 F 
ATOM     12  F4  UNL d   1       4.068  -4.161   2.410  0.00  0.00    -0.092 F 
ENDROOT
TORSDOF 0
ENDMDL
