MODEL 1
REMARK minimizedAffinity 5.85265684
REMARK minimizedRMSD -1
REMARK  0 active torsions:
REMARK  status: ('A' for Active; 'I' for Inactive)
ROOT
ATOM      1  C   UNL d   1       1.505  -2.602   1.047  0.00  0.00     0.124 A 
ATOM      2  C1  UNL d   1       0.606  -1.899   0.257  0.00  0.00     0.062 A 
ATOM      3  C2  UNL d   1      -0.336  -1.061   0.846  0.00  0.00     0.162 A 
ATOM      4  C3  UNL d   1      -0.384  -0.920   2.233  0.00  0.00    -0.034 A 
ATOM      5  C4  UNL d   1       0.523  -1.632   3.021  0.00  0.00     0.162 A 
ATOM      6  C5  UNL d   1       1.462  -2.468   2.427  0.00  0.00     0.062 A 
ATOM      7  F   UNL d   1       2.330  -3.148   3.192  0.00  0.00    -0.097 F 
ATOM      8  F1  UNL d   1       0.504  -1.521   4.357  0.00  0.00    -0.096 F 
ATOM      9  I   UNL d   1      -1.791   0.332   3.117  0.00  0.00    -0.060 I 
ATOM     10  F2  UNL d   1      -1.192  -0.393   0.058  0.00  0.00    -0.096 F 
ATOM     11  F3  UNL d   1       0.645  -2.027  -1.077  0.00  0.00    -0.097 F 
ATOM     12  F4  UNL d   1       2.410  -3.409   0.478  0.00  0.00    -0.092 F 
ENDROOT
TORSDOF 0
ENDMDL
