MODEL 1
REMARK minimizedAffinity -3.96615219
REMARK minimizedRMSD -1
REMARK  0 active torsions:
REMARK  status: ('A' for Active; 'I' for Inactive)
ROOT
ATOM      1  C   UNL d   1       1.372  -0.180  -0.546  0.00  0.00     0.020 A 
ATOM      2  C1  UNL d   1       2.092  -1.216   0.048  0.00  0.00     0.020 A 
ATOM      3  C2  UNL d   1       1.623  -1.808   1.223  0.00  0.00     0.034 A 
ATOM      4  C3  UNL d   1       0.432  -1.364   1.808  0.00  0.00     0.017 A 
ATOM      5  C4  UNL d   1      -0.290  -0.324   1.211  0.00  0.00     0.017 A 
ATOM      6  C5  UNL d   1       0.184   0.265   0.034  0.00  0.00     0.034 A 
ATOM      7 Cl   UNL d   1      -1.768   0.278   1.874  0.00  0.00    -0.070 Cl
ATOM      8 Cl1  UNL d   1      -0.089  -2.141   3.260  0.00  0.00    -0.070 Cl
ENDROOT
TORSDOF 0
ENDMDL
