MODEL 1
REMARK minimizedAffinity -1.07717073
REMARK minimizedRMSD -1
REMARK  0 active torsions:
REMARK  status: ('A' for Active; 'I' for Inactive)
ROOT
ATOM      1  C   UNL d   1       2.192  -1.830   1.242  0.00  0.00     0.020 A 
ATOM      2  C1  UNL d   1       2.479  -1.253   0.005  0.00  0.00     0.020 A 
ATOM      3  C2  UNL d   1       1.557  -0.395  -0.597  0.00  0.00     0.034 A 
ATOM      4  C3  UNL d   1       0.342  -0.111   0.038  0.00  0.00     0.017 A 
ATOM      5  C4  UNL d   1       0.054  -0.690   1.279  0.00  0.00     0.017 A 
ATOM      6  C5  UNL d   1       0.982  -1.548   1.877  0.00  0.00     0.034 A 
ATOM      7 Cl   UNL d   1      -1.423  -0.387   2.123  0.00  0.00    -0.070 Cl
ATOM      8 Cl1  UNL d   1      -0.752   0.959  -0.764  0.00  0.00    -0.070 Cl
ENDROOT
TORSDOF 0
ENDMDL
