MODEL 1
REMARK minimizedAffinity -1.82323241
REMARK minimizedRMSD -1
REMARK  0 active torsions:
REMARK  status: ('A' for Active; 'I' for Inactive)
ROOT
ATOM      1  C   UNL d   1       1.724  -1.566   0.176  0.00  0.00     0.020 A 
ATOM      2  C1  UNL d   1       1.692  -0.342  -0.491  0.00  0.00     0.020 A 
ATOM      3  C2  UNL d   1       0.569   0.480  -0.386  0.00  0.00     0.034 A 
ATOM      4  C3  UNL d   1      -0.527   0.080   0.388  0.00  0.00     0.017 A 
ATOM      5  C4  UNL d   1      -0.494  -1.148   1.057  0.00  0.00     0.017 A 
ATOM      6  C5  UNL d   1       0.634  -1.968   0.948  0.00  0.00     0.034 A 
ATOM      7 Cl   UNL d   1      -1.807  -1.710   2.030  0.00  0.00    -0.070 Cl
ATOM      8 Cl1  UNL d   1      -1.883   1.148   0.474  0.00  0.00    -0.070 Cl
ENDROOT
TORSDOF 0
ENDMDL
