MODEL 1
REMARK minimizedAffinity -1.9687345
REMARK minimizedRMSD -1
REMARK  0 active torsions:
REMARK  status: ('A' for Active; 'I' for Inactive)
ROOT
ATOM      1  C   UNL d   1       2.188  -0.815   0.464  0.00  0.00     0.020 A 
ATOM      2  C1  UNL d   1       2.426  -0.122  -0.722  0.00  0.00     0.020 A 
ATOM      3  C2  UNL d   1       1.414   0.655  -1.292  0.00  0.00     0.034 A 
ATOM      4  C3  UNL d   1       0.160   0.739  -0.676  0.00  0.00     0.017 A 
ATOM      5  C4  UNL d   1      -0.078   0.043   0.515  0.00  0.00     0.017 A 
ATOM      6  C5  UNL d   1       0.939  -0.733   1.081  0.00  0.00     0.034 A 
ATOM      7 Cl   UNL d   1      -1.599   0.099   1.333  0.00  0.00    -0.070 Cl
ATOM      8 Cl1  UNL d   1      -1.044   1.718  -1.436  0.00  0.00    -0.070 Cl
ENDROOT
TORSDOF 0
ENDMDL
