MODEL 1
REMARK minimizedAffinity -3.8212409
REMARK minimizedRMSD -1
REMARK  0 active torsions:
REMARK  status: ('A' for Active; 'I' for Inactive)
ROOT
ATOM      1  C   UNL d   1       1.270  -1.020  -0.748  0.00  0.00     0.020 A 
ATOM      2  C1  UNL d   1       1.065  -1.195   0.620  0.00  0.00     0.020 A 
ATOM      3  C2  UNL d   1       0.006  -0.545   1.256  0.00  0.00     0.034 A 
ATOM      4  C3  UNL d   1      -0.854   0.283   0.524  0.00  0.00     0.017 A 
ATOM      5  C4  UNL d   1      -0.647   0.458  -0.850  0.00  0.00     0.017 A 
ATOM      6  C5  UNL d   1       0.416  -0.195  -1.481  0.00  0.00     0.034 A 
ATOM      7 Cl   UNL d   1      -1.665   1.463  -1.819  0.00  0.00    -0.070 Cl
ATOM      8 Cl1  UNL d   1      -2.144   1.055   1.375  0.00  0.00    -0.070 Cl
ENDROOT
TORSDOF 0
ENDMDL
