MODEL 1
REMARK minimizedAffinity -4.11302805
REMARK minimizedRMSD -1
REMARK  0 active torsions:
REMARK  status: ('A' for Active; 'I' for Inactive)
ROOT
ATOM      1  C   UNL d   1      -1.537   0.691   1.142  0.00  0.00     0.020 A 
ATOM      2  C1  UNL d   1      -1.014   0.948  -0.125  0.00  0.00     0.020 A 
ATOM      3  C2  UNL d   1       0.143   0.292  -0.549  0.00  0.00     0.034 A 
ATOM      4  C3  UNL d   1       0.782  -0.625   0.295  0.00  0.00     0.017 A 
ATOM      5  C4  UNL d   1       0.257  -0.882   1.566  0.00  0.00     0.017 A 
ATOM      6  C5  UNL d   1      -0.903  -0.223   1.986  0.00  0.00     0.034 A 
ATOM      7 Cl   UNL d   1       0.989  -2.000   2.663  0.00  0.00    -0.070 Cl
ATOM      8 Cl1  UNL d   1       2.209  -1.399  -0.295  0.00  0.00    -0.070 Cl
ENDROOT
TORSDOF 0
ENDMDL
