MODEL 1
REMARK minimizedAffinity -0.363255322
REMARK minimizedRMSD -1
REMARK  0 active torsions:
REMARK  status: ('A' for Active; 'I' for Inactive)
ROOT
ATOM      1  C   UNL d   1      -0.313   0.380   0.755  0.00  0.00     0.020 A 
ATOM      2  C1  UNL d   1      -1.220  -0.568   0.282  0.00  0.00     0.020 A 
ATOM      3  C2  UNL d   1      -1.888  -0.354  -0.925  0.00  0.00     0.034 A 
ATOM      4  C3  UNL d   1      -1.651   0.811  -1.664  0.00  0.00     0.017 A 
ATOM      5  C4  UNL d   1      -0.740   1.762  -1.189  0.00  0.00     0.017 A 
ATOM      6  C5  UNL d   1      -0.074   1.543   0.021  0.00  0.00     0.034 A 
ATOM      7 Cl   UNL d   1      -0.395   3.224  -2.044  0.00  0.00    -0.070 Cl
ATOM      8 Cl1  UNL d   1      -2.512   1.010  -3.149  0.00  0.00    -0.070 Cl
ENDROOT
TORSDOF 0
ENDMDL
