MODEL 1
REMARK minimizedAffinity -5.3240037
REMARK minimizedRMSD -1
REMARK  0 active torsions:
REMARK  status: ('A' for Active; 'I' for Inactive)
ROOT
ATOM      1  C   UNL d   1      -1.972   1.925  -2.406  0.00  0.00     0.020 A 
ATOM      2  C1  UNL d   1      -3.105   1.598  -1.663  0.00  0.00     0.020 A 
ATOM      3  C2  UNL d   1      -3.000   0.728  -0.575  0.00  0.00     0.034 A 
ATOM      4  C3  UNL d   1      -1.759   0.183  -0.227  0.00  0.00     0.017 A 
ATOM      5  C4  UNL d   1      -0.622   0.512  -0.974  0.00  0.00     0.017 A 
ATOM      6  C5  UNL d   1      -0.733   1.383  -2.062  0.00  0.00     0.034 A 
ATOM      7 Cl   UNL d   1       0.943  -0.121  -0.605  0.00  0.00    -0.070 Cl
ATOM      8 Cl1  UNL d   1      -1.703  -0.885   1.130  0.00  0.00    -0.070 Cl
ENDROOT
TORSDOF 0
ENDMDL
