MODEL 1
REMARK minimizedAffinity -3.16899991
REMARK minimizedRMSD -1
REMARK  0 active torsions:
REMARK  status: ('A' for Active; 'I' for Inactive)
ROOT
ATOM      1  C   UNL d   1       1.229  -2.255   2.521  0.00  0.00     0.020 A 
ATOM      2  C1  UNL d   1       2.177  -1.934   1.551  0.00  0.00     0.020 A 
ATOM      3  C2  UNL d   1       1.914  -0.923   0.625  0.00  0.00     0.034 A 
ATOM      4  C3  UNL d   1       0.698  -0.230   0.666  0.00  0.00     0.017 A 
ATOM      5  C4  UNL d   1      -0.253  -0.553   1.640  0.00  0.00     0.017 A 
ATOM      6  C5  UNL d   1       0.016  -1.566   2.566  0.00  0.00     0.034 A 
ATOM      7 Cl   UNL d   1      -1.775   0.258   1.754  0.00  0.00    -0.070 Cl
ATOM      8 Cl1  UNL d   1       0.439   1.008  -0.511  0.00  0.00    -0.070 Cl
ENDROOT
TORSDOF 0
ENDMDL
