MODEL 1
REMARK minimizedAffinity 5.23532391
REMARK minimizedRMSD -1
REMARK  0 active torsions:
REMARK  status: ('A' for Active; 'I' for Inactive)
ROOT
ATOM      1  C   UNL d   1       2.202   2.029  -0.955  0.00  0.00     0.020 A 
ATOM      2  C1  UNL d   1       3.403   1.320  -0.968  0.00  0.00     0.020 A 
ATOM      3  C2  UNL d   1       3.505   0.107  -0.282  0.00  0.00     0.034 A 
ATOM      4  C3  UNL d   1       2.405  -0.400   0.418  0.00  0.00     0.017 A 
ATOM      5  C4  UNL d   1       1.200   0.312   0.431  0.00  0.00     0.017 A 
ATOM      6  C5  UNL d   1       1.103   1.526  -0.257  0.00  0.00     0.034 A 
ATOM      7 Cl   UNL d   1      -0.200  -0.250   1.273  0.00  0.00    -0.070 Cl
ATOM      8 Cl1  UNL d   1       2.603  -1.905   1.243  0.00  0.00    -0.070 Cl
ENDROOT
TORSDOF 0
ENDMDL
