MODEL 1
REMARK minimizedAffinity 7.47559881
REMARK minimizedRMSD -1
REMARK  0 active torsions:
REMARK  status: ('A' for Active; 'I' for Inactive)
ROOT
ATOM      1  C   UNL d   1      -4.655  -5.643  -2.260  0.00  0.00     0.020 A 
ATOM      2  C1  UNL d   1      -5.826  -6.000  -1.594  0.00  0.00     0.020 A 
ATOM      3  C2  UNL d   1      -5.984  -5.688  -0.242  0.00  0.00     0.034 A 
ATOM      4  C3  UNL d   1      -4.967  -5.018   0.449  0.00  0.00     0.017 A 
ATOM      5  C4  UNL d   1      -3.792  -4.660  -0.220  0.00  0.00     0.017 A 
ATOM      6  C5  UNL d   1      -3.639  -4.974  -1.574  0.00  0.00     0.034 A 
ATOM      7 Cl   UNL d   1      -2.494  -3.831   0.565  0.00  0.00    -0.070 Cl
ATOM      8 Cl1  UNL d   1      -5.230  -4.664   2.120  0.00  0.00    -0.070 Cl
ENDROOT
TORSDOF 0
ENDMDL
