MODEL 1
REMARK minimizedAffinity 7.19519711
REMARK minimizedRMSD -1
REMARK  0 active torsions:
REMARK  status: ('A' for Active; 'I' for Inactive)
ROOT
ATOM      1  C   UNL d   1      -4.270  -5.423  -2.076  0.00  0.00     0.020 A 
ATOM      2  C1  UNL d   1      -5.440  -5.978  -1.559  0.00  0.00     0.020 A 
ATOM      3  C2  UNL d   1      -5.756  -5.806  -0.210  0.00  0.00     0.034 A 
ATOM      4  C3  UNL d   1      -4.902  -5.078   0.627  0.00  0.00     0.017 A 
ATOM      5  C4  UNL d   1      -3.728  -4.521   0.106  0.00  0.00     0.017 A 
ATOM      6  C5  UNL d   1      -3.416  -4.696  -1.246  0.00  0.00     0.034 A 
ATOM      7 Cl   UNL d   1      -2.625  -3.610   1.076  0.00  0.00    -0.070 Cl
ATOM      8 Cl1  UNL d   1      -5.356  -4.905   2.285  0.00  0.00    -0.070 Cl
ENDROOT
TORSDOF 0
ENDMDL
