MODEL 1
REMARK minimizedAffinity 4.17233801
REMARK minimizedRMSD -1
REMARK  0 active torsions:
REMARK  status: ('A' for Active; 'I' for Inactive)
ROOT
ATOM      1  C   UNL d   1       0.627  -1.248  -0.185  0.00  0.00     0.020 A 
ATOM      2  C1  UNL d   1       0.255   0.089  -0.057  0.00  0.00     0.020 A 
ATOM      3  C2  UNL d   1      -0.999   0.418   0.463  0.00  0.00     0.034 A 
ATOM      4  C3  UNL d   1      -1.885  -0.591   0.857  0.00  0.00     0.017 A 
ATOM      5  C4  UNL d   1      -1.510  -1.934   0.727  0.00  0.00     0.017 A 
ATOM      6  C5  UNL d   1      -0.254  -2.257   0.206  0.00  0.00     0.034 A 
ATOM      7 Cl   UNL d   1      -2.549  -3.235   1.191  0.00  0.00    -0.070 Cl
ATOM      8 Cl1  UNL d   1      -3.418  -0.112   1.492  0.00  0.00    -0.070 Cl
ENDROOT
TORSDOF 0
ENDMDL
