MODEL 1
REMARK minimizedAffinity 6.89292049
REMARK minimizedRMSD -1
REMARK  0 active torsions:
REMARK  status: ('A' for Active; 'I' for Inactive)
ROOT
ATOM      1  C   UNL d   1      -1.742  -4.695  -0.307  0.00  0.00     0.020 A 
ATOM      2  C1  UNL d   1      -2.707  -4.458   0.671  0.00  0.00     0.020 A 
ATOM      3  C2  UNL d   1      -2.693  -3.260   1.390  0.00  0.00     0.034 A 
ATOM      4  C3  UNL d   1      -1.712  -2.296   1.131  0.00  0.00     0.017 A 
ATOM      5  C4  UNL d   1      -0.744  -2.535   0.149  0.00  0.00     0.017 A 
ATOM      6  C5  UNL d   1      -0.763  -3.735  -0.568  0.00  0.00     0.034 A 
ATOM      7 Cl   UNL d   1       0.497  -1.392  -0.227  0.00  0.00    -0.070 Cl
ATOM      8 Cl1  UNL d   1      -1.756  -0.838   2.057  0.00  0.00    -0.070 Cl
ENDROOT
TORSDOF 0
ENDMDL
