MODEL 1
REMARK minimizedAffinity -6.07045603
REMARK minimizedRMSD -1
REMARK  0 active torsions:
REMARK  status: ('A' for Active; 'I' for Inactive)
ROOT
ATOM      1  C   UNL d   1       1.385  -2.854   1.504  0.00  0.00     0.020 A 
ATOM      2  C1  UNL d   1       0.429  -2.667   2.501  0.00  0.00     0.020 A 
ATOM      3  C2  UNL d   1      -0.460  -1.593   2.424  0.00  0.00     0.034 A 
ATOM      4  C3  UNL d   1      -0.395  -0.701   1.347  0.00  0.00     0.017 A 
ATOM      5  C4  UNL d   1       0.566  -0.889   0.347  0.00  0.00     0.017 A 
ATOM      6  C5  UNL d   1       1.453  -1.967   0.429  0.00  0.00     0.034 A 
ATOM      7 Cl   UNL d   1       0.707   0.169  -1.013  0.00  0.00    -0.070 Cl
ATOM      8 Cl1  UNL d   1      -1.526   0.605   1.316  0.00  0.00    -0.070 Cl
ENDROOT
TORSDOF 0
ENDMDL
