MODEL 1
REMARK minimizedAffinity -0.606225371
REMARK minimizedRMSD -1
REMARK  0 active torsions:
REMARK  status: ('A' for Active; 'I' for Inactive)
ROOT
ATOM      1  C   UNL d   1      -1.109   0.386   1.399  0.00  0.00     0.020 A 
ATOM      2  C1  UNL d   1      -0.887   1.484   0.569  0.00  0.00     0.020 A 
ATOM      3  C2  UNL d   1       0.350   1.647  -0.057  0.00  0.00     0.034 A 
ATOM      4  C3  UNL d   1       1.370   0.709   0.145  0.00  0.00     0.017 A 
ATOM      5  C4  UNL d   1       1.146  -0.393   0.977  0.00  0.00     0.017 A 
ATOM      6  C5  UNL d   1      -0.095  -0.551   1.602  0.00  0.00     0.034 A 
ATOM      7 Cl   UNL d   1       2.355  -1.591   1.275  0.00  0.00    -0.070 Cl
ATOM      8 Cl1  UNL d   1       2.875   0.973  -0.662  0.00  0.00    -0.070 Cl
ENDROOT
TORSDOF 0
ENDMDL
