MODEL 1
REMARK minimizedAffinity -1.53442132
REMARK minimizedRMSD -1
REMARK  0 active torsions:
REMARK  status: ('A' for Active; 'I' for Inactive)
ROOT
ATOM      1  C   UNL d   1      -0.642   0.028   1.147  0.00  0.00     0.020 A 
ATOM      2  C1  UNL d   1       0.233   0.892   0.490  0.00  0.00     0.020 A 
ATOM      3  C2  UNL d   1      -0.096   1.394  -0.770  0.00  0.00     0.034 A 
ATOM      4  C3  UNL d   1      -1.304   1.034  -1.378  0.00  0.00     0.017 A 
ATOM      5  C4  UNL d   1      -2.182   0.166  -0.718  0.00  0.00     0.017 A 
ATOM      6  C5  UNL d   1      -1.847  -0.334   0.544  0.00  0.00     0.034 A 
ATOM      7 Cl   UNL d   1      -3.691  -0.324  -1.405  0.00  0.00    -0.070 Cl
ATOM      8 Cl1  UNL d   1      -1.647   1.693  -2.938  0.00  0.00    -0.070 Cl
ENDROOT
TORSDOF 0
ENDMDL
