MODEL 1
REMARK minimizedAffinity 0.272701442
REMARK minimizedRMSD -1
REMARK  1 active torsions:
REMARK  status: ('A' for Active; 'I' for Inactive)
REMARK    1  A    between atoms: C1_2  and  C2_3 
ROOT
ATOM      1  C2  UNL d   1       4.259   2.097   0.684  0.00  0.00    -0.077 A 
ATOM      2  C3  UNL d   1       3.379   1.092   1.109  0.00  0.00     0.002 A 
ATOM      3  C4  UNL d   1       2.879   0.160   0.197  0.00  0.00     0.002 A 
ATOM      4  C5  UNL d   1       3.256   0.221  -1.142  0.00  0.00    -0.004 A 
ATOM      5  C6  UNL d   1       4.130   1.218  -1.575  0.00  0.00     0.002 A 
ATOM      6  C7  UNL d   1       4.630   2.151  -0.666  0.00  0.00     0.002 A 
ENDROOT
BRANCH   1   7
ATOM      7  C1  UNL d   1       4.838   3.073   1.674  0.00  0.00     0.055 C 
ATOM      8  C   UNL d   1       4.044   3.082   2.972  0.00  0.00     0.019 C 
ENDBRANCH   1   7
TORSDOF 1
ENDMDL
