MODEL 1
REMARK minimizedAffinity 0.555609822
REMARK minimizedRMSD -1
REMARK  1 active torsions:
REMARK  status: ('A' for Active; 'I' for Inactive)
REMARK    1  A    between atoms: C1_2  and  C2_3 
ROOT
ATOM      1  C2  UNL d   1       1.337   5.949   3.632  0.00  0.00    -0.077 A 
ATOM      2  C3  UNL d   1      -0.031   5.945   3.325  0.00  0.00     0.002 A 
ATOM      3  C4  UNL d   1      -0.984   5.944   4.346  0.00  0.00     0.002 A 
ATOM      4  C5  UNL d   1      -0.579   5.950   5.679  0.00  0.00    -0.004 A 
ATOM      5  C6  UNL d   1       0.780   5.952   5.994  0.00  0.00     0.002 A 
ATOM      6  C7  UNL d   1       1.733   5.952   4.975  0.00  0.00     0.002 A 
ENDROOT
BRANCH   1   7
ATOM      7  C1  UNL d   1       2.366   6.000   2.532  0.00  0.00     0.055 C 
ATOM      8  C   UNL d   1       3.779   5.999   3.096  0.00  0.00     0.019 C 
ENDBRANCH   1   7
TORSDOF 1
ENDMDL
