MODEL 1
REMARK minimizedAffinity -5.12465382
REMARK minimizedRMSD -1
REMARK  1 active torsions:
REMARK  status: ('A' for Active; 'I' for Inactive)
REMARK    1  A    between atoms: C1_2  and  C2_3 
ROOT
ATOM      1  C2  UNL d   1       2.024   4.229   4.654  0.00  0.00    -0.077 A 
ATOM      2  C3  UNL d   1       1.286   4.192   5.846  0.00  0.00     0.002 A 
ATOM      3  C4  UNL d   1       0.091   4.906   5.959  0.00  0.00     0.002 A 
ATOM      4  C5  UNL d   1      -0.378   5.658   4.884  0.00  0.00    -0.004 A 
ATOM      5  C6  UNL d   1       0.350   5.702   3.695  0.00  0.00     0.002 A 
ATOM      6  C7  UNL d   1       1.545   4.990   3.581  0.00  0.00     0.002 A 
ENDROOT
BRANCH   1   7
ATOM      7  C1  UNL d   1       3.287   3.420   4.514  0.00  0.00     0.055 C 
ATOM      8  C   UNL d   1       3.220   2.141   5.336  0.00  0.00     0.019 C 
ENDBRANCH   1   7
TORSDOF 1
ENDMDL
