MODEL 1
REMARK minimizedAffinity -4.58085155
REMARK minimizedRMSD -1
REMARK  1 active torsions:
REMARK  status: ('A' for Active; 'I' for Inactive)
REMARK    1  A    between atoms: C1_2  and  C2_3 
ROOT
ATOM      1  C2  UNL d   1       1.704   5.208   4.743  0.00  0.00    -0.077 A 
ATOM      2  C3  UNL d   1       2.559   5.563   5.795  0.00  0.00     0.002 A 
ATOM      3  C4  UNL d   1       3.753   4.869   6.000  0.00  0.00     0.002 A 
ATOM      4  C5  UNL d   1       4.105   3.819   5.155  0.00  0.00    -0.004 A 
ATOM      5  C6  UNL d   1       3.260   3.456   4.106  0.00  0.00     0.002 A 
ATOM      6  C7  UNL d   1       2.065   4.148   3.901  0.00  0.00     0.002 A 
ENDROOT
BRANCH   1   7
ATOM      7  C1  UNL d   1       0.440   5.987   4.490  0.00  0.00     0.055 C 
ATOM      8  C   UNL d   1       0.082   5.997   3.011  0.00  0.00     0.019 C 
ENDBRANCH   1   7
TORSDOF 1
ENDMDL
