MODEL 1
REMARK minimizedAffinity 1.93076611
REMARK minimizedRMSD -1
REMARK  1 active torsions:
REMARK  status: ('A' for Active; 'I' for Inactive)
REMARK    1  A    between atoms: C1_2  and  C2_3 
ROOT
ATOM      1  C2  UNL d   1       3.816   3.414   5.226  0.00  0.00    -0.077 A 
ATOM      2  C3  UNL d   1       4.218   3.640   3.902  0.00  0.00     0.002 A 
ATOM      3  C4  UNL d   1       4.185   4.928   3.364  0.00  0.00     0.002 A 
ATOM      4  C5  UNL d   1       3.755   6.000   4.143  0.00  0.00    -0.004 A 
ATOM      5  C6  UNL d   1       3.351   5.785   5.461  0.00  0.00     0.002 A 
ATOM      6  C7  UNL d   1       3.382   4.499   6.000  0.00  0.00     0.002 A 
ENDROOT
BRANCH   1   7
ATOM      7  C1  UNL d   1       3.897   2.034   5.824  0.00  0.00     0.055 C 
ATOM      8  C   UNL d   1       5.343   1.592   6.000  0.00  0.00     0.019 C 
ENDBRANCH   1   7
TORSDOF 1
ENDMDL
