MODEL 1
REMARK minimizedAffinity 4.2224884
REMARK minimizedRMSD -1
REMARK  1 active torsions:
REMARK  status: ('A' for Active; 'I' for Inactive)
REMARK    1  A    between atoms: C1_2  and  C2_3 
ROOT
ATOM      1  C2  UNL d   1      -1.038  -1.248   1.094  0.00  0.00    -0.077 A 
ATOM      2  C3  UNL d   1      -0.269  -0.435   1.937  0.00  0.00     0.002 A 
ATOM      3  C4  UNL d   1       1.027  -0.064   1.572  0.00  0.00     0.002 A 
ATOM      4  C5  UNL d   1       1.562  -0.499   0.361  0.00  0.00    -0.004 A 
ATOM      5  C6  UNL d   1       0.806  -1.310  -0.484  0.00  0.00     0.002 A 
ATOM      6  C7  UNL d   1      -0.489  -1.682  -0.120  0.00  0.00     0.002 A 
ENDROOT
BRANCH   1   7
ATOM      7  C1  UNL d   1      -2.453  -1.608   1.463  0.00  0.00     0.055 C 
ATOM      8  C   UNL d   1      -3.454  -0.681   0.790  0.00  0.00     0.019 C 
ENDBRANCH   1   7
TORSDOF 1
ENDMDL
