MODEL 1
REMARK minimizedAffinity -2.97413063
REMARK minimizedRMSD -1
REMARK  0 active torsions:
REMARK  status: ('A' for Active; 'I' for Inactive)
ROOT
ATOM      1  O1  BZF d   1      -0.487  -1.786  -4.993  0.00  0.00    -0.204 OA
ATOM      2  C2  BZF d   1      -1.155  -1.114  -5.999  0.00  0.00     0.174 A 
ATOM      3  C3  BZF d   1      -0.826   0.194  -6.000  0.00  0.00    -0.012 A 
ATOM      4  C3A BZF d   1       0.175   0.332  -4.987  0.00  0.00    -0.107 A 
ATOM      5  C4  BZF d   1       0.904   1.390  -4.525  0.00  0.00     0.055 A 
ATOM      6  C5  BZF d   1       1.747   1.204  -3.476  0.00  0.00    -0.016 A 
ATOM      7  C6  BZF d   1       1.882  -0.024  -2.862  0.00  0.00     0.022 A 
ATOM      8  C7  BZF d   1       1.184  -1.105  -3.288  0.00  0.00     0.029 A 
ATOM      9  C7A BZF d   1       0.356  -0.927  -4.370  0.00  0.00     0.058 A 
ENDROOT
TORSDOF 0
ENDMDL
