MODEL 1
REMARK minimizedAffinity -3.80712271
REMARK minimizedRMSD -1
REMARK  0 active torsions:
REMARK  status: ('A' for Active; 'I' for Inactive)
ROOT
ATOM      1  O1  BZF d   1      -1.613  -1.493  -3.957  0.00  0.00    -0.204 OA
ATOM      2  C2  BZF d   1      -2.052  -1.386  -5.263  0.00  0.00     0.174 A 
ATOM      3  C3  BZF d   1      -1.192  -0.654  -5.999  0.00  0.00    -0.012 A 
ATOM      4  C3A BZF d   1      -0.103  -0.357  -5.120  0.00  0.00    -0.107 A 
ATOM      5  C4  BZF d   1       1.069   0.328  -5.275  0.00  0.00     0.055 A 
ATOM      6  C5  BZF d   1       1.881   0.498  -4.199  0.00  0.00    -0.016 A 
ATOM      7  C6  BZF d   1       1.551   0.003  -2.954  0.00  0.00     0.022 A 
ATOM      8  C7  BZF d   1       0.402  -0.687  -2.753  0.00  0.00     0.029 A 
ATOM      9  C7A BZF d   1      -0.405  -0.890  -3.846  0.00  0.00     0.058 A 
ENDROOT
TORSDOF 0
ENDMDL
