MODEL 1
REMARK minimizedAffinity -1.24141181
REMARK minimizedRMSD -1
REMARK  0 active torsions:
REMARK  status: ('A' for Active; 'I' for Inactive)
ROOT
ATOM      1  O1  BZF d   1       0.057   1.235  -3.077  0.00  0.00    -0.204 OA
ATOM      2  C2  BZF d   1       0.543   0.359  -4.028  0.00  0.00     0.174 A 
ATOM      3  C3  BZF d   1       0.992  -0.774  -3.450  0.00  0.00    -0.012 A 
ATOM      4  C3A BZF d   1       0.689  -0.632  -2.059  0.00  0.00    -0.107 A 
ATOM      5  C4  BZF d   1       0.877  -1.435  -0.970  0.00  0.00     0.055 A 
ATOM      6  C5  BZF d   1       0.534  -0.970   0.260  0.00  0.00    -0.016 A 
ATOM      7  C6  BZF d   1       0.007   0.292   0.439  0.00  0.00     0.022 A 
ATOM      8  C7  BZF d   1      -0.203   1.123  -0.611  0.00  0.00     0.029 A 
ATOM      9  C7A BZF d   1       0.112   0.644  -1.860  0.00  0.00     0.058 A 
ENDROOT
TORSDOF 0
ENDMDL
