MODEL 1
REMARK minimizedAffinity -0.441119015
REMARK minimizedRMSD -1
REMARK  0 active torsions:
REMARK  status: ('A' for Active; 'I' for Inactive)
ROOT
ATOM      1  O1  BZF d   1       0.138   0.564   2.548  0.00  0.00    -0.204 OA
ATOM      2  C2  BZF d   1      -1.178   0.759   2.922  0.00  0.00     0.174 A 
ATOM      3  C3  BZF d   1      -2.014   0.448   1.910  0.00  0.00    -0.012 A 
ATOM      4  C3A BZF d   1      -1.172  -0.055   0.868  0.00  0.00    -0.107 A 
ATOM      5  C4  BZF d   1      -1.417  -0.540  -0.385  0.00  0.00     0.055 A 
ATOM      6  C5  BZF d   1      -0.368  -0.881  -1.178  0.00  0.00    -0.016 A 
ATOM      7  C6  BZF d   1       0.938  -0.745  -0.754  0.00  0.00     0.022 A 
ATOM      8  C7  BZF d   1       1.231  -0.272   0.483  0.00  0.00     0.029 A 
ATOM      9  C7A BZF d   1       0.171   0.042   1.299  0.00  0.00     0.058 A 
ENDROOT
TORSDOF 0
ENDMDL
