MODEL 1
REMARK minimizedAffinity -4.87828445
REMARK minimizedRMSD -1
REMARK  0 active torsions:
REMARK  status: ('A' for Active; 'I' for Inactive)
ROOT
ATOM      1  O1  BZF d   1       2.380  -1.529  -0.339  0.00  0.00    -0.204 OA
ATOM      2  C2  BZF d   1       3.139  -1.293   0.791  0.00  0.00     0.174 A 
ATOM      3  C3  BZF d   1       2.434  -0.594   1.704  0.00  0.00    -0.012 A 
ATOM      4  C3A BZF d   1       1.124  -0.458   1.144  0.00  0.00    -0.107 A 
ATOM      5  C4  BZF d   1      -0.029   0.126   1.585  0.00  0.00     0.055 A 
ATOM      6  C5  BZF d   1      -1.113   0.147   0.766  0.00  0.00    -0.016 A 
ATOM      7  C6  BZF d   1      -1.078  -0.400  -0.500  0.00  0.00     0.022 A 
ATOM      8  C7  BZF d   1       0.042  -0.995  -0.979  0.00  0.00     0.029 A 
ATOM      9  C7A BZF d   1       1.129  -1.047  -0.141  0.00  0.00     0.058 A 
ENDROOT
TORSDOF 0
ENDMDL
