MODEL 1
REMARK minimizedAffinity -3.29632163
REMARK minimizedRMSD -1
REMARK  0 active torsions:
REMARK  status: ('A' for Active; 'I' for Inactive)
ROOT
ATOM      1  O1  BZF d   1      -2.104   1.193   1.939  0.00  0.00    -0.204 OA
ATOM      2  C2  BZF d   1      -2.457   0.999   0.617  0.00  0.00     0.174 A 
ATOM      3  C3  BZF d   1      -1.456   0.404  -0.063  0.00  0.00    -0.012 A 
ATOM      4  C3A BZF d   1      -0.448   0.131   0.915  0.00  0.00    -0.107 A 
ATOM      5  C4  BZF d   1       0.780  -0.464   0.855  0.00  0.00     0.055 A 
ATOM      6  C5  BZF d   1       1.547  -0.508   1.977  0.00  0.00    -0.016 A 
ATOM      7  C6  BZF d   1       1.120   0.035   3.170  0.00  0.00     0.022 A 
ATOM      8  C7  BZF d   1      -0.093   0.630   3.279  0.00  0.00     0.029 A 
ATOM      9  C7A BZF d   1      -0.883   0.648   2.156  0.00  0.00     0.058 A 
ENDROOT
TORSDOF 0
ENDMDL
