MODEL 1
REMARK minimizedAffinity -2.70888972
REMARK minimizedRMSD -1
REMARK  0 active torsions:
REMARK  status: ('A' for Active; 'I' for Inactive)
ROOT
ATOM      1  O1  BZF d   1      -0.612  -0.041  -1.740  0.00  0.00    -0.204 OA
ATOM      2  C2  BZF d   1       0.712  -0.435  -1.695  0.00  0.00     0.174 A 
ATOM      3  C3  BZF d   1       1.169  -0.433  -0.426  0.00  0.00    -0.012 A 
ATOM      4  C3A BZF d   1       0.036  -0.100   0.381  0.00  0.00    -0.107 A 
ATOM      5  C4  BZF d   1      -0.148   0.042   1.727  0.00  0.00     0.055 A 
ATOM      6  C5  BZF d   1      -1.361   0.446   2.188  0.00  0.00    -0.016 A 
ATOM      7  C6  BZF d   1      -2.409   0.720   1.333  0.00  0.00     0.022 A 
ATOM      8  C7  BZF d   1      -2.275   0.588  -0.009  0.00  0.00     0.029 A 
ATOM      9  C7A BZF d   1      -1.061   0.149  -0.476  0.00  0.00     0.058 A 
ENDROOT
TORSDOF 0
ENDMDL
