MODEL 1
REMARK minimizedAffinity -2.76453209
REMARK minimizedRMSD -1
REMARK  0 active torsions:
REMARK  status: ('A' for Active; 'I' for Inactive)
ROOT
ATOM      1  O1  BZF d   1       1.645  -0.736   2.103  0.00  0.00    -0.204 OA
ATOM      2  C2  BZF d   1       1.532  -0.765   3.480  0.00  0.00     0.174 A 
ATOM      3  C3  BZF d   1       0.345  -0.260   3.873  0.00  0.00    -0.012 A 
ATOM      4  C3A BZF d   1      -0.364   0.021   2.663  0.00  0.00    -0.107 A 
ATOM      5  C4  BZF d   1      -1.606   0.523   2.397  0.00  0.00     0.055 A 
ATOM      6  C5  BZF d   1      -1.967   0.744   1.106  0.00  0.00    -0.016 A 
ATOM      7  C6  BZF d   1      -1.111   0.479   0.057  0.00  0.00     0.022 A 
ATOM      8  C7  BZF d   1       0.129  -0.025   0.271  0.00  0.00     0.029 A 
ATOM      9  C7A BZF d   1       0.485  -0.280   1.573  0.00  0.00     0.058 A 
ENDROOT
TORSDOF 0
ENDMDL
