MODEL 1
REMARK minimizedAffinity -0.993565559
REMARK minimizedRMSD -1
REMARK  0 active torsions:
REMARK  status: ('A' for Active; 'I' for Inactive)
ROOT
ATOM      1  O1  BZF d   1      -1.230   0.368  -6.000  0.00  0.00    -0.204 OA
ATOM      2  C2  BZF d   1      -1.957  -0.807  -5.953  0.00  0.00     0.174 A 
ATOM      3  C3  BZF d   1      -1.593  -1.552  -4.890  0.00  0.00    -0.012 A 
ATOM      4  C3A BZF d   1      -0.641  -0.755  -4.179  0.00  0.00    -0.107 A 
ATOM      5  C4  BZF d   1       0.070  -0.944  -3.029  0.00  0.00     0.055 A 
ATOM      6  C5  BZF d   1       0.971  -0.002  -2.646  0.00  0.00    -0.016 A 
ATOM      7  C6  BZF d   1       1.189   1.138  -3.391  0.00  0.00     0.022 A 
ATOM      8  C7  BZF d   1       0.505   1.373  -4.537  0.00  0.00     0.029 A 
ATOM      9  C7A BZF d   1      -0.430   0.438  -4.909  0.00  0.00     0.058 A 
ENDROOT
TORSDOF 0
ENDMDL
