MODEL 1
REMARK minimizedAffinity 26.1010342
REMARK minimizedRMSD -1
REMARK  0 active torsions:
REMARK  status: ('A' for Active; 'I' for Inactive)
ROOT
ATOM      1  C   UNL d   1      -4.836   0.609   5.843  0.00  0.00     0.124 A 
ATOM      2  C1  UNL d   1      -3.631   1.297   5.897  0.00  0.00     0.062 A 
ATOM      3  C2  UNL d   1      -2.426   0.602   5.864  0.00  0.00     0.162 A 
ATOM      4  C3  UNL d   1      -2.419  -0.790   5.776  0.00  0.00    -0.034 A 
ATOM      5  C4  UNL d   1      -3.634  -1.475   5.724  0.00  0.00     0.162 A 
ATOM      6  C5  UNL d   1      -4.836  -0.776   5.756  0.00  0.00     0.062 A 
ATOM      7  F   UNL d   1      -5.998  -1.442   5.704  0.00  0.00    -0.097 F 
ATOM      8  F1  UNL d   1      -3.663  -2.814   5.639  0.00  0.00    -0.096 F 
ATOM      9  I   UNL d   1      -0.618  -1.834   5.728  0.00  0.00    -0.060 I 
ATOM     10  F2  UNL d   1      -1.277   1.292   5.918  0.00  0.00    -0.096 F 
ATOM     11  F3  UNL d   1      -3.628   2.635   5.981  0.00  0.00    -0.097 F 
ATOM     12  F4  UNL d   1      -5.994   1.281   5.875  0.00  0.00    -0.092 F 
ENDROOT
TORSDOF 0
ENDMDL
