MODEL 1
REMARK minimizedAffinity 30.282505
REMARK minimizedRMSD -1
REMARK  0 active torsions:
REMARK  status: ('A' for Active; 'I' for Inactive)
ROOT
ATOM      1  C   UNL d   1      -2.819  -0.714  -1.758  0.00  0.00     0.124 A 
ATOM      2  C1  UNL d   1      -1.483  -0.974  -2.029  0.00  0.00     0.062 A 
ATOM      3  C2  UNL d   1      -0.762  -0.133  -2.872  0.00  0.00     0.162 A 
ATOM      4  C3  UNL d   1      -1.376   0.978  -3.450  0.00  0.00    -0.034 A 
ATOM      5  C4  UNL d   1      -2.720   1.233  -3.174  0.00  0.00     0.162 A 
ATOM      6  C5  UNL d   1      -3.436   0.390  -2.331  0.00  0.00     0.062 A 
ATOM      7  F   UNL d   1      -4.727   0.643  -2.070  0.00  0.00    -0.097 F 
ATOM      8  F1  UNL d   1      -3.341   2.293  -3.712  0.00  0.00    -0.096 F 
ATOM      9  I   UNL d   1      -0.302   2.238  -4.710  0.00  0.00    -0.060 I 
ATOM     10  F2  UNL d   1       0.528  -0.409  -3.116  0.00  0.00    -0.096 F 
ATOM     11  F3  UNL d   1      -0.884  -2.040  -1.478  0.00  0.00    -0.097 F 
ATOM     12  F4  UNL d   1      -3.510  -1.525  -0.948  0.00  0.00    -0.092 F 
ENDROOT
TORSDOF 0
ENDMDL
