MODEL 1
REMARK minimizedAffinity 24.2355213
REMARK minimizedRMSD -1
REMARK  0 active torsions:
REMARK  status: ('A' for Active; 'I' for Inactive)
ROOT
ATOM      1  C   UNL d   1       0.960  -1.132  -2.918  0.00  0.00     0.124 A 
ATOM      2  C1  UNL d   1       0.256  -0.228  -2.134  0.00  0.00     0.062 A 
ATOM      3  C2  UNL d   1       0.923   0.817  -1.501  0.00  0.00     0.162 A 
ATOM      4  C3  UNL d   1       2.302   0.964  -1.649  0.00  0.00    -0.034 A 
ATOM      5  C4  UNL d   1       3.003   0.051  -2.438  0.00  0.00     0.162 A 
ATOM      6  C5  UNL d   1       2.333  -0.992  -3.069  0.00  0.00     0.062 A 
ATOM      7  F   UNL d   1       3.014  -1.865  -3.825  0.00  0.00    -0.097 F 
ATOM      8  F1  UNL d   1       4.330   0.163  -2.602  0.00  0.00    -0.096 F 
ATOM      9  I   UNL d   1       3.303   2.526  -0.704  0.00  0.00    -0.060 I 
ATOM     10  F2  UNL d   1       0.218   1.676  -0.750  0.00  0.00    -0.096 F 
ATOM     11  F3  UNL d   1      -1.069  -0.362  -1.986  0.00  0.00    -0.097 F 
ATOM     12  F4  UNL d   1       0.316  -2.137  -3.525  0.00  0.00    -0.092 F 
ENDROOT
TORSDOF 0
ENDMDL
