MODEL 1
REMARK minimizedAffinity 11.1333828
REMARK minimizedRMSD -1
REMARK  0 active torsions:
REMARK  status: ('A' for Active; 'I' for Inactive)
ROOT
ATOM      1  C   UNL d   1      -0.508  -3.955   0.406  0.00  0.00     0.124 A 
ATOM      2  C1  UNL d   1      -0.771  -4.712   1.539  0.00  0.00     0.062 A 
ATOM      3  C2  UNL d   1      -1.419  -4.138   2.630  0.00  0.00     0.162 A 
ATOM      4  C3  UNL d   1      -1.808  -2.799   2.592  0.00  0.00    -0.034 A 
ATOM      5  C4  UNL d   1      -1.538  -2.044   1.450  0.00  0.00     0.162 A 
ATOM      6  C5  UNL d   1      -0.891  -2.622   0.363  0.00  0.00     0.062 A 
ATOM      7  F   UNL d   1      -0.637  -1.889  -0.731  0.00  0.00    -0.097 F 
ATOM      8  F1  UNL d   1      -1.899  -0.754   1.380  0.00  0.00    -0.096 F 
ATOM      9  I   UNL d   1      -2.776  -1.937   4.221  0.00  0.00    -0.060 I 
ATOM     10  F2  UNL d   1      -1.661  -4.894   3.711  0.00  0.00    -0.096 F 
ATOM     11  F3  UNL d   1      -0.401  -6.000   1.584  0.00  0.00    -0.097 F 
ATOM     12  F4  UNL d   1       0.116  -4.509  -0.641  0.00  0.00    -0.092 F 
ENDROOT
TORSDOF 0
ENDMDL
