MODEL 1
REMARK minimizedAffinity 33.6274414
REMARK minimizedRMSD -1
REMARK  0 active torsions:
REMARK  status: ('A' for Active; 'I' for Inactive)
ROOT
ATOM      1  C   UNL d   1       2.733   2.182  -0.388  0.00  0.00     0.124 A 
ATOM      2  C1  UNL d   1       3.924   2.887  -0.503  0.00  0.00     0.062 A 
ATOM      3  C2  UNL d   1       4.858   2.529  -1.471  0.00  0.00     0.162 A 
ATOM      4  C3  UNL d   1       4.605   1.462  -2.333  0.00  0.00    -0.034 A 
ATOM      5  C4  UNL d   1       3.406   0.758  -2.211  0.00  0.00     0.162 A 
ATOM      6  C5  UNL d   1       2.476   1.119  -1.242  0.00  0.00     0.062 A 
ATOM      7  F   UNL d   1       1.326   0.437  -1.132  0.00  0.00    -0.097 F 
ATOM      8  F1  UNL d   1       3.131  -0.274  -3.023  0.00  0.00    -0.096 F 
ATOM      9  I   UNL d   1       6.000   0.924  -3.781  0.00  0.00    -0.060 I 
ATOM     10  F2  UNL d   1       6.000   3.227  -1.559  0.00  0.00    -0.096 F 
ATOM     11  F3  UNL d   1       4.176   3.914   0.321  0.00  0.00    -0.097 F 
ATOM     12  F4  UNL d   1       1.836   2.528   0.544  0.00  0.00    -0.092 F 
ENDROOT
TORSDOF 0
ENDMDL
