MODEL 1
REMARK minimizedAffinity 21.7127075
REMARK minimizedRMSD -1
REMARK  0 active torsions:
REMARK  status: ('A' for Active; 'I' for Inactive)
ROOT
ATOM      1  C   UNL d   1      -2.877  -0.070  -2.400  0.00  0.00     0.124 A 
ATOM      2  C1  UNL d   1      -3.462  -0.559  -1.240  0.00  0.00     0.062 A 
ATOM      3  C2  UNL d   1      -2.790  -1.496  -0.459  0.00  0.00     0.162 A 
ATOM      4  C3  UNL d   1      -1.526  -1.948  -0.835  0.00  0.00    -0.034 A 
ATOM      5  C4  UNL d   1      -0.945  -1.452  -2.004  0.00  0.00     0.162 A 
ATOM      6  C5  UNL d   1      -1.620  -0.516  -2.780  0.00  0.00     0.062 A 
ATOM      7  F   UNL d   1      -1.054  -0.044  -3.901  0.00  0.00    -0.097 F 
ATOM      8  F1  UNL d   1       0.270  -1.866  -2.394  0.00  0.00    -0.096 F 
ATOM      9  I   UNL d   1      -0.518  -3.348   0.330  0.00  0.00    -0.060 I 
ATOM     10  F2  UNL d   1      -3.379  -1.952   0.656  0.00  0.00    -0.096 F 
ATOM     11  F3  UNL d   1      -4.677  -0.130  -0.871  0.00  0.00    -0.097 F 
ATOM     12  F4  UNL d   1      -3.526   0.830  -3.150  0.00  0.00    -0.092 F 
ENDROOT
TORSDOF 0
ENDMDL
