MODEL 1
REMARK minimizedAffinity 23.4337463
REMARK minimizedRMSD -1
REMARK  0 active torsions:
REMARK  status: ('A' for Active; 'I' for Inactive)
ROOT
ATOM      1  C   UNL d   1       3.754  -0.426  -3.651  0.00  0.00     0.124 A 
ATOM      2  C1  UNL d   1       2.610  -0.204  -2.895  0.00  0.00     0.062 A 
ATOM      3  C2  UNL d   1       2.599   0.787  -1.917  0.00  0.00     0.162 A 
ATOM      4  C3  UNL d   1       3.734   1.564  -1.689  0.00  0.00    -0.034 A 
ATOM      5  C4  UNL d   1       4.881   1.334  -2.452  0.00  0.00     0.162 A 
ATOM      6  C5  UNL d   1       4.887   0.343  -3.428  0.00  0.00     0.062 A 
ATOM      7  F   UNL d   1       5.993   0.130  -4.157  0.00  0.00    -0.097 F 
ATOM      8  F1  UNL d   1       5.990   2.063  -2.259  0.00  0.00    -0.096 F 
ATOM      9  I   UNL d   1       3.721   3.046  -0.228  0.00  0.00    -0.060 I 
ATOM     10  F2  UNL d   1       1.480   0.979  -1.203  0.00  0.00    -0.096 F 
ATOM     11  F3  UNL d   1       1.514  -0.946  -3.107  0.00  0.00    -0.097 F 
ATOM     12  F4  UNL d   1       3.762  -1.380  -4.590  0.00  0.00    -0.092 F 
ENDROOT
TORSDOF 0
ENDMDL
