MODEL 1
REMARK minimizedAffinity 18.9816284
REMARK minimizedRMSD -1
REMARK  0 active torsions:
REMARK  status: ('A' for Active; 'I' for Inactive)
ROOT
ATOM      1  C   UNL d   1       1.409  -0.007  -2.050  0.00  0.00     0.124 A 
ATOM      2  C1  UNL d   1       2.276   0.979  -1.600  0.00  0.00     0.062 A 
ATOM      3  C2  UNL d   1       3.587   1.025  -2.065  0.00  0.00     0.162 A 
ATOM      4  C3  UNL d   1       4.040   0.081  -2.987  0.00  0.00    -0.034 A 
ATOM      5  C4  UNL d   1       3.163  -0.908  -3.435  0.00  0.00     0.162 A 
ATOM      6  C5  UNL d   1       1.853  -0.950  -2.967  0.00  0.00     0.062 A 
ATOM      7  F   UNL d   1       1.018  -1.903  -3.403  0.00  0.00    -0.097 F 
ATOM      8  F1  UNL d   1       3.565  -1.831  -4.321  0.00  0.00    -0.096 F 
ATOM      9  I   UNL d   1       5.999   0.146  -3.685  0.00  0.00    -0.060 I 
ATOM     10  F2  UNL d   1       4.402   1.989  -1.613  0.00  0.00    -0.096 F 
ATOM     11  F3  UNL d   1       1.850   1.891  -0.714  0.00  0.00    -0.097 F 
ATOM     12  F4  UNL d   1       0.149  -0.049  -1.601  0.00  0.00    -0.092 F 
ENDROOT
TORSDOF 0
ENDMDL
