MODEL 1
REMARK minimizedAffinity 31.0590076
REMARK minimizedRMSD -1
REMARK  0 active torsions:
REMARK  status: ('A' for Active; 'I' for Inactive)
ROOT
ATOM      1  C   UNL d   1       2.335   1.960  -1.389  0.00  0.00     0.124 A 
ATOM      2  C1  UNL d   1       2.311   0.622  -1.022  0.00  0.00     0.062 A 
ATOM      3  C2  UNL d   1       2.888   0.214   0.177  0.00  0.00     0.162 A 
ATOM      4  C3  UNL d   1       3.493   1.146   1.019  0.00  0.00    -0.034 A 
ATOM      5  C4  UNL d   1       3.514   2.491   0.643  0.00  0.00     0.162 A 
ATOM      6  C5  UNL d   1       2.936   2.893  -0.556  0.00  0.00     0.062 A 
ATOM      7  F   UNL d   1       2.961   4.187  -0.909  0.00  0.00    -0.097 F 
ATOM      8  F1  UNL d   1       4.088   3.413   1.430  0.00  0.00    -0.096 F 
ATOM      9  I   UNL d   1       4.357   0.541   2.813  0.00  0.00    -0.060 I 
ATOM     10  F2  UNL d   1       2.850  -1.086   0.506  0.00  0.00    -0.096 F 
ATOM     11  F3  UNL d   1       1.731  -0.282  -1.826  0.00  0.00    -0.097 F 
ATOM     12  F4  UNL d   1       1.780   2.350  -2.544  0.00  0.00    -0.092 F 
ENDROOT
TORSDOF 0
ENDMDL
