MODEL 1
REMARK minimizedAffinity 18.0084209
REMARK minimizedRMSD -1
REMARK  0 active torsions:
REMARK  status: ('A' for Active; 'I' for Inactive)
ROOT
ATOM      1  C   UNL d   1      -4.112   2.379  -1.674  0.00  0.00     0.124 A 
ATOM      2  C1  UNL d   1      -4.844   2.093  -0.530  0.00  0.00     0.062 A 
ATOM      3  C2  UNL d   1      -5.294   3.125   0.289  0.00  0.00     0.162 A 
ATOM      4  C3  UNL d   1      -5.014   4.453  -0.034  0.00  0.00    -0.034 A 
ATOM      5  C4  UNL d   1      -4.276   4.732  -1.186  0.00  0.00     0.162 A 
ATOM      6  C5  UNL d   1      -3.829   3.697  -2.001  0.00  0.00     0.062 A 
ATOM      7  F   UNL d   1      -3.122   3.975  -3.106  0.00  0.00    -0.097 F 
ATOM      8  F1  UNL d   1      -3.989   5.997  -1.527  0.00  0.00    -0.096 F 
ATOM      9  I   UNL d   1      -5.685   5.999   1.187  0.00  0.00    -0.060 I 
ATOM     10  F2  UNL d   1      -5.999   2.820   1.388  0.00  0.00    -0.096 F 
ATOM     11  F3  UNL d   1      -5.118   0.820  -0.211  0.00  0.00    -0.097 F 
ATOM     12  F4  UNL d   1      -3.679   1.384  -2.459  0.00  0.00    -0.092 F 
ENDROOT
TORSDOF 0
ENDMDL
