MODEL 1
REMARK minimizedAffinity 12.1360722
REMARK minimizedRMSD -1
REMARK  0 active torsions:
REMARK  status: ('A' for Active; 'I' for Inactive)
ROOT
ATOM      1  C   UNL d   1       2.760   2.017  -0.514  0.00  0.00     0.124 A 
ATOM      2  C1  UNL d   1       2.626   0.904  -1.333  0.00  0.00     0.062 A 
ATOM      3  C2  UNL d   1       3.549   0.666  -2.347  0.00  0.00     0.162 A 
ATOM      4  C3  UNL d   1       4.616   1.542  -2.547  0.00  0.00    -0.034 A 
ATOM      5  C4  UNL d   1       4.744   2.659  -1.720  0.00  0.00     0.162 A 
ATOM      6  C5  UNL d   1       3.819   2.893  -0.709  0.00  0.00     0.062 A 
ATOM      7  F   UNL d   1       3.950   3.969   0.082  0.00  0.00    -0.097 F 
ATOM      8  F1  UNL d   1       5.758   3.522  -1.885  0.00  0.00    -0.096 F 
ATOM      9  I   UNL d   1       5.999   1.189  -4.062  0.00  0.00    -0.060 I 
ATOM     10  F2  UNL d   1       3.395  -0.417  -3.123  0.00  0.00    -0.096 F 
ATOM     11  F3  UNL d   1       1.604   0.057  -1.148  0.00  0.00    -0.097 F 
ATOM     12  F4  UNL d   1       1.870   2.245   0.460  0.00  0.00    -0.092 F 
ENDROOT
TORSDOF 0
ENDMDL
