MODEL 1
REMARK minimizedAffinity 26.239378
REMARK minimizedRMSD -1
REMARK  0 active torsions:
REMARK  status: ('A' for Active; 'I' for Inactive)
ROOT
ATOM      1  C   UNL d   1       2.569   1.897  -0.426  0.00  0.00     0.124 A 
ATOM      2  C1  UNL d   1       3.817   2.505  -0.430  0.00  0.00     0.062 A 
ATOM      3  C2  UNL d   1       4.798   2.083  -1.323  0.00  0.00     0.162 A 
ATOM      4  C3  UNL d   1       4.535   1.047  -2.220  0.00  0.00    -0.034 A 
ATOM      5  C4  UNL d   1       3.278   0.440  -2.209  0.00  0.00     0.162 A 
ATOM      6  C5  UNL d   1       2.301   0.866  -1.314  0.00  0.00     0.062 A 
ATOM      7  F   UNL d   1       1.096   0.277  -1.311  0.00  0.00    -0.097 F 
ATOM      8  F1  UNL d   1       2.991  -0.558  -3.057  0.00  0.00    -0.096 F 
ATOM      9  I   UNL d   1       5.998   0.413  -3.556  0.00  0.00    -0.060 I 
ATOM     10  F2  UNL d   1       5.995   2.688  -1.306  0.00  0.00    -0.096 F 
ATOM     11  F3  UNL d   1       4.079   3.501   0.428  0.00  0.00    -0.097 F 
ATOM     12  F4  UNL d   1       1.628   2.305   0.435  0.00  0.00    -0.092 F 
ENDROOT
TORSDOF 0
ENDMDL
