MODEL 1
REMARK minimizedAffinity 20.6797829
REMARK minimizedRMSD -1
REMARK  0 active torsions:
REMARK  status: ('A' for Active; 'I' for Inactive)
ROOT
ATOM      1  C   UNL d   1      -0.861  -3.648  -0.025  0.00  0.00     0.124 A 
ATOM      2  C1  UNL d   1      -0.682  -4.296   1.190  0.00  0.00     0.062 A 
ATOM      3  C2  UNL d   1      -1.164  -3.726   2.364  0.00  0.00     0.162 A 
ATOM      4  C3  UNL d   1      -1.831  -2.502   2.331  0.00  0.00    -0.034 A 
ATOM      5  C4  UNL d   1      -2.007  -1.856   1.106  0.00  0.00     0.162 A 
ATOM      6  C5  UNL d   1      -1.524  -2.429  -0.066  0.00  0.00     0.062 A 
ATOM      7  F   UNL d   1      -1.698  -1.802  -1.238  0.00  0.00    -0.097 F 
ATOM      8  F1  UNL d   1      -2.644  -0.678   1.037  0.00  0.00    -0.096 F 
ATOM      9  I   UNL d   1      -2.553  -1.647   4.086  0.00  0.00    -0.060 I 
ATOM     10  F2  UNL d   1      -0.976  -4.374   3.524  0.00  0.00    -0.096 F 
ATOM     11  F3  UNL d   1      -0.041  -5.473   1.232  0.00  0.00    -0.097 F 
ATOM     12  F4  UNL d   1      -0.396  -4.198  -1.154  0.00  0.00    -0.092 F 
ENDROOT
TORSDOF 0
ENDMDL
