MODEL 1
REMARK minimizedAffinity 30.8533878
REMARK minimizedRMSD -1
REMARK  0 active torsions:
REMARK  status: ('A' for Active; 'I' for Inactive)
ROOT
ATOM      1  C   UNL d   1       3.939   3.105   0.123  0.00  0.00     0.124 A 
ATOM      2  C1  UNL d   1       4.983   3.019  -0.787  0.00  0.00     0.062 A 
ATOM      3  C2  UNL d   1       4.978   2.030  -1.767  0.00  0.00     0.162 A 
ATOM      4  C3  UNL d   1       3.924   1.119  -1.842  0.00  0.00    -0.034 A 
ATOM      5  C4  UNL d   1       2.878   1.211  -0.922  0.00  0.00     0.162 A 
ATOM      6  C5  UNL d   1       2.888   2.201   0.055  0.00  0.00     0.062 A 
ATOM      7  F   UNL d   1       1.878   2.282   0.934  0.00  0.00    -0.097 F 
ATOM      8  F1  UNL d   1       1.849   0.352  -0.966  0.00  0.00    -0.096 F 
ATOM      9  I   UNL d   1       3.913  -0.360  -3.306  0.00  0.00    -0.060 I 
ATOM     10  F2  UNL d   1       6.000   1.971  -2.634  0.00  0.00    -0.096 F 
ATOM     11  F3  UNL d   1       6.000   3.890  -0.723  0.00  0.00    -0.097 F 
ATOM     12  F4  UNL d   1       3.947   4.056   1.065  0.00  0.00    -0.092 F 
ENDROOT
TORSDOF 0
ENDMDL
