MODEL 1
REMARK minimizedAffinity 22.8168774
REMARK minimizedRMSD -1
REMARK  0 active torsions:
REMARK  status: ('A' for Active; 'I' for Inactive)
ROOT
ATOM      1  C   UNL d   1       4.002   3.432   0.022  0.00  0.00     0.124 A 
ATOM      2  C1  UNL d   1       4.995   3.342  -0.943  0.00  0.00     0.062 A 
ATOM      3  C2  UNL d   1       4.954   2.329  -1.897  0.00  0.00     0.162 A 
ATOM      4  C3  UNL d   1       3.915   1.399  -1.892  0.00  0.00    -0.034 A 
ATOM      5  C4  UNL d   1       2.920   1.496  -0.918  0.00  0.00     0.162 A 
ATOM      6  C5  UNL d   1       2.965   2.510   0.034  0.00  0.00     0.062 A 
ATOM      7  F   UNL d   1       2.005   2.596   0.965  0.00  0.00    -0.097 F 
ATOM      8  F1  UNL d   1       1.906   0.618  -0.883  0.00  0.00    -0.096 F 
ATOM      9  I   UNL d   1       3.849  -0.117  -3.317  0.00  0.00    -0.060 I 
ATOM     10  F2  UNL d   1       5.928   2.265  -2.818  0.00  0.00    -0.096 F 
ATOM     11  F3  UNL d   1       5.999   4.231  -0.957  0.00  0.00    -0.097 F 
ATOM     12  F4  UNL d   1       4.045   4.407   0.939  0.00  0.00    -0.092 F 
ENDROOT
TORSDOF 0
ENDMDL
