MODEL 1
REMARK minimizedAffinity 23.4006443
REMARK minimizedRMSD -1
REMARK  0 active torsions:
REMARK  status: ('A' for Active; 'I' for Inactive)
ROOT
ATOM      1  C   UNL d   1      -0.065  -4.681  -0.723  0.00  0.00     0.124 A 
ATOM      2  C1  UNL d   1      -0.178  -3.428  -0.136  0.00  0.00     0.062 A 
ATOM      3  C2  UNL d   1      -0.168  -2.282  -0.925  0.00  0.00     0.162 A 
ATOM      4  C3  UNL d   1      -0.045  -2.382  -2.311  0.00  0.00    -0.034 A 
ATOM      5  C4  UNL d   1       0.069  -3.645  -2.894  0.00  0.00     0.162 A 
ATOM      6  C5  UNL d   1       0.059  -4.788  -2.101  0.00  0.00     0.062 A 
ATOM      7  F   UNL d   1       0.168  -5.997  -2.671  0.00  0.00    -0.097 F 
ATOM      8  F1  UNL d   1       0.188  -3.778  -4.224  0.00  0.00    -0.096 F 
ATOM      9  I   UNL d   1      -0.030  -0.670  -3.494  0.00  0.00    -0.060 I 
ATOM     10  F2  UNL d   1      -0.279  -1.084  -0.331  0.00  0.00    -0.096 F 
ATOM     11  F3  UNL d   1      -0.296  -3.322   1.195  0.00  0.00    -0.097 F 
ATOM     12  F4  UNL d   1      -0.074  -5.782   0.038  0.00  0.00    -0.092 F 
ENDROOT
TORSDOF 0
ENDMDL
