MODEL 1
REMARK minimizedAffinity 17.5907612
REMARK minimizedRMSD -1
REMARK  0 active torsions:
REMARK  status: ('A' for Active; 'I' for Inactive)
ROOT
ATOM      1  C   UNL d   1      -1.882  -4.263   2.602  0.00  0.00     0.124 A 
ATOM      2  C1  UNL d   1      -1.189  -4.761   1.507  0.00  0.00     0.062 A 
ATOM      3  C2  UNL d   1      -1.025  -3.979   0.368  0.00  0.00     0.162 A 
ATOM      4  C3  UNL d   1      -1.554  -2.689   0.318  0.00  0.00    -0.034 A 
ATOM      5  C4  UNL d   1      -2.250  -2.195   1.423  0.00  0.00     0.162 A 
ATOM      6  C5  UNL d   1      -2.411  -2.981   2.559  0.00  0.00     0.062 A 
ATOM      7  F   UNL d   1      -3.080  -2.498   3.616  0.00  0.00    -0.097 F 
ATOM      8  F1  UNL d   1      -2.771  -0.959   1.408  0.00  0.00    -0.096 F 
ATOM      9  I   UNL d   1      -1.310  -1.516  -1.384  0.00  0.00    -0.060 I 
ATOM     10  F2  UNL d   1      -0.352  -4.486  -0.675  0.00  0.00    -0.096 F 
ATOM     11  F3  UNL d   1      -0.678  -6.000   1.546  0.00  0.00    -0.097 F 
ATOM     12  F4  UNL d   1      -2.039  -5.018   3.697  0.00  0.00    -0.092 F 
ENDROOT
TORSDOF 0
ENDMDL
