MODEL 1
REMARK minimizedAffinity 4.14026642
REMARK minimizedRMSD -1
REMARK  1 active torsions:
REMARK  status: ('A' for Active; 'I' for Inactive)
REMARK    1  A    between atoms: N_2  and  C1_3 
ROOT
ATOM      1  C1  UNL d   1      -1.988  -2.619  -3.336  0.00  0.00     0.143 A 
ATOM      2  C2  UNL d   1      -3.105  -3.450  -3.196  0.00  0.00    -0.057 A 
ATOM      3  C3  UNL d   1      -3.800  -3.532  -1.983  0.00  0.00     0.033 A 
ATOM      4  C4  UNL d   1      -3.371  -2.805  -0.877  0.00  0.00    -0.042 A 
ATOM      5  C5  UNL d   1      -2.249  -1.993  -0.987  0.00  0.00     0.033 A 
ATOM      6  C6  UNL d   1      -1.563  -1.909  -2.203  0.00  0.00    -0.057 A 
ENDROOT
BRANCH   1   7
ATOM      7  N   UNL d   1      -1.197  -2.569  -4.486  0.00  0.00    -0.732 N 
ATOM      8  C   UNL d   1      -1.798  -2.362  -5.786  0.00  0.00     0.284 C 
ATOM      9  H3  UNL d   1      -0.333  -2.051  -4.341  0.00  0.00     0.395 HD
ENDBRANCH   1   7
TORSDOF 1
ENDMDL
