MODEL 1
REMARK minimizedAffinity 10.3198576
REMARK minimizedRMSD -1
REMARK  1 active torsions:
REMARK  status: ('A' for Active; 'I' for Inactive)
REMARK    1  A    between atoms: N_2  and  C1_3 
ROOT
ATOM      1  C1  UNL d   1       3.784   1.473  -0.970  0.00  0.00     0.143 A 
ATOM      2  C2  UNL d   1       3.877   0.336  -0.160  0.00  0.00    -0.057 A 
ATOM      3  C3  UNL d   1       3.087   0.196   0.987  0.00  0.00     0.033 A 
ATOM      4  C4  UNL d   1       2.207   1.206   1.361  0.00  0.00    -0.042 A 
ATOM      5  C5  UNL d   1       2.116   2.356   0.585  0.00  0.00     0.033 A 
ATOM      6  C6  UNL d   1       2.903   2.488  -0.563  0.00  0.00    -0.057 A 
ENDROOT
BRANCH   1   7
ATOM      7  N   UNL d   1       4.613   1.716  -2.069  0.00  0.00    -0.732 N 
ATOM      8  C   UNL d   1       4.064   1.781  -3.406  0.00  0.00     0.284 C 
ATOM      9  H3  UNL d   1       5.319   2.422  -1.874  0.00  0.00     0.395 HD
ENDBRANCH   1   7
TORSDOF 1
ENDMDL
