MODEL 1
REMARK minimizedAffinity 5.32019806
REMARK minimizedRMSD -1
REMARK  1 active torsions:
REMARK  status: ('A' for Active; 'I' for Inactive)
REMARK    1  A    between atoms: N_2  and  C1_3 
ROOT
ATOM      1  C1  UNL d   1       2.500   0.849   1.270  0.00  0.00     0.143 A 
ATOM      2  C2  UNL d   1       1.321   0.444   1.905  0.00  0.00    -0.057 A 
ATOM      3  C3  UNL d   1       0.373   1.378   2.340  0.00  0.00     0.033 A 
ATOM      4  C4  UNL d   1       0.601   2.740   2.172  0.00  0.00    -0.042 A 
ATOM      5  C5  UNL d   1       1.778   3.166   1.566  0.00  0.00     0.033 A 
ATOM      6  C6  UNL d   1       2.718   2.228   1.128  0.00  0.00    -0.057 A 
ENDROOT
BRANCH   1   7
ATOM      7  N   UNL d   1       3.526  -0.026   0.904  0.00  0.00    -0.732 N 
ATOM      8  C   UNL d   1       4.688  -0.194   1.750  0.00  0.00     0.284 C 
ATOM      9  H3  UNL d   1       3.173  -0.893   0.505  0.00  0.00     0.395 HD
ENDBRANCH   1   7
TORSDOF 1
ENDMDL
