MODEL 1
REMARK minimizedAffinity 9.1509819
REMARK minimizedRMSD -1
REMARK  1 active torsions:
REMARK  status: ('A' for Active; 'I' for Inactive)
REMARK    1  A    between atoms: N_2  and  C1_3 
ROOT
ATOM      1  C1  UNL d   1       2.926   3.560  -4.240  0.00  0.00     0.143 A 
ATOM      2  C2  UNL d   1       3.358   4.794  -3.742  0.00  0.00    -0.057 A 
ATOM      3  C3  UNL d   1       2.940   5.998  -4.323  0.00  0.00     0.033 A 
ATOM      4  C4  UNL d   1       2.101   5.987  -5.433  0.00  0.00    -0.042 A 
ATOM      5  C5  UNL d   1       1.679   4.771  -5.959  0.00  0.00     0.033 A 
ATOM      6  C6  UNL d   1       2.096   3.573  -5.371  0.00  0.00    -0.057 A 
ENDROOT
BRANCH   1   7
ATOM      7  N   UNL d   1       3.385   2.328  -3.768  0.00  0.00    -0.732 N 
ATOM      8  C   UNL d   1       4.433   2.263  -2.772  0.00  0.00     0.284 C 
ATOM      9  H3  UNL d   1       2.630   1.663  -3.620  0.00  0.00     0.395 HD
ENDBRANCH   1   7
TORSDOF 1
ENDMDL
