MODEL 1
REMARK minimizedAffinity 11.7376003
REMARK minimizedRMSD -1
REMARK  1 active torsions:
REMARK  status: ('A' for Active; 'I' for Inactive)
REMARK    1  A    between atoms: N_2  and  C1_3 
ROOT
ATOM      1  C1  UNL d   1      -4.170  -0.009   4.030  0.00  0.00     0.143 A 
ATOM      2  C2  UNL d   1      -4.915   0.644   5.018  0.00  0.00    -0.057 A 
ATOM      3  C3  UNL d   1      -5.611  -0.076   5.996  0.00  0.00     0.033 A 
ATOM      4  C4  UNL d   1      -5.598  -1.467   5.987  0.00  0.00    -0.042 A 
ATOM      5  C5  UNL d   1      -4.884  -2.137   5.000  0.00  0.00     0.033 A 
ATOM      6  C6  UNL d   1      -4.186  -1.412   4.029  0.00  0.00    -0.057 A 
ENDROOT
BRANCH   1   7
ATOM      7  N   UNL d   1      -3.537   0.648   2.972  0.00  0.00    -0.732 N 
ATOM      8  C   UNL d   1      -3.362   2.084   2.995  0.00  0.00     0.284 C 
ATOM      9  H3  UNL d   1      -2.729   0.136   2.625  0.00  0.00     0.395 HD
ENDBRANCH   1   7
TORSDOF 1
ENDMDL
