MODEL 1
REMARK minimizedAffinity 3.82175255
REMARK minimizedRMSD -1
REMARK  1 active torsions:
REMARK  status: ('A' for Active; 'I' for Inactive)
REMARK    1  A    between atoms: N_2  and  C1_3 
ROOT
ATOM      1  C1  UNL d   1       3.356   3.746  -4.475  0.00  0.00     0.143 A 
ATOM      2  C2  UNL d   1       4.473   3.919  -5.301  0.00  0.00    -0.057 A 
ATOM      3  C3  UNL d   1       5.719   3.381  -4.958  0.00  0.00     0.033 A 
ATOM      4  C4  UNL d   1       5.878   2.684  -3.765  0.00  0.00    -0.042 A 
ATOM      5  C5  UNL d   1       4.788   2.522  -2.917  0.00  0.00     0.033 A 
ATOM      6  C6  UNL d   1       3.545   3.055  -3.268  0.00  0.00    -0.057 A 
ENDROOT
BRANCH   1   7
ATOM      7  N   UNL d   1       2.114   4.340  -4.713  0.00  0.00    -0.732 N 
ATOM      8  C   UNL d   1       2.016   5.559  -5.487  0.00  0.00     0.284 C 
ATOM      9  H3  UNL d   1       1.390   3.657  -4.920  0.00  0.00     0.395 HD
ENDBRANCH   1   7
TORSDOF 1
ENDMDL
