MODEL 1
REMARK minimizedAffinity 9.78001881
REMARK minimizedRMSD -1
REMARK  1 active torsions:
REMARK  status: ('A' for Active; 'I' for Inactive)
REMARK    1  A    between atoms: N_2  and  C1_3 
ROOT
ATOM      1  C1  UNL d   1      -1.467  -4.263   1.878  0.00  0.00     0.143 A 
ATOM      2  C2  UNL d   1      -1.529  -3.499   0.708  0.00  0.00    -0.057 A 
ATOM      3  C3  UNL d   1      -1.235  -2.130   0.718  0.00  0.00     0.033 A 
ATOM      4  C4  UNL d   1      -0.902  -1.493   1.908  0.00  0.00    -0.042 A 
ATOM      5  C5  UNL d   1      -0.858  -2.227   3.088  0.00  0.00     0.033 A 
ATOM      6  C6  UNL d   1      -1.146  -3.595   3.070  0.00  0.00    -0.057 A 
ENDROOT
BRANCH   1   7
ATOM      7  N   UNL d   1      -1.843  -5.606   1.951  0.00  0.00    -0.732 N 
ATOM      8  C   UNL d   1      -3.222  -5.998   1.751  0.00  0.00     0.284 C 
ATOM      9  H3  UNL d   1      -1.167  -6.223   1.507  0.00  0.00     0.395 HD
ENDBRANCH   1   7
TORSDOF 1
ENDMDL
