MODEL 1
REMARK minimizedAffinity 5.36832666
REMARK minimizedRMSD -1
REMARK  1 active torsions:
REMARK  status: ('A' for Active; 'I' for Inactive)
REMARK    1  A    between atoms: N_2  and  C1_3 
ROOT
ATOM      1  C1  UNL d   1       2.576   1.684  -1.562  0.00  0.00     0.143 A 
ATOM      2  C2  UNL d   1       1.571   2.077  -0.671  0.00  0.00    -0.057 A 
ATOM      3  C3  UNL d   1       1.518   1.569   0.632  0.00  0.00     0.033 A 
ATOM      4  C4  UNL d   1       2.455   0.634   1.060  0.00  0.00    -0.042 A 
ATOM      5  C5  UNL d   1       3.447   0.211   0.184  0.00  0.00     0.033 A 
ATOM      6  C6  UNL d   1       3.499   0.726  -1.115  0.00  0.00    -0.057 A 
ENDROOT
BRANCH   1   7
ATOM      7  N   UNL d   1       2.625   2.078  -2.902  0.00  0.00    -0.732 N 
ATOM      8  C   UNL d   1       1.655   3.012  -3.431  0.00  0.00     0.284 C 
ATOM      9  H3  UNL d   1       3.577   2.238  -3.225  0.00  0.00     0.395 HD
ENDBRANCH   1   7
TORSDOF 1
ENDMDL
