MODEL 1
REMARK minimizedAffinity 6.44683933
REMARK minimizedRMSD -1
REMARK  1 active torsions:
REMARK  status: ('A' for Active; 'I' for Inactive)
REMARK    1  A    between atoms: N_2  and  C1_3 
ROOT
ATOM      1  C1  UNL d   1       2.937   1.680  -0.134  0.00  0.00     0.143 A 
ATOM      2  C2  UNL d   1       3.148   0.445   0.488  0.00  0.00    -0.057 A 
ATOM      3  C3  UNL d   1       2.380   0.045   1.589  0.00  0.00     0.033 A 
ATOM      4  C4  UNL d   1       1.404   0.890   2.107  0.00  0.00    -0.042 A 
ATOM      5  C5  UNL d   1       1.194   2.133   1.521  0.00  0.00     0.033 A 
ATOM      6  C6  UNL d   1       1.960   2.523   0.417  0.00  0.00    -0.057 A 
ENDROOT
BRANCH   1   7
ATOM      7  N   UNL d   1       3.733   2.175  -1.169  0.00  0.00    -0.732 N 
ATOM      8  C   UNL d   1       3.525   1.737  -2.533  0.00  0.00     0.284 C 
ATOM      9  H3  UNL d   1       3.915   3.172  -1.076  0.00  0.00     0.395 HD
ENDBRANCH   1   7
TORSDOF 1
ENDMDL
