MODEL 1
REMARK minimizedAffinity -1.89970028
REMARK minimizedRMSD -1
REMARK  1 active torsions:
REMARK  status: ('A' for Active; 'I' for Inactive)
REMARK    1  A    between atoms: N_2  and  C1_3 
ROOT
ATOM      1  C1  UNL d   1       3.523   3.077  -5.487  0.00  0.00     0.143 A 
ATOM      2  C2  UNL d   1       4.683   3.753  -5.881  0.00  0.00    -0.057 A 
ATOM      3  C3  UNL d   1       5.914   3.505  -5.260  0.00  0.00     0.033 A 
ATOM      4  C4  UNL d   1       6.000   2.595  -4.212  0.00  0.00    -0.042 A 
ATOM      5  C5  UNL d   1       4.855   1.930  -3.788  0.00  0.00     0.033 A 
ATOM      6  C6  UNL d   1       3.630   2.177  -4.416  0.00  0.00    -0.057 A 
ENDROOT
BRANCH   1   7
ATOM      7  N   UNL d   1       2.252   3.351  -5.999  0.00  0.00    -0.732 N 
ATOM      8  C   UNL d   1       1.551   4.560  -5.623  0.00  0.00     0.284 C 
ATOM      9  H3  UNL d   1       2.171   3.113  -6.985  0.00  0.00     0.395 HD
ENDBRANCH   1   7
TORSDOF 1
ENDMDL
