MODEL 1
REMARK minimizedAffinity 1.41160417
REMARK minimizedRMSD -1
REMARK  1 active torsions:
REMARK  status: ('A' for Active; 'I' for Inactive)
REMARK    1  A    between atoms: N_2  and  C1_3 
ROOT
ATOM      1  C1  UNL d   1       5.911   4.134  -4.881  0.00  0.00     0.143 A 
ATOM      2  C2  UNL d   1       5.954   4.381  -3.505  0.00  0.00    -0.057 A 
ATOM      3  C3  UNL d   1       5.989   3.331  -2.579  0.00  0.00     0.033 A 
ATOM      4  C4  UNL d   1       5.952   2.010  -3.015  0.00  0.00    -0.042 A 
ATOM      5  C5  UNL d   1       5.885   1.741  -4.377  0.00  0.00     0.033 A 
ATOM      6  C6  UNL d   1       5.857   2.794  -5.297  0.00  0.00    -0.057 A 
ENDROOT
BRANCH   1   7
ATOM      7  N   UNL d   1       5.775   5.134  -5.847  0.00  0.00    -0.732 N 
ATOM      8  C   UNL d   1       4.605   5.986  -5.867  0.00  0.00     0.284 C 
ATOM      9  H3  UNL d   1       6.649   5.624  -6.024  0.00  0.00     0.395 HD
ENDBRANCH   1   7
TORSDOF 1
ENDMDL
