MODEL 1
REMARK minimizedAffinity 3.05770922
REMARK minimizedRMSD -1
REMARK  1 active torsions:
REMARK  status: ('A' for Active; 'I' for Inactive)
REMARK    1  A    between atoms: N_2  and  C1_3 
ROOT
ATOM      1  C1  UNL d   1       5.340   3.423  -4.981  0.00  0.00     0.143 A 
ATOM      2  C2  UNL d   1       4.124   2.758  -5.166  0.00  0.00    -0.057 A 
ATOM      3  C3  UNL d   1       3.562   1.976  -4.150  0.00  0.00     0.033 A 
ATOM      4  C4  UNL d   1       4.224   1.822  -2.936  0.00  0.00    -0.042 A 
ATOM      5  C5  UNL d   1       5.447   2.454  -2.739  0.00  0.00     0.033 A 
ATOM      6  C6  UNL d   1       5.999   3.239  -3.756  0.00  0.00    -0.057 A 
ENDROOT
BRANCH   1   7
ATOM      7  N   UNL d   1       5.998   4.135  -5.988  0.00  0.00    -0.732 N 
ATOM      8  C   UNL d   1       5.991   5.582  -5.992  0.00  0.00     0.284 C 
ATOM      9  H3  UNL d   1       6.896   3.723  -6.231  0.00  0.00     0.395 HD
ENDBRANCH   1   7
TORSDOF 1
ENDMDL
