MODEL 1
REMARK minimizedAffinity -0.74016726
REMARK minimizedRMSD -1
REMARK  0 active torsions:
REMARK  status: ('A' for Active; 'I' for Inactive)
ROOT
ATOM      1  O1  BZF d   1      -2.068  -1.464  -1.116  0.00  0.00    -0.204 OA
ATOM      2  C2  BZF d   1      -1.861  -0.423  -2.001  0.00  0.00     0.174 A 
ATOM      3  C3  BZF d   1      -0.755   0.274  -1.668  0.00  0.00    -0.012 A 
ATOM      4  C3A BZF d   1      -0.188  -0.427  -0.557  0.00  0.00    -0.107 A 
ATOM      5  C4  BZF d   1       0.927  -0.231   0.206  0.00  0.00     0.055 A 
ATOM      6  C5  BZF d   1       1.158  -1.055   1.262  0.00  0.00    -0.016 A 
ATOM      7  C6  BZF d   1       0.293  -2.080   1.586  0.00  0.00     0.022 A 
ATOM      8  C7  BZF d   1      -0.824  -2.316   0.855  0.00  0.00     0.029 A 
ATOM      9  C7A BZF d   1      -1.042  -1.506  -0.232  0.00  0.00     0.058 A 
ENDROOT
TORSDOF 0
ENDMDL
