MODEL 1
REMARK minimizedAffinity -0.99208498
REMARK minimizedRMSD -1
REMARK  0 active torsions:
REMARK  status: ('A' for Active; 'I' for Inactive)
ROOT
ATOM      1  O1  BZF d   1      -2.111  -1.320   0.272  0.00  0.00    -0.204 OA
ATOM      2  C2  BZF d   1      -2.891  -1.287  -0.868  0.00  0.00     0.174 A 
ATOM      3  C3  BZF d   1      -2.235  -0.685  -1.880  0.00  0.00    -0.012 A 
ATOM      4  C3A BZF d   1      -0.930  -0.400  -1.366  0.00  0.00    -0.107 A 
ATOM      5  C4  BZF d   1       0.184   0.179  -1.902  0.00  0.00     0.055 A 
ATOM      6  C5  BZF d   1       1.272   0.375  -1.111  0.00  0.00    -0.016 A 
ATOM      7  C6  BZF d   1       1.278   0.009   0.219  0.00  0.00     0.022 A 
ATOM      8  C7  BZF d   1       0.198  -0.573   0.794  0.00  0.00     0.029 A 
ATOM      9  C7A BZF d   1      -0.891  -0.803  -0.011  0.00  0.00     0.058 A 
ENDROOT
TORSDOF 0
ENDMDL
