MODEL 1
REMARK minimizedAffinity -4.45456839
REMARK minimizedRMSD -1
REMARK  0 active torsions:
REMARK  status: ('A' for Active; 'I' for Inactive)
ROOT
ATOM      1  O1  BZF d   1       1.008   3.426   0.860  0.00  0.00    -0.204 OA
ATOM      2  C2  BZF d   1       2.346   3.609   1.150  0.00  0.00     0.174 A 
ATOM      3  C3  BZF d   1       3.024   2.449   1.032  0.00  0.00    -0.012 A 
ATOM      4  C3A BZF d   1       2.067   1.500   0.553  0.00  0.00    -0.107 A 
ATOM      5  C4  BZF d   1       2.139   0.176   0.225  0.00  0.00     0.055 A 
ATOM      6  C5  BZF d   1       1.005  -0.477  -0.139  0.00  0.00    -0.016 A 
ATOM      7  C6  BZF d   1      -0.218   0.160  -0.182  0.00  0.00     0.022 A 
ATOM      8  C7  BZF d   1      -0.339   1.473   0.129  0.00  0.00     0.029 A 
ATOM      9  C7A BZF d   1       0.811   2.144   0.466  0.00  0.00     0.058 A 
ENDROOT
TORSDOF 0
ENDMDL
