MODEL 1
REMARK minimizedAffinity 0.240552321
REMARK minimizedRMSD -1
REMARK  0 active torsions:
REMARK  status: ('A' for Active; 'I' for Inactive)
ROOT
ATOM      1  O1  BZF d   1      -0.772  -0.939  -0.702  0.00  0.00    -0.204 OA
ATOM      2  C2  BZF d   1      -0.960   0.266  -1.351  0.00  0.00     0.174 A 
ATOM      3  C3  BZF d   1      -0.497   1.289  -0.604  0.00  0.00    -0.012 A 
ATOM      4  C3A BZF d   1       0.096   0.677   0.546  0.00  0.00    -0.107 A 
ATOM      5  C4  BZF d   1       0.739   1.171   1.645  0.00  0.00     0.055 A 
ATOM      6  C5  BZF d   1       1.134   0.311   2.620  0.00  0.00    -0.016 A 
ATOM      7  C6  BZF d   1       0.897  -1.045   2.532  0.00  0.00     0.022 A 
ATOM      8  C7  BZF d   1       0.267  -1.582   1.459  0.00  0.00     0.029 A 
ATOM      9  C7A BZF d   1      -0.103  -0.720   0.456  0.00  0.00     0.058 A 
ENDROOT
TORSDOF 0
ENDMDL
