MODEL 1
REMARK minimizedAffinity -1.41725171
REMARK minimizedRMSD -1
REMARK  0 active torsions:
REMARK  status: ('A' for Active; 'I' for Inactive)
ROOT
ATOM      1  O1  BZF d   1      -1.525  -1.229  -0.995  0.00  0.00    -0.204 OA
ATOM      2  C2  BZF d   1      -1.599  -0.278  -1.994  0.00  0.00     0.174 A 
ATOM      3  C3  BZF d   1      -0.904   0.827  -1.656  0.00  0.00    -0.012 A 
ATOM      4  C3A BZF d   1      -0.285   0.514  -0.404  0.00  0.00    -0.107 A 
ATOM      5  C4  BZF d   1       0.546   1.204   0.431  0.00  0.00     0.055 A 
ATOM      6  C5  BZF d   1       0.911   0.641   1.612  0.00  0.00    -0.016 A 
ATOM      7  C6  BZF d   1       0.462  -0.607   1.992  0.00  0.00     0.022 A 
ATOM      8  C7  BZF d   1      -0.360  -1.332   1.194  0.00  0.00     0.029 A 
ATOM      9  C7A BZF d   1      -0.705  -0.779  -0.015  0.00  0.00     0.058 A 
ENDROOT
TORSDOF 0
ENDMDL
