MODEL 1
REMARK minimizedAffinity -3.04630971
REMARK minimizedRMSD -1
REMARK  0 active torsions:
REMARK  status: ('A' for Active; 'I' for Inactive)
ROOT
ATOM      1  O1  BZF d   1       1.170   1.244  -0.662  0.00  0.00    -0.204 OA
ATOM      2  C2  BZF d   1       1.841   0.495   0.285  0.00  0.00     0.174 A 
ATOM      3  C3  BZF d   1       1.135  -0.607   0.612  0.00  0.00    -0.012 A 
ATOM      4  C3A BZF d   1      -0.009  -0.589  -0.247  0.00  0.00    -0.107 A 
ATOM      5  C4  BZF d   1      -1.074  -1.429  -0.409  0.00  0.00     0.055 A 
ATOM      6  C5  BZF d   1      -2.057  -1.087  -1.283  0.00  0.00    -0.016 A 
ATOM      7  C6  BZF d   1      -2.010   0.087  -2.006  0.00  0.00     0.022 A 
ATOM      8  C7  BZF d   1      -0.971   0.949  -1.883  0.00  0.00     0.029 A 
ATOM      9  C7A BZF d   1       0.040   0.590  -1.025  0.00  0.00     0.058 A 
ENDROOT
TORSDOF 0
ENDMDL
