MODEL 1
REMARK minimizedAffinity -2.25401402
REMARK minimizedRMSD -1
REMARK  0 active torsions:
REMARK  status: ('A' for Active; 'I' for Inactive)
ROOT
ATOM      1  O1  BZF d   1       0.134  -1.679   0.969  0.00  0.00    -0.204 OA
ATOM      2  C2  BZF d   1       1.350  -1.026   1.037  0.00  0.00     0.174 A 
ATOM      3  C3  BZF d   1       1.424  -0.057   0.101  0.00  0.00    -0.012 A 
ATOM      4  C3A BZF d   1       0.142  -0.047  -0.533  0.00  0.00    -0.107 A 
ATOM      5  C4  BZF d   1      -0.405   0.706  -1.533  0.00  0.00     0.055 A 
ATOM      6  C5  BZF d   1      -1.658   0.413  -1.970  0.00  0.00    -0.016 A 
ATOM      7  C6  BZF d   1      -2.390  -0.626  -1.434  0.00  0.00     0.022 A 
ATOM      8  C7  BZF d   1      -1.891  -1.398  -0.437  0.00  0.00     0.029 A 
ATOM      9  C7A BZF d   1      -0.638  -1.084   0.029  0.00  0.00     0.058 A 
ENDROOT
TORSDOF 0
ENDMDL
