MODEL 1
REMARK minimizedAffinity -2.03342915
REMARK minimizedRMSD -1
REMARK  0 active torsions:
REMARK  status: ('A' for Active; 'I' for Inactive)
ROOT
ATOM      1  O1  BZF d   1      -1.212  -1.588   0.501  0.00  0.00    -0.204 OA
ATOM      2  C2  BZF d   1      -0.202  -1.749   1.430  0.00  0.00     0.174 A 
ATOM      3  C3  BZF d   1       0.952  -1.217   0.979  0.00  0.00    -0.012 A 
ATOM      4  C3A BZF d   1       0.622  -0.609  -0.273  0.00  0.00    -0.107 A 
ATOM      5  C4  BZF d   1       1.345   0.093  -1.195  0.00  0.00     0.055 A 
ATOM      6  C5  BZF d   1       0.742   0.486  -2.348  0.00  0.00    -0.016 A 
ATOM      7  C6  BZF d   1      -0.579   0.189  -2.613  0.00  0.00     0.022 A 
ATOM      8  C7  BZF d   1      -1.338  -0.501  -1.727  0.00  0.00     0.029 A 
ATOM      9  C7A BZF d   1      -0.740  -0.870  -0.547  0.00  0.00     0.058 A 
ENDROOT
TORSDOF 0
ENDMDL
