MODEL 1
REMARK minimizedAffinity -0.837846935
REMARK minimizedRMSD -1
REMARK  0 active torsions:
REMARK  status: ('A' for Active; 'I' for Inactive)
ROOT
ATOM      1  O1  BZF d   1      -1.865  -0.489  -2.020  0.00  0.00    -0.204 OA
ATOM      2  C2  BZF d   1      -2.695  -1.334  -1.309  0.00  0.00     0.174 A 
ATOM      3  C3  BZF d   1      -2.091  -1.763  -0.182  0.00  0.00    -0.012 A 
ATOM      4  C3A BZF d   1      -0.837  -1.074  -0.142  0.00  0.00    -0.107 A 
ATOM      5  C4  BZF d   1       0.203  -1.068   0.742  0.00  0.00     0.055 A 
ATOM      6  C5  BZF d   1       1.313  -0.341   0.451  0.00  0.00    -0.016 A 
ATOM      7  C6  BZF d   1       1.420   0.386  -0.716  0.00  0.00     0.022 A 
ATOM      8  C7  BZF d   1       0.412   0.415  -1.622  0.00  0.00     0.029 A 
ATOM      9  C7A BZF d   1      -0.725  -0.292  -1.315  0.00  0.00     0.058 A 
ENDROOT
TORSDOF 0
ENDMDL
