MODEL 1
REMARK minimizedAffinity -0.900741696
REMARK minimizedRMSD -1
REMARK  0 active torsions:
REMARK  status: ('A' for Active; 'I' for Inactive)
ROOT
ATOM      1  O1  BZF d   1       0.210  -1.161   1.103  0.00  0.00    -0.204 OA
ATOM      2  C2  BZF d   1       1.433  -0.525   1.005  0.00  0.00     0.174 A 
ATOM      3  C3  BZF d   1       1.499   0.214  -0.122  0.00  0.00    -0.012 A 
ATOM      4  C3A BZF d   1       0.205   0.101  -0.722  0.00  0.00    -0.107 A 
ATOM      5  C4  BZF d   1      -0.354   0.623  -1.853  0.00  0.00     0.055 A 
ATOM      6  C5  BZF d   1      -1.618   0.259  -2.194  0.00  0.00    -0.016 A 
ATOM      7  C6  BZF d   1      -2.349  -0.628  -1.431  0.00  0.00     0.022 A 
ATOM      8  C7  BZF d   1      -1.839  -1.168  -0.297  0.00  0.00     0.029 A 
ATOM      9  C7A BZF d   1      -0.574  -0.776   0.067  0.00  0.00     0.058 A 
ENDROOT
TORSDOF 0
ENDMDL
