MODEL 1
REMARK minimizedAffinity 1.25750613
REMARK minimizedRMSD -1
REMARK  0 active torsions:
REMARK  status: ('A' for Active; 'I' for Inactive)
ROOT
ATOM      1  O1  BZF d   1       3.893   1.064   2.939  0.00  0.00    -0.204 OA
ATOM      2  C2  BZF d   1       4.068   1.320   4.286  0.00  0.00     0.174 A 
ATOM      3  C3  BZF d   1       3.683   2.577   4.588  0.00  0.00    -0.012 A 
ATOM      4  C3A BZF d   1       3.152   3.111   3.371  0.00  0.00    -0.107 A 
ATOM      5  C4  BZF d   1       2.597   4.313   3.036  0.00  0.00     0.055 A 
ATOM      6  C5  BZF d   1       2.247   4.541   1.743  0.00  0.00    -0.016 A 
ATOM      7  C6  BZF d   1       2.442   3.594   0.760  0.00  0.00     0.022 A 
ATOM      8  C7  BZF d   1       2.985   2.385   1.044  0.00  0.00     0.029 A 
ATOM      9  C7A BZF d   1       3.309   2.139   2.356  0.00  0.00     0.058 A 
ENDROOT
TORSDOF 0
ENDMDL
