MODEL 1
REMARK minimizedAffinity 3.53376913
REMARK minimizedRMSD -1
REMARK  0 active torsions:
REMARK  status: ('A' for Active; 'I' for Inactive)
ROOT
ATOM      1  O1  BZF d   1      -3.130  -1.111  -1.728  0.00  0.00    -0.204 OA
ATOM      2  C2  BZF d   1      -2.592  -1.318  -2.984  0.00  0.00     0.174 A 
ATOM      3  C3  BZF d   1      -1.517  -0.528  -3.180  0.00  0.00    -0.012 A 
ATOM      4  C3A BZF d   1      -1.317   0.152  -1.937  0.00  0.00    -0.107 A 
ATOM      5  C4  BZF d   1      -0.396   1.060  -1.501  0.00  0.00     0.055 A 
ATOM      6  C5  BZF d   1      -0.524   1.584  -0.254  0.00  0.00    -0.016 A 
ATOM      7  C6  BZF d   1      -1.563   1.227   0.581  0.00  0.00     0.022 A 
ATOM      8  C7  BZF d   1      -2.498   0.326   0.194  0.00  0.00     0.029 A 
ATOM      9  C7A BZF d   1      -2.353  -0.230  -1.053  0.00  0.00     0.058 A 
ENDROOT
TORSDOF 0
ENDMDL
