MODEL 1
REMARK minimizedAffinity -5.65515709
REMARK minimizedRMSD -1
REMARK  0 active torsions:
REMARK  status: ('A' for Active; 'I' for Inactive)
ROOT
ATOM      1  O1  BZF d   1       0.711  -1.779   1.641  0.00  0.00    -0.204 OA
ATOM      2  C2  BZF d   1       1.597  -0.786   1.272  0.00  0.00     0.174 A 
ATOM      3  C3  BZF d   1       1.169  -0.152   0.161  0.00  0.00    -0.012 A 
ATOM      4  C3A BZF d   1      -0.108  -0.728  -0.133  0.00  0.00    -0.107 A 
ATOM      5  C4  BZF d   1      -1.037  -0.504  -1.108  0.00  0.00     0.055 A 
ATOM      6  C5  BZF d   1      -2.146  -1.288  -1.156  0.00  0.00    -0.016 A 
ATOM      7  C6  BZF d   1      -2.355  -2.307  -0.250  0.00  0.00     0.022 A 
ATOM      8  C7  BZF d   1      -1.464  -2.564   0.738  0.00  0.00     0.029 A 
ATOM      9  C7A BZF d   1      -0.358  -1.752   0.810  0.00  0.00     0.058 A 
ENDROOT
TORSDOF 0
ENDMDL
