MODEL 1
REMARK minimizedAffinity -1.93707085
REMARK minimizedRMSD -1
REMARK  0 active torsions:
REMARK  status: ('A' for Active; 'I' for Inactive)
ROOT
ATOM      1  O1  BZF d   1      -1.846  -1.880  -0.063  0.00  0.00    -0.204 OA
ATOM      2  C2  BZF d   1      -2.833  -1.670  -1.006  0.00  0.00     0.174 A 
ATOM      3  C3  BZF d   1      -2.582  -0.553  -1.720  0.00  0.00    -0.012 A 
ATOM      4  C3A BZF d   1      -1.314  -0.084  -1.252  0.00  0.00    -0.107 A 
ATOM      5  C4  BZF d   1      -0.524   0.978  -1.588  0.00  0.00     0.055 A 
ATOM      6  C5  BZF d   1       0.621   1.196  -0.889  0.00  0.00    -0.016 A 
ATOM      7  C6  BZF d   1       1.003   0.376   0.153  0.00  0.00     0.022 A 
ATOM      8  C7  BZF d   1       0.254  -0.692   0.519  0.00  0.00     0.029 A 
ATOM      9  C7A BZF d   1      -0.887  -0.934  -0.206  0.00  0.00     0.058 A 
ENDROOT
TORSDOF 0
ENDMDL
