MODEL 1
REMARK minimizedAffinity 1.76251519
REMARK minimizedRMSD -1
REMARK  0 active torsions:
REMARK  status: ('A' for Active; 'I' for Inactive)
ROOT
ATOM      1  O1  BZF d   1       1.393   0.355  -0.254  0.00  0.00    -0.204 OA
ATOM      2  C2  BZF d   1       1.486  -0.352   0.929  0.00  0.00     0.174 A 
ATOM      3  C3  BZF d   1       0.322  -0.974   1.207  0.00  0.00    -0.012 A 
ATOM      4  C3A BZF d   1      -0.523  -0.710   0.083  0.00  0.00    -0.107 A 
ATOM      5  C4  BZF d   1      -1.800  -1.073  -0.237  0.00  0.00     0.055 A 
ATOM      6  C5  BZF d   1      -2.359  -0.588  -1.376  0.00  0.00    -0.016 A 
ATOM      7  C6  BZF d   1      -1.672   0.266  -2.215  0.00  0.00     0.022 A 
ATOM      8  C7  BZF d   1      -0.402   0.650  -1.943  0.00  0.00     0.029 A 
ATOM      9  C7A BZF d   1       0.177   0.135  -0.808  0.00  0.00     0.058 A 
ENDROOT
TORSDOF 0
ENDMDL
