MODEL 1
REMARK minimizedAffinity -3.34222126
REMARK minimizedRMSD -1
REMARK  0 active torsions:
REMARK  status: ('A' for Active; 'I' for Inactive)
ROOT
ATOM      1  O1  BZF d   1       1.226   3.493  -0.071  0.00  0.00    -0.204 OA
ATOM      2  C2  BZF d   1       2.178   3.440   0.929  0.00  0.00     0.174 A 
ATOM      3  C3  BZF d   1       2.233   2.207   1.471  0.00  0.00    -0.012 A 
ATOM      4  C3A BZF d   1       1.320   1.416   0.704  0.00  0.00    -0.107 A 
ATOM      5  C4  BZF d   1       0.946   0.104   0.750  0.00  0.00     0.055 A 
ATOM      6  C5  BZF d   1      -0.025  -0.337  -0.093  0.00  0.00    -0.016 A 
ATOM      7  C6  BZF d   1      -0.645   0.508  -0.990  0.00  0.00     0.022 A 
ATOM      8  C7  BZF d   1      -0.305   1.817  -1.076  0.00  0.00     0.029 A 
ATOM      9  C7A BZF d   1       0.699   2.258  -0.248  0.00  0.00     0.058 A 
ENDROOT
TORSDOF 0
ENDMDL
