MODEL 1
REMARK minimizedAffinity 0.394230664
REMARK minimizedRMSD -1
REMARK  0 active torsions:
REMARK  status: ('A' for Active; 'I' for Inactive)
ROOT
ATOM      1  O1  BZF d   1       2.434   1.480   2.115  0.00  0.00    -0.204 OA
ATOM      2  C2  BZF d   1       3.312   1.995   1.181  0.00  0.00     0.174 A 
ATOM      3  C3  BZF d   1       3.002   1.560  -0.057  0.00  0.00    -0.012 A 
ATOM      4  C3A BZF d   1       1.803   0.795   0.102  0.00  0.00    -0.107 A 
ATOM      5  C4  BZF d   1       0.998   0.118  -0.770  0.00  0.00     0.055 A 
ATOM      6  C5  BZF d   1      -0.057  -0.587  -0.284  0.00  0.00    -0.016 A 
ATOM      7  C6  BZF d   1      -0.333  -0.641   1.067  0.00  0.00     0.022 A 
ATOM      8  C7  BZF d   1       0.434   0.018   1.970  0.00  0.00     0.029 A 
ATOM      9  C7A BZF d   1       1.481   0.758   1.478  0.00  0.00     0.058 A 
ENDROOT
TORSDOF 0
ENDMDL
