MODEL 1
REMARK minimizedAffinity -1.37121832
REMARK minimizedRMSD -1
REMARK  0 active torsions:
REMARK  status: ('A' for Active; 'I' for Inactive)
ROOT
ATOM      1  C   UNL d   1       1.182   5.328  -0.832  0.00  0.00     0.020 A 
ATOM      2  C1  UNL d   1       0.608   4.745  -1.961  0.00  0.00     0.020 A 
ATOM      3  C2  UNL d   1       0.102   3.445  -1.895  0.00  0.00     0.034 A 
ATOM      4  C3  UNL d   1       0.170   2.724  -0.697  0.00  0.00     0.017 A 
ATOM      5  C4  UNL d   1       0.747   3.310   0.435  0.00  0.00     0.017 A 
ATOM      6  C5  UNL d   1       1.252   4.612   0.363  0.00  0.00     0.034 A 
ATOM      7 Cl   UNL d   1       0.866   2.483   1.948  0.00  0.00    -0.070 Cl
ATOM      8 Cl1  UNL d   1      -0.476   1.121  -0.687  0.00  0.00    -0.070 Cl
ENDROOT
TORSDOF 0
ENDMDL
