MODEL 1
REMARK minimizedAffinity 2.80197906
REMARK minimizedRMSD -1
REMARK  0 active torsions:
REMARK  status: ('A' for Active; 'I' for Inactive)
ROOT
ATOM      1  C   UNL d   1       5.995  -1.680  -3.005  0.00  0.00     0.020 A 
ATOM      2  C1  UNL d   1       5.081  -1.240  -3.962  0.00  0.00     0.020 A 
ATOM      3  C2  UNL d   1       4.171  -2.138  -4.523  0.00  0.00     0.034 A 
ATOM      4  C3  UNL d   1       4.174  -3.481  -4.129  0.00  0.00     0.017 A 
ATOM      5  C4  UNL d   1       5.091  -3.922  -3.169  0.00  0.00     0.017 A 
ATOM      6  C5  UNL d   1       6.000  -3.018  -2.610  0.00  0.00     0.034 A 
ATOM      7 Cl   UNL d   1       5.154  -5.564  -2.632  0.00  0.00    -0.070 Cl
ATOM      8 Cl1  UNL d   1       3.020  -4.537  -4.866  0.00  0.00    -0.070 Cl
ENDROOT
TORSDOF 0
ENDMDL
