MODEL 1
REMARK minimizedAffinity 1.30924273
REMARK minimizedRMSD -1
REMARK  0 active torsions:
REMARK  status: ('A' for Active; 'I' for Inactive)
ROOT
ATOM      1  C   UNL d   1       1.060   5.804  -0.679  0.00  0.00     0.020 A 
ATOM      2  C1  UNL d   1       0.553   5.381  -1.907  0.00  0.00     0.020 A 
ATOM      3  C2  UNL d   1       0.152   4.054  -2.076  0.00  0.00     0.034 A 
ATOM      4  C3  UNL d   1       0.258   3.146  -1.016  0.00  0.00     0.017 A 
ATOM      5  C4  UNL d   1       0.767   3.572   0.215  0.00  0.00     0.017 A 
ATOM      6  C5  UNL d   1       1.167   4.902   0.379  0.00  0.00     0.034 A 
ATOM      7 Cl   UNL d   1       0.928   2.510   1.570  0.00  0.00    -0.070 Cl
ATOM      8 Cl1  UNL d   1      -0.257   1.520  -1.296  0.00  0.00    -0.070 Cl
ENDROOT
TORSDOF 0
ENDMDL
