MODEL 1
REMARK minimizedAffinity 3.6245296
REMARK minimizedRMSD -1
REMARK  0 active torsions:
REMARK  status: ('A' for Active; 'I' for Inactive)
ROOT
ATOM      1  C   UNL d   1      -0.249   3.470  -1.633  0.00  0.00     0.020 A 
ATOM      2  C1  UNL d   1       0.720   4.414  -1.295  0.00  0.00     0.020 A 
ATOM      3  C2  UNL d   1       1.490   4.242  -0.143  0.00  0.00     0.034 A 
ATOM      4  C3  UNL d   1       1.292   3.124   0.676  0.00  0.00     0.017 A 
ATOM      5  C4  UNL d   1       0.320   2.177   0.336  0.00  0.00     0.017 A 
ATOM      6  C5  UNL d   1      -0.449   2.354  -0.819  0.00  0.00     0.034 A 
ATOM      7 Cl   UNL d   1       0.018   0.772   1.297  0.00  0.00    -0.070 Cl
ATOM      8 Cl1  UNL d   1       2.281   2.976   2.085  0.00  0.00    -0.070 Cl
ENDROOT
TORSDOF 0
ENDMDL
