MODEL 1
REMARK minimizedAffinity 11.045907
REMARK minimizedRMSD -1
REMARK  0 active torsions:
REMARK  status: ('A' for Active; 'I' for Inactive)
ROOT
ATOM      1  C   UNL d   1       0.208   5.490  -2.184  0.00  0.00     0.020 A 
ATOM      2  C1  UNL d   1      -0.103   5.956  -0.907  0.00  0.00     0.020 A 
ATOM      3  C2  UNL d   1      -0.102   5.076   0.177  0.00  0.00     0.034 A 
ATOM      4  C3  UNL d   1       0.211   3.726  -0.013  0.00  0.00     0.017 A 
ATOM      5  C4  UNL d   1       0.524   3.258  -1.294  0.00  0.00     0.017 A 
ATOM      6  C5  UNL d   1       0.521   4.144  -2.377  0.00  0.00     0.034 A 
ATOM      7 Cl   UNL d   1       0.921   1.605  -1.607  0.00  0.00    -0.070 Cl
ATOM      8 Cl1  UNL d   1       0.193   2.694   1.373  0.00  0.00    -0.070 Cl
ENDROOT
TORSDOF 0
ENDMDL
