MODEL 1
REMARK minimizedAffinity 5.76316977
REMARK minimizedRMSD -1
REMARK  0 active torsions:
REMARK  status: ('A' for Active; 'I' for Inactive)
ROOT
ATOM      1  C   UNL d   1       2.609   3.518   0.888  0.00  0.00     0.020 A 
ATOM      2  C1  UNL d   1       2.244   2.829   2.044  0.00  0.00     0.020 A 
ATOM      3  C2  UNL d   1       1.118   2.004   2.038  0.00  0.00     0.034 A 
ATOM      4  C3  UNL d   1       0.352   1.867   0.874  0.00  0.00     0.017 A 
ATOM      5  C4  UNL d   1       0.719   2.560  -0.285  0.00  0.00     0.017 A 
ATOM      6  C5  UNL d   1       1.848   3.384  -0.273  0.00  0.00     0.034 A 
ATOM      7 Cl   UNL d   1      -0.176   2.441  -1.759  0.00  0.00    -0.070 Cl
ATOM      8 Cl1  UNL d   1      -1.029   0.830   0.939  0.00  0.00    -0.070 Cl
ENDROOT
TORSDOF 0
ENDMDL
