MODEL 1
REMARK minimizedAffinity 4.56335354
REMARK minimizedRMSD -1
REMARK  0 active torsions:
REMARK  status: ('A' for Active; 'I' for Inactive)
ROOT
ATOM      1  O1  BZF d   1       2.561   2.433  -4.931  0.00  0.00    -0.204 OA
ATOM      2  C2  BZF d   1       2.947   1.643  -5.996  0.00  0.00     0.174 A 
ATOM      3  C3  BZF d   1       4.252   1.316  -5.902  0.00  0.00    -0.012 A 
ATOM      4  C3A BZF d   1       4.688   1.866  -4.655  0.00  0.00    -0.107 A 
ATOM      5  C4  BZF d   1       5.883   1.862  -3.993  0.00  0.00     0.055 A 
ATOM      6  C5  BZF d   1       5.996   2.553  -2.829  0.00  0.00    -0.016 A 
ATOM      7  C6  BZF d   1       4.937   3.263  -2.301  0.00  0.00     0.022 A 
ATOM      8  C7  BZF d   1       3.731   3.293  -2.918  0.00  0.00     0.029 A 
ATOM      9  C7A BZF d   1       3.605   2.568  -4.078  0.00  0.00     0.058 A 
ENDROOT
TORSDOF 0
ENDMDL
