MODEL 1
REMARK minimizedAffinity -0.110817224
REMARK minimizedRMSD -1
REMARK  0 active torsions:
REMARK  status: ('A' for Active; 'I' for Inactive)
ROOT
ATOM      1  O1  BZF d   1      -2.981   4.698  -5.976  0.00  0.00    -0.204 OA
ATOM      2  C2  BZF d   1      -2.491   5.990  -5.977  0.00  0.00     0.174 A 
ATOM      3  C3  BZF d   1      -1.144   5.991  -5.911  0.00  0.00    -0.012 A 
ATOM      4  C3A BZF d   1      -0.764   4.613  -5.960  0.00  0.00    -0.107 A 
ATOM      5  C4  BZF d   1       0.441   3.971  -5.947  0.00  0.00     0.055 A 
ATOM      6  C5  BZF d   1       0.465   2.612  -5.933  0.00  0.00    -0.016 A 
ATOM      7  C6  BZF d   1      -0.694   1.865  -5.925  0.00  0.00     0.022 A 
ATOM      8  C7  BZF d   1      -1.913   2.457  -5.942  0.00  0.00     0.029 A 
ATOM      9  C7A BZF d   1      -1.941   3.830  -5.990  0.00  0.00     0.058 A 
ENDROOT
TORSDOF 0
ENDMDL
