MODEL 1
REMARK minimizedAffinity -4.16879511
REMARK minimizedRMSD -1
REMARK  0 active torsions:
REMARK  status: ('A' for Active; 'I' for Inactive)
ROOT
ATOM      1  O1  BZF d   1      -2.884   2.659  -5.960  0.00  0.00    -0.204 OA
ATOM      2  C2  BZF d   1      -3.733   3.749  -5.995  0.00  0.00     0.174 A 
ATOM      3  C3  BZF d   1      -3.034   4.901  -5.961  0.00  0.00    -0.012 A 
ATOM      4  C3A BZF d   1      -1.659   4.509  -5.994  0.00  0.00    -0.107 A 
ATOM      5  C4  BZF d   1      -0.483   5.204  -5.999  0.00  0.00     0.055 A 
ATOM      6  C5  BZF d   1       0.690   4.519  -5.960  0.00  0.00    -0.016 A 
ATOM      7  C6  BZF d   1       0.725   3.141  -5.912  0.00  0.00     0.022 A 
ATOM      8  C7  BZF d   1      -0.415   2.407  -5.911  0.00  0.00     0.029 A 
ATOM      9  C7A BZF d   1      -1.602   3.096  -5.983  0.00  0.00     0.058 A 
ENDROOT
TORSDOF 0
ENDMDL
