MODEL 1
REMARK minimizedAffinity -1.8760314
REMARK minimizedRMSD -1
REMARK  0 active torsions:
REMARK  status: ('A' for Active; 'I' for Inactive)
ROOT
ATOM      1  O1  BZF d   1      -3.267   5.972  -5.977  0.00  0.00    -0.204 OA
ATOM      2  C2  BZF d   1      -4.412   5.198  -5.961  0.00  0.00     0.174 A 
ATOM      3  C3  BZF d   1      -4.102   3.886  -6.000  0.00  0.00    -0.012 A 
ATOM      4  C3A BZF d   1      -2.673   3.835  -5.950  0.00  0.00    -0.107 A 
ATOM      5  C4  BZF d   1      -1.770   2.811  -5.941  0.00  0.00     0.055 A 
ATOM      6  C5  BZF d   1      -0.442   3.100  -5.962  0.00  0.00    -0.016 A 
ATOM      7  C6  BZF d   1       0.017   4.401  -5.996  0.00  0.00     0.022 A 
ATOM      8  C7  BZF d   1      -0.841   5.450  -6.000  0.00  0.00     0.029 A 
ATOM      9  C7A BZF d   1      -2.183   5.161  -5.946  0.00  0.00     0.058 A 
ENDROOT
TORSDOF 0
ENDMDL
