MODEL 1
REMARK minimizedAffinity 1.16876221
REMARK minimizedRMSD -1
REMARK  0 active torsions:
REMARK  status: ('A' for Active; 'I' for Inactive)
ROOT
ATOM      1  O1  BZF d   1       0.482   4.859  -5.963  0.00  0.00    -0.204 OA
ATOM      2  C2  BZF d   1       1.290   3.739  -5.987  0.00  0.00     0.174 A 
ATOM      3  C3  BZF d   1       0.549   2.613  -5.948  0.00  0.00    -0.012 A 
ATOM      4  C3A BZF d   1      -0.811   3.056  -5.988  0.00  0.00    -0.107 A 
ATOM      5  C4  BZF d   1      -2.011   2.405  -5.992  0.00  0.00     0.055 A 
ATOM      6  C5  BZF d   1      -3.158   3.133  -5.963  0.00  0.00    -0.016 A 
ATOM      7  C6  BZF d   1      -3.142   4.512  -5.925  0.00  0.00     0.022 A 
ATOM      8  C7  BZF d   1      -1.976   5.203  -5.925  0.00  0.00     0.029 A 
ATOM      9  C7A BZF d   1      -0.815   4.470  -5.988  0.00  0.00     0.058 A 
ENDROOT
TORSDOF 0
ENDMDL
