MODEL 1
REMARK minimizedAffinity -2.42822051
REMARK minimizedRMSD -1
REMARK  0 active torsions:
REMARK  status: ('A' for Active; 'I' for Inactive)
ROOT
ATOM      1  O1  BZF d   1      -4.277   3.769  -5.953  0.00  0.00    -0.204 OA
ATOM      2  C2  BZF d   1      -4.911   4.995  -5.910  0.00  0.00     0.174 A 
ATOM      3  C3  BZF d   1      -4.011   5.998  -5.843  0.00  0.00    -0.012 A 
ATOM      4  C3A BZF d   1      -2.733   5.363  -5.938  0.00  0.00    -0.107 A 
ATOM      5  C4  BZF d   1      -1.450   5.831  -5.947  0.00  0.00     0.055 A 
ATOM      6  C5  BZF d   1      -0.423   4.942  -5.979  0.00  0.00    -0.016 A 
ATOM      7  C6  BZF d   1      -0.641   3.580  -5.997  0.00  0.00     0.022 A 
ATOM      8  C7  BZF d   1      -1.896   3.068  -5.995  0.00  0.00     0.029 A 
ATOM      9  C7A BZF d   1      -2.937   3.964  -5.996  0.00  0.00     0.058 A 
ENDROOT
TORSDOF 0
ENDMDL
