MODEL 1
REMARK minimizedAffinity -3.09068131
REMARK minimizedRMSD -1
REMARK  0 active torsions:
REMARK  status: ('A' for Active; 'I' for Inactive)
ROOT
ATOM      1  O1  BZF d   1       0.445   5.229  -5.954  0.00  0.00    -0.204 OA
ATOM      2  C2  BZF d   1       1.159   4.047  -5.935  0.00  0.00     0.174 A 
ATOM      3  C3  BZF d   1       0.327   2.986  -5.887  0.00  0.00    -0.012 A 
ATOM      4  C3A BZF d   1      -0.991   3.538  -5.969  0.00  0.00    -0.107 A 
ATOM      5  C4  BZF d   1      -2.240   2.987  -5.986  0.00  0.00     0.055 A 
ATOM      6  C5  BZF d   1      -3.324   3.807  -6.000  0.00  0.00    -0.016 A 
ATOM      7  C6  BZF d   1      -3.195   5.180  -5.991  0.00  0.00     0.022 A 
ATOM      8  C7  BZF d   1      -1.976   5.773  -5.980  0.00  0.00     0.029 A 
ATOM      9  C7A BZF d   1      -0.879   4.947  -5.999  0.00  0.00     0.058 A 
ENDROOT
TORSDOF 0
ENDMDL
