MODEL 1
REMARK minimizedAffinity -1.32386315
REMARK minimizedRMSD -1
REMARK  0 active torsions:
REMARK  status: ('A' for Active; 'I' for Inactive)
ROOT
ATOM      1  O1  BZF d   1      -2.609   2.677  -5.952  0.00  0.00    -0.204 OA
ATOM      2  C2  BZF d   1      -3.373   3.827  -5.924  0.00  0.00     0.174 A 
ATOM      3  C3  BZF d   1      -2.588   4.922  -5.872  0.00  0.00    -0.012 A 
ATOM      4  C3A BZF d   1      -1.248   4.428  -5.961  0.00  0.00    -0.107 A 
ATOM      5  C4  BZF d   1      -0.023   5.033  -5.977  0.00  0.00     0.055 A 
ATOM      6  C5  BZF d   1       1.095   4.261  -5.998  0.00  0.00    -0.016 A 
ATOM      7  C6  BZF d   1       1.025   2.883  -5.998  0.00  0.00     0.022 A 
ATOM      8  C7  BZF d   1      -0.167   2.238  -5.987  0.00  0.00     0.029 A 
ATOM      9  C7A BZF d   1      -1.299   3.016  -5.999  0.00  0.00     0.058 A 
ENDROOT
TORSDOF 0
ENDMDL
