MODEL 1
REMARK minimizedAffinity -1.43920803
REMARK minimizedRMSD -1
REMARK  0 active torsions:
REMARK  status: ('A' for Active; 'I' for Inactive)
ROOT
ATOM      1  O1  BZF d   1      -3.162   2.436  -5.967  0.00  0.00    -0.204 OA
ATOM      2  C2  BZF d   1      -4.421   3.004  -6.000  0.00  0.00     0.174 A 
ATOM      3  C3  BZF d   1      -4.339   4.350  -5.962  0.00  0.00    -0.012 A 
ATOM      4  C3A BZF d   1      -2.938   4.643  -5.995  0.00  0.00    -0.107 A 
ATOM      5  C4  BZF d   1      -2.222   5.805  -5.997  0.00  0.00     0.055 A 
ATOM      6  C5  BZF d   1      -0.865   5.745  -5.960  0.00  0.00    -0.016 A 
ATOM      7  C6  BZF d   1      -0.193   4.542  -5.915  0.00  0.00     0.022 A 
ATOM      8  C7  BZF d   1      -0.860   3.362  -5.917  0.00  0.00     0.029 A 
ATOM      9  C7A BZF d   1      -2.230   3.419  -5.988  0.00  0.00     0.058 A 
ENDROOT
TORSDOF 0
ENDMDL
