MODEL 1
REMARK minimizedAffinity -1.02127612
REMARK minimizedRMSD -1
REMARK  0 active torsions:
REMARK  status: ('A' for Active; 'I' for Inactive)
ROOT
ATOM      1  O1  BZF d   1      -0.558   3.110  -5.930  0.00  0.00    -0.204 OA
ATOM      2  C2  BZF d   1       0.448   4.057  -5.931  0.00  0.00     0.174 A 
ATOM      3  C3  BZF d   1      -0.066   5.302  -6.000  0.00  0.00    -0.012 A 
ATOM      4  C3A BZF d   1      -1.485   5.126  -5.952  0.00  0.00    -0.107 A 
ATOM      5  C4  BZF d   1      -2.540   5.993  -5.967  0.00  0.00     0.055 A 
ATOM      6  C5  BZF d   1      -3.804   5.495  -5.981  0.00  0.00    -0.016 A 
ATOM      7  C6  BZF d   1      -4.050   4.138  -5.986  0.00  0.00     0.022 A 
ATOM      8  C7  BZF d   1      -3.036   3.238  -5.966  0.00  0.00     0.029 A 
ATOM      9  C7A BZF d   1      -1.758   3.738  -5.918  0.00  0.00     0.058 A 
ENDROOT
TORSDOF 0
ENDMDL
