MODEL 1
REMARK minimizedAffinity -1.85937154
REMARK minimizedRMSD -1
REMARK  0 active torsions:
REMARK  status: ('A' for Active; 'I' for Inactive)
ROOT
ATOM      1  O1  BZF d   1       1.109   5.221  -5.978  0.00  0.00    -0.204 OA
ATOM      2  C2  BZF d   1       2.011   4.175  -5.998  0.00  0.00     0.174 A 
ATOM      3  C3  BZF d   1       1.369   2.990  -5.955  0.00  0.00    -0.012 A 
ATOM      4  C3A BZF d   1      -0.024   3.314  -5.996  0.00  0.00    -0.107 A 
ATOM      5  C4  BZF d   1      -1.163   2.561  -5.997  0.00  0.00     0.055 A 
ATOM      6  C5  BZF d   1      -2.369   3.188  -5.970  0.00  0.00    -0.016 A 
ATOM      7  C6  BZF d   1      -2.472   4.563  -5.936  0.00  0.00     0.022 A 
ATOM      8  C7  BZF d   1      -1.370   5.352  -5.939  0.00  0.00     0.029 A 
ATOM      9  C7A BZF d   1      -0.150   4.722  -6.000  0.00  0.00     0.058 A 
ENDROOT
TORSDOF 0
ENDMDL
