MODEL 1
REMARK minimizedAffinity -2.67414737
REMARK minimizedRMSD -1
REMARK  0 active torsions:
REMARK  status: ('A' for Active; 'I' for Inactive)
ROOT
ATOM      1  O1  BZF d   1      -2.941   5.327  -5.927  0.00  0.00    -0.204 OA
ATOM      2  C2  BZF d   1      -3.593   4.109  -5.926  0.00  0.00     0.174 A 
ATOM      3  C3  BZF d   1      -2.708   3.094  -6.000  0.00  0.00    -0.012 A 
ATOM      4  C3A BZF d   1      -1.419   3.713  -5.957  0.00  0.00    -0.107 A 
ATOM      5  C4  BZF d   1      -0.143   3.228  -5.979  0.00  0.00     0.055 A 
ATOM      6  C5  BZF d   1       0.896   4.103  -5.997  0.00  0.00    -0.016 A 
ATOM      7  C6  BZF d   1       0.696   5.468  -5.999  0.00  0.00     0.022 A 
ATOM      8  C7  BZF d   1      -0.552   5.997  -5.973  0.00  0.00     0.029 A 
ATOM      9  C7A BZF d   1      -1.603   5.115  -5.922  0.00  0.00     0.058 A 
ENDROOT
TORSDOF 0
ENDMDL
