MODEL 1
REMARK minimizedAffinity -0.361859232
REMARK minimizedRMSD -1
REMARK  0 active torsions:
REMARK  status: ('A' for Active; 'I' for Inactive)
ROOT
ATOM      1  O1  BZF d   1      -0.522   3.726  -5.959  0.00  0.00    -0.204 OA
ATOM      2  C2  BZF d   1       0.135   4.941  -5.959  0.00  0.00     0.174 A 
ATOM      3  C3  BZF d   1      -0.746   5.961  -6.000  0.00  0.00    -0.012 A 
ATOM      4  C3A BZF d   1      -2.036   5.347  -5.934  0.00  0.00    -0.107 A 
ATOM      5  C4  BZF d   1      -3.310   5.839  -5.920  0.00  0.00     0.055 A 
ATOM      6  C5  BZF d   1      -4.354   4.969  -5.925  0.00  0.00    -0.016 A 
ATOM      7  C6  BZF d   1      -4.161   3.603  -5.948  0.00  0.00     0.022 A 
ATOM      8  C7  BZF d   1      -2.916   3.068  -5.957  0.00  0.00     0.029 A 
ATOM      9  C7A BZF d   1      -1.859   3.944  -5.920  0.00  0.00     0.058 A 
ENDROOT
TORSDOF 0
ENDMDL
