MODEL 1
REMARK minimizedAffinity 4.70383739
REMARK minimizedRMSD -1
REMARK  0 active torsions:
REMARK  status: ('A' for Active; 'I' for Inactive)
ROOT
ATOM      1  O1  BZF d   1      -3.300   3.953  -5.909  0.00  0.00    -0.204 OA
ATOM      2  C2  BZF d   1      -3.404   5.330  -5.915  0.00  0.00     0.174 A 
ATOM      3  C3  BZF d   1      -2.183   5.902  -5.894  0.00  0.00    -0.012 A 
ATOM      4  C3A BZF d   1      -1.256   4.814  -5.966  0.00  0.00    -0.107 A 
ATOM      5  C4  BZF d   1       0.107   4.742  -5.999  0.00  0.00     0.055 A 
ATOM      6  C5  BZF d   1       0.704   3.521  -5.996  0.00  0.00    -0.016 A 
ATOM      7  C6  BZF d   1      -0.030   2.354  -5.957  0.00  0.00     0.022 A 
ATOM      8  C7  BZF d   1      -1.384   2.375  -5.929  0.00  0.00     0.029 A 
ATOM      9  C7A BZF d   1      -1.992   3.606  -5.965  0.00  0.00     0.058 A 
ENDROOT
TORSDOF 0
ENDMDL
