MODEL 1
REMARK minimizedAffinity -3.00435972
REMARK minimizedRMSD -1
REMARK  0 active torsions:
REMARK  status: ('A' for Active; 'I' for Inactive)
ROOT
ATOM      1  O1  BZF d   1      -3.902   3.973  -5.944  0.00  0.00    -0.204 OA
ATOM      2  C2  BZF d   1      -4.110   5.338  -5.917  0.00  0.00     0.174 A 
ATOM      3  C3  BZF d   1      -2.936   6.000  -5.868  0.00  0.00    -0.012 A 
ATOM      4  C3A BZF d   1      -1.929   4.987  -5.958  0.00  0.00    -0.107 A 
ATOM      5  C4  BZF d   1      -0.564   5.020  -5.978  0.00  0.00     0.055 A 
ATOM      6  C5  BZF d   1       0.124   3.848  -6.000  0.00  0.00    -0.016 A 
ATOM      7  C6  BZF d   1      -0.519   2.628  -5.997  0.00  0.00     0.022 A 
ATOM      8  C7  BZF d   1      -1.872   2.545  -5.983  0.00  0.00     0.029 A 
ATOM      9  C7A BZF d   1      -2.571   3.728  -5.994  0.00  0.00     0.058 A 
ENDROOT
TORSDOF 0
ENDMDL
