MODEL 1
REMARK minimizedAffinity -1.94429028
REMARK minimizedRMSD -1
REMARK  0 active torsions:
REMARK  status: ('A' for Active; 'I' for Inactive)
ROOT
ATOM      1  O1  BZF d   1      -1.491   2.126  -5.950  0.00  0.00    -0.204 OA
ATOM      2  C2  BZF d   1      -0.116   2.257  -5.932  0.00  0.00     0.174 A 
ATOM      3  C3  BZF d   1       0.241   3.557  -5.982  0.00  0.00    -0.012 A 
ATOM      4  C3A BZF d   1      -0.989   4.287  -5.942  0.00  0.00    -0.107 A 
ATOM      5  C4  BZF d   1      -1.291   5.618  -5.946  0.00  0.00     0.055 A 
ATOM      6  C5  BZF d   1      -2.596   6.000  -5.972  0.00  0.00    -0.016 A 
ATOM      7  C6  BZF d   1      -3.621   5.078  -6.000  0.00  0.00     0.022 A 
ATOM      8  C7  BZF d   1      -3.371   3.746  -5.991  0.00  0.00     0.029 A 
ATOM      9  C7A BZF d   1      -2.055   3.357  -5.932  0.00  0.00     0.058 A 
ENDROOT
TORSDOF 0
ENDMDL
