MODEL 1
REMARK minimizedAffinity 0.911177695
REMARK minimizedRMSD -1
REMARK  0 active torsions:
REMARK  status: ('A' for Active; 'I' for Inactive)
ROOT
ATOM      1  O1  BZF d   1       0.423   3.006  -5.997  0.00  0.00    -0.204 OA
ATOM      2  C2  BZF d   1       1.380   4.001  -5.981  0.00  0.00     0.174 A 
ATOM      3  C3  BZF d   1       0.804   5.220  -6.000  0.00  0.00    -0.012 A 
ATOM      4  C3A BZF d   1      -0.604   4.972  -5.937  0.00  0.00    -0.107 A 
ATOM      5  C4  BZF d   1      -1.700   5.785  -5.907  0.00  0.00     0.055 A 
ATOM      6  C5  BZF d   1      -2.939   5.225  -5.920  0.00  0.00    -0.016 A 
ATOM      7  C6  BZF d   1      -3.117   3.858  -5.967  0.00  0.00     0.022 A 
ATOM      8  C7  BZF d   1      -2.059   3.011  -5.993  0.00  0.00     0.029 A 
ATOM      9  C7A BZF d   1      -0.807   3.572  -5.947  0.00  0.00     0.058 A 
ENDROOT
TORSDOF 0
ENDMDL
