MODEL 1
REMARK minimizedAffinity 6.55910397
REMARK minimizedRMSD -1
REMARK  0 active torsions:
REMARK  status: ('A' for Active; 'I' for Inactive)
ROOT
ATOM      1  N1  IND d   1       0.110  -1.521   1.655  0.00  0.00    -0.196 N 
ATOM      2  C2  IND d   1       0.402  -0.265   1.201  0.00  0.00     0.054 A 
ATOM      3  C3  IND d   1       0.156  -0.175  -0.125  0.00  0.00    -0.031 A 
ATOM      4  C4  IND d   1      -0.825  -1.933  -1.730  0.00  0.00     0.051 A 
ATOM      5  C5  IND d   1      -1.214  -3.242  -1.786  0.00  0.00    -0.031 A 
ATOM      6  C6  IND d   1      -1.185  -4.060  -0.674  0.00  0.00     0.015 A 
ATOM      7  C7  IND d   1      -0.773  -3.594   0.542  0.00  0.00    -0.016 A 
ATOM      8  C8  IND d   1      -0.369  -2.267   0.601  0.00  0.00    -0.047 A 
ATOM      9  C9  IND d   1      -0.357  -1.445  -0.533  0.00  0.00    -0.096 A 
ATOM     10  HN1 IND d   1       0.210  -1.798   2.463  0.00  0.00     0.298 HD
ENDROOT
TORSDOF 0
ENDMDL
