MODEL 1
REMARK minimizedAffinity -0.815766931
REMARK minimizedRMSD -1
REMARK  0 active torsions:
REMARK  status: ('A' for Active; 'I' for Inactive)
ROOT
ATOM      1  N1  IND d   1       0.687   5.332  -5.965  0.00  0.00    -0.196 N 
ATOM      2  C2  IND d   1       1.362   4.143  -5.940  0.00  0.00     0.054 A 
ATOM      3  C3  IND d   1       0.491   3.109  -5.910  0.00  0.00    -0.031 A 
ATOM      4  C4  IND d   1      -2.082   3.135  -5.999  0.00  0.00     0.051 A 
ATOM      5  C5  IND d   1      -3.152   3.985  -5.991  0.00  0.00    -0.031 A 
ATOM      6  C6  IND d   1      -2.993   5.356  -5.977  0.00  0.00     0.015 A 
ATOM      7  C7  IND d   1      -1.753   5.930  -5.982  0.00  0.00    -0.016 A 
ATOM      8  C8  IND d   1      -0.665   5.069  -5.982  0.00  0.00    -0.047 A 
ATOM      9  C9  IND d   1      -0.819   3.677  -5.953  0.00  0.00    -0.096 A 
ATOM     10  HN1 IND d   1       1.048   6.113  -5.970  0.00  0.00     0.298 HD
ENDROOT
TORSDOF 0
ENDMDL
