MODEL 1
REMARK minimizedAffinity -3.24522257
REMARK minimizedRMSD -1
REMARK  0 active torsions:
REMARK  status: ('A' for Active; 'I' for Inactive)
ROOT
ATOM      1  N1  IND d   1      -1.185   4.497  -5.936  0.00  0.00    -0.196 N 
ATOM      2  C2  IND d   1      -0.975   3.147  -5.999  0.00  0.00     0.054 A 
ATOM      3  C3  IND d   1      -2.154   2.487  -5.995  0.00  0.00    -0.031 A 
ATOM      4  C4  IND d   1      -4.553   3.422  -5.993  0.00  0.00     0.051 A 
ATOM      5  C5  IND d   1      -5.252   4.592  -5.902  0.00  0.00    -0.031 A 
ATOM      6  C6  IND d   1      -4.619   5.816  -5.819  0.00  0.00     0.015 A 
ATOM      7  C7  IND d   1      -3.257   5.915  -5.835  0.00  0.00    -0.016 A 
ATOM      8  C8  IND d   1      -2.543   4.728  -5.920  0.00  0.00    -0.047 A 
ATOM      9  C9  IND d   1      -3.179   3.481  -5.962  0.00  0.00    -0.096 A 
ATOM     10  HN1 IND d   1      -0.572   5.099  -5.911  0.00  0.00     0.298 HD
ENDROOT
TORSDOF 0
ENDMDL
