MODEL 1
REMARK minimizedAffinity 6.63208246
REMARK minimizedRMSD -1
REMARK  0 active torsions:
REMARK  status: ('A' for Active; 'I' for Inactive)
ROOT
ATOM      1  N1  IND d   1       4.084   4.943  -5.995  0.00  0.00    -0.196 N 
ATOM      2  C2  IND d   1       5.286   4.294  -5.968  0.00  0.00     0.054 A 
ATOM      3  C3  IND d   1       5.098   2.956  -5.924  0.00  0.00    -0.031 A 
ATOM      4  C4  IND d   1       2.904   1.611  -5.993  0.00  0.00     0.051 A 
ATOM      5  C5  IND d   1       1.546   1.764  -5.983  0.00  0.00    -0.031 A 
ATOM      6  C6  IND d   1       0.952   3.009  -5.979  0.00  0.00     0.015 A 
ATOM      7  C7  IND d   1       1.698   4.154  -5.997  0.00  0.00    -0.016 A 
ATOM      8  C8  IND d   1       3.078   4.003  -6.000  0.00  0.00    -0.047 A 
ATOM      9  C9  IND d   1       3.686   2.741  -5.961  0.00  0.00    -0.096 A 
ATOM     10  HN1 IND d   1       3.974   5.796  -6.008  0.00  0.00     0.298 HD
ENDROOT
TORSDOF 0
ENDMDL
