MODEL 1
REMARK minimizedAffinity -0.705030918
REMARK minimizedRMSD -1
REMARK  0 active torsions:
REMARK  status: ('A' for Active; 'I' for Inactive)
ROOT
ATOM      1  N1  IND d   1      -0.703   4.517  -5.960  0.00  0.00    -0.196 N 
ATOM      2  C2  IND d   1      -0.160   3.262  -5.928  0.00  0.00     0.054 A 
ATOM      3  C3  IND d   1      -1.137   2.328  -5.899  0.00  0.00    -0.031 A 
ATOM      4  C4  IND d   1      -3.692   2.629  -5.999  0.00  0.00     0.051 A 
ATOM      5  C5  IND d   1      -4.664   3.589  -5.999  0.00  0.00    -0.031 A 
ATOM      6  C6  IND d   1      -4.359   4.935  -5.988  0.00  0.00     0.015 A 
ATOM      7  C7  IND d   1      -3.065   5.373  -5.989  0.00  0.00    -0.016 A 
ATOM      8  C8  IND d   1      -2.075   4.400  -5.982  0.00  0.00    -0.047 A 
ATOM      9  C9  IND d   1      -2.378   3.033  -5.950  0.00  0.00    -0.096 A 
ATOM     10  HN1 IND d   1      -0.261   5.254  -5.965  0.00  0.00     0.298 HD
ENDROOT
TORSDOF 0
ENDMDL
