MODEL 1
REMARK minimizedAffinity 6.93238115
REMARK minimizedRMSD -1
REMARK  0 active torsions:
REMARK  status: ('A' for Active; 'I' for Inactive)
ROOT
ATOM      1  N1  IND d   1       0.158   1.168   1.676  0.00  0.00    -0.196 N 
ATOM      2  C2  IND d   1      -0.260  -0.089   1.337  0.00  0.00     0.054 A 
ATOM      3  C3  IND d   1      -0.133  -0.283   0.005  0.00  0.00    -0.031 A 
ATOM      4  C4  IND d   1       0.834   1.287  -1.792  0.00  0.00     0.051 A 
ATOM      5  C5  IND d   1       1.310   2.555  -1.971  0.00  0.00    -0.031 A 
ATOM      6  C6  IND d   1       1.432   3.443  -0.922  0.00  0.00     0.015 A 
ATOM      7  C7  IND d   1       1.091   3.090   0.353  0.00  0.00    -0.016 A 
ATOM      8  C8  IND d   1       0.600   1.805   0.538  0.00  0.00    -0.047 A 
ATOM      9  C9  IND d   1       0.434   0.914  -0.530  0.00  0.00    -0.096 A 
ATOM     10  HN1 IND d   1       0.147   1.504   2.468  0.00  0.00     0.298 HD
ENDROOT
TORSDOF 0
ENDMDL
