MODEL 1
REMARK minimizedAffinity 3.22075725
REMARK minimizedRMSD -1
REMARK  0 active torsions:
REMARK  status: ('A' for Active; 'I' for Inactive)
ROOT
ATOM      1  N1  IND d   1       0.040   1.192  -1.176  0.00  0.00    -0.196 N 
ATOM      2  C2  IND d   1      -0.640   0.263  -0.438  0.00  0.00     0.054 A 
ATOM      3  C3  IND d   1      -0.374   0.422   0.878  0.00  0.00    -0.031 A 
ATOM      4  C4  IND d   1       1.066   2.204   2.052  0.00  0.00     0.051 A 
ATOM      5  C5  IND d   1       1.914   3.245   1.794  0.00  0.00    -0.031 A 
ATOM      6  C6  IND d   1       2.184   3.664   0.508  0.00  0.00     0.015 A 
ATOM      7  C7  IND d   1       1.604   3.063  -0.574  0.00  0.00    -0.016 A 
ATOM      8  C8  IND d   1       0.748   2.002  -0.317  0.00  0.00    -0.047 A 
ATOM      9  C9  IND d   1       0.503   1.545   0.985  0.00  0.00    -0.096 A 
ATOM     10  HN1 IND d   1       0.026   1.259  -2.034  0.00  0.00     0.298 HD
ENDROOT
TORSDOF 0
ENDMDL
