MODEL 1
REMARK minimizedAffinity -2.96344781
REMARK minimizedRMSD -1
REMARK  0 active torsions:
REMARK  status: ('A' for Active; 'I' for Inactive)
ROOT
ATOM      1  N1  IND d   1      -0.118   4.861  -5.982  0.00  0.00    -0.196 N 
ATOM      2  C2  IND d   1      -1.134   3.947  -5.981  0.00  0.00     0.054 A 
ATOM      3  C3  IND d   1      -0.636   2.690  -6.000  0.00  0.00    -0.031 A 
ATOM      4  C4  IND d   1       1.814   1.901  -5.933  0.00  0.00     0.051 A 
ATOM      5  C5  IND d   1       3.098   2.369  -5.963  0.00  0.00    -0.031 A 
ATOM      6  C6  IND d   1       3.381   3.719  -6.000  0.00  0.00     0.015 A 
ATOM      7  C7  IND d   1       2.386   4.656  -5.995  0.00  0.00    -0.016 A 
ATOM      8  C8  IND d   1       1.082   4.184  -5.971  0.00  0.00    -0.047 A 
ATOM      9  C9  IND d   1       0.787   2.814  -5.977  0.00  0.00    -0.096 A 
ATOM     10  HN1 IND d   1      -0.212   5.716  -5.988  0.00  0.00     0.298 HD
ENDROOT
TORSDOF 0
ENDMDL
