MODEL 1
REMARK minimizedAffinity -2.11556125
REMARK minimizedRMSD -1
REMARK  0 active torsions:
REMARK  status: ('A' for Active; 'I' for Inactive)
ROOT
ATOM      1  N1  IND d   1      -0.066   4.479  -5.997  0.00  0.00    -0.196 N 
ATOM      2  C2  IND d   1       0.524   3.246  -5.998  0.00  0.00     0.054 A 
ATOM      3  C3  IND d   1      -0.415   2.274  -5.960  0.00  0.00    -0.031 A 
ATOM      4  C4  IND d   1      -2.981   2.479  -5.995  0.00  0.00     0.051 A 
ATOM      5  C5  IND d   1      -3.989   3.401  -5.957  0.00  0.00    -0.031 A 
ATOM      6  C6  IND d   1      -3.736   4.757  -5.933  0.00  0.00     0.015 A 
ATOM      7  C7  IND d   1      -2.459   5.244  -5.957  0.00  0.00    -0.016 A 
ATOM      8  C8  IND d   1      -1.433   4.310  -5.988  0.00  0.00    -0.047 A 
ATOM      9  C9  IND d   1      -1.683   2.932  -5.970  0.00  0.00    -0.096 A 
ATOM     10  HN1 IND d   1       0.347   5.233  -6.001  0.00  0.00     0.298 HD
ENDROOT
TORSDOF 0
ENDMDL
