MODEL 1
REMARK minimizedAffinity 6.40724325
REMARK minimizedRMSD -1
REMARK  0 active torsions:
REMARK  status: ('A' for Active; 'I' for Inactive)
ROOT
ATOM      1  N1  IND d   1      -0.667   0.195   1.633  0.00  0.00    -0.196 N 
ATOM      2  C2  IND d   1      -1.231  -0.709   0.775  0.00  0.00     0.054 A 
ATOM      3  C3  IND d   1      -0.840  -0.459  -0.495  0.00  0.00    -0.031 A 
ATOM      4  C4  IND d   1       0.798   1.318  -1.382  0.00  0.00     0.051 A 
ATOM      5  C5  IND d   1       1.538   2.396  -0.984  0.00  0.00    -0.031 A 
ATOM      6  C6  IND d   1       1.584   2.801   0.334  0.00  0.00     0.015 A 
ATOM      7  C7  IND d   1       0.897   2.134   1.309  0.00  0.00    -0.016 A 
ATOM      8  C8  IND d   1       0.139   1.044   0.907  0.00  0.00    -0.047 A 
ATOM      9  C9  IND d   1       0.054   0.653  -0.436  0.00  0.00    -0.096 A 
ATOM     10  HN1 IND d   1      -0.796   0.228   2.482  0.00  0.00     0.298 HD
ENDROOT
TORSDOF 0
ENDMDL
