MODEL 1
REMARK minimizedAffinity 2.5283978
REMARK minimizedRMSD -1
REMARK  0 active torsions:
REMARK  status: ('A' for Active; 'I' for Inactive)
ROOT
ATOM      1  N1  IND d   1       0.682   1.891   1.581  0.00  0.00    -0.196 N 
ATOM      2  C2  IND d   1       0.164   1.802   0.319  0.00  0.00     0.054 A 
ATOM      3  C3  IND d   1       0.914   2.518  -0.549  0.00  0.00    -0.031 A 
ATOM      4  C4  IND d   1       3.090   3.829  -0.135  0.00  0.00     0.051 A 
ATOM      5  C5  IND d   1       3.932   4.231   0.864  0.00  0.00    -0.031 A 
ATOM      6  C6  IND d   1       3.731   3.863   2.179  0.00  0.00     0.015 A 
ATOM      7  C7  IND d   1       2.682   3.068   2.544  0.00  0.00    -0.016 A 
ATOM      8  C8  IND d   1       1.821   2.664   1.534  0.00  0.00    -0.047 A 
ATOM      9  C9  IND d   1       1.996   3.068   0.204  0.00  0.00    -0.096 A 
ATOM     10  HN1 IND d   1       0.351   1.526   2.286  0.00  0.00     0.298 HD
ENDROOT
TORSDOF 0
ENDMDL
