MODEL 1
REMARK minimizedAffinity 5.00673437
REMARK minimizedRMSD -1
REMARK  0 active torsions:
REMARK  status: ('A' for Active; 'I' for Inactive)
ROOT
ATOM      1  N1  IND d   1       0.727   4.214  -5.987  0.00  0.00    -0.196 N 
ATOM      2  C2  IND d   1       1.322   2.983  -5.999  0.00  0.00     0.054 A 
ATOM      3  C3  IND d   1       0.386   2.008  -5.967  0.00  0.00    -0.031 A 
ATOM      4  C4  IND d   1      -2.181   2.204  -5.998  0.00  0.00     0.051 A 
ATOM      5  C5  IND d   1      -3.192   3.122  -5.951  0.00  0.00    -0.031 A 
ATOM      6  C6  IND d   1      -2.943   4.479  -5.916  0.00  0.00     0.015 A 
ATOM      7  C7  IND d   1      -1.668   4.970  -5.938  0.00  0.00    -0.016 A 
ATOM      8  C8  IND d   1      -0.639   4.040  -5.978  0.00  0.00    -0.047 A 
ATOM      9  C9  IND d   1      -0.885   2.661  -5.971  0.00  0.00    -0.096 A 
ATOM     10  HN1 IND d   1       1.138   4.969  -5.986  0.00  0.00     0.298 HD
ENDROOT
TORSDOF 0
ENDMDL
