MODEL 1
REMARK minimizedAffinity 6.72205114
REMARK minimizedRMSD -1
REMARK  0 active torsions:
REMARK  status: ('A' for Active; 'I' for Inactive)
ROOT
ATOM      1  N1  IND d   1      -3.018  -2.770  -1.487  0.00  0.00    -0.196 N 
ATOM      2  C2  IND d   1      -1.885  -3.248  -2.083  0.00  0.00     0.054 A 
ATOM      3  C3  IND d   1      -1.621  -4.502  -1.653  0.00  0.00    -0.031 A 
ATOM      4  C4  IND d   1      -2.968  -6.000  -0.051  0.00  0.00     0.051 A 
ATOM      5  C5  IND d   1      -4.057  -5.988   0.775  0.00  0.00    -0.031 A 
ATOM      6  C6  IND d   1      -4.874  -4.882   0.889  0.00  0.00     0.015 A 
ATOM      7  C7  IND d   1      -4.637  -3.744   0.170  0.00  0.00    -0.016 A 
ATOM      8  C8  IND d   1      -3.528  -3.750  -0.664  0.00  0.00    -0.047 A 
ATOM      9  C9  IND d   1      -2.672  -4.855  -0.752  0.00  0.00    -0.096 A 
ATOM     10  HN1 IND d   1      -3.356  -1.988  -1.606  0.00  0.00     0.298 HD
ENDROOT
TORSDOF 0
ENDMDL
