MODEL 1
REMARK minimizedAffinity 10.6372232
REMARK minimizedRMSD -1
REMARK  0 active torsions:
REMARK  status: ('A' for Active; 'I' for Inactive)
ROOT
ATOM      1  N1  IND d   1       1.836   4.648  -5.980  0.00  0.00    -0.196 N 
ATOM      2  C2  IND d   1       2.229   3.340  -5.949  0.00  0.00     0.054 A 
ATOM      3  C3  IND d   1       1.151   2.525  -5.912  0.00  0.00    -0.031 A 
ATOM      4  C4  IND d   1      -1.352   3.121  -5.997  0.00  0.00     0.051 A 
ATOM      5  C5  IND d   1      -2.206   4.188  -5.993  0.00  0.00    -0.031 A 
ATOM      6  C6  IND d   1      -1.747   5.489  -5.987  0.00  0.00     0.015 A 
ATOM      7  C7  IND d   1      -0.411   5.773  -5.997  0.00  0.00    -0.016 A 
ATOM      8  C8  IND d   1       0.459   4.692  -5.994  0.00  0.00    -0.047 A 
ATOM      9  C9  IND d   1      -0.001   3.370  -5.957  0.00  0.00    -0.096 A 
ATOM     10  HN1 IND d   1       2.360   5.330  -5.990  0.00  0.00     0.298 HD
ENDROOT
TORSDOF 0
ENDMDL
