MODEL 1
REMARK minimizedAffinity 8.26003551
REMARK minimizedRMSD -1
REMARK  0 active torsions:
REMARK  status: ('A' for Active; 'I' for Inactive)
ROOT
ATOM      1  N1  IND d   1      -0.158   0.431   1.314  0.00  0.00    -0.196 N 
ATOM      2  C2  IND d   1      -0.502  -0.376   0.265  0.00  0.00     0.054 A 
ATOM      3  C3  IND d   1      -0.076   0.161  -0.901  0.00  0.00    -0.031 A 
ATOM      4  C4  IND d   1       1.291   2.303  -1.312  0.00  0.00     0.051 A 
ATOM      5  C5  IND d   1       1.810   3.390  -0.666  0.00  0.00    -0.031 A 
ATOM      6  C6  IND d   1       1.699   3.549   0.700  0.00  0.00     0.015 A 
ATOM      7  C7  IND d   1       1.073   2.615   1.477  0.00  0.00    -0.016 A 
ATOM      8  C8  IND d   1       0.539   1.513   0.824  0.00  0.00    -0.047 A 
ATOM      9  C9  IND d   1       0.611   1.368  -0.568  0.00  0.00    -0.096 A 
ATOM     10  HN1 IND d   1      -0.346   0.286   2.140  0.00  0.00     0.298 HD
ENDROOT
TORSDOF 0
ENDMDL
