MODEL 1
REMARK minimizedAffinity -1.27059042
REMARK minimizedRMSD -1
REMARK  0 active torsions:
REMARK  status: ('A' for Active; 'I' for Inactive)
ROOT
ATOM      1  N1  IND d   1      -1.053   5.772  -5.924  0.00  0.00    -0.196 N 
ATOM      2  C2  IND d   1      -2.295   5.202  -5.941  0.00  0.00     0.054 A 
ATOM      3  C3  IND d   1      -2.195   3.856  -5.999  0.00  0.00    -0.031 A 
ATOM      4  C4  IND d   1      -0.092   2.370  -5.971  0.00  0.00     0.051 A 
ATOM      5  C5  IND d   1       1.273   2.435  -5.999  0.00  0.00    -0.031 A 
ATOM      6  C6  IND d   1       1.946   3.639  -6.000  0.00  0.00     0.015 A 
ATOM      7  C7  IND d   1       1.276   4.829  -5.962  0.00  0.00    -0.016 A 
ATOM      8  C8  IND d   1      -0.110   4.768  -5.941  0.00  0.00    -0.047 A 
ATOM      9  C9  IND d   1      -0.799   3.549  -5.983  0.00  0.00    -0.096 A 
ATOM     10  HN1 IND d   1      -0.888   6.616  -5.905  0.00  0.00     0.298 HD
ENDROOT
TORSDOF 0
ENDMDL
