MODEL 1
REMARK minimizedAffinity 6.16967535
REMARK minimizedRMSD -1
REMARK  0 active torsions:
REMARK  status: ('A' for Active; 'I' for Inactive)
ROOT
ATOM      1  N1  IND d   1       0.322   2.010  -5.937  0.00  0.00    -0.196 N 
ATOM      2  C2  IND d   1       1.470   2.752  -5.943  0.00  0.00     0.054 A 
ATOM      3  C3  IND d   1       1.177   4.072  -5.984  0.00  0.00    -0.031 A 
ATOM      4  C4  IND d   1      -1.116   5.240  -5.944  0.00  0.00     0.051 A 
ATOM      5  C5  IND d   1      -2.458   4.981  -5.977  0.00  0.00    -0.031 A 
ATOM      6  C6  IND d   1      -2.951   3.692  -5.995  0.00  0.00     0.015 A 
ATOM      7  C7  IND d   1      -2.118   2.610  -5.971  0.00  0.00    -0.016 A 
ATOM      8  C8  IND d   1      -0.755   2.869  -5.945  0.00  0.00    -0.047 A 
ATOM      9  C9  IND d   1      -0.247   4.175  -5.969  0.00  0.00    -0.096 A 
ATOM     10  HN1 IND d   1       0.280   1.152  -5.930  0.00  0.00     0.298 HD
ENDROOT
TORSDOF 0
ENDMDL
