MODEL 1
REMARK minimizedAffinity 10.415473
REMARK minimizedRMSD -1
REMARK  0 active torsions:
REMARK  status: ('A' for Active; 'I' for Inactive)
ROOT
ATOM      1  C   UNL d   1      -4.503   5.621  -3.756  0.00  0.00     0.020 A 
ATOM      2  C1  UNL d   1      -4.712   5.555  -5.133  0.00  0.00     0.020 A 
ATOM      3  C2  UNL d   1      -4.555   4.342  -5.806  0.00  0.00     0.034 A 
ATOM      4  C3  UNL d   1      -4.187   3.189  -5.103  0.00  0.00     0.017 A 
ATOM      5  C4  UNL d   1      -3.977   3.256  -3.721  0.00  0.00     0.017 A 
ATOM      6  C5  UNL d   1      -4.136   4.473  -3.052  0.00  0.00     0.034 A 
ATOM      7 Cl   UNL d   1      -3.521   1.876  -2.785  0.00  0.00    -0.070 Cl
ATOM      8 Cl1  UNL d   1      -4.011   1.723  -6.000  0.00  0.00    -0.070 Cl
ENDROOT
TORSDOF 0
ENDMDL
