MODEL 1
REMARK minimizedAffinity 2.62918067
REMARK minimizedRMSD -1
REMARK  0 active torsions:
REMARK  status: ('A' for Active; 'I' for Inactive)
ROOT
ATOM      1  C   UNL d   1       0.716  -0.579  -0.646  0.00  0.00     0.020 A 
ATOM      2  C1  UNL d   1      -0.299   0.204  -0.096  0.00  0.00     0.020 A 
ATOM      3  C2  UNL d   1      -1.063   1.035  -0.918  0.00  0.00     0.034 A 
ATOM      4  C3  UNL d   1      -0.814   1.085  -2.294  0.00  0.00     0.017 A 
ATOM      5  C4  UNL d   1       0.205   0.299  -2.846  0.00  0.00     0.017 A 
ATOM      6  C5  UNL d   1       0.967  -0.531  -2.018  0.00  0.00     0.034 A 
ATOM      7 Cl   UNL d   1       0.571   0.308  -4.535  0.00  0.00    -0.070 Cl
ATOM      8 Cl1  UNL d   1      -1.798   2.136  -3.251  0.00  0.00    -0.070 Cl
ENDROOT
TORSDOF 0
ENDMDL
