MODEL 1
REMARK minimizedAffinity 3.76442885
REMARK minimizedRMSD -1
REMARK  0 active torsions:
REMARK  status: ('A' for Active; 'I' for Inactive)
ROOT
ATOM      1  C   UNL d   1       5.647  -2.681  -4.307  0.00  0.00     0.020 A 
ATOM      2  C1  UNL d   1       4.822  -3.728  -4.714  0.00  0.00     0.020 A 
ATOM      3  C2  UNL d   1       3.602  -3.947  -4.071  0.00  0.00     0.034 A 
ATOM      4  C3  UNL d   1       3.203  -3.116  -3.017  0.00  0.00     0.017 A 
ATOM      5  C4  UNL d   1       4.032  -2.065  -2.609  0.00  0.00     0.017 A 
ATOM      6  C5  UNL d   1       5.253  -1.851  -3.257  0.00  0.00     0.034 A 
ATOM      7 Cl   UNL d   1       3.608  -0.998  -1.317  0.00  0.00    -0.070 Cl
ATOM      8 Cl1  UNL d   1       1.681  -3.444  -2.268  0.00  0.00    -0.070 Cl
ENDROOT
TORSDOF 0
ENDMDL
