MODEL 1
REMARK minimizedAffinity 6.50854683
REMARK minimizedRMSD -1
REMARK  0 active torsions:
REMARK  status: ('A' for Active; 'I' for Inactive)
ROOT
ATOM      1  C   UNL d   1      -5.361  -4.817  -5.995  0.00  0.00     0.020 A 
ATOM      2  C1  UNL d   1      -4.712  -6.000  -5.642  0.00  0.00     0.020 A 
ATOM      3  C2  UNL d   1      -3.360  -5.977  -5.292  0.00  0.00     0.034 A 
ATOM      4  C3  UNL d   1      -2.653  -4.770  -5.295  0.00  0.00     0.017 A 
ATOM      5  C4  UNL d   1      -3.305  -3.583  -5.650  0.00  0.00     0.017 A 
ATOM      6  C5  UNL d   1      -4.658  -3.612  -6.000  0.00  0.00     0.034 A 
ATOM      7 Cl   UNL d   1      -2.498  -2.055  -5.678  0.00  0.00    -0.070 Cl
ATOM      8 Cl1  UNL d   1      -0.983  -4.816  -4.852  0.00  0.00    -0.070 Cl
ENDROOT
TORSDOF 0
ENDMDL
