MODEL 1
REMARK minimizedAffinity 17.1620274
REMARK minimizedRMSD -1
REMARK  0 active torsions:
REMARK  status: ('A' for Active; 'I' for Inactive)
ROOT
ATOM      1  C   UNL d   1      -1.488   2.401   0.710  0.00  0.00     0.020 A 
ATOM      2  C1  UNL d   1      -0.471   2.523  -0.236  0.00  0.00     0.020 A 
ATOM      3  C2  UNL d   1       0.835   2.152   0.092  0.00  0.00     0.034 A 
ATOM      4  C3  UNL d   1       1.128   1.658   1.368  0.00  0.00     0.017 A 
ATOM      5  C4  UNL d   1       0.107   1.536   2.317  0.00  0.00     0.017 A 
ATOM      6  C5  UNL d   1      -1.199   1.908   1.984  0.00  0.00     0.034 A 
ATOM      7 Cl   UNL d   1       0.390   0.934   3.912  0.00  0.00    -0.070 Cl
ATOM      8 Cl1  UNL d   1       2.765   1.218   1.703  0.00  0.00    -0.070 Cl
ENDROOT
TORSDOF 0
ENDMDL
