MODEL 1
REMARK minimizedAffinity 11.9051037
REMARK minimizedRMSD -1
REMARK  0 active torsions:
REMARK  status: ('A' for Active; 'I' for Inactive)
ROOT
ATOM      1  C   UNL d   1       0.750  -2.115   5.681  0.00  0.00     0.020 A 
ATOM      2  C1  UNL d   1      -0.198  -1.144   5.999  0.00  0.00     0.020 A 
ATOM      3  C2  UNL d   1      -0.402  -0.061   5.142  0.00  0.00     0.034 A 
ATOM      4  C3  UNL d   1       0.342   0.053   3.962  0.00  0.00     0.017 A 
ATOM      5  C4  UNL d   1       1.293  -0.922   3.644  0.00  0.00     0.017 A 
ATOM      6  C5  UNL d   1       1.494  -2.005   4.506  0.00  0.00     0.034 A 
ATOM      7 Cl   UNL d   1       2.250  -0.850   2.206  0.00  0.00    -0.070 Cl
ATOM      8 Cl1  UNL d   1       0.036   1.419   2.948  0.00  0.00    -0.070 Cl
ENDROOT
TORSDOF 0
ENDMDL
