MODEL 1
REMARK minimizedAffinity 2.19416904
REMARK minimizedRMSD -1
REMARK  0 active torsions:
REMARK  status: ('A' for Active; 'I' for Inactive)
ROOT
ATOM      1  C   UNL d   1      -0.666   3.004  -1.072  0.00  0.00     0.020 A 
ATOM      2  C1  UNL d   1       0.723   3.005  -0.953  0.00  0.00     0.020 A 
ATOM      3  C2  UNL d   1       1.485   3.938  -1.659  0.00  0.00     0.034 A 
ATOM      4  C3  UNL d   1       0.857   4.875  -2.488  0.00  0.00     0.017 A 
ATOM      5  C4  UNL d   1      -0.537   4.874  -2.607  0.00  0.00     0.017 A 
ATOM      6  C5  UNL d   1      -1.294   3.937  -1.897  0.00  0.00     0.034 A 
ATOM      7 Cl   UNL d   1      -1.382   5.999  -3.611  0.00  0.00    -0.070 Cl
ATOM      8 Cl1  UNL d   1       1.861   6.000  -3.333  0.00  0.00    -0.070 Cl
ENDROOT
TORSDOF 0
ENDMDL
