MODEL 1
REMARK minimizedAffinity 8.77862644
REMARK minimizedRMSD -1
REMARK  0 active torsions:
REMARK  status: ('A' for Active; 'I' for Inactive)
ROOT
ATOM      1  C   UNL d   1       5.799  -2.219  -3.650  0.00  0.00     0.020 A 
ATOM      2  C1  UNL d   1       5.242  -1.832  -4.868  0.00  0.00     0.020 A 
ATOM      3  C2  UNL d   1       3.925  -1.372  -4.919  0.00  0.00     0.034 A 
ATOM      4  C3  UNL d   1       3.159  -1.298  -3.749  0.00  0.00     0.017 A 
ATOM      5  C4  UNL d   1       3.719  -1.687  -2.527  0.00  0.00     0.017 A 
ATOM      6  C5  UNL d   1       5.038  -2.147  -2.482  0.00  0.00     0.034 A 
ATOM      7 Cl   UNL d   1       2.837  -1.624  -1.042  0.00  0.00    -0.070 Cl
ATOM      8 Cl1  UNL d   1       1.537  -0.719  -3.886  0.00  0.00    -0.070 Cl
ENDROOT
TORSDOF 0
ENDMDL
