MODEL 1
REMARK minimizedAffinity 3.70787573
REMARK minimizedRMSD -1
REMARK  0 active torsions:
REMARK  status: ('A' for Active; 'I' for Inactive)
ROOT
ATOM      1  C   UNL d   1       0.046  -5.926  -1.650  0.00  0.00     0.020 A 
ATOM      2  C1  UNL d   1      -0.760  -5.738  -0.528  0.00  0.00     0.020 A 
ATOM      3  C2  UNL d   1      -0.180  -5.623   0.737  0.00  0.00     0.034 A 
ATOM      4  C3  UNL d   1       1.210  -5.697   0.883  0.00  0.00     0.017 A 
ATOM      5  C4  UNL d   1       2.018  -5.886  -0.243  0.00  0.00     0.017 A 
ATOM      6  C5  UNL d   1       1.432  -6.000  -1.508  0.00  0.00     0.034 A 
ATOM      7 Cl   UNL d   1       3.741  -5.986  -0.142  0.00  0.00    -0.070 Cl
ATOM      8 Cl1  UNL d   1       1.860  -5.546   2.478  0.00  0.00    -0.070 Cl
ENDROOT
TORSDOF 0
ENDMDL
