MODEL 1
REMARK minimizedAffinity -5.49850702
REMARK minimizedRMSD -1
REMARK  0 active torsions:
REMARK  status: ('A' for Active; 'I' for Inactive)
ROOT
ATOM      1  C   UNL d   1       1.049  -0.020  -0.926  0.00  0.00     0.020 A 
ATOM      2  C1  UNL d   1       0.331   1.162  -1.108  0.00  0.00     0.020 A 
ATOM      3  C2  UNL d   1      -0.017   1.944  -0.005  0.00  0.00     0.034 A 
ATOM      4  C3  UNL d   1       0.353   1.546   1.285  0.00  0.00     0.017 A 
ATOM      5  C4  UNL d   1       1.073   0.359   1.467  0.00  0.00     0.017 A 
ATOM      6  C5  UNL d   1       1.419  -0.420   0.358  0.00  0.00     0.034 A 
ATOM      7 Cl   UNL d   1       1.565  -0.197   3.027  0.00  0.00    -0.070 Cl
ATOM      8 Cl1  UNL d   1      -0.110   2.562   2.604  0.00  0.00    -0.070 Cl
ENDROOT
TORSDOF 0
ENDMDL
