MODEL 1
REMARK minimizedAffinity -3.17681026
REMARK minimizedRMSD -1
REMARK  3 active torsions:
REMARK  status: ('A' for Active; 'I' for Inactive)
REMARK    1  A    between atoms: C3'_2  and  C2'_3 
REMARK    2  A    between atoms: C2'_3  and  C1'_4 
REMARK    3  A    between atoms: C1'_4  and  C1_5 
ROOT
ATOM      1  C1  N4B d   1       1.056  -0.270  -3.880  0.00  0.00    -0.075 A 
ATOM      2  C2  N4B d   1       0.381  -1.406  -4.378  0.00  0.00     0.002 A 
ATOM      3  C3  N4B d   1      -0.485  -1.281  -5.437  0.00  0.00     0.002 A 
ATOM      4  C4  N4B d   1      -0.704  -0.033  -5.999  0.00  0.00    -0.004 A 
ATOM      5  C5  N4B d   1      -0.029   1.055  -5.530  0.00  0.00     0.002 A 
ATOM      6  C6  N4B d   1       0.847   0.944  -4.469  0.00  0.00     0.002 A 
ENDROOT
BRANCH   1   7
ATOM      7  C1' N4B d   1       1.947  -0.342  -2.670  0.00  0.00     0.057 C 
BRANCH   7   8
ATOM      8  C2' N4B d   1       1.218  -1.087  -1.556  0.00  0.00     0.009 C 
BRANCH   8   9
ATOM      9  C3' N4B d   1       0.005  -0.319  -1.058  0.00  0.00     0.004 C 
ATOM     10  C4' N4B d   1       0.125   0.086   0.381  0.00  0.00     0.003 C 
ENDBRANCH   8   9
ENDBRANCH   7   8
ENDBRANCH   1   7
TORSDOF 3
ENDMDL
