MODEL 1
REMARK minimizedAffinity -3.63929272
REMARK minimizedRMSD -1
REMARK  3 active torsions:
REMARK  status: ('A' for Active; 'I' for Inactive)
REMARK    1  A    between atoms: C3'_2  and  C2'_3 
REMARK    2  A    between atoms: C2'_3  and  C1'_4 
REMARK    3  A    between atoms: C1'_4  and  C1_5 
ROOT
ATOM      1  C1  N4B d   1       0.166  -0.357  -0.731  0.00  0.00    -0.075 A 
ATOM      2  C2  N4B d   1      -1.015   0.129  -0.128  0.00  0.00     0.002 A 
ATOM      3  C3  N4B d   1      -1.118   0.177   1.240  0.00  0.00     0.002 A 
ATOM      4  C4  N4B d   1      -0.065  -0.272   2.023  0.00  0.00    -0.004 A 
ATOM      5  C5  N4B d   1       1.082  -0.716   1.434  0.00  0.00     0.002 A 
ATOM      6  C6  N4B d   1       1.201  -0.766   0.059  0.00  0.00     0.002 A 
ENDROOT
BRANCH   1   7
ATOM      7  C1' N4B d   1       0.293  -0.509  -2.222  0.00  0.00     0.057 C 
BRANCH   7   8
ATOM      8  C2' N4B d   1       1.627   0.077  -2.674  0.00  0.00     0.009 C 
BRANCH   8   9
ATOM      9  C3' N4B d   1       1.625   0.419  -4.154  0.00  0.00     0.004 C 
ATOM     10  C4' N4B d   1       0.252   0.714  -4.681  0.00  0.00     0.003 C 
ENDBRANCH   8   9
ENDBRANCH   7   8
ENDBRANCH   1   7
TORSDOF 3
ENDMDL
