MODEL 1
REMARK minimizedAffinity -1.21910369
REMARK minimizedRMSD -1
REMARK  3 active torsions:
REMARK  status: ('A' for Active; 'I' for Inactive)
REMARK    1  A    between atoms: C3'_2  and  C2'_3 
REMARK    2  A    between atoms: C2'_3  and  C1'_4 
REMARK    3  A    between atoms: C1'_4  and  C1_5 
ROOT
ATOM      1  C1  N4B d   1      -0.313   0.244   1.955  0.00  0.00    -0.075 A 
ATOM      2  C2  N4B d   1      -0.292   0.157   3.364  0.00  0.00     0.002 A 
ATOM      3  C3  N4B d   1       0.871  -0.173   4.015  0.00  0.00     0.002 A 
ATOM      4  C4  N4B d   1       2.017  -0.437   3.279  0.00  0.00    -0.004 A 
ATOM      5  C5  N4B d   1       1.995  -0.326   1.920  0.00  0.00     0.002 A 
ATOM      6  C6  N4B d   1       0.834   0.008   1.253  0.00  0.00     0.002 A 
ENDROOT
BRANCH   1   7
ATOM      7  C1' N4B d   1      -1.582   0.518   1.194  0.00  0.00     0.057 C 
BRANCH   7   8
ATOM      8  C2' N4B d   1      -1.306   0.392  -0.301  0.00  0.00     0.009 C 
BRANCH   8   9
ATOM      9  C3' N4B d   1      -1.601  -1.006  -0.818  0.00  0.00     0.004 C 
ATOM     10  C4' N4B d   1      -3.050  -1.209  -1.147  0.00  0.00     0.003 C 
ENDBRANCH   8   9
ENDBRANCH   7   8
ENDBRANCH   1   7
TORSDOF 3
ENDMDL
