MODEL 1
REMARK minimizedAffinity -4.5358057
REMARK minimizedRMSD -1
REMARK  3 active torsions:
REMARK  status: ('A' for Active; 'I' for Inactive)
REMARK    1  A    between atoms: C3'_2  and  C2'_3 
REMARK    2  A    between atoms: C2'_3  and  C1'_4 
REMARK    3  A    between atoms: C1'_4  and  C1_5 
ROOT
ATOM      1  C1  N4B d   1       0.681  -0.689  -1.105  0.00  0.00    -0.075 A 
ATOM      2  C2  N4B d   1       1.757  -0.835  -0.202  0.00  0.00     0.002 A 
ATOM      3  C3  N4B d   1       1.558  -0.632   1.142  0.00  0.00     0.002 A 
ATOM      4  C4  N4B d   1       0.302  -0.266   1.601  0.00  0.00    -0.004 A 
ATOM      5  C5  N4B d   1      -0.738  -0.152   0.726  0.00  0.00     0.002 A 
ATOM      6  C6  N4B d   1      -0.553  -0.357  -0.627  0.00  0.00     0.002 A 
ENDROOT
BRANCH   1   7
ATOM      7  C1' N4B d   1       0.869  -0.816  -2.592  0.00  0.00     0.057 C 
BRANCH   7   8
ATOM      8  C2' N4B d   1       2.090  -0.002  -3.013  0.00  0.00     0.009 C 
BRANCH   8   9
ATOM      9  C3' N4B d   1       1.774   0.943  -4.160  0.00  0.00     0.004 C 
ATOM     10  C4' N4B d   1       0.322   0.935  -4.536  0.00  0.00     0.003 C 
ENDBRANCH   8   9
ENDBRANCH   7   8
ENDBRANCH   1   7
TORSDOF 3
ENDMDL
