MODEL 1
REMARK minimizedAffinity -3.66511798
REMARK minimizedRMSD -1
REMARK  3 active torsions:
REMARK  status: ('A' for Active; 'I' for Inactive)
REMARK    1  A    between atoms: C3'_2  and  C2'_3 
REMARK    2  A    between atoms: C2'_3  and  C1'_4 
REMARK    3  A    between atoms: C1'_4  and  C1_5 
ROOT
ATOM      1  C1  N4B d   1      -0.816  -0.077  -0.830  0.00  0.00    -0.075 A 
ATOM      2  C2  N4B d   1      -1.943   0.724  -0.539  0.00  0.00     0.002 A 
ATOM      3  C3  N4B d   1      -2.297   0.961   0.766  0.00  0.00     0.002 A 
ATOM      4  C4  N4B d   1      -1.555   0.397   1.792  0.00  0.00    -0.004 A 
ATOM      5  C5  N4B d   1      -0.453  -0.354   1.503  0.00  0.00     0.002 A 
ATOM      6  C6  N4B d   1      -0.083  -0.598   0.196  0.00  0.00     0.002 A 
ENDROOT
BRANCH   1   7
ATOM      7  C1' N4B d   1      -0.440  -0.435  -2.242  0.00  0.00     0.057 C 
BRANCH   7   8
ATOM      8  C2' N4B d   1       1.007  -0.022  -2.495  0.00  0.00     0.009 C 
BRANCH   8   9
ATOM      9  C3' N4B d   1       1.113   1.049  -3.567  0.00  0.00     0.004 C 
ATOM     10  C4' N4B d   1       0.047   0.930  -4.615  0.00  0.00     0.003 C 
ENDBRANCH   8   9
ENDBRANCH   7   8
ENDBRANCH   1   7
TORSDOF 3
ENDMDL
