MODEL 1
REMARK minimizedAffinity 3.10205436
REMARK minimizedRMSD -1
REMARK  0 active torsions:
REMARK  status: ('A' for Active; 'I' for Inactive)
ROOT
ATOM      1  N1  IND d   1       0.310   0.820  -1.123  0.00  0.00    -0.196 N 
ATOM      2  C2  IND d   1       0.214  -0.515  -1.402  0.00  0.00     0.054 A 
ATOM      3  C3  IND d   1       0.395  -1.244  -0.278  0.00  0.00    -0.031 A 
ATOM      4  C4  IND d   1       0.759  -0.454   2.144  0.00  0.00     0.051 A 
ATOM      5  C5  IND d   1       0.956   0.673   2.892  0.00  0.00    -0.031 A 
ATOM      6  C6  IND d   1       0.944   1.933   2.328  0.00  0.00     0.015 A 
ATOM      7  C7  IND d   1       0.724   2.113   0.992  0.00  0.00    -0.016 A 
ATOM      8  C8  IND d   1       0.531   0.970   0.229  0.00  0.00    -0.047 A 
ATOM      9  C9  IND d   1       0.583  -0.313   0.788  0.00  0.00    -0.096 A 
ATOM     10  HN1 IND d   1       0.244   1.458  -1.695  0.00  0.00     0.298 HD
ENDROOT
TORSDOF 0
ENDMDL
