MODEL 1
REMARK minimizedAffinity 4.59198093
REMARK minimizedRMSD -1
REMARK  0 active torsions:
REMARK  status: ('A' for Active; 'I' for Inactive)
ROOT
ATOM      1  N1  IND d   1       1.428   4.114   1.543  0.00  0.00    -0.196 N 
ATOM      2  C2  IND d   1       2.048   4.209   2.758  0.00  0.00     0.054 A 
ATOM      3  C3  IND d   1       1.790   3.112   3.505  0.00  0.00    -0.031 A 
ATOM      4  C4  IND d   1       0.462   0.993   2.894  0.00  0.00     0.051 A 
ATOM      5  C5  IND d   1      -0.320   0.458   1.908  0.00  0.00    -0.031 A 
ATOM      6  C6  IND d   1      -0.562   1.128   0.726  0.00  0.00     0.015 A 
ATOM      7  C7  IND d   1      -0.019   2.357   0.479  0.00  0.00    -0.016 A 
ATOM      8  C8  IND d   1       0.770   2.906   1.480  0.00  0.00    -0.047 A 
ATOM      9  C9  IND d   1       0.984   2.250   2.700  0.00  0.00    -0.096 A 
ATOM     10  HN1 IND d   1       1.446   4.709   0.923  0.00  0.00     0.298 HD
ENDROOT
TORSDOF 0
ENDMDL
