MODEL 1
REMARK minimizedAffinity 6.28177404
REMARK minimizedRMSD -1
REMARK  0 active torsions:
REMARK  status: ('A' for Active; 'I' for Inactive)
ROOT
ATOM      1  N1  IND d   1       1.948  -1.083   3.476  0.00  0.00    -0.196 N 
ATOM      2  C2  IND d   1       3.265  -1.084   3.108  0.00  0.00     0.054 A 
ATOM      3  C3  IND d   1       3.382  -0.872   1.778  0.00  0.00    -0.031 A 
ATOM      4  C4  IND d   1       1.553  -0.397   0.030  0.00  0.00     0.051 A 
ATOM      5  C5  IND d   1       0.196  -0.331  -0.119  0.00  0.00    -0.031 A 
ATOM      6  C6  IND d   1      -0.664  -0.514   0.945  0.00  0.00     0.015 A 
ATOM      7  C7  IND d   1      -0.196  -0.759   2.205  0.00  0.00    -0.016 A 
ATOM      8  C8  IND d   1       1.181  -0.833   2.359  0.00  0.00    -0.047 A 
ATOM      9  C9  IND d   1       2.057  -0.691   1.275  0.00  0.00    -0.096 A 
ATOM     10  HN1 IND d   1       1.649  -1.215   4.271  0.00  0.00     0.298 HD
ENDROOT
TORSDOF 0
ENDMDL
