MODEL 1
REMARK minimizedAffinity 9.15088654
REMARK minimizedRMSD -1
REMARK  0 active torsions:
REMARK  status: ('A' for Active; 'I' for Inactive)
ROOT
ATOM      1  N1  IND d   1      -0.479   2.180  -0.691  0.00  0.00    -0.196 N 
ATOM      2  C2  IND d   1      -0.287   3.521  -0.879  0.00  0.00     0.054 A 
ATOM      3  C3  IND d   1       0.167   4.095   0.258  0.00  0.00    -0.031 A 
ATOM      4  C4  IND d   1       0.764   3.007   2.514  0.00  0.00     0.051 A 
ATOM      5  C5  IND d   1       0.722   1.814   3.179  0.00  0.00    -0.031 A 
ATOM      6  C6  IND d   1       0.271   0.658   2.575  0.00  0.00     0.015 A 
ATOM      7  C7  IND d   1      -0.146   0.650   1.274  0.00  0.00    -0.016 A 
ATOM      8  C8  IND d   1      -0.112   1.861   0.598  0.00  0.00    -0.047 A 
ATOM      9  C9  IND d   1       0.305   3.046   1.218  0.00  0.00    -0.096 A 
ATOM     10  HN1 IND d   1      -0.779   1.629  -1.279  0.00  0.00     0.298 HD
ENDROOT
TORSDOF 0
ENDMDL
