MODEL 1
REMARK minimizedAffinity 18.6558571
REMARK minimizedRMSD -1
REMARK  0 active torsions:
REMARK  status: ('A' for Active; 'I' for Inactive)
ROOT
ATOM      1  N1  IND d   1      -0.081   0.840   1.179  0.00  0.00    -0.196 N 
ATOM      2  C2  IND d   1      -0.013  -0.043   2.221  0.00  0.00     0.054 A 
ATOM      3  C3  IND d   1       0.681   0.495   3.249  0.00  0.00    -0.031 A 
ATOM      4  C4  IND d   1       1.707   2.845   3.477  0.00  0.00     0.051 A 
ATOM      5  C5  IND d   1       1.933   3.995   2.773  0.00  0.00    -0.031 A 
ATOM      6  C6  IND d   1       1.489   4.155   1.477  0.00  0.00     0.015 A 
ATOM      7  C7  IND d   1       0.788   3.172   0.837  0.00  0.00    -0.016 A 
ATOM      8  C8  IND d   1       0.562   2.001   1.546  0.00  0.00    -0.047 A 
ATOM      9  C9  IND d   1       1.048   1.816   2.847  0.00  0.00    -0.096 A 
ATOM     10  HN1 IND d   1      -0.462   0.694   0.422  0.00  0.00     0.298 HD
ENDROOT
TORSDOF 0
ENDMDL
