MODEL 1
REMARK minimizedAffinity 8.86448669
REMARK minimizedRMSD -1
REMARK  0 active torsions:
REMARK  status: ('A' for Active; 'I' for Inactive)
ROOT
ATOM      1  N1  IND d   1       1.036   0.143   0.071  0.00  0.00    -0.196 N 
ATOM      2  C2  IND d   1       0.860  -0.929   0.901  0.00  0.00     0.054 A 
ATOM      3  C3  IND d   1      -0.257  -1.609   0.561  0.00  0.00    -0.031 A 
ATOM      4  C4  IND d   1      -1.891  -1.202  -1.387  0.00  0.00     0.051 A 
ATOM      5  C5  IND d   1      -2.166  -0.322  -2.396  0.00  0.00    -0.031 A 
ATOM      6  C6  IND d   1      -1.371   0.779  -2.641  0.00  0.00     0.015 A 
ATOM      7  C7  IND d   1      -0.259   1.035  -1.889  0.00  0.00    -0.016 A 
ATOM      8  C8  IND d   1       0.020   0.148  -0.860  0.00  0.00    -0.047 A 
ATOM      9  C9  IND d   1      -0.807  -0.948  -0.580  0.00  0.00    -0.096 A 
ATOM     10  HN1 IND d   1       1.674   0.717   0.121  0.00  0.00     0.298 HD
ENDROOT
TORSDOF 0
ENDMDL
