MODEL 1
REMARK minimizedAffinity 2.4769969
REMARK minimizedRMSD -1
REMARK  1 active torsions:
REMARK  status: ('A' for Active; 'I' for Inactive)
REMARK    1  A    between atoms: C3_4  and  O_7 
ROOT
ATOM      1  C   UNL d   1      -2.773   0.531   1.017  0.00  0.00    -0.033 A 
ATOM      2  C1  UNL d   1      -2.334   0.022  -0.206  0.00  0.00     0.039 A 
ATOM      3  C2  UNL d   1      -0.984  -0.278  -0.396  0.00  0.00    -0.080 A 
ATOM      4  C3  UNL d   1      -0.084  -0.066   0.645  0.00  0.00     0.150 A 
ATOM      5  C4  UNL d   1      -0.515   0.437   1.868  0.00  0.00    -0.007 A 
ATOM      6  C5  UNL d   1      -1.864   0.737   2.055  0.00  0.00     0.039 A 
ENDROOT
BRANCH   4   7
ATOM      7  O   UNL d   1       1.244  -0.340   0.505  0.00  0.00    -0.526 OA
ATOM      8  H5  UNL d   1       1.400  -0.654  -0.401  0.00  0.00     0.418 HD
ENDBRANCH   4   7
TORSDOF 1
ENDMDL
