MODEL 1
REMARK minimizedAffinity 3.80126858
REMARK minimizedRMSD -1
REMARK  1 active torsions:
REMARK  status: ('A' for Active; 'I' for Inactive)
REMARK    1  A    between atoms: C3_4  and  O_7 
ROOT
ATOM      1  C   UNL d   1      -3.456  -0.638   3.193  0.00  0.00    -0.033 A 
ATOM      2  C1  UNL d   1      -2.808  -1.497   4.082  0.00  0.00     0.039 A 
ATOM      3  C2  UNL d   1      -1.419  -1.628   4.042  0.00  0.00    -0.080 A 
ATOM      4  C3  UNL d   1      -0.690  -0.893   3.111  0.00  0.00     0.150 A 
ATOM      5  C4  UNL d   1      -1.329  -0.032   2.225  0.00  0.00    -0.007 A 
ATOM      6  C5  UNL d   1      -2.716   0.096   2.265  0.00  0.00     0.039 A 
ENDROOT
BRANCH   4   7
ATOM      7  O   UNL d   1       0.668  -0.991   3.032  0.00  0.00    -0.526 OA
ATOM      8  H5  UNL d   1       0.968  -1.644   3.685  0.00  0.00     0.418 HD
ENDBRANCH   4   7
TORSDOF 1
ENDMDL
