MODEL 1
REMARK minimizedAffinity 2.07629323
REMARK minimizedRMSD -1
REMARK  1 active torsions:
REMARK  status: ('A' for Active; 'I' for Inactive)
REMARK    1  A    between atoms: C3_4  and  O_7 
ROOT
ATOM      1  C   UNL d   1      -3.564  -0.558   2.767  0.00  0.00    -0.033 A 
ATOM      2  C1  UNL d   1      -3.180  -1.472   3.750  0.00  0.00     0.039 A 
ATOM      3  C2  UNL d   1      -1.834  -1.599   4.100  0.00  0.00    -0.080 A 
ATOM      4  C3  UNL d   1      -0.884  -0.808   3.461  0.00  0.00     0.150 A 
ATOM      5  C4  UNL d   1      -1.260   0.108   2.483  0.00  0.00    -0.007 A 
ATOM      6  C5  UNL d   1      -2.605   0.233   2.135  0.00  0.00     0.039 A 
ENDROOT
BRANCH   4   7
ATOM      7  O   UNL d   1       0.441  -0.900   3.765  0.00  0.00    -0.526 OA
ATOM      8  H5  UNL d   1       0.556  -1.593   4.436  0.00  0.00     0.418 HD
ENDBRANCH   4   7
TORSDOF 1
ENDMDL
