MODEL 1
REMARK minimizedAffinity 5.57123137
REMARK minimizedRMSD -1
REMARK  1 active torsions:
REMARK  status: ('A' for Active; 'I' for Inactive)
REMARK    1  A    between atoms: C3_4  and  O_7 
ROOT
ATOM      1  C   UNL d   1      -0.103  -0.370  -0.809  0.00  0.00    -0.033 A 
ATOM      2  C1  UNL d   1      -1.497  -0.315  -0.863  0.00  0.00     0.039 A 
ATOM      3  C2  UNL d   1      -2.228   0.036   0.274  0.00  0.00    -0.080 A 
ATOM      4  C3  UNL d   1      -1.554   0.331   1.456  0.00  0.00     0.150 A 
ATOM      5  C4  UNL d   1      -0.166   0.282   1.516  0.00  0.00    -0.007 A 
ATOM      6  C5  UNL d   1       0.563  -0.070   0.380  0.00  0.00     0.039 A 
ENDROOT
BRANCH   4   7
ATOM      7  O   UNL d   1      -2.225   0.674   2.592  0.00  0.00    -0.526 OA
ATOM      8  H5  UNL d   1      -3.179   0.638   2.409  0.00  0.00     0.418 HD
ENDBRANCH   4   7
TORSDOF 1
ENDMDL
