MODEL 1
REMARK minimizedAffinity 4.55126715
REMARK minimizedRMSD -1
REMARK  0 active torsions:
REMARK  status: ('A' for Active; 'I' for Inactive)
ROOT
ATOM      1  C1  DEN d   1      -2.000   0.415   1.929  0.00  0.00     0.130 A 
ATOM      2  C2  DEN d   1      -3.330   0.475   1.327  0.00  0.00    -0.031 A 
ATOM      3  C3  DEN d   1      -3.217   0.021  -0.074  0.00  0.00     0.027 A 
ATOM      4  C4  DEN d   1      -1.126  -0.769  -1.361  0.00  0.00     0.027 A 
ATOM      5  C5  DEN d   1       0.232  -0.981  -1.273  0.00  0.00    -0.003 A 
ATOM      6  C6  DEN d   1       0.941  -0.713  -0.133  0.00  0.00     0.001 A 
ATOM      7  C7  DEN d   1       0.287  -0.259   0.982  0.00  0.00     0.017 A 
ATOM      8  C8  DEN d   1      -1.081  -0.036   0.900  0.00  0.00    -0.094 A 
ATOM      9  C9  DEN d   1      -1.782  -0.325  -0.259  0.00  0.00    -0.072 A 
ENDROOT
TORSDOF 0
ENDMDL
