MODEL 1
REMARK minimizedAffinity 1.93019342
REMARK minimizedRMSD -1
REMARK  0 active torsions:
REMARK  status: ('A' for Active; 'I' for Inactive)
ROOT
ATOM      1  C1  DEN d   1      -1.719  -0.513   2.955  0.00  0.00     0.130 A 
ATOM      2  C2  DEN d   1      -0.729  -0.750   4.002  0.00  0.00    -0.031 A 
ATOM      3  C3  DEN d   1       0.605  -0.779   3.370  0.00  0.00     0.027 A 
ATOM      4  C4  DEN d   1       1.231  -0.478   0.886  0.00  0.00     0.027 A 
ATOM      5  C5  DEN d   1       0.732  -0.264  -0.380  0.00  0.00    -0.003 A 
ATOM      6  C6  DEN d   1      -0.611  -0.154  -0.626  0.00  0.00     0.001 A 
ATOM      7  C7  DEN d   1      -1.499  -0.212   0.416  0.00  0.00     0.017 A 
ATOM      8  C8  DEN d   1      -1.003  -0.434   1.694  0.00  0.00    -0.094 A 
ATOM      9  C9  DEN d   1       0.359  -0.530   1.924  0.00  0.00    -0.072 A 
ENDROOT
TORSDOF 0
ENDMDL
