MODEL 1
REMARK minimizedAffinity 2.80050278
REMARK minimizedRMSD -1
REMARK  0 active torsions:
REMARK  status: ('A' for Active; 'I' for Inactive)
ROOT
ATOM      1  C1  DEN d   1       0.456  -0.188  -0.098  0.00  0.00     0.130 A 
ATOM      2  C2  DEN d   1      -0.717   0.197  -0.877  0.00  0.00    -0.031 A 
ATOM      3  C3  DEN d   1      -1.883   0.213   0.029  0.00  0.00     0.027 A 
ATOM      4  C4  DEN d   1      -1.983  -0.313   2.552  0.00  0.00     0.027 A 
ATOM      5  C5  DEN d   1      -1.244  -0.698   3.649  0.00  0.00    -0.003 A 
ATOM      6  C6  DEN d   1       0.096  -0.971   3.567  0.00  0.00     0.001 A 
ATOM      7  C7  DEN d   1       0.748  -0.819   2.372  0.00  0.00     0.017 A 
ATOM      8  C8  DEN d   1       0.008  -0.438   1.260  0.00  0.00    -0.094 A 
ATOM      9  C9  DEN d   1      -1.343  -0.154   1.366  0.00  0.00    -0.072 A 
ENDROOT
TORSDOF 0
ENDMDL
