MODEL 1
REMARK minimizedAffinity 2.72271109
REMARK minimizedRMSD -1
REMARK  0 active torsions:
REMARK  status: ('A' for Active; 'I' for Inactive)
ROOT
ATOM      1  C1  DEN d   1       1.477  -0.417  -0.156  0.00  0.00     0.130 A 
ATOM      2  C2  DEN d   1       2.266  -0.691   1.042  0.00  0.00    -0.031 A 
ATOM      3  C3  DEN d   1       1.343  -0.749   2.193  0.00  0.00     0.027 A 
ATOM      4  C4  DEN d   1      -1.218  -0.447   2.237  0.00  0.00     0.027 A 
ATOM      5  C5  DEN d   1      -2.331  -0.185   1.468  0.00  0.00    -0.003 A 
ATOM      6  C6  DEN d   1      -2.249   0.049   0.121  0.00  0.00     0.001 A 
ATOM      7  C7  DEN d   1      -1.034  -0.019  -0.507  0.00  0.00     0.017 A 
ATOM      8  C8  DEN d   1       0.094  -0.274   0.263  0.00  0.00    -0.094 A 
ATOM      9  C9  DEN d   1      -0.011  -0.520   1.621  0.00  0.00    -0.072 A 
ENDROOT
TORSDOF 0
ENDMDL
