MODEL 1
REMARK minimizedAffinity -0.541261315
REMARK minimizedRMSD -1
REMARK  0 active torsions:
REMARK  status: ('A' for Active; 'I' for Inactive)
ROOT
ATOM      1  C1  DEN d   1      -1.446  -0.673   4.177  0.00  0.00     0.130 A 
ATOM      2  C2  DEN d   1      -0.141  -1.231   4.521  0.00  0.00    -0.031 A 
ATOM      3  C3  DEN d   1       0.692  -1.231   3.302  0.00  0.00     0.027 A 
ATOM      4  C4  DEN d   1       0.092  -0.422   0.927  0.00  0.00     0.027 A 
ATOM      5  C5  DEN d   1      -0.903   0.120   0.144  0.00  0.00    -0.003 A 
ATOM      6  C6  DEN d   1      -2.149   0.402   0.637  0.00  0.00     0.001 A 
ATOM      7  C7  DEN d   1      -2.419   0.185   1.963  0.00  0.00     0.017 A 
ATOM      8  C8  DEN d   1      -1.423  -0.368   2.757  0.00  0.00    -0.094 A 
ATOM      9  C9  DEN d   1      -0.166  -0.635   2.242  0.00  0.00    -0.072 A 
ENDROOT
TORSDOF 0
ENDMDL
