MODEL 1
REMARK minimizedAffinity 0.149891973
REMARK minimizedRMSD -1
REMARK  0 active torsions:
REMARK  status: ('A' for Active; 'I' for Inactive)
ROOT
ATOM      1  C1  DEN d   1      -2.044   0.171   2.700  0.00  0.00     0.130 A 
ATOM      2  C2  DEN d   1      -3.169   0.750   1.971  0.00  0.00    -0.031 A 
ATOM      3  C3  DEN d   1      -2.825   0.763   0.535  0.00  0.00     0.027 A 
ATOM      4  C4  DEN d   1      -0.672  -0.058  -0.624  0.00  0.00     0.027 A 
ATOM      5  C5  DEN d   1       0.571  -0.616  -0.419  0.00  0.00    -0.003 A 
ATOM      6  C6  DEN d   1       1.038  -0.917   0.833  0.00  0.00     0.001 A 
ATOM      7  C7  DEN d   1       0.240  -0.703   1.925  0.00  0.00     0.017 A 
ATOM      8  C8  DEN d   1      -1.011  -0.134   1.727  0.00  0.00    -0.094 A 
ATOM      9  C9  DEN d   1      -1.470   0.152   0.453  0.00  0.00    -0.072 A 
ENDROOT
TORSDOF 0
ENDMDL
