MODEL 1
REMARK minimizedAffinity 3.0786674
REMARK minimizedRMSD -1
REMARK  0 active torsions:
REMARK  status: ('A' for Active; 'I' for Inactive)
ROOT
ATOM      1  C1  DEN d   1       4.056   0.132  -3.925  0.00  0.00     0.130 A 
ATOM      2  C2  DEN d   1       2.861   0.915  -4.231  0.00  0.00    -0.031 A 
ATOM      3  C3  DEN d   1       2.325   1.445  -2.961  0.00  0.00     0.027 A 
ATOM      4  C4  DEN d   1       3.227   1.135  -0.564  0.00  0.00     0.027 A 
ATOM      5  C5  DEN d   1       4.210   0.542   0.197  0.00  0.00    -0.003 A 
ATOM      6  C6  DEN d   1       5.182  -0.250  -0.353  0.00  0.00     0.001 A 
ATOM      7  C7  DEN d   1       5.220  -0.434  -1.710  0.00  0.00     0.017 A 
ATOM      8  C8  DEN d   1       4.228   0.154  -2.484  0.00  0.00    -0.094 A 
ATOM      9  C9  DEN d   1       3.261   0.961  -1.910  0.00  0.00    -0.072 A 
ENDROOT
TORSDOF 0
ENDMDL
