MODEL 1
REMARK minimizedAffinity 4.2581358
REMARK minimizedRMSD -1
REMARK  0 active torsions:
REMARK  status: ('A' for Active; 'I' for Inactive)
ROOT
ATOM      1  C1  DEN d   1       2.242   0.158   0.815  0.00  0.00     0.130 A 
ATOM      2  C2  DEN d   1       1.048  -0.500   0.292  0.00  0.00    -0.031 A 
ATOM      3  C3  DEN d   1       1.001  -0.272  -1.166  0.00  0.00     0.027 A 
ATOM      4  C4  DEN d   1       2.657   1.027  -2.658  0.00  0.00     0.027 A 
ATOM      5  C5  DEN d   1       3.816   1.771  -2.665  0.00  0.00    -0.003 A 
ATOM      6  C6  DEN d   1       4.508   2.056  -1.518  0.00  0.00     0.001 A 
ATOM      7  C7  DEN d   1       4.071   1.555  -0.320  0.00  0.00     0.017 A 
ATOM      8  C8  DEN d   1       2.898   0.811  -0.304  0.00  0.00    -0.094 A 
ATOM      9  C9  DEN d   1       2.220   0.524  -1.476  0.00  0.00    -0.072 A 
ENDROOT
TORSDOF 0
ENDMDL
