MODEL 1
REMARK minimizedAffinity 4.02104139
REMARK minimizedRMSD -1
REMARK  0 active torsions:
REMARK  status: ('A' for Active; 'I' for Inactive)
ROOT
ATOM      1  C   UNL d   1       0.490   0.448   0.744  0.00  0.00     0.020 A 
ATOM      2  C1  UNL d   1       0.586   1.807   1.039  0.00  0.00     0.020 A 
ATOM      3  C2  UNL d   1      -0.370   2.413   1.857  0.00  0.00     0.034 A 
ATOM      4  C3  UNL d   1      -1.427   1.660   2.382  0.00  0.00     0.017 A 
ATOM      5  C4  UNL d   1      -1.522   0.296   2.085  0.00  0.00     0.017 A 
ATOM      6  C5  UNL d   1      -0.562  -0.306   1.266  0.00  0.00     0.034 A 
ATOM      7 Cl   UNL d   1      -2.797  -0.698   2.696  0.00  0.00    -0.070 Cl
ATOM      8 Cl1  UNL d   1      -2.573   2.475   3.385  0.00  0.00    -0.070 Cl
ENDROOT
TORSDOF 0
ENDMDL
