MODEL 1
REMARK minimizedAffinity -1.8040483
REMARK minimizedRMSD -1
REMARK  0 active torsions:
REMARK  status: ('A' for Active; 'I' for Inactive)
ROOT
ATOM      1  C   UNL d   1       0.009   0.336   1.146  0.00  0.00     0.020 A 
ATOM      2  C1  UNL d   1       0.007   1.686   1.494  0.00  0.00     0.020 A 
ATOM      3  C2  UNL d   1      -1.047   2.213   2.243  0.00  0.00     0.034 A 
ATOM      4  C3  UNL d   1      -2.103   1.389   2.648  0.00  0.00     0.017 A 
ATOM      5  C4  UNL d   1      -2.101   0.034   2.299  0.00  0.00     0.017 A 
ATOM      6  C5  UNL d   1      -1.043  -0.488   1.548  0.00  0.00     0.034 A 
ATOM      7 Cl   UNL d   1      -3.369  -1.045   2.762  0.00  0.00    -0.070 Cl
ATOM      8 Cl1  UNL d   1      -3.373   2.108   3.574  0.00  0.00    -0.070 Cl
ENDROOT
TORSDOF 0
ENDMDL
