MODEL 1
REMARK minimizedAffinity -1.77295005
REMARK minimizedRMSD -1
REMARK  0 active torsions:
REMARK  status: ('A' for Active; 'I' for Inactive)
ROOT
ATOM      1  C   UNL d   1      -0.070   1.296   1.534  0.00  0.00     0.020 A 
ATOM      2  C1  UNL d   1       0.002  -0.090   1.400  0.00  0.00     0.020 A 
ATOM      3  C2  UNL d   1      -0.952  -0.902   2.016  0.00  0.00     0.034 A 
ATOM      4  C3  UNL d   1      -1.983  -0.328   2.769  0.00  0.00     0.017 A 
ATOM      5  C4  UNL d   1      -2.055   1.063   2.903  0.00  0.00     0.017 A 
ATOM      6  C5  UNL d   1      -1.097   1.871   2.283  0.00  0.00     0.034 A 
ATOM      7 Cl   UNL d   1      -3.298   1.843   3.815  0.00  0.00    -0.070 Cl
ATOM      8 Cl1  UNL d   1      -3.130  -1.393   3.503  0.00  0.00    -0.070 Cl
ENDROOT
TORSDOF 0
ENDMDL
