MODEL 1
REMARK minimizedAffinity -3.57675195
REMARK minimizedRMSD -1
REMARK  0 active torsions:
REMARK  status: ('A' for Active; 'I' for Inactive)
ROOT
ATOM      1  C   UNL d   1       0.024   0.269   1.180  0.00  0.00     0.020 A 
ATOM      2  C1  UNL d   1      -0.002   1.651   1.364  0.00  0.00     0.020 A 
ATOM      3  C2  UNL d   1      -1.032   2.239   2.102  0.00  0.00     0.034 A 
ATOM      4  C3  UNL d   1      -2.041   1.444   2.657  0.00  0.00     0.017 A 
ATOM      5  C4  UNL d   1      -2.015   0.057   2.472  0.00  0.00     0.017 A 
ATOM      6  C5  UNL d   1      -0.981  -0.526   1.733  0.00  0.00     0.034 A 
ATOM      7 Cl   UNL d   1      -3.225  -0.989   3.127  0.00  0.00    -0.070 Cl
ATOM      8 Cl1  UNL d   1      -3.284   2.238   3.558  0.00  0.00    -0.070 Cl
ENDROOT
TORSDOF 0
ENDMDL
