MODEL 1
REMARK minimizedAffinity -3.24476409
REMARK minimizedRMSD -1
REMARK  0 active torsions:
REMARK  status: ('A' for Active; 'I' for Inactive)
ROOT
ATOM      1  C   UNL d   1      -2.931   2.252   2.827  0.00  0.00     0.020 A 
ATOM      2  C1  UNL d   1      -3.333   0.929   2.646  0.00  0.00     0.020 A 
ATOM      3  C2  UNL d   1      -2.459   0.008   2.065  0.00  0.00     0.034 A 
ATOM      4  C3  UNL d   1      -1.180   0.408   1.663  0.00  0.00     0.017 A 
ATOM      5  C4  UNL d   1      -0.777   1.736   1.846  0.00  0.00     0.017 A 
ATOM      6  C5  UNL d   1      -1.656   2.654   2.428  0.00  0.00     0.034 A 
ATOM      7 Cl   UNL d   1       0.786   2.304   1.376  0.00  0.00    -0.070 Cl
ATOM      8 Cl1  UNL d   1      -0.151  -0.785   0.952  0.00  0.00    -0.070 Cl
ENDROOT
TORSDOF 0
ENDMDL
