MODEL 1
REMARK minimizedAffinity -3.09821153
REMARK minimizedRMSD -1
REMARK  0 active torsions:
REMARK  status: ('A' for Active; 'I' for Inactive)
ROOT
ATOM      1  C   UNL d   1       0.582   2.255   1.431  0.00  0.00     0.020 A 
ATOM      2  C1  UNL d   1       1.247   1.311   0.649  0.00  0.00     0.020 A 
ATOM      3  C2  UNL d   1       0.701   0.038   0.475  0.00  0.00     0.034 A 
ATOM      4  C3  UNL d   1      -0.515  -0.295   1.084  0.00  0.00     0.017 A 
ATOM      5  C4  UNL d   1      -1.182   0.653   1.869  0.00  0.00     0.017 A 
ATOM      6  C5  UNL d   1      -0.630   1.926   2.039  0.00  0.00     0.034 A 
ATOM      7 Cl   UNL d   1      -2.685   0.315   2.652  0.00  0.00    -0.070 Cl
ATOM      8 Cl1  UNL d   1      -1.133  -1.888   0.826  0.00  0.00    -0.070 Cl
ENDROOT
TORSDOF 0
ENDMDL
