MODEL 1
REMARK minimizedAffinity 3.93389606
REMARK minimizedRMSD -1
REMARK  0 active torsions:
REMARK  status: ('A' for Active; 'I' for Inactive)
ROOT
ATOM      1  C   UNL d   1      -0.313   0.651   1.500  0.00  0.00     0.020 A 
ATOM      2  C1  UNL d   1      -0.410   2.020   1.744  0.00  0.00     0.020 A 
ATOM      3  C2  UNL d   1      -1.487   2.524   2.476  0.00  0.00     0.034 A 
ATOM      4  C3  UNL d   1      -2.471   1.659   2.967  0.00  0.00     0.017 A 
ATOM      5  C4  UNL d   1      -2.373   0.284   2.722  0.00  0.00     0.017 A 
ATOM      6  C5  UNL d   1      -1.292  -0.215   1.988  0.00  0.00     0.034 A 
ATOM      7 Cl   UNL d   1      -3.548  -0.846   3.295  0.00  0.00    -0.070 Cl
ATOM      8 Cl1  UNL d   1      -3.775   2.351   3.865  0.00  0.00    -0.070 Cl
ENDROOT
TORSDOF 0
ENDMDL
