MODEL 1
REMARK minimizedAffinity 5.89255667
REMARK minimizedRMSD -1
REMARK  0 active torsions:
REMARK  status: ('A' for Active; 'I' for Inactive)
ROOT
ATOM      1  C   UNL d   1      -0.102   1.342   0.301  0.00  0.00     0.020 A 
ATOM      2  C1  UNL d   1       1.020   0.516   0.247  0.00  0.00     0.020 A 
ATOM      3  C2  UNL d   1       1.106  -0.600   1.083  0.00  0.00     0.034 A 
ATOM      4  C3  UNL d   1       0.069  -0.892   1.976  0.00  0.00     0.017 A 
ATOM      5  C4  UNL d   1      -1.057  -0.063   2.029  0.00  0.00     0.017 A 
ATOM      6  C5  UNL d   1      -1.138   1.053   1.190  0.00  0.00     0.034 A 
ATOM      7 Cl   UNL d   1      -2.377  -0.359   3.104  0.00  0.00    -0.070 Cl
ATOM      8 Cl1  UNL d   1       0.242  -2.288   2.979  0.00  0.00    -0.070 Cl
ENDROOT
TORSDOF 0
ENDMDL
