MODEL 1
REMARK minimizedAffinity -1.89904642
REMARK minimizedRMSD -1
REMARK  0 active torsions:
REMARK  status: ('A' for Active; 'I' for Inactive)
ROOT
ATOM      1  C   UNL d   1       0.747   2.639   1.223  0.00  0.00     0.020 A 
ATOM      2  C1  UNL d   1       1.292   1.375   1.001  0.00  0.00     0.020 A 
ATOM      3  C2  UNL d   1       0.586   0.233   1.386  0.00  0.00     0.034 A 
ATOM      4  C3  UNL d   1      -0.669   0.353   1.995  0.00  0.00     0.017 A 
ATOM      5  C4  UNL d   1      -1.214   1.622   2.218  0.00  0.00     0.017 A 
ATOM      6  C5  UNL d   1      -0.503   2.762   1.830  0.00  0.00     0.034 A 
ATOM      7 Cl   UNL d   1      -2.757   1.850   2.964  0.00  0.00    -0.070 Cl
ATOM      8 Cl1  UNL d   1      -1.486  -1.101   2.444  0.00  0.00    -0.070 Cl
ENDROOT
TORSDOF 0
ENDMDL
