MODEL 1
REMARK minimizedAffinity -2.25160789
REMARK minimizedRMSD -1
REMARK  0 active torsions:
REMARK  status: ('A' for Active; 'I' for Inactive)
ROOT
ATOM      1  C   UNL d   1       0.096   0.488   0.963  0.00  0.00     0.020 A 
ATOM      2  C1  UNL d   1      -0.025   1.860   1.183  0.00  0.00     0.020 A 
ATOM      3  C2  UNL d   1      -1.084   2.352   1.949  0.00  0.00     0.034 A 
ATOM      4  C3  UNL d   1      -2.026   1.473   2.497  0.00  0.00     0.017 A 
ATOM      5  C4  UNL d   1      -1.903   0.097   2.274  0.00  0.00     0.017 A 
ATOM      6  C5  UNL d   1      -0.840  -0.391   1.507  0.00  0.00     0.034 A 
ATOM      7 Cl   UNL d   1      -3.025  -1.050   2.917  0.00  0.00    -0.070 Cl
ATOM      8 Cl1  UNL d   1      -3.309   2.152   3.433  0.00  0.00    -0.070 Cl
ENDROOT
TORSDOF 0
ENDMDL
