MODEL 1
REMARK minimizedAffinity -0.345368624
REMARK minimizedRMSD -1
REMARK  0 active torsions:
REMARK  status: ('A' for Active; 'I' for Inactive)
ROOT
ATOM      1  C   UNL d   1       0.250  -0.689   0.787  0.00  0.00     0.020 A 
ATOM      2  C1  UNL d   1       0.662   0.641   0.711  0.00  0.00     0.020 A 
ATOM      3  C2  UNL d   1      -0.093   1.642   1.326  0.00  0.00     0.034 A 
ATOM      4  C3  UNL d   1      -1.264   1.315   2.020  0.00  0.00     0.017 A 
ATOM      5  C4  UNL d   1      -1.677  -0.021   2.095  0.00  0.00     0.017 A 
ATOM      6  C5  UNL d   1      -0.917  -1.019   1.477  0.00  0.00     0.034 A 
ATOM      7 Cl   UNL d   1      -3.110  -0.502   2.933  0.00  0.00    -0.070 Cl
ATOM      8 Cl1  UNL d   1      -2.148   2.603   2.757  0.00  0.00    -0.070 Cl
ENDROOT
TORSDOF 0
ENDMDL
