MODEL 1
REMARK minimizedAffinity -0.169213831
REMARK minimizedRMSD -1
REMARK  0 active torsions:
REMARK  status: ('A' for Active; 'I' for Inactive)
ROOT
ATOM      1  C   UNL d   1       0.809   1.256   1.265  0.00  0.00     0.020 A 
ATOM      2  C1  UNL d   1       0.576  -0.100   1.041  0.00  0.00     0.020 A 
ATOM      3  C2  UNL d   1      -0.558  -0.712   1.580  0.00  0.00     0.034 A 
ATOM      4  C3  UNL d   1      -1.462   0.033   2.346  0.00  0.00     0.017 A 
ATOM      5  C4  UNL d   1      -1.227   1.394   2.570  0.00  0.00     0.017 A 
ATOM      6  C5  UNL d   1      -0.090   2.001   2.028  0.00  0.00     0.034 A 
ATOM      7 Cl   UNL d   1      -2.298   2.378   3.504  0.00  0.00    -0.070 Cl
ATOM      8 Cl1  UNL d   1      -2.843  -0.788   2.982  0.00  0.00    -0.070 Cl
ENDROOT
TORSDOF 0
ENDMDL
