MODEL 1
REMARK minimizedAffinity 3.11396027
REMARK minimizedRMSD -1
REMARK  0 active torsions:
REMARK  status: ('A' for Active; 'I' for Inactive)
ROOT
ATOM      1  C   UNL d   1      -2.929   1.997   2.524  0.00  0.00     0.020 A 
ATOM      2  C1  UNL d   1      -2.191   3.004   1.902  0.00  0.00     0.020 A 
ATOM      3  C2  UNL d   1      -0.907   2.734   1.423  0.00  0.00     0.034 A 
ATOM      4  C3  UNL d   1      -0.357   1.455   1.565  0.00  0.00     0.017 A 
ATOM      5  C4  UNL d   1      -1.099   0.445   2.189  0.00  0.00     0.017 A 
ATOM      6  C5  UNL d   1      -2.384   0.721   2.667  0.00  0.00     0.034 A 
ATOM      7 Cl   UNL d   1      -0.487  -1.158   2.401  0.00  0.00    -0.070 Cl
ATOM      8 Cl1  UNL d   1       1.235   1.192   0.948  0.00  0.00    -0.070 Cl
ENDROOT
TORSDOF 0
ENDMDL
