MODEL 1
REMARK minimizedAffinity 4.56063509
REMARK minimizedRMSD -1
REMARK  0 active torsions:
REMARK  status: ('A' for Active; 'I' for Inactive)
ROOT
ATOM      1  C   UNL d   1       0.013   0.467   1.804  0.00  0.00     0.020 A 
ATOM      2  C1  UNL d   1      -0.315   1.611   1.078  0.00  0.00     0.020 A 
ATOM      3  C2  UNL d   1       0.506   2.031   0.030  0.00  0.00     0.034 A 
ATOM      4  C3  UNL d   1       1.659   1.308  -0.295  0.00  0.00     0.017 A 
ATOM      5  C4  UNL d   1       1.988   0.160   0.435  0.00  0.00     0.017 A 
ATOM      6  C5  UNL d   1       1.162  -0.257   1.484  0.00  0.00     0.034 A 
ATOM      7 Cl   UNL d   1       3.394  -0.785   0.094  0.00  0.00    -0.070 Cl
ATOM      8 Cl1  UNL d   1       2.629   1.886  -1.603  0.00  0.00    -0.070 Cl
ENDROOT
TORSDOF 0
ENDMDL
