MODEL 1
REMARK minimizedAffinity 1.57388043
REMARK minimizedRMSD -1
REMARK  0 active torsions:
REMARK  status: ('A' for Active; 'I' for Inactive)
ROOT
ATOM      1  C   UNL d   1       0.552   0.926   0.998  0.00  0.00     0.020 A 
ATOM      2  C1  UNL d   1       0.346  -0.453   1.029  0.00  0.00     0.020 A 
ATOM      3  C2  UNL d   1      -0.791  -0.975   1.649  0.00  0.00     0.034 A 
ATOM      4  C3  UNL d   1      -1.726  -0.118   2.241  0.00  0.00     0.017 A 
ATOM      5  C4  UNL d   1      -1.518   1.266   2.209  0.00  0.00     0.017 A 
ATOM      6  C5  UNL d   1      -0.378   1.783   1.586  0.00  0.00     0.034 A 
ATOM      7 Cl   UNL d   1      -2.628   2.387   2.917  0.00  0.00    -0.070 Cl
ATOM      8 Cl1  UNL d   1      -3.110  -0.832   2.990  0.00  0.00    -0.070 Cl
ENDROOT
TORSDOF 0
ENDMDL
