MODEL 1
REMARK minimizedAffinity 0.111575052
REMARK minimizedRMSD -1
REMARK  0 active torsions:
REMARK  status: ('A' for Active; 'I' for Inactive)
ROOT
ATOM      1  C   UNL d   1       0.339   1.287   0.820  0.00  0.00     0.020 A 
ATOM      2  C1  UNL d   1       0.697   0.188   1.600  0.00  0.00     0.020 A 
ATOM      3  C2  UNL d   1       1.767  -0.622   1.214  0.00  0.00     0.034 A 
ATOM      4  C3  UNL d   1       2.483  -0.335   0.047  0.00  0.00     0.017 A 
ATOM      5  C4  UNL d   1       2.123   0.769  -0.735  0.00  0.00     0.017 A 
ATOM      6  C5  UNL d   1       1.051   1.577  -0.345  0.00  0.00     0.034 A 
ATOM      7 Cl   UNL d   1       2.959   1.187  -2.189  0.00  0.00    -0.070 Cl
ATOM      8 Cl1  UNL d   1       3.795  -1.379  -0.369  0.00  0.00    -0.070 Cl
ENDROOT
TORSDOF 0
ENDMDL
