MODEL 1
REMARK minimizedAffinity 2.29368019
REMARK minimizedRMSD -1
REMARK  0 active torsions:
REMARK  status: ('A' for Active; 'I' for Inactive)
ROOT
ATOM      1  C   UNL d   1      -0.866   2.834  -0.029  0.00  0.00     0.020 A 
ATOM      2  C1  UNL d   1       0.486   2.910   0.304  0.00  0.00     0.020 A 
ATOM      3  C2  UNL d   1       0.986   2.158   1.369  0.00  0.00     0.034 A 
ATOM      4  C3  UNL d   1       0.133   1.327   2.106  0.00  0.00     0.017 A 
ATOM      5  C4  UNL d   1      -1.223   1.252   1.771  0.00  0.00     0.017 A 
ATOM      6  C5  UNL d   1      -1.719   2.007   0.703  0.00  0.00     0.034 A 
ATOM      7 Cl   UNL d   1      -2.336   0.249   2.632  0.00  0.00    -0.070 Cl
ATOM      8 Cl1  UNL d   1       0.820   0.425   3.410  0.00  0.00    -0.070 Cl
ENDROOT
TORSDOF 0
ENDMDL
