MODEL 1
REMARK minimizedAffinity 1.83816147
REMARK minimizedRMSD -1
REMARK  0 active torsions:
REMARK  status: ('A' for Active; 'I' for Inactive)
ROOT
ATOM      1  C   UNL d   1       0.263  -3.987   2.788  0.00  0.00     0.124 A 
ATOM      2  C1  UNL d   1      -0.491  -2.897   2.376  0.00  0.00     0.062 A 
ATOM      3  C2  UNL d   1      -0.012  -2.051   1.379  0.00  0.00     0.162 A 
ATOM      4  C3  UNL d   1       1.228  -2.293   0.787  0.00  0.00    -0.034 A 
ATOM      5  C4  UNL d   1       1.981  -3.390   1.208  0.00  0.00     0.162 A 
ATOM      6  C5  UNL d   1       1.498  -4.232   2.205  0.00  0.00     0.062 A 
ATOM      7  F   UNL d   1       2.228  -5.285   2.602  0.00  0.00    -0.097 F 
ATOM      8  F1  UNL d   1       3.177  -3.651   0.660  0.00  0.00    -0.096 F 
ATOM      9  I   UNL d   1       1.947  -1.031  -0.703  0.00  0.00    -0.060 I 
ATOM     10  F2  UNL d   1      -0.762  -1.006   1.000  0.00  0.00    -0.096 F 
ATOM     11  F3  UNL d   1      -1.684  -2.657   2.939  0.00  0.00    -0.097 F 
ATOM     12  F4  UNL d   1      -0.200  -4.798   3.748  0.00  0.00    -0.092 F 
ENDROOT
TORSDOF 0
ENDMDL
