MODEL 1
REMARK minimizedAffinity 2.92070842
REMARK minimizedRMSD -1
REMARK  0 active torsions:
REMARK  status: ('A' for Active; 'I' for Inactive)
ROOT
ATOM      1  C   UNL d   1      -0.088  -4.617   2.955  0.00  0.00     0.124 A 
ATOM      2  C1  UNL d   1       1.121  -4.724   2.280  0.00  0.00     0.062 A 
ATOM      3  C2  UNL d   1       1.583  -3.667   1.501  0.00  0.00     0.162 A 
ATOM      4  C3  UNL d   1       0.837  -2.494   1.392  0.00  0.00    -0.034 A 
ATOM      5  C4  UNL d   1      -0.377  -2.394   2.073  0.00  0.00     0.162 A 
ATOM      6  C5  UNL d   1      -0.835  -3.452   2.851  0.00  0.00     0.062 A 
ATOM      7  F   UNL d   1      -2.003  -3.347   3.502  0.00  0.00    -0.097 F 
ATOM      8  F1  UNL d   1      -1.120  -1.280   1.991  0.00  0.00    -0.096 F 
ATOM      9  I   UNL d   1       1.525  -0.912   0.228  0.00  0.00    -0.060 I 
ATOM     10  F2  UNL d   1       2.754  -3.799   0.859  0.00  0.00    -0.096 F 
ATOM     11  F3  UNL d   1       1.844  -5.848   2.378  0.00  0.00    -0.097 F 
ATOM     12  F4  UNL d   1      -0.530  -5.635   3.704  0.00  0.00    -0.092 F 
ENDROOT
TORSDOF 0
ENDMDL
