MODEL 1
REMARK minimizedAffinity 6.0948782
REMARK minimizedRMSD -1
REMARK  0 active torsions:
REMARK  status: ('A' for Active; 'I' for Inactive)
ROOT
ATOM      1  C   UNL d   1      -0.137  -1.189   1.629  0.00  0.00     0.124 A 
ATOM      2  C1  UNL d   1       1.120  -0.765   1.222  0.00  0.00     0.062 A 
ATOM      3  C2  UNL d   1       2.007  -1.663   0.635  0.00  0.00     0.162 A 
ATOM      4  C3  UNL d   1       1.639  -2.996   0.451  0.00  0.00    -0.034 A 
ATOM      5  C4  UNL d   1       0.374  -3.416   0.865  0.00  0.00     0.162 A 
ATOM      6  C5  UNL d   1      -0.509  -2.514   1.451  0.00  0.00     0.062 A 
ATOM      7  F   UNL d   1      -1.723  -2.927   1.844  0.00  0.00    -0.097 F 
ATOM      8  F1  UNL d   1      -0.012  -4.691   0.703  0.00  0.00    -0.096 F 
ATOM      9  I   UNL d   1       2.962  -4.343  -0.425  0.00  0.00    -0.060 I 
ATOM     10  F2  UNL d   1       3.215  -1.225   0.251  0.00  0.00    -0.096 F 
ATOM     11  F3  UNL d   1       1.483   0.515   1.394  0.00  0.00    -0.097 F 
ATOM     12  F4  UNL d   1      -0.987  -0.323   2.194  0.00  0.00    -0.092 F 
ENDROOT
TORSDOF 0
ENDMDL
