MODEL 1
REMARK minimizedAffinity -0.469197094
REMARK minimizedRMSD -1
REMARK  1 active torsions:
REMARK  status: ('A' for Active; 'I' for Inactive)
REMARK    1  A    between atoms: C1_2  and  C2_3 
ROOT
ATOM      1  C2  UNL d   1      -0.716   1.599   0.797  0.00  0.00    -0.073 A 
ATOM      2  C3  UNL d   1      -0.205   0.375   0.350  0.00  0.00    -0.002 A 
ATOM      3  C4  UNL d   1       1.163   0.112   0.430  0.00  0.00     0.004 A 
ATOM      4  C5  UNL d   1       2.032   1.064   0.963  0.00  0.00    -0.004 A 
ATOM      5  C6  UNL d   1       1.538   2.288   1.426  0.00  0.00    -0.075 A 
ATOM      6  C7  UNL d   1       2.460   3.324   2.000  0.00  0.00     0.076 C 
ATOM      7  C8  UNL d   1       0.164   2.546   1.340  0.00  0.00     0.001 A 
ENDROOT
BRANCH   1   8
ATOM      8  C1  UNL d   1      -2.193   1.886   0.719  0.00  0.00     0.053 C 
ATOM      9  C   UNL d   1      -3.019   0.610   0.654  0.00  0.00     0.018 C 
ENDBRANCH   1   8
TORSDOF 1
ENDMDL
