MODEL 1
REMARK minimizedAffinity 1.84222555
REMARK minimizedRMSD -1
REMARK  1 active torsions:
REMARK  status: ('A' for Active; 'I' for Inactive)
REMARK    1  A    between atoms: C1_2  and  C2_3 
ROOT
ATOM      1  C2  UNL d   1       0.078   0.621   0.772  0.00  0.00    -0.073 A 
ATOM      2  C3  UNL d   1       0.004   2.010   0.618  0.00  0.00    -0.002 A 
ATOM      3  C4  UNL d   1      -1.206   2.678   0.812  0.00  0.00     0.004 A 
ATOM      4  C5  UNL d   1      -2.351   1.966   1.169  0.00  0.00    -0.004 A 
ATOM      5  C6  UNL d   1      -2.294   0.579   1.340  0.00  0.00    -0.075 A 
ATOM      6  C7  UNL d   1      -3.517  -0.202   1.722  0.00  0.00     0.076 C 
ATOM      7  C8  UNL d   1      -1.076  -0.085   1.140  0.00  0.00     0.001 A 
ENDROOT
BRANCH   1   8
ATOM      8  C1  UNL d   1       1.384  -0.103   0.569  0.00  0.00     0.053 C 
ATOM      9  C   UNL d   1       1.908   0.053  -0.850  0.00  0.00     0.018 C 
ENDBRANCH   1   8
TORSDOF 1
ENDMDL
