MODEL 1
REMARK minimizedAffinity 9.21571541
REMARK minimizedRMSD -1
REMARK  1 active torsions:
REMARK  status: ('A' for Active; 'I' for Inactive)
REMARK    1  A    between atoms: C1_2  and  C2_3 
ROOT
ATOM      1  C2  UNL d   1      -1.252   1.988   0.638  0.00  0.00    -0.073 A 
ATOM      2  C3  UNL d   1      -0.643   0.729   0.698  0.00  0.00    -0.002 A 
ATOM      3  C4  UNL d   1      -1.420  -0.429   0.738  0.00  0.00     0.004 A 
ATOM      4  C5  UNL d   1      -2.811  -0.342   0.711  0.00  0.00    -0.004 A 
ATOM      5  C6  UNL d   1      -3.439   0.905   0.638  0.00  0.00    -0.075 A 
ATOM      6  C7  UNL d   1      -4.935   1.016   0.611  0.00  0.00     0.076 C 
ATOM      7  C8  UNL d   1      -2.652   2.064   0.601  0.00  0.00     0.001 A 
ENDROOT
BRANCH   1   8
ATOM      8  C1  UNL d   1      -0.418   3.241   0.588  0.00  0.00     0.053 C 
ATOM      9  C   UNL d   1       0.686   3.233   1.634  0.00  0.00     0.018 C 
ENDBRANCH   1   8
TORSDOF 1
ENDMDL
