MODEL 1
REMARK minimizedAffinity 8.85605049
REMARK minimizedRMSD -1
REMARK  1 active torsions:
REMARK  status: ('A' for Active; 'I' for Inactive)
REMARK    1  A    between atoms: C1_2  and  C2_3 
ROOT
ATOM      1  C2  UNL d   1       1.394   1.559   0.258  0.00  0.00    -0.073 A 
ATOM      2  C3  UNL d   1       0.014   1.649   0.469  0.00  0.00    -0.002 A 
ATOM      3  C4  UNL d   1      -0.497   2.523   1.429  0.00  0.00     0.004 A 
ATOM      4  C5  UNL d   1       0.365   3.321   2.182  0.00  0.00    -0.004 A 
ATOM      5  C6  UNL d   1       1.747   3.254   1.977  0.00  0.00    -0.075 A 
ATOM      6  C7  UNL d   1       2.687   4.104   2.780  0.00  0.00     0.076 C 
ATOM      7  C8  UNL d   1       2.252   2.372   1.013  0.00  0.00     0.001 A 
ENDROOT
BRANCH   1   8
ATOM      8  C1  UNL d   1       1.950   0.622  -0.783  0.00  0.00     0.053 C 
ATOM      9  C   UNL d   1       2.572   1.370  -1.951  0.00  0.00     0.018 C 
ENDBRANCH   1   8
TORSDOF 1
ENDMDL
