MODEL 1
REMARK minimizedAffinity -0.618122518
REMARK minimizedRMSD -1
REMARK  1 active torsions:
REMARK  status: ('A' for Active; 'I' for Inactive)
REMARK    1  A    between atoms: C1_2  and  C2_3 
ROOT
ATOM      1  C2  UNL d   1       1.617   2.381   1.627  0.00  0.00    -0.073 A 
ATOM      2  C3  UNL d   1       2.050   1.141   1.142  0.00  0.00    -0.002 A 
ATOM      3  C4  UNL d   1       1.138   0.247   0.580  0.00  0.00     0.004 A 
ATOM      4  C5  UNL d   1      -0.212   0.585   0.491  0.00  0.00    -0.004 A 
ATOM      5  C6  UNL d   1      -0.662   1.823   0.959  0.00  0.00    -0.075 A 
ATOM      6  C7  UNL d   1      -2.112   2.201   0.872  0.00  0.00     0.076 C 
ATOM      7  C8  UNL d   1       0.259   2.715   1.525  0.00  0.00     0.001 A 
ENDROOT
BRANCH   1   8
ATOM      8  C1  UNL d   1       2.599   3.352   2.230  0.00  0.00     0.053 C 
ATOM      9  C   UNL d   1       3.515   2.683   3.242  0.00  0.00     0.018 C 
ENDBRANCH   1   8
TORSDOF 1
ENDMDL
