MODEL 1
REMARK minimizedAffinity 8.36495781
REMARK minimizedRMSD -1
REMARK  1 active torsions:
REMARK  status: ('A' for Active; 'I' for Inactive)
REMARK    1  A    between atoms: C1_2  and  C2_3 
ROOT
ATOM      1  C2  UNL d   1       0.639   0.540   0.678  0.00  0.00    -0.073 A 
ATOM      2  C3  UNL d   1       0.956   1.704   1.387  0.00  0.00    -0.002 A 
ATOM      3  C4  UNL d   1      -0.053   2.573   1.802  0.00  0.00     0.004 A 
ATOM      4  C5  UNL d   1      -1.388   2.285   1.520  0.00  0.00    -0.004 A 
ATOM      5  C6  UNL d   1      -1.726   1.120   0.822  0.00  0.00    -0.075 A 
ATOM      6  C7  UNL d   1      -3.157   0.797   0.508  0.00  0.00     0.076 C 
ATOM      7  C8  UNL d   1      -0.706   0.254   0.406  0.00  0.00     0.001 A 
ENDROOT
BRANCH   1   8
ATOM      8  C1  UNL d   1       1.726  -0.405   0.233  0.00  0.00     0.053 C 
ATOM      9  C   UNL d   1       1.971  -0.327  -1.265  0.00  0.00     0.018 C 
ENDBRANCH   1   8
TORSDOF 1
ENDMDL
