MODEL 1
REMARK minimizedAffinity 5.0167098
REMARK minimizedRMSD -1
REMARK  1 active torsions:
REMARK  status: ('A' for Active; 'I' for Inactive)
REMARK    1  A    between atoms: C1_2  and  C2_3 
ROOT
ATOM      1  C2  UNL d   1      -0.109   2.067   1.340  0.00  0.00    -0.073 A 
ATOM      2  C3  UNL d   1       0.654   1.237   0.511  0.00  0.00    -0.002 A 
ATOM      3  C4  UNL d   1       2.048   1.270   0.572  0.00  0.00     0.004 A 
ATOM      4  C5  UNL d   1       2.692   2.125   1.466  0.00  0.00    -0.004 A 
ATOM      5  C6  UNL d   1       1.946   2.953   2.311  0.00  0.00    -0.075 A 
ATOM      6  C7  UNL d   1       2.624   3.881   3.276  0.00  0.00     0.076 C 
ATOM      7  C8  UNL d   1       0.547   2.917   2.242  0.00  0.00     0.001 A 
ENDROOT
BRANCH   1   8
ATOM      8  C1  UNL d   1      -1.614   2.031   1.282  0.00  0.00     0.053 C 
ATOM      9  C   UNL d   1      -2.139   0.640   0.964  0.00  0.00     0.018 C 
ENDBRANCH   1   8
TORSDOF 1
ENDMDL
