MODEL 1
REMARK minimizedAffinity -3.23210001
REMARK minimizedRMSD -1
REMARK  1 active torsions:
REMARK  status: ('A' for Active; 'I' for Inactive)
REMARK    1  A    between atoms: C1_2  and  C2_3 
ROOT
ATOM      1  C2  UNL d   1      -0.027   0.549   0.448  0.00  0.00    -0.073 A 
ATOM      2  C3  UNL d   1      -1.216   1.282   0.531  0.00  0.00    -0.002 A 
ATOM      3  C4  UNL d   1      -1.238   2.520   1.174  0.00  0.00     0.004 A 
ATOM      4  C5  UNL d   1      -0.072   3.041   1.733  0.00  0.00    -0.004 A 
ATOM      5  C6  UNL d   1       1.129   2.330   1.651  0.00  0.00    -0.075 A 
ATOM      6  C7  UNL d   1       2.393   2.875   2.249  0.00  0.00     0.076 C 
ATOM      7  C8  UNL d   1       1.143   1.086   1.006  0.00  0.00     0.001 A 
ENDROOT
BRANCH   1   8
ATOM      8  C1  UNL d   1       0.003  -0.785  -0.251  0.00  0.00     0.053 C 
ATOM      9  C   UNL d   1       0.665  -0.699  -1.617  0.00  0.00     0.018 C 
ENDBRANCH   1   8
TORSDOF 1
ENDMDL
