MODEL 1
REMARK minimizedAffinity 3.67556095
REMARK minimizedRMSD -1
REMARK  1 active torsions:
REMARK  status: ('A' for Active; 'I' for Inactive)
REMARK    1  A    between atoms: C1_2  and  C2_3 
ROOT
ATOM      1  C2  UNL d   1       0.610   1.188   1.003  0.00  0.00    -0.073 A 
ATOM      2  C3  UNL d   1      -0.102   2.388   0.885  0.00  0.00    -0.002 A 
ATOM      3  C4  UNL d   1      -1.479   2.371   0.659  0.00  0.00     0.004 A 
ATOM      4  C5  UNL d   1      -2.158   1.158   0.555  0.00  0.00    -0.004 A 
ATOM      5  C6  UNL d   1      -1.467  -0.051   0.682  0.00  0.00    -0.075 A 
ATOM      6  C7  UNL d   1      -2.183  -1.365   0.571  0.00  0.00     0.076 C 
ATOM      7  C8  UNL d   1      -0.084  -0.026   0.907  0.00  0.00     0.001 A 
ENDROOT
BRANCH   1   8
ATOM      8  C1  UNL d   1       2.095   1.201   1.255  0.00  0.00     0.053 C 
ATOM      9  C   UNL d   1       2.540   2.462   1.979  0.00  0.00     0.018 C 
ENDBRANCH   1   8
TORSDOF 1
ENDMDL
