MODEL 1
REMARK minimizedAffinity 9.35047913
REMARK minimizedRMSD -1
REMARK  1 active torsions:
REMARK  status: ('A' for Active; 'I' for Inactive)
REMARK    1  A    between atoms: C1_2  and  C2_3 
ROOT
ATOM      1  C2  UNL d   1      -0.241  -4.441  -0.803  0.00  0.00    -0.073 A 
ATOM      2  C3  UNL d   1      -0.056  -3.440  -1.764  0.00  0.00    -0.002 A 
ATOM      3  C4  UNL d   1      -1.144  -2.703  -2.233  0.00  0.00     0.004 A 
ATOM      4  C5  UNL d   1      -2.425  -2.952  -1.741  0.00  0.00    -0.004 A 
ATOM      5  C6  UNL d   1      -2.628  -3.940  -0.772  0.00  0.00    -0.075 A 
ATOM      6  C7  UNL d   1      -4.000  -4.222  -0.234  0.00  0.00     0.076 C 
ATOM      7  C8  UNL d   1      -1.531  -4.678  -0.308  0.00  0.00     0.001 A 
ENDROOT
BRANCH   1   8
ATOM      8  C1  UNL d   1       0.932  -5.235  -0.290  0.00  0.00     0.053 C 
ATOM      9  C   UNL d   1       0.591  -6.000   0.979  0.00  0.00     0.018 C 
ENDBRANCH   1   8
TORSDOF 1
ENDMDL
