MODEL 1
REMARK minimizedAffinity 7.15546894
REMARK minimizedRMSD -1
REMARK  1 active torsions:
REMARK  status: ('A' for Active; 'I' for Inactive)
REMARK    1  A    between atoms: C1_2  and  C2_3 
ROOT
ATOM      1  C2  UNL d   1       0.289   0.654   0.450  0.00  0.00    -0.073 A 
ATOM      2  C3  UNL d   1       0.879   0.016  -0.647  0.00  0.00    -0.002 A 
ATOM      3  C4  UNL d   1       2.259   0.087  -0.845  0.00  0.00     0.004 A 
ATOM      4  C5  UNL d   1       3.062   0.790   0.052  0.00  0.00    -0.004 A 
ATOM      5  C6  UNL d   1       2.492   1.425   1.160  0.00  0.00    -0.075 A 
ATOM      6  C7  UNL d   1       3.342   2.188   2.134  0.00  0.00     0.076 C 
ATOM      7  C8  UNL d   1       1.106   1.351   1.352  0.00  0.00     0.001 A 
ENDROOT
BRANCH   1   8
ATOM      8  C1  UNL d   1      -1.199   0.575   0.672  0.00  0.00     0.053 C 
ATOM      9  C   UNL d   1      -1.851   1.949   0.665  0.00  0.00     0.018 C 
ENDBRANCH   1   8
TORSDOF 1
ENDMDL
