MODEL 1
REMARK minimizedAffinity 6.6562748
REMARK minimizedRMSD -1
REMARK  1 active torsions:
REMARK  status: ('A' for Active; 'I' for Inactive)
REMARK    1  A    between atoms: C1_2  and  C2_3 
ROOT
ATOM      1  C2  UNL d   1       0.697   0.351  -0.085  0.00  0.00    -0.073 A 
ATOM      2  C3  UNL d   1      -0.301  -0.629  -0.110  0.00  0.00    -0.002 A 
ATOM      3  C4  UNL d   1      -1.588  -0.336   0.343  0.00  0.00     0.004 A 
ATOM      4  C5  UNL d   1      -1.892   0.939   0.819  0.00  0.00    -0.004 A 
ATOM      5  C6  UNL d   1      -0.911   1.936   0.841  0.00  0.00    -0.075 A 
ATOM      6  C7  UNL d   1      -1.220   3.312   1.352  0.00  0.00     0.076 C 
ATOM      7  C8  UNL d   1       0.380   1.633   0.387  0.00  0.00     0.001 A 
ENDROOT
BRANCH   1   8
ATOM      8  C1  UNL d   1       2.087   0.042  -0.579  0.00  0.00     0.053 C 
ATOM      9  C   UNL d   1       2.337   0.608  -1.968  0.00  0.00     0.018 C 
ENDBRANCH   1   8
TORSDOF 1
ENDMDL
