MODEL 1
REMARK minimizedAffinity -3.5523119
REMARK minimizedRMSD -1
REMARK  1 active torsions:
REMARK  status: ('A' for Active; 'I' for Inactive)
REMARK    1  A    between atoms: N_2  and  C1_3 
ROOT
ATOM      1  C1  UNL d   1       0.034   0.084   1.322  0.00  0.00     0.143 A 
ATOM      2  C2  UNL d   1       1.028  -0.317   0.423  0.00  0.00    -0.057 A 
ATOM      3  C3  UNL d   1       0.712  -0.699  -0.886  0.00  0.00     0.033 A 
ATOM      4  C4  UNL d   1      -0.613  -0.716  -1.312  0.00  0.00    -0.042 A 
ATOM      5  C5  UNL d   1      -1.620  -0.346  -0.427  0.00  0.00     0.033 A 
ATOM      6  C6  UNL d   1      -1.296   0.042   0.877  0.00  0.00    -0.057 A 
ENDROOT
BRANCH   1   7
ATOM      7  N   UNL d   1       0.275   0.381   2.666  0.00  0.00    -0.732 N 
ATOM      8  C   UNL d   1      -0.806   0.798   3.533  0.00  0.00     0.284 C 
ATOM      9  H3  UNL d   1       0.927  -0.271   3.097  0.00  0.00     0.395 HD
ENDBRANCH   1   7
TORSDOF 1
ENDMDL
