MODEL 1
REMARK minimizedAffinity -2.66400266
REMARK minimizedRMSD -1
REMARK  1 active torsions:
REMARK  status: ('A' for Active; 'I' for Inactive)
REMARK    1  A    between atoms: N_2  and  C1_3 
ROOT
ATOM      1  C1  UNL d   1      -0.275   0.412   0.555  0.00  0.00     0.143 A 
ATOM      2  C2  UNL d   1      -1.594  -0.049   0.481  0.00  0.00    -0.057 A 
ATOM      3  C3  UNL d   1      -2.438  -0.017   1.598  0.00  0.00     0.033 A 
ATOM      4  C4  UNL d   1      -1.967   0.453   2.820  0.00  0.00    -0.042 A 
ATOM      5  C5  UNL d   1      -0.652   0.893   2.922  0.00  0.00     0.033 A 
ATOM      6  C6  UNL d   1       0.184   0.864   1.802  0.00  0.00    -0.057 A 
ENDROOT
BRANCH   1   7
ATOM      7  N   UNL d   1       0.643   0.314  -0.494  0.00  0.00    -0.732 N 
ATOM      8  C   UNL d   1       0.674  -0.861  -1.339  0.00  0.00     0.284 C 
ATOM      9  H3  UNL d   1       0.752   1.191  -0.998  0.00  0.00     0.395 HD
ENDBRANCH   1   7
TORSDOF 1
ENDMDL
