MODEL 1
REMARK minimizedAffinity -3.50246549
REMARK minimizedRMSD -1
REMARK  1 active torsions:
REMARK  status: ('A' for Active; 'I' for Inactive)
REMARK    1  A    between atoms: N_2  and  C1_3 
ROOT
ATOM      1  C1  UNL d   1      -0.377   0.498   0.118  0.00  0.00     0.143 A 
ATOM      2  C2  UNL d   1      -1.559  -0.146   0.498  0.00  0.00    -0.057 A 
ATOM      3  C3  UNL d   1      -2.148   0.093   1.746  0.00  0.00     0.033 A 
ATOM      4  C4  UNL d   1      -1.546   0.963   2.650  0.00  0.00    -0.042 A 
ATOM      5  C5  UNL d   1      -0.358   1.595   2.303  0.00  0.00     0.033 A 
ATOM      6  C6  UNL d   1       0.221   1.357   1.053  0.00  0.00    -0.057 A 
ENDROOT
BRANCH   1   7
ATOM      7  N   UNL d   1       0.309   0.228  -1.068  0.00  0.00    -0.732 N 
ATOM      8  C   UNL d   1       0.513  -1.136  -1.508  0.00  0.00     0.284 C 
ATOM      9  H3  UNL d   1       0.062   0.873  -1.816  0.00  0.00     0.395 HD
ENDBRANCH   1   7
TORSDOF 1
ENDMDL
