MODEL 1
REMARK minimizedAffinity -2.70820498
REMARK minimizedRMSD -1
REMARK  1 active torsions:
REMARK  status: ('A' for Active; 'I' for Inactive)
REMARK    1  A    between atoms: N_2  and  C1_3 
ROOT
ATOM      1  C1  UNL d   1       1.973  -2.728  -0.077  0.00  0.00     0.143 A 
ATOM      2  C2  UNL d   1       0.805  -3.206   0.528  0.00  0.00    -0.057 A 
ATOM      3  C3  UNL d   1      -0.071  -2.344   1.197  0.00  0.00     0.033 A 
ATOM      4  C4  UNL d   1       0.220  -0.988   1.299  0.00  0.00    -0.042 A 
ATOM      5  C5  UNL d   1       1.387  -0.494   0.727  0.00  0.00     0.033 A 
ATOM      6  C6  UNL d   1       2.255  -1.359   0.054  0.00  0.00    -0.057 A 
ENDROOT
BRANCH   1   7
ATOM      7  N   UNL d   1       2.933  -3.549  -0.672  0.00  0.00    -0.732 N 
ATOM      8  C   UNL d   1       3.780  -4.400   0.138  0.00  0.00     0.284 C 
ATOM      9  H3  UNL d   1       2.594  -3.991  -1.523  0.00  0.00     0.395 HD
ENDBRANCH   1   7
TORSDOF 1
ENDMDL
