MODEL 1
REMARK minimizedAffinity -1.11789823
REMARK minimizedRMSD -1
REMARK  1 active torsions:
REMARK  status: ('A' for Active; 'I' for Inactive)
REMARK    1  A    between atoms: N_2  and  C1_3 
ROOT
ATOM      1  C1  UNL d   1       1.350  -3.026   0.771  0.00  0.00     0.143 A 
ATOM      2  C2  UNL d   1       0.078  -3.067   0.190  0.00  0.00    -0.057 A 
ATOM      3  C3  UNL d   1      -0.759  -1.945   0.193  0.00  0.00     0.033 A 
ATOM      4  C4  UNL d   1      -0.349  -0.766   0.806  0.00  0.00    -0.042 A 
ATOM      5  C5  UNL d   1       0.901  -0.709   1.413  0.00  0.00     0.033 A 
ATOM      6  C6  UNL d   1       1.735  -1.831   1.400  0.00  0.00    -0.057 A 
ENDROOT
BRANCH   1   7
ATOM      7  N   UNL d   1       2.189  -4.137   0.887  0.00  0.00    -0.732 N 
ATOM      8  C   UNL d   1       3.419  -4.213   0.129  0.00  0.00     0.284 C 
ATOM      9  H3  UNL d   1       2.271  -4.463   1.847  0.00  0.00     0.395 HD
ENDBRANCH   1   7
TORSDOF 1
ENDMDL
