MODEL 1
REMARK minimizedAffinity -3.49289417
REMARK minimizedRMSD -1
REMARK  1 active torsions:
REMARK  status: ('A' for Active; 'I' for Inactive)
REMARK    1  A    between atoms: N_2  and  C1_3 
ROOT
ATOM      1  C1  UNL d   1       1.534  -2.972  -0.026  0.00  0.00     0.143 A 
ATOM      2  C2  UNL d   1       2.179  -1.736   0.093  0.00  0.00    -0.057 A 
ATOM      3  C3  UNL d   1       1.482  -0.590   0.494  0.00  0.00     0.033 A 
ATOM      4  C4  UNL d   1       0.117  -0.653   0.754  0.00  0.00    -0.042 A 
ATOM      5  C5  UNL d   1      -0.550  -1.866   0.617  0.00  0.00     0.033 A 
ATOM      6  C6  UNL d   1       0.153  -3.009   0.223  0.00  0.00    -0.057 A 
ENDROOT
BRANCH   1   7
ATOM      7  N   UNL d   1       2.150  -4.127  -0.515  0.00  0.00    -0.732 N 
ATOM      8  C   UNL d   1       3.546  -4.390  -0.240  0.00  0.00     0.284 C 
ATOM      9  H3  UNL d   1       1.551  -4.946  -0.444  0.00  0.00     0.395 HD
ENDBRANCH   1   7
TORSDOF 1
ENDMDL
