MODEL 1
REMARK minimizedAffinity 1.39473355
REMARK minimizedRMSD -1
REMARK  1 active torsions:
REMARK  status: ('A' for Active; 'I' for Inactive)
REMARK    1  A    between atoms: N_2  and  C1_3 
ROOT
ATOM      1  C1  UNL d   1       2.504  -1.602   0.949  0.00  0.00     0.143 A 
ATOM      2  C2  UNL d   1       1.645  -0.602   1.418  0.00  0.00    -0.057 A 
ATOM      3  C3  UNL d   1       0.259  -0.798   1.463  0.00  0.00     0.033 A 
ATOM      4  C4  UNL d   1      -0.296  -1.990   1.010  0.00  0.00    -0.042 A 
ATOM      5  C5  UNL d   1       0.536  -2.988   0.517  0.00  0.00     0.033 A 
ATOM      6  C6  UNL d   1       1.920  -2.789   0.481  0.00  0.00    -0.057 A 
ENDROOT
BRANCH   1   7
ATOM      7  N   UNL d   1       3.881  -1.431   0.787  0.00  0.00    -0.732 N 
ATOM      8  C   UNL d   1       4.694  -0.931   1.874  0.00  0.00     0.284 C 
ATOM      9  H3  UNL d   1       4.308  -2.193   0.265  0.00  0.00     0.395 HD
ENDBRANCH   1   7
TORSDOF 1
ENDMDL
