MODEL 1
REMARK minimizedAffinity 0.900673389
REMARK minimizedRMSD -1
REMARK  1 active torsions:
REMARK  status: ('A' for Active; 'I' for Inactive)
REMARK    1  A    between atoms: N_2  and  C1_3 
ROOT
ATOM      1  C1  UNL d   1       2.512  -0.597   1.661  0.00  0.00     0.143 A 
ATOM      2  C2  UNL d   1       2.548  -1.195   0.397  0.00  0.00    -0.057 A 
ATOM      3  C3  UNL d   1       1.370  -1.518  -0.288  0.00  0.00     0.033 A 
ATOM      4  C4  UNL d   1       0.131  -1.274   0.295  0.00  0.00    -0.042 A 
ATOM      5  C5  UNL d   1       0.071  -0.704   1.562  0.00  0.00     0.033 A 
ATOM      6  C6  UNL d   1       1.251  -0.377   2.237  0.00  0.00    -0.057 A 
ENDROOT
BRANCH   1   7
ATOM      7  N   UNL d   1       3.648  -0.343   2.434  0.00  0.00    -0.732 N 
ATOM      8  C   UNL d   1       4.873  -1.081   2.210  0.00  0.00     0.284 C 
ATOM      9  H3  UNL d   1       3.787   0.650   2.605  0.00  0.00     0.395 HD
ENDBRANCH   1   7
TORSDOF 1
ENDMDL
