MODEL 1
REMARK minimizedAffinity -5.25026894
REMARK minimizedRMSD -1
REMARK  1 active torsions:
REMARK  status: ('A' for Active; 'I' for Inactive)
REMARK    1  A    between atoms: N_2  and  C1_3 
ROOT
ATOM      1  C1  UNL d   1       0.033  -1.650   1.172  0.00  0.00     0.143 A 
ATOM      2  C2  UNL d   1       0.395  -2.971   0.889  0.00  0.00    -0.057 A 
ATOM      3  C3  UNL d   1       1.680  -3.290   0.433  0.00  0.00     0.033 A 
ATOM      4  C4  UNL d   1       2.619  -2.285   0.222  0.00  0.00    -0.042 A 
ATOM      5  C5  UNL d   1       2.273  -0.962   0.472  0.00  0.00     0.033 A 
ATOM      6  C6  UNL d   1       0.990  -0.651   0.934  0.00  0.00    -0.057 A 
ENDROOT
BRANCH   1   7
ATOM      7  N   UNL d   1      -1.258  -1.258   1.534  0.00  0.00    -0.732 N 
ATOM      8  C   UNL d   1      -1.628   0.141   1.546  0.00  0.00     0.284 C 
ATOM      9  H3  UNL d   1      -1.973  -1.873   1.151  0.00  0.00     0.395 HD
ENDBRANCH   1   7
TORSDOF 1
ENDMDL
