MODEL 1
REMARK minimizedAffinity -4.2668848
REMARK minimizedRMSD -1
REMARK  1 active torsions:
REMARK  status: ('A' for Active; 'I' for Inactive)
REMARK    1  A    between atoms: N_2  and  C1_3 
ROOT
ATOM      1  C1  UNL d   1       1.108  -2.819   0.153  0.00  0.00     0.143 A 
ATOM      2  C2  UNL d   1      -0.231  -2.534  -0.134  0.00  0.00    -0.057 A 
ATOM      3  C3  UNL d   1      -0.763  -1.257   0.077  0.00  0.00     0.033 A 
ATOM      4  C4  UNL d   1       0.030  -0.245   0.607  0.00  0.00    -0.042 A 
ATOM      5  C5  UNL d   1       1.358  -0.512   0.924  0.00  0.00     0.033 A 
ATOM      6  C6  UNL d   1       1.885  -1.788   0.705  0.00  0.00    -0.057 A 
ENDROOT
BRANCH   1   7
ATOM      7  N   UNL d   1       1.670  -4.094   0.058  0.00  0.00    -0.732 N 
ATOM      8  C   UNL d   1       3.104  -4.276   0.136  0.00  0.00     0.284 C 
ATOM      9  H3  UNL d   1       1.134  -4.794   0.567  0.00  0.00     0.395 HD
ENDBRANCH   1   7
TORSDOF 1
ENDMDL
