MODEL 1
REMARK minimizedAffinity -4.43899059
REMARK minimizedRMSD -1
REMARK  1 active torsions:
REMARK  status: ('A' for Active; 'I' for Inactive)
REMARK    1  A    between atoms: N_2  and  C1_3 
ROOT
ATOM      1  C1  UNL d   1       1.433  -3.400   0.243  0.00  0.00     0.143 A 
ATOM      2  C2  UNL d   1       0.051  -3.439   0.454  0.00  0.00    -0.057 A 
ATOM      3  C3  UNL d   1      -0.682  -2.269   0.686  0.00  0.00     0.033 A 
ATOM      4  C4  UNL d   1      -0.038  -1.037   0.740  0.00  0.00    -0.042 A 
ATOM      5  C5  UNL d   1       1.339  -0.977   0.559  0.00  0.00     0.033 A 
ATOM      6  C6  UNL d   1       2.064  -2.148   0.320  0.00  0.00    -0.057 A 
ENDROOT
BRANCH   1   7
ATOM      7  N   UNL d   1       2.232  -4.538   0.105  0.00  0.00    -0.732 N 
ATOM      8  C   UNL d   1       3.674  -4.426   0.064  0.00  0.00     0.284 C 
ATOM      9  H3  UNL d   1       1.891  -5.321   0.658  0.00  0.00     0.395 HD
ENDBRANCH   1   7
TORSDOF 1
ENDMDL
