MODEL 1
REMARK minimizedAffinity -1.38780212
REMARK minimizedRMSD -1
REMARK  1 active torsions:
REMARK  status: ('A' for Active; 'I' for Inactive)
REMARK    1  A    between atoms: N_2  and  C1_3 
ROOT
ATOM      1  C1  UNL d   1       2.475  -3.885   0.065  0.00  0.00     0.143 A 
ATOM      2  C2  UNL d   1       3.001  -2.619   0.346  0.00  0.00    -0.057 A 
ATOM      3  C3  UNL d   1       2.173  -1.561   0.740  0.00  0.00     0.033 A 
ATOM      4  C4  UNL d   1       0.797  -1.743   0.833  0.00  0.00    -0.042 A 
ATOM      5  C5  UNL d   1       0.250  -2.985   0.535  0.00  0.00     0.033 A 
ATOM      6  C6  UNL d   1       1.082  -4.040   0.148  0.00  0.00    -0.057 A 
ENDROOT
BRANCH   1   7
ATOM      7  N   UNL d   1       3.233  -4.950  -0.427  0.00  0.00    -0.732 N 
ATOM      8  C   UNL d   1       4.103  -5.703   0.451  0.00  0.00     0.284 C 
ATOM      9  H3  UNL d   1       2.714  -5.523  -1.089  0.00  0.00     0.395 HD
ENDBRANCH   1   7
TORSDOF 1
ENDMDL
