MODEL 1
REMARK minimizedAffinity -0.858083844
REMARK minimizedRMSD -1
REMARK  1 active torsions:
REMARK  status: ('A' for Active; 'I' for Inactive)
REMARK    1  A    between atoms: N_2  and  C1_3 
ROOT
ATOM      1  C1  UNL d   1       3.049  -3.239   0.163  0.00  0.00     0.143 A 
ATOM      2  C2  UNL d   1       3.090  -1.850   0.323  0.00  0.00    -0.057 A 
ATOM      3  C3  UNL d   1       1.937  -1.121   0.639  0.00  0.00     0.033 A 
ATOM      4  C4  UNL d   1       0.713  -1.768   0.772  0.00  0.00    -0.042 A 
ATOM      5  C5  UNL d   1       0.643  -3.145   0.593  0.00  0.00     0.033 A 
ATOM      6  C6  UNL d   1       1.800  -3.868   0.284  0.00  0.00    -0.057 A 
ENDROOT
BRANCH   1   7
ATOM      7  N   UNL d   1       4.141  -4.007  -0.248  0.00  0.00    -0.732 N 
ATOM      8  C   UNL d   1       4.312  -5.362   0.233  0.00  0.00     0.284 C 
ATOM      9  H3  UNL d   1       4.350  -3.888  -1.236  0.00  0.00     0.395 HD
ENDBRANCH   1   7
TORSDOF 1
ENDMDL
