MODEL 1
REMARK minimizedAffinity -0.186253354
REMARK minimizedRMSD -1
REMARK  1 active torsions:
REMARK  status: ('A' for Active; 'I' for Inactive)
REMARK    1  A    between atoms: N_2  and  C1_3 
ROOT
ATOM      1  C1  UNL d   1       3.252  -4.459  -0.049  0.00  0.00     0.143 A 
ATOM      2  C2  UNL d   1       3.853  -3.198  -0.135  0.00  0.00    -0.057 A 
ATOM      3  C3  UNL d   1       3.114  -2.026   0.069  0.00  0.00     0.033 A 
ATOM      4  C4  UNL d   1       1.750  -2.094   0.334  0.00  0.00    -0.042 A 
ATOM      5  C5  UNL d   1       1.127  -3.335   0.400  0.00  0.00     0.033 A 
ATOM      6  C6  UNL d   1       1.872  -4.502   0.202  0.00  0.00    -0.057 A 
ENDROOT
BRANCH   1   7
ATOM      7  N   UNL d   1       3.912  -5.656  -0.338  0.00  0.00    -0.732 N 
ATOM      8  C   UNL d   1       5.150  -5.995   0.330  0.00  0.00     0.284 C 
ATOM      9  H3  UNL d   1       3.269  -6.437  -0.445  0.00  0.00     0.395 HD
ENDBRANCH   1   7
TORSDOF 1
ENDMDL
