MODEL 1
REMARK minimizedAffinity 8.70516968
REMARK minimizedRMSD -1
REMARK  1 active torsions:
REMARK  status: ('A' for Active; 'I' for Inactive)
REMARK    1  A    between atoms: N_2  and  C1_3 
ROOT
ATOM      1  C1  UNL d   1      -2.146   1.591   3.541  0.00  0.00     0.143 A 
ATOM      2  C2  UNL d   1      -1.255   1.053   2.605  0.00  0.00    -0.057 A 
ATOM      3  C3  UNL d   1      -0.365   0.031   2.955  0.00  0.00     0.033 A 
ATOM      4  C4  UNL d   1      -0.329  -0.453   4.259  0.00  0.00    -0.042 A 
ATOM      5  C5  UNL d   1      -1.187   0.085   5.212  0.00  0.00     0.033 A 
ATOM      6  C6  UNL d   1      -2.079   1.101   4.854  0.00  0.00    -0.057 A 
ENDROOT
BRANCH   1   7
ATOM      7  N   UNL d   1      -2.986   2.676   3.280  0.00  0.00    -0.732 N 
ATOM      8  C   UNL d   1      -4.064   3.008   4.187  0.00  0.00     0.284 C 
ATOM      9  H3  UNL d   1      -2.480   3.482   2.922  0.00  0.00     0.395 HD
ENDBRANCH   1   7
TORSDOF 1
ENDMDL
