MODEL 1
REMARK minimizedAffinity -1.55233026
REMARK minimizedRMSD -1
REMARK  0 active torsions:
REMARK  status: ('A' for Active; 'I' for Inactive)
ROOT
ATOM      1  C   UNL d   1      -2.948   6.000   5.388  0.00  0.00     0.172 C 
ATOM      2  N   UNL d   1      -3.407   5.999   4.018  0.00  0.00    -0.070 N 
ATOM      3  C1  UNL d   1      -4.715   5.999   3.615  0.00  0.00    -0.004 A 
ATOM      4  C2  UNL d   1      -4.732   6.000   2.237  0.00  0.00    -0.047 A 
ATOM      5  C3  UNL d   1      -3.387   5.999   1.797  0.00  0.00    -0.047 A 
ATOM      6  C4  UNL d   1      -2.588   5.999   2.920  0.00  0.00    -0.004 A 
ENDROOT
TORSDOF 0
ENDMDL
