MODEL 1
REMARK minimizedAffinity -2.04992962
REMARK minimizedRMSD -1
REMARK  0 active torsions:
REMARK  status: ('A' for Active; 'I' for Inactive)
ROOT
ATOM      1  C   UNL d   1      -3.736   5.996   5.430  0.00  0.00     0.172 C 
ATOM      2  N   UNL d   1      -3.738   5.996   3.986  0.00  0.00    -0.070 N 
ATOM      3  C1  UNL d   1      -4.851   5.993   3.188  0.00  0.00    -0.004 A 
ATOM      4  C2  UNL d   1      -4.430   5.995   1.876  0.00  0.00    -0.047 A 
ATOM      5  C3  UNL d   1      -3.015   5.999   1.885  0.00  0.00    -0.047 A 
ATOM      6  C4  UNL d   1      -2.613   6.000   3.204  0.00  0.00    -0.004 A 
ENDROOT
TORSDOF 0
ENDMDL
