MODEL 1
REMARK minimizedAffinity -2.82932305
REMARK minimizedRMSD -1
REMARK  0 active torsions:
REMARK  status: ('A' for Active; 'I' for Inactive)
ROOT
ATOM      1  C   UNL d   1      -2.356   5.998   1.460  0.00  0.00     0.172 C 
ATOM      2  N   UNL d   1      -3.268   5.915   2.577  0.00  0.00    -0.070 N 
ATOM      3  C1  UNL d   1      -2.916   5.960   3.900  0.00  0.00    -0.004 A 
ATOM      4  C2  UNL d   1      -4.069   5.850   4.647  0.00  0.00    -0.047 A 
ATOM      5  C3  UNL d   1      -5.151   5.734   3.742  0.00  0.00    -0.047 A 
ATOM      6  C4  UNL d   1      -4.626   5.777   2.467  0.00  0.00    -0.004 A 
ENDROOT
TORSDOF 0
ENDMDL
