MODEL 1
REMARK minimizedAffinity 1.10446262
REMARK minimizedRMSD -1
REMARK  0 active torsions:
REMARK  status: ('A' for Active; 'I' for Inactive)
ROOT
ATOM      1  C   UNL d   1      -5.848   5.952   2.604  0.00  0.00     0.172 C 
ATOM      2  N   UNL d   1      -4.463   5.971   3.012  0.00  0.00    -0.070 N 
ATOM      3  C1  UNL d   1      -3.383   5.979   2.171  0.00  0.00    -0.004 A 
ATOM      4  C2  UNL d   1      -2.243   5.997   2.946  0.00  0.00    -0.047 A 
ATOM      5  C3  UNL d   1      -2.653   5.999   4.301  0.00  0.00    -0.047 A 
ATOM      6  C4  UNL d   1      -4.032   5.983   4.313  0.00  0.00    -0.004 A 
ENDROOT
TORSDOF 0
ENDMDL
