MODEL 1
REMARK minimizedAffinity -2.17370534
REMARK minimizedRMSD -1
REMARK  0 active torsions:
REMARK  status: ('A' for Active; 'I' for Inactive)
ROOT
ATOM      1  C   UNL d   1      -3.311   5.998   5.356  0.00  0.00     0.172 C 
ATOM      2  N   UNL d   1      -3.611   5.997   3.943  0.00  0.00    -0.070 N 
ATOM      3  C1  UNL d   1      -2.689   5.997   2.931  0.00  0.00    -0.004 A 
ATOM      4  C2  UNL d   1      -3.374   5.996   1.735  0.00  0.00    -0.047 A 
ATOM      5  C3  UNL d   1      -4.757   5.998   2.039  0.00  0.00    -0.047 A 
ATOM      6  C4  UNL d   1      -4.875   5.998   3.413  0.00  0.00    -0.004 A 
ENDROOT
TORSDOF 0
ENDMDL
