MODEL 1
REMARK minimizedAffinity 0.794788718
REMARK minimizedRMSD -1
REMARK  0 active torsions:
REMARK  status: ('A' for Active; 'I' for Inactive)
ROOT
ATOM      1  C   UNL d   1      -3.165   6.000   5.992  0.00  0.00     0.172 C 
ATOM      2  N   UNL d   1      -3.723   6.000   4.660  0.00  0.00    -0.070 N 
ATOM      3  C1  UNL d   1      -5.057   6.000   4.354  0.00  0.00    -0.004 A 
ATOM      4  C2  UNL d   1      -5.175   6.000   2.980  0.00  0.00    -0.047 A 
ATOM      5  C3  UNL d   1      -3.866   5.999   2.443  0.00  0.00    -0.047 A 
ATOM      6  C4  UNL d   1      -2.986   5.999   3.505  0.00  0.00    -0.004 A 
ENDROOT
TORSDOF 0
ENDMDL
