MODEL 1
REMARK minimizedAffinity 0.424230933
REMARK minimizedRMSD -1
REMARK  0 active torsions:
REMARK  status: ('A' for Active; 'I' for Inactive)
ROOT
ATOM      1  C   UNL d   1      -3.365   5.851   5.721  0.00  0.00     0.172 C 
ATOM      2  N   UNL d   1      -3.734   5.435   4.389  0.00  0.00    -0.070 N 
ATOM      3  C1  UNL d   1      -2.878   5.300   3.329  0.00  0.00    -0.004 A 
ATOM      4  C2  UNL d   1      -3.615   4.885   2.241  0.00  0.00    -0.047 A 
ATOM      5  C3  UNL d   1      -4.961   4.768   2.661  0.00  0.00    -0.047 A 
ATOM      6  C4  UNL d   1      -5.006   5.114   3.995  0.00  0.00    -0.004 A 
ENDROOT
TORSDOF 0
ENDMDL
