MODEL 1
REMARK minimizedAffinity -1.26304448
REMARK minimizedRMSD -1
REMARK  0 active torsions:
REMARK  status: ('A' for Active; 'I' for Inactive)
ROOT
ATOM      1  C   UNL d   1      -2.602   5.976   1.828  0.00  0.00     0.172 C 
ATOM      2  N   UNL d   1      -3.428   5.970   3.013  0.00  0.00    -0.070 N 
ATOM      3  C1  UNL d   1      -2.971   5.964   4.304  0.00  0.00    -0.004 A 
ATOM      4  C2  UNL d   1      -4.068   5.960   5.139  0.00  0.00    -0.047 A 
ATOM      5  C3  UNL d   1      -5.223   5.964   4.321  0.00  0.00    -0.047 A 
ATOM      6  C4  UNL d   1      -4.798   5.970   3.010  0.00  0.00    -0.004 A 
ENDROOT
TORSDOF 0
ENDMDL
