MODEL 1
REMARK minimizedAffinity -0.41846031
REMARK minimizedRMSD -1
REMARK  0 active torsions:
REMARK  status: ('A' for Active; 'I' for Inactive)
ROOT
ATOM      1  C   UNL d   1      -2.409   5.929   1.845  0.00  0.00     0.172 C 
ATOM      2  N   UNL d   1      -2.957   5.958   3.181  0.00  0.00    -0.070 N 
ATOM      3  C1  UNL d   1      -2.230   5.970   4.341  0.00  0.00    -0.004 A 
ATOM      4  C2  UNL d   1      -3.118   5.997   5.395  0.00  0.00    -0.047 A 
ATOM      5  C3  UNL d   1      -4.423   6.000   4.849  0.00  0.00    -0.047 A 
ATOM      6  C4  UNL d   1      -4.294   5.975   3.476  0.00  0.00    -0.004 A 
ENDROOT
TORSDOF 0
ENDMDL
