MODEL 1
REMARK minimizedAffinity -2.10494995
REMARK minimizedRMSD -1
REMARK  0 active torsions:
REMARK  status: ('A' for Active; 'I' for Inactive)
ROOT
ATOM      1  C   UNL d   1      -2.749   5.994   5.991  0.00  0.00     0.172 C 
ATOM      2  N   UNL d   1      -3.523   5.996   4.773  0.00  0.00    -0.070 N 
ATOM      3  C1  UNL d   1      -4.891   5.997   4.696  0.00  0.00    -0.004 A 
ATOM      4  C2  UNL d   1      -5.239   6.000   3.363  0.00  0.00    -0.047 A 
ATOM      5  C3  UNL d   1      -4.039   6.000   2.612  0.00  0.00    -0.047 A 
ATOM      6  C4  UNL d   1      -2.993   5.998   3.510  0.00  0.00    -0.004 A 
ENDROOT
TORSDOF 0
ENDMDL
