MODEL 1
REMARK minimizedAffinity -0.723116815
REMARK minimizedRMSD -1
REMARK  0 active torsions:
REMARK  status: ('A' for Active; 'I' for Inactive)
ROOT
ATOM      1  C   UNL d   1      -2.724   5.999   5.952  0.00  0.00     0.172 C 
ATOM      2  N   UNL d   1      -3.312   5.999   4.633  0.00  0.00    -0.070 N 
ATOM      3  C1  UNL d   1      -2.621   5.999   3.450  0.00  0.00    -0.004 A 
ATOM      4  C2  UNL d   1      -3.541   5.998   2.424  0.00  0.00    -0.047 A 
ATOM      5  C3  UNL d   1      -4.829   5.998   3.009  0.00  0.00    -0.047 A 
ATOM      6  C4  UNL d   1      -4.658   5.999   4.378  0.00  0.00    -0.004 A 
ENDROOT
TORSDOF 0
ENDMDL
