MODEL 1
REMARK minimizedAffinity -2.49057245
REMARK minimizedRMSD -1
REMARK  0 active torsions:
REMARK  status: ('A' for Active; 'I' for Inactive)
ROOT
ATOM      1  C   UNL d   1      -2.726   6.000   5.523  0.00  0.00     0.172 C 
ATOM      2  N   UNL d   1      -3.124   5.992   4.135  0.00  0.00    -0.070 N 
ATOM      3  C1  UNL d   1      -4.414   6.000   3.674  0.00  0.00    -0.004 A 
ATOM      4  C2  UNL d   1      -4.370   5.989   2.296  0.00  0.00    -0.047 A 
ATOM      5  C3  UNL d   1      -3.007   5.974   1.916  0.00  0.00    -0.047 A 
ATOM      6  C4  UNL d   1      -2.258   5.976   3.074  0.00  0.00    -0.004 A 
ENDROOT
TORSDOF 0
ENDMDL
