MODEL 1
REMARK minimizedAffinity -0.744940639
REMARK minimizedRMSD -1
REMARK  0 active torsions:
REMARK  status: ('A' for Active; 'I' for Inactive)
ROOT
ATOM      1  C   UNL d   1      -5.928   5.849   2.605  0.00  0.00     0.172 C 
ATOM      2  N   UNL d   1      -4.661   5.579   3.245  0.00  0.00    -0.070 N 
ATOM      3  C1  UNL d   1      -4.292   6.000   4.494  0.00  0.00    -0.004 A 
ATOM      4  C2  UNL d   1      -3.017   5.538   4.735  0.00  0.00    -0.047 A 
ATOM      5  C3  UNL d   1      -2.604   4.816   3.590  0.00  0.00    -0.047 A 
ATOM      6  C4  UNL d   1      -3.642   4.858   2.683  0.00  0.00    -0.004 A 
ENDROOT
TORSDOF 0
ENDMDL
