MODEL 1
REMARK minimizedAffinity -1.61091173
REMARK minimizedRMSD -1
REMARK  0 active torsions:
REMARK  status: ('A' for Active; 'I' for Inactive)
ROOT
ATOM      1  C   UNL d   1      -2.657   5.985   2.840  0.00  0.00     0.172 C 
ATOM      2  N   UNL d   1      -3.602   5.991   3.931  0.00  0.00    -0.070 N 
ATOM      3  C1  UNL d   1      -4.966   5.995   3.806  0.00  0.00    -0.004 A 
ATOM      4  C2  UNL d   1      -5.507   5.999   5.073  0.00  0.00    -0.047 A 
ATOM      5  C3  UNL d   1      -4.431   5.999   5.992  0.00  0.00    -0.047 A 
ATOM      6  C4  UNL d   1      -3.263   5.993   5.258  0.00  0.00    -0.004 A 
ENDROOT
TORSDOF 0
ENDMDL
