MODEL 1
REMARK minimizedAffinity 2.18719482
REMARK minimizedRMSD -1
REMARK  3 active torsions:
REMARK  status: ('A' for Active; 'I' for Inactive)
REMARK    1  A    between atoms: C3'_2  and  C2'_3 
REMARK    2  A    between atoms: C2'_3  and  C1'_4 
REMARK    3  A    between atoms: C1'_4  and  C1_5 
ROOT
ATOM      1  C1  N4B d   1       2.427  -1.466   0.644  0.00  0.00    -0.075 A 
ATOM      2  C2  N4B d   1       3.691  -1.272   0.045  0.00  0.00     0.002 A 
ATOM      3  C3  N4B d   1       4.193  -0.002  -0.102  0.00  0.00     0.002 A 
ATOM      4  C4  N4B d   1       3.443   1.085   0.322  0.00  0.00    -0.004 A 
ATOM      5  C5  N4B d   1       2.234   0.887   0.923  0.00  0.00     0.002 A 
ATOM      6  C6  N4B d   1       1.720  -0.384   1.081  0.00  0.00     0.002 A 
ENDROOT
BRANCH   1   7
ATOM      7  C1' N4B d   1       1.800  -2.829   0.749  0.00  0.00     0.057 C 
BRANCH   7   8
ATOM      8  C2' N4B d   1       1.058  -3.140  -0.548  0.00  0.00     0.009 C 
BRANCH   8   9
ATOM      9  C3' N4B d   1      -0.093  -4.107  -0.326  0.00  0.00     0.004 C 
ATOM     10  C4' N4B d   1      -1.233  -3.879  -1.274  0.00  0.00     0.003 C 
ENDBRANCH   8   9
ENDBRANCH   7   8
ENDBRANCH   1   7
TORSDOF 3
ENDMDL
