MODEL 1
REMARK minimizedAffinity 2.84251213
REMARK minimizedRMSD -1
REMARK  3 active torsions:
REMARK  status: ('A' for Active; 'I' for Inactive)
REMARK    1  A    between atoms: C3'_2  and  C2'_3 
REMARK    2  A    between atoms: C2'_3  and  C1'_4 
REMARK    3  A    between atoms: C1'_4  and  C1_5 
ROOT
ATOM      1  C1  N4B d   1      -3.378   3.829  -5.054  0.00  0.00    -0.075 A 
ATOM      2  C2  N4B d   1      -3.162   4.093  -3.683  0.00  0.00     0.002 A 
ATOM      3  C3  N4B d   1      -2.524   3.166  -2.897  0.00  0.00     0.002 A 
ATOM      4  C4  N4B d   1      -2.111   1.964  -3.452  0.00  0.00    -0.004 A 
ATOM      5  C5  N4B d   1      -2.300   1.727  -4.782  0.00  0.00     0.002 A 
ATOM      6  C6  N4B d   1      -2.936   2.652  -5.585  0.00  0.00     0.002 A 
ENDROOT
BRANCH   1   7
ATOM      7  C1' N4B d   1      -4.147   4.775  -5.934  0.00  0.00     0.057 C 
BRANCH   7   8
ATOM      8  C2' N4B d   1      -5.604   4.327  -5.998  0.00  0.00     0.009 C 
BRANCH   8   9
ATOM      9  C3' N4B d   1      -5.865   3.116  -5.119  0.00  0.00     0.004 C 
ATOM     10  C4' N4B d   1      -5.992   1.845  -5.904  0.00  0.00     0.003 C 
ENDBRANCH   8   9
ENDBRANCH   7   8
ENDBRANCH   1   7
TORSDOF 3
ENDMDL
