MODEL 1
REMARK minimizedAffinity 5.28963757
REMARK minimizedRMSD -1
REMARK  3 active torsions:
REMARK  status: ('A' for Active; 'I' for Inactive)
REMARK    1  A    between atoms: C3'_2  and  C2'_3 
REMARK    2  A    between atoms: C2'_3  and  C1'_4 
REMARK    3  A    between atoms: C1'_4  and  C1_5 
ROOT
ATOM      1  C1  N4B d   1      -3.956   1.595  -2.601  0.00  0.00    -0.075 A 
ATOM      2  C2  N4B d   1      -5.137   1.891  -1.886  0.00  0.00     0.002 A 
ATOM      3  C3  N4B d   1      -5.611   1.009  -0.946  0.00  0.00     0.002 A 
ATOM      4  C4  N4B d   1      -4.933  -0.179  -0.718  0.00  0.00    -0.004 A 
ATOM      5  C5  N4B d   1      -3.779  -0.446  -1.394  0.00  0.00     0.002 A 
ATOM      6  C6  N4B d   1      -3.289   0.433  -2.339  0.00  0.00     0.002 A 
ENDROOT
BRANCH   1   7
ATOM      7  C1' N4B d   1      -3.446   2.488  -3.698  0.00  0.00     0.057 C 
BRANCH   7   8
ATOM      8  C2' N4B d   1      -3.895   1.931  -5.046  0.00  0.00     0.009 C 
BRANCH   8   9
ATOM      9  C3' N4B d   1      -5.394   1.690  -5.091  0.00  0.00     0.004 C 
ATOM     10  C4' N4B d   1      -5.745   0.236  -5.196  0.00  0.00     0.003 C 
ENDBRANCH   8   9
ENDBRANCH   7   8
ENDBRANCH   1   7
TORSDOF 3
ENDMDL
