MODEL 1
REMARK minimizedAffinity 2.2112577
REMARK minimizedRMSD -1
REMARK  3 active torsions:
REMARK  status: ('A' for Active; 'I' for Inactive)
REMARK    1  A    between atoms: C3'_2  and  C2'_3 
REMARK    2  A    between atoms: C2'_3  and  C1'_4 
REMARK    3  A    between atoms: C1'_4  and  C1_5 
ROOT
ATOM      1  C1  N4B d   1      -4.339   1.148  -2.968  0.00  0.00    -0.075 A 
ATOM      2  C2  N4B d   1      -5.055   0.778  -4.128  0.00  0.00     0.002 A 
ATOM      3  C3  N4B d   1      -4.378   0.460  -5.280  0.00  0.00     0.002 A 
ATOM      4  C4  N4B d   1      -2.993   0.523  -5.301  0.00  0.00    -0.004 A 
ATOM      5  C5  N4B d   1      -2.308   0.856  -4.169  0.00  0.00     0.002 A 
ATOM      6  C6  N4B d   1      -2.975   1.175  -3.003  0.00  0.00     0.002 A 
ENDROOT
BRANCH   1   7
ATOM      7  C1' N4B d   1      -5.038   1.588  -1.710  0.00  0.00     0.057 C 
BRANCH   7   8
ATOM      8  C2' N4B d   1      -4.879   3.097  -1.550  0.00  0.00     0.009 C 
BRANCH   8   9
ATOM      9  C3' N4B d   1      -4.703   3.795  -2.888  0.00  0.00     0.004 C 
ATOM     10  C4' N4B d   1      -5.991   3.941  -3.641  0.00  0.00     0.003 C 
ENDBRANCH   8   9
ENDBRANCH   7   8
ENDBRANCH   1   7
TORSDOF 3
ENDMDL
