MODEL 1
REMARK minimizedAffinity 8.20366669
REMARK minimizedRMSD -1
REMARK  3 active torsions:
REMARK  status: ('A' for Active; 'I' for Inactive)
REMARK    1  A    between atoms: C3'_2  and  C2'_3 
REMARK    2  A    between atoms: C2'_3  and  C1'_4 
REMARK    3  A    between atoms: C1'_4  and  C1_5 
ROOT
ATOM      1  C1  N4B d   1       3.355   2.338   2.196  0.00  0.00    -0.075 A 
ATOM      2  C2  N4B d   1       2.722   1.886   1.017  0.00  0.00     0.002 A 
ATOM      3  C3  N4B d   1       1.507   1.250   1.091  0.00  0.00     0.002 A 
ATOM      4  C4  N4B d   1       0.917   1.039   2.328  0.00  0.00    -0.004 A 
ATOM      5  C5  N4B d   1       1.522   1.502   3.460  0.00  0.00     0.002 A 
ATOM      6  C6  N4B d   1       2.741   2.146   3.400  0.00  0.00     0.002 A 
ENDROOT
BRANCH   1   7
ATOM      7  C1' N4B d   1       4.723   2.962   2.174  0.00  0.00     0.057 C 
BRANCH   7   8
ATOM      8  C2' N4B d   1       4.897   3.834   3.415  0.00  0.00     0.009 C 
BRANCH   8   9
ATOM      9  C3' N4B d   1       5.618   3.097   4.530  0.00  0.00     0.004 C 
ATOM     10  C4' N4B d   1       6.000   3.996   5.668  0.00  0.00     0.003 C 
ENDBRANCH   8   9
ENDBRANCH   7   8
ENDBRANCH   1   7
TORSDOF 3
ENDMDL
