MODEL 1
REMARK minimizedAffinity 1.43176997
REMARK minimizedRMSD -1
REMARK  0 active torsions:
REMARK  status: ('A' for Active; 'I' for Inactive)
ROOT
ATOM      1  C   UNL d   1       1.068  -2.458  -0.539  0.00  0.00     0.020 A 
ATOM      2  C1  UNL d   1      -0.146  -1.774  -0.595  0.00  0.00     0.020 A 
ATOM      3  C2  UNL d   1      -0.183  -0.398  -0.359  0.00  0.00     0.034 A 
ATOM      4  C3  UNL d   1       0.996   0.298  -0.066  0.00  0.00     0.017 A 
ATOM      5  C4  UNL d   1       2.213  -0.390  -0.010  0.00  0.00     0.017 A 
ATOM      6  C5  UNL d   1       2.245  -1.768  -0.247  0.00  0.00     0.034 A 
ATOM      7 Cl   UNL d   1       3.709   0.399   0.346  0.00  0.00    -0.070 Cl
ATOM      8 Cl1  UNL d   1       0.876   1.998   0.215  0.00  0.00    -0.070 Cl
ENDROOT
TORSDOF 0
ENDMDL
