MODEL 1
REMARK minimizedAffinity 0.457316786
REMARK minimizedRMSD -1
REMARK  0 active torsions:
REMARK  status: ('A' for Active; 'I' for Inactive)
ROOT
ATOM      1  C   UNL d   1      -2.667   1.513   1.582  0.00  0.00     0.020 A 
ATOM      2  C1  UNL d   1      -3.025   0.358   0.887  0.00  0.00     0.020 A 
ATOM      3  C2  UNL d   1      -2.097  -0.273   0.057  0.00  0.00     0.034 A 
ATOM      4  C3  UNL d   1      -0.806   0.250  -0.081  0.00  0.00     0.017 A 
ATOM      5  C4  UNL d   1      -0.447   1.409   0.616  0.00  0.00     0.017 A 
ATOM      6  C5  UNL d   1      -1.381   2.037   1.447  0.00  0.00     0.034 A 
ATOM      7 Cl   UNL d   1       1.126   2.113   0.497  0.00  0.00    -0.070 Cl
ATOM      8 Cl1  UNL d   1       0.291  -0.583  -1.124  0.00  0.00    -0.070 Cl
ENDROOT
TORSDOF 0
ENDMDL
