MODEL 1
REMARK minimizedAffinity -5.24646711
REMARK minimizedRMSD -1
REMARK  0 active torsions:
REMARK  status: ('A' for Active; 'I' for Inactive)
ROOT
ATOM      1  C   UNL d   1       2.939  -0.865   0.495  0.00  0.00     0.020 A 
ATOM      2  C1  UNL d   1       2.837   0.496   0.780  0.00  0.00     0.020 A 
ATOM      3  C2  UNL d   1       1.692   1.204   0.408  0.00  0.00     0.034 A 
ATOM      4  C3  UNL d   1       0.644   0.551  -0.252  0.00  0.00     0.017 A 
ATOM      5  C4  UNL d   1       0.748  -0.815  -0.538  0.00  0.00     0.017 A 
ATOM      6  C5  UNL d   1       1.896  -1.519  -0.163  0.00  0.00     0.034 A 
ATOM      7 Cl   UNL d   1      -0.504  -1.690  -1.348  0.00  0.00    -0.070 Cl
ATOM      8 Cl1  UNL d   1      -0.742   1.488  -0.682  0.00  0.00    -0.070 Cl
ENDROOT
TORSDOF 0
ENDMDL
