MODEL 1
REMARK minimizedAffinity -0.230997548
REMARK minimizedRMSD -1
REMARK  0 active torsions:
REMARK  status: ('A' for Active; 'I' for Inactive)
ROOT
ATOM      1  C   UNL d   1       1.054  -2.014  -0.878  0.00  0.00     0.020 A 
ATOM      2  C1  UNL d   1      -0.039  -2.595  -0.238  0.00  0.00     0.020 A 
ATOM      3  C2  UNL d   1      -0.986  -1.789   0.398  0.00  0.00     0.034 A 
ATOM      4  C3  UNL d   1      -0.841  -0.397   0.396  0.00  0.00     0.017 A 
ATOM      5  C4  UNL d   1       0.258   0.186  -0.247  0.00  0.00     0.017 A 
ATOM      6  C5  UNL d   1       1.202  -0.626  -0.883  0.00  0.00     0.034 A 
ATOM      7 Cl   UNL d   1       0.505   1.896  -0.292  0.00  0.00    -0.070 Cl
ATOM      8 Cl1  UNL d   1      -2.049   0.538   1.202  0.00  0.00    -0.070 Cl
ENDROOT
TORSDOF 0
ENDMDL
