MODEL 1
REMARK minimizedAffinity -3.10936832
REMARK minimizedRMSD -1
REMARK  0 active torsions:
REMARK  status: ('A' for Active; 'I' for Inactive)
ROOT
ATOM      1  C   UNL d   1      -0.181  -0.406  -0.864  0.00  0.00     0.020 A 
ATOM      2  C1  UNL d   1      -0.389   0.957  -0.661  0.00  0.00     0.020 A 
ATOM      3  C2  UNL d   1       0.559   1.713   0.033  0.00  0.00     0.034 A 
ATOM      4  C3  UNL d   1       1.720   1.106   0.525  0.00  0.00     0.017 A 
ATOM      5  C4  UNL d   1       1.928  -0.263   0.321  0.00  0.00     0.017 A 
ATOM      6  C5  UNL d   1       0.976  -1.015  -0.374  0.00  0.00     0.034 A 
ATOM      7 Cl   UNL d   1       3.336  -1.083   0.899  0.00  0.00    -0.070 Cl
ATOM      8 Cl1  UNL d   1       2.849   2.101   1.373  0.00  0.00    -0.070 Cl
ENDROOT
TORSDOF 0
ENDMDL
