MODEL 1
REMARK minimizedAffinity -3.00160074
REMARK minimizedRMSD -1
REMARK  0 active torsions:
REMARK  status: ('A' for Active; 'I' for Inactive)
ROOT
ATOM      1  C   UNL d   1      -0.290  -0.799  -0.325  0.00  0.00     0.020 A 
ATOM      2  C1  UNL d   1       0.126  -0.402   0.946  0.00  0.00     0.020 A 
ATOM      3  C2  UNL d   1       1.455  -0.584   1.333  0.00  0.00     0.034 A 
ATOM      4  C3  UNL d   1       2.373  -1.164   0.450  0.00  0.00     0.017 A 
ATOM      5  C4  UNL d   1       1.954  -1.562  -0.825  0.00  0.00     0.017 A 
ATOM      6  C5  UNL d   1       0.622  -1.377  -1.208  0.00  0.00     0.034 A 
ATOM      7 Cl   UNL d   1       3.029  -2.284  -1.970  0.00  0.00    -0.070 Cl
ATOM      8 Cl1  UNL d   1       4.001  -1.358   0.996  0.00  0.00    -0.070 Cl
ENDROOT
TORSDOF 0
ENDMDL
