MODEL 1
REMARK minimizedAffinity 1.72376323
REMARK minimizedRMSD -1
REMARK  0 active torsions:
REMARK  status: ('A' for Active; 'I' for Inactive)
ROOT
ATOM      1  C   UNL d   1       0.640  -2.113  -0.745  0.00  0.00     0.020 A 
ATOM      2  C1  UNL d   1      -0.501  -1.345  -0.515  0.00  0.00     0.020 A 
ATOM      3  C2  UNL d   1      -0.383   0.026  -0.275  0.00  0.00     0.034 A 
ATOM      4  C3  UNL d   1       0.879   0.632  -0.264  0.00  0.00     0.017 A 
ATOM      5  C4  UNL d   1       2.023  -0.140  -0.495  0.00  0.00     0.017 A 
ATOM      6  C5  UNL d   1       1.899  -1.512  -0.734  0.00  0.00     0.034 A 
ATOM      7 Cl   UNL d   1       3.613   0.537  -0.497  0.00  0.00    -0.070 Cl
ATOM      8 Cl1  UNL d   1       0.951   2.332   0.039  0.00  0.00    -0.070 Cl
ENDROOT
TORSDOF 0
ENDMDL
