MODEL 1
REMARK minimizedAffinity -4.53867197
REMARK minimizedRMSD -1
REMARK  0 active torsions:
REMARK  status: ('A' for Active; 'I' for Inactive)
ROOT
ATOM      1  C   UNL d   1       3.310  -0.646   0.730  0.00  0.00     0.020 A 
ATOM      2  C1  UNL d   1       2.285  -1.590   0.689  0.00  0.00     0.020 A 
ATOM      3  C2  UNL d   1       0.977  -1.189   0.411  0.00  0.00     0.034 A 
ATOM      4  C3  UNL d   1       0.690   0.160   0.173  0.00  0.00     0.017 A 
ATOM      5  C4  UNL d   1       1.719   1.107   0.215  0.00  0.00     0.017 A 
ATOM      6  C5  UNL d   1       3.027   0.700   0.493  0.00  0.00     0.034 A 
ATOM      7 Cl   UNL d   1       1.442   2.789  -0.069  0.00  0.00    -0.070 Cl
ATOM      8 Cl1  UNL d   1      -0.951   0.584  -0.165  0.00  0.00    -0.070 Cl
ENDROOT
TORSDOF 0
ENDMDL
