MODEL 1
REMARK minimizedAffinity -5.90752506
REMARK minimizedRMSD -1
REMARK  0 active torsions:
REMARK  status: ('A' for Active; 'I' for Inactive)
ROOT
ATOM      1  C   UNL d   1       2.565   1.400   0.255  0.00  0.00     0.020 A 
ATOM      2  C1  UNL d   1       3.064   0.111   0.079  0.00  0.00     0.020 A 
ATOM      3  C2  UNL d   1       2.187  -0.954  -0.140  0.00  0.00     0.034 A 
ATOM      4  C3  UNL d   1       0.806  -0.731  -0.184  0.00  0.00     0.017 A 
ATOM      5  C4  UNL d   1       0.306   0.564  -0.007  0.00  0.00     0.017 A 
ATOM      6  C5  UNL d   1       1.188   1.626   0.212  0.00  0.00     0.034 A 
ATOM      7 Cl   UNL d   1      -1.386   0.918  -0.048  0.00  0.00    -0.070 Cl
ATOM      8 Cl1  UNL d   1      -0.219  -2.094  -0.459  0.00  0.00    -0.070 Cl
ENDROOT
TORSDOF 0
ENDMDL
