MODEL 1
REMARK minimizedAffinity -2.64466691
REMARK minimizedRMSD -1
REMARK  0 active torsions:
REMARK  status: ('A' for Active; 'I' for Inactive)
ROOT
ATOM      1  C   UNL d   1       1.868  -0.347   0.469  0.00  0.00     0.020 A 
ATOM      2  C1  UNL d   1       2.113  -1.418  -0.390  0.00  0.00     0.020 A 
ATOM      3  C2  UNL d   1       1.122  -1.841  -1.278  0.00  0.00     0.034 A 
ATOM      4  C3  UNL d   1      -0.119  -1.195  -1.308  0.00  0.00     0.017 A 
ATOM      5  C4  UNL d   1      -0.364  -0.120  -0.445  0.00  0.00     0.017 A 
ATOM      6  C5  UNL d   1       0.632   0.300   0.442  0.00  0.00     0.034 A 
ATOM      7 Cl   UNL d   1      -1.870   0.727  -0.425  0.00  0.00    -0.070 Cl
ATOM      8 Cl1  UNL d   1      -1.299  -1.772  -2.431  0.00  0.00    -0.070 Cl
ENDROOT
TORSDOF 0
ENDMDL
