MODEL 1
REMARK minimizedAffinity -4.25248146
REMARK minimizedRMSD -1
REMARK  0 active torsions:
REMARK  status: ('A' for Active; 'I' for Inactive)
ROOT
ATOM      1  C   UNL d   1       2.993   0.138   1.007  0.00  0.00     0.020 A 
ATOM      2  C1  UNL d   1       3.345  -0.999   0.281  0.00  0.00     0.020 A 
ATOM      3  C2  UNL d   1       2.381  -1.671  -0.473  0.00  0.00     0.034 A 
ATOM      4  C3  UNL d   1       1.061  -1.207  -0.503  0.00  0.00     0.017 A 
ATOM      5  C4  UNL d   1       0.709  -0.066   0.226  0.00  0.00     0.017 A 
ATOM      6  C5  UNL d   1       1.678   0.604   0.979  0.00  0.00     0.034 A 
ATOM      7 Cl   UNL d   1      -0.900   0.567   0.239  0.00  0.00    -0.070 Cl
ATOM      8 Cl1  UNL d   1      -0.079  -2.088  -1.457  0.00  0.00    -0.070 Cl
ENDROOT
TORSDOF 0
ENDMDL
