MODEL 1
REMARK minimizedAffinity 1.36574864
REMARK minimizedRMSD -1
REMARK  0 active torsions:
REMARK  status: ('A' for Active; 'I' for Inactive)
ROOT
ATOM      1  C2' OXE d   1       2.521   3.254  -5.999  0.00  0.00     0.078 C 
ATOM      2  C1' OXE d   1       1.868   0.752  -4.908  0.00  0.00     0.078 C 
ATOM      3  C1  OXE d   1       3.328   1.113  -5.015  0.00  0.00    -0.078 A 
ATOM      4  C2  OXE d   1       3.640   2.320  -5.592  0.00  0.00    -0.078 A 
ATOM      5  C3  OXE d   1       4.970   2.726  -5.665  0.00  0.00     0.003 A 
ATOM      6  C4  OXE d   1       5.999   1.852  -5.296  0.00  0.00    -0.002 A 
ATOM      7  C5  OXE d   1       5.704   0.602  -4.742  0.00  0.00    -0.002 A 
ATOM      8  C6  OXE d   1       4.376   0.235  -4.555  0.00  0.00     0.003 A 
ENDROOT
TORSDOF 0
ENDMDL
