MODEL 1
REMARK minimizedAffinity 4.40411806
REMARK minimizedRMSD -1
REMARK  0 active torsions:
REMARK  status: ('A' for Active; 'I' for Inactive)
ROOT
ATOM      1  C2' OXE d   1       1.683   0.338  -4.490  0.00  0.00     0.078 C 
ATOM      2  C1' OXE d   1       3.231  -0.126  -2.194  0.00  0.00     0.078 C 
ATOM      3  C1  OXE d   1       3.955   0.187  -3.479  0.00  0.00    -0.078 A 
ATOM      4  C2  OXE d   1       3.192   0.366  -4.608  0.00  0.00    -0.078 A 
ATOM      5  C3  OXE d   1       3.806   0.711  -5.808  0.00  0.00     0.003 A 
ATOM      6  C4  OXE d   1       5.203   0.726  -5.911  0.00  0.00    -0.002 A 
ATOM      7  C5  OXE d   1       6.000   0.506  -4.783  0.00  0.00    -0.002 A 
ATOM      8  C6  OXE d   1       5.392   0.278  -3.553  0.00  0.00     0.003 A 
ENDROOT
TORSDOF 0
ENDMDL
