MODEL 1
REMARK minimizedAffinity 3.45287728
REMARK minimizedRMSD -1
REMARK  0 active torsions:
REMARK  status: ('A' for Active; 'I' for Inactive)
ROOT
ATOM      1  C2' OXE d   1      -1.710  -4.533   0.729  0.00  0.00     0.078 C 
ATOM      2  C1' OXE d   1       0.768  -5.099   1.920  0.00  0.00     0.078 C 
ATOM      3  C1  OXE d   1       0.713  -3.983   0.907  0.00  0.00    -0.078 A 
ATOM      4  C2  OXE d   1      -0.494  -3.744   0.295  0.00  0.00    -0.078 A 
ATOM      5  C3  OXE d   1      -0.613  -2.690  -0.606  0.00  0.00     0.003 A 
ATOM      6  C4  OXE d   1       0.519  -1.971  -1.010  0.00  0.00    -0.002 A 
ATOM      7  C5  OXE d   1       1.766  -2.225  -0.428  0.00  0.00    -0.002 A 
ATOM      8  C6  OXE d   1       1.871  -3.196   0.560  0.00  0.00     0.003 A 
ENDROOT
TORSDOF 0
ENDMDL
