MODEL 1
REMARK minimizedAffinity -0.698674798
REMARK minimizedRMSD -1
REMARK  0 active torsions:
REMARK  status: ('A' for Active; 'I' for Inactive)
ROOT
ATOM      1  C2' OXE d   1       1.322  -2.591  -2.670  0.00  0.00     0.078 C 
ATOM      2  C1' OXE d   1       0.681  -1.545  -0.146  0.00  0.00     0.078 C 
ATOM      3  C1  OXE d   1       0.805  -0.578  -1.297  0.00  0.00    -0.078 A 
ATOM      4  C2  OXE d   1       1.165  -1.093  -2.519  0.00  0.00    -0.078 A 
ATOM      5  C3  OXE d   1       1.240  -0.253  -3.626  0.00  0.00     0.003 A 
ATOM      6  C4  OXE d   1       1.103   1.132  -3.475  0.00  0.00    -0.002 A 
ATOM      7  C5  OXE d   1       0.776   1.682  -2.231  0.00  0.00    -0.002 A 
ATOM      8  C6  OXE d   1       0.582   0.838  -1.143  0.00  0.00     0.003 A 
ENDROOT
TORSDOF 0
ENDMDL
