MODEL 1
REMARK minimizedAffinity 0.959527791
REMARK minimizedRMSD -1
REMARK  0 active torsions:
REMARK  status: ('A' for Active; 'I' for Inactive)
ROOT
ATOM      1  C2' OXE d   1       1.574   0.794  -0.421  0.00  0.00     0.078 C 
ATOM      2  C1' OXE d   1       1.333   1.257  -3.179  0.00  0.00     0.078 C 
ATOM      3  C1  OXE d   1       1.074  -0.141  -2.675  0.00  0.00    -0.078 A 
ATOM      4  C2  OXE d   1       1.239  -0.369  -1.330  0.00  0.00    -0.078 A 
ATOM      5  C3  OXE d   1       0.960  -1.627  -0.805  0.00  0.00     0.003 A 
ATOM      6  C4  OXE d   1       0.661  -2.699  -1.654  0.00  0.00    -0.002 A 
ATOM      7  C5  OXE d   1       0.526  -2.498  -3.032  0.00  0.00    -0.002 A 
ATOM      8  C6  OXE d   1       0.687  -1.218  -3.552  0.00  0.00     0.003 A 
ENDROOT
TORSDOF 0
ENDMDL
