MODEL 1
REMARK minimizedAffinity -3.18999124
REMARK minimizedRMSD -1
REMARK  0 active torsions:
REMARK  status: ('A' for Active; 'I' for Inactive)
ROOT
ATOM      1  C2' OXE d   1       1.761  -2.492  -2.602  0.00  0.00     0.078 C 
ATOM      2  C1' OXE d   1       1.355  -0.496  -4.533  0.00  0.00     0.078 C 
ATOM      3  C1  OXE d   1       1.194  -0.115  -3.083  0.00  0.00    -0.078 A 
ATOM      4  C2  OXE d   1       1.348  -1.109  -2.147  0.00  0.00    -0.078 A 
ATOM      5  C3  OXE d   1       1.264  -0.800  -0.792  0.00  0.00     0.003 A 
ATOM      6  C4  OXE d   1       0.873   0.480  -0.381  0.00  0.00    -0.002 A 
ATOM      7  C5  OXE d   1       0.672   1.497  -1.319  0.00  0.00    -0.002 A 
ATOM      8  C6  OXE d   1       0.869   1.228  -2.669  0.00  0.00     0.003 A 
ENDROOT
TORSDOF 0
ENDMDL
