MODEL 1
REMARK minimizedAffinity 4.23108482
REMARK minimizedRMSD -1
REMARK  0 active torsions:
REMARK  status: ('A' for Active; 'I' for Inactive)
ROOT
ATOM      1  C2' OXE d   1       1.400  -2.865  -2.899  0.00  0.00     0.078 C 
ATOM      2  C1' OXE d   1       0.361  -2.048  -0.423  0.00  0.00     0.078 C 
ATOM      3  C1  OXE d   1       0.649  -0.983  -1.451  0.00  0.00    -0.078 A 
ATOM      4  C2  OXE d   1       1.201  -1.387  -2.643  0.00  0.00    -0.078 A 
ATOM      5  C3  OXE d   1       1.435  -0.452  -3.647  0.00  0.00     0.003 A 
ATOM      6  C4  OXE d   1       1.258   0.915  -3.398  0.00  0.00    -0.002 A 
ATOM      7  C5  OXE d   1       0.734   1.351  -2.177  0.00  0.00    -0.002 A 
ATOM      8  C6  OXE d   1       0.385   0.414  -1.210  0.00  0.00     0.003 A 
ENDROOT
TORSDOF 0
ENDMDL
