MODEL 1
REMARK minimizedAffinity 3.34143472
REMARK minimizedRMSD -1
REMARK  0 active torsions:
REMARK  status: ('A' for Active; 'I' for Inactive)
ROOT
ATOM      1  C2' OXE d   1       0.431   0.991  -1.491  0.00  0.00     0.078 C 
ATOM      2  C1' OXE d   1       1.013  -1.336  -0.032  0.00  0.00     0.078 C 
ATOM      3  C1  OXE d   1       1.075  -1.416  -1.537  0.00  0.00    -0.078 A 
ATOM      4  C2  OXE d   1       0.743  -0.285  -2.244  0.00  0.00    -0.078 A 
ATOM      5  C3  OXE d   1       0.837  -0.287  -3.633  0.00  0.00     0.003 A 
ATOM      6  C4  OXE d   1       1.117  -1.474  -4.322  0.00  0.00    -0.002 A 
ATOM      7  C5  OXE d   1       1.418  -2.647  -3.622  0.00  0.00    -0.002 A 
ATOM      8  C6  OXE d   1       1.444  -2.624  -2.232  0.00  0.00     0.003 A 
ENDROOT
TORSDOF 0
ENDMDL
