MODEL 1
REMARK minimizedAffinity 3.33870125
REMARK minimizedRMSD -1
REMARK  0 active torsions:
REMARK  status: ('A' for Active; 'I' for Inactive)
ROOT
ATOM      1  C2' OXE d   1       1.872   0.391  -4.276  0.00  0.00     0.078 C 
ATOM      2  C1' OXE d   1       0.844   1.069  -1.754  0.00  0.00     0.078 C 
ATOM      3  C1  OXE d   1       1.001  -0.395  -2.079  0.00  0.00    -0.078 A 
ATOM      4  C2  OXE d   1       1.460  -0.719  -3.333  0.00  0.00    -0.078 A 
ATOM      5  C3  OXE d   1       1.675  -2.053  -3.665  0.00  0.00     0.003 A 
ATOM      6  C4  OXE d   1       1.282  -3.073  -2.790  0.00  0.00    -0.002 A 
ATOM      7  C5  OXE d   1       0.775  -2.766  -1.524  0.00  0.00    -0.002 A 
ATOM      8  C6  OXE d   1       0.668  -1.435  -1.137  0.00  0.00     0.003 A 
ENDROOT
TORSDOF 0
ENDMDL
