MODEL 1
REMARK minimizedAffinity 3.33593559
REMARK minimizedRMSD -1
REMARK  0 active torsions:
REMARK  status: ('A' for Active; 'I' for Inactive)
ROOT
ATOM      1  C2' OXE d   1       4.033   4.865  -3.758  0.00  0.00     0.078 C 
ATOM      2  C1' OXE d   1       2.678   3.838  -5.993  0.00  0.00     0.078 C 
ATOM      3  C1  OXE d   1       3.830   3.037  -5.439  0.00  0.00    -0.078 A 
ATOM      4  C2  OXE d   1       4.516   3.570  -4.374  0.00  0.00    -0.078 A 
ATOM      5  C3  OXE d   1       5.552   2.846  -3.791  0.00  0.00     0.003 A 
ATOM      6  C4  OXE d   1       6.000   1.654  -4.373  0.00  0.00    -0.002 A 
ATOM      7  C5  OXE d   1       5.340   1.113  -5.481  0.00  0.00    -0.002 A 
ATOM      8  C6  OXE d   1       4.229   1.770  -6.000  0.00  0.00     0.003 A 
ENDROOT
TORSDOF 0
ENDMDL
