MODEL 1
REMARK minimizedAffinity -2.04574871
REMARK minimizedRMSD -1
REMARK  0 active torsions:
REMARK  status: ('A' for Active; 'I' for Inactive)
ROOT
ATOM      1  C2' OXE d   1       0.297  -2.158   0.267  0.00  0.00     0.078 C 
ATOM      2  C1' OXE d   1       0.901  -2.864  -2.381  0.00  0.00     0.078 C 
ATOM      3  C1  OXE d   1       0.866  -1.396  -2.035  0.00  0.00    -0.078 A 
ATOM      4  C2  OXE d   1       0.523  -1.059  -0.748  0.00  0.00    -0.078 A 
ATOM      5  C3  OXE d   1       0.529   0.278  -0.361  0.00  0.00     0.003 A 
ATOM      6  C4  OXE d   1       0.730   1.289  -1.308  0.00  0.00    -0.002 A 
ATOM      7  C5  OXE d   1       1.041   0.968  -2.634  0.00  0.00    -0.002 A 
ATOM      8  C6  OXE d   1       1.155  -0.367  -3.003  0.00  0.00     0.003 A 
ENDROOT
TORSDOF 0
ENDMDL
