MODEL 1
REMARK minimizedAffinity 4.30297613
REMARK minimizedRMSD -1
REMARK  0 active torsions:
REMARK  status: ('A' for Active; 'I' for Inactive)
ROOT
ATOM      1  C2' OXE d   1       2.509   3.754  -5.669  0.00  0.00     0.078 C 
ATOM      2  C1' OXE d   1       4.331   4.697  -3.753  0.00  0.00     0.078 C 
ATOM      3  C1  OXE d   1       4.627   3.374  -4.414  0.00  0.00    -0.078 A 
ATOM      4  C2  OXE d   1       3.707   2.898  -5.316  0.00  0.00    -0.078 A 
ATOM      5  C3  OXE d   1       3.958   1.710  -5.995  0.00  0.00     0.003 A 
ATOM      6  C4  OXE d   1       5.063   0.919  -5.656  0.00  0.00    -0.002 A 
ATOM      7  C5  OXE d   1       5.992   1.366  -4.711  0.00  0.00    -0.002 A 
ATOM      8  C6  OXE d   1       5.812   2.609  -4.113  0.00  0.00     0.003 A 
ENDROOT
TORSDOF 0
ENDMDL
