MODEL 1
REMARK minimizedAffinity 1.96595955
REMARK minimizedRMSD -1
REMARK  0 active torsions:
REMARK  status: ('A' for Active; 'I' for Inactive)
ROOT
ATOM      1  C2' OXE d   1       1.553  -2.776  -2.693  0.00  0.00     0.078 C 
ATOM      2  C1' OXE d   1       1.166  -0.740  -4.587  0.00  0.00     0.078 C 
ATOM      3  C1  OXE d   1       1.023  -0.381  -3.129  0.00  0.00    -0.078 A 
ATOM      4  C2  OXE d   1       1.169  -1.394  -2.211  0.00  0.00    -0.078 A 
ATOM      5  C3  OXE d   1       1.101  -1.106  -0.851  0.00  0.00     0.003 A 
ATOM      6  C4  OXE d   1       0.735   0.173  -0.414  0.00  0.00    -0.002 A 
ATOM      7  C5  OXE d   1       0.544   1.209  -1.334  0.00  0.00    -0.002 A 
ATOM      8  C6  OXE d   1       0.725   0.960  -2.689  0.00  0.00     0.003 A 
ENDROOT
TORSDOF 0
ENDMDL
