MODEL 1
REMARK minimizedAffinity 3.40871739
REMARK minimizedRMSD -1
REMARK  0 active torsions:
REMARK  status: ('A' for Active; 'I' for Inactive)
ROOT
ATOM      1  C2' OXE d   1       0.741  -1.801  -0.075  0.00  0.00     0.078 C 
ATOM      2  C1' OXE d   1       0.727  -2.469  -2.802  0.00  0.00     0.078 C 
ATOM      3  C1  OXE d   1       0.832  -1.009  -2.436  0.00  0.00    -0.078 A 
ATOM      4  C2  OXE d   1       0.791  -0.688  -1.100  0.00  0.00    -0.078 A 
ATOM      5  C3  OXE d   1       0.939   0.638  -0.706  0.00  0.00     0.003 A 
ATOM      6  C4  OXE d   1       0.975   1.662  -1.660  0.00  0.00    -0.002 A 
ATOM      7  C5  OXE d   1       0.978   1.360  -3.026  0.00  0.00    -0.002 A 
ATOM      8  C6  OXE d   1       0.950   0.029  -3.429  0.00  0.00     0.003 A 
ENDROOT
TORSDOF 0
ENDMDL
