MODEL 1
REMARK minimizedAffinity -2.86635876
REMARK minimizedRMSD -1
REMARK  0 active torsions:
REMARK  status: ('A' for Active; 'I' for Inactive)
ROOT
ATOM      1  C2' OXE d   1       1.789  -0.282  -4.686  0.00  0.00     0.078 C 
ATOM      2  C1' OXE d   1       1.425  -2.517  -3.028  0.00  0.00     0.078 C 
ATOM      3  C1  OXE d   1       1.195  -1.152  -2.429  0.00  0.00    -0.078 A 
ATOM      4  C2  OXE d   1       1.420  -0.062  -3.235  0.00  0.00    -0.078 A 
ATOM      5  C3  OXE d   1       1.170   1.218  -2.750  0.00  0.00     0.003 A 
ATOM      6  C4  OXE d   1       0.838   1.413  -1.403  0.00  0.00    -0.002 A 
ATOM      7  C5  OXE d   1       0.642   0.319  -0.555  0.00  0.00    -0.002 A 
ATOM      8  C6  OXE d   1       0.774  -0.969  -1.062  0.00  0.00     0.003 A 
ENDROOT
TORSDOF 0
ENDMDL
