MODEL 1
REMARK minimizedAffinity 1.26108134
REMARK minimizedRMSD -1
REMARK  0 active torsions:
REMARK  status: ('A' for Active; 'I' for Inactive)
ROOT
ATOM      1  C2' OXE d   1       2.227  -0.088  -4.409  0.00  0.00     0.078 C 
ATOM      2  C1' OXE d   1       1.382  -2.217  -2.787  0.00  0.00     0.078 C 
ATOM      3  C1  OXE d   1       1.109  -0.815  -2.304  0.00  0.00    -0.078 A 
ATOM      4  C2  OXE d   1       1.568   0.222  -3.082  0.00  0.00    -0.078 A 
ATOM      5  C3  OXE d   1       1.295   1.535  -2.710  0.00  0.00     0.003 A 
ATOM      6  C4  OXE d   1       0.694   1.813  -1.477  0.00  0.00    -0.002 A 
ATOM      7  C5  OXE d   1       0.255   0.772  -0.651  0.00  0.00    -0.002 A 
ATOM      8  C6  OXE d   1       0.417  -0.544  -1.069  0.00  0.00     0.003 A 
ENDROOT
TORSDOF 0
ENDMDL
