MODEL 1
REMARK minimizedAffinity 2.41070151
REMARK minimizedRMSD -1
REMARK  0 active torsions:
REMARK  status: ('A' for Active; 'I' for Inactive)
ROOT
ATOM      1  C2' OXE d   1       1.277  -2.545  -2.787  0.00  0.00     0.078 C 
ATOM      2  C1' OXE d   1       0.167  -1.370  -0.491  0.00  0.00     0.078 C 
ATOM      3  C1  OXE d   1       0.584  -0.457  -1.617  0.00  0.00    -0.078 A 
ATOM      4  C2  OXE d   1       1.168  -1.037  -2.718  0.00  0.00    -0.078 A 
ATOM      5  C3  OXE d   1       1.521  -0.246  -3.807  0.00  0.00     0.003 A 
ATOM      6  C4  OXE d   1       1.427   1.149  -3.731  0.00  0.00    -0.002 A 
ATOM      7  C5  OXE d   1       0.871   1.763  -2.604  0.00  0.00    -0.002 A 
ATOM      8  C6  OXE d   1       0.406   0.973  -1.558  0.00  0.00     0.003 A 
ENDROOT
TORSDOF 0
ENDMDL
