MODEL 1
REMARK minimizedAffinity 3.33013749
REMARK minimizedRMSD -1
REMARK  0 active torsions:
REMARK  status: ('A' for Active; 'I' for Inactive)
ROOT
ATOM      1  C2' OXE d   1      -3.084   2.076   4.896  0.00  0.00     0.078 C 
ATOM      2  C1' OXE d   1      -2.411   3.974   2.940  0.00  0.00     0.078 C 
ATOM      3  C1  OXE d   1      -3.392   4.384   4.010  0.00  0.00    -0.078 A 
ATOM      4  C2  OXE d   1      -3.751   3.434   4.936  0.00  0.00    -0.078 A 
ATOM      5  C3  OXE d   1      -4.610   3.776   5.976  0.00  0.00     0.003 A 
ATOM      6  C4  OXE d   1      -5.230   5.031   6.000  0.00  0.00    -0.002 A 
ATOM      7  C5  OXE d   1      -4.909   6.000   5.044  0.00  0.00    -0.002 A 
ATOM      8  C6  OXE d   1      -3.961   5.707   4.069  0.00  0.00     0.003 A 
ENDROOT
TORSDOF 0
ENDMDL
