MODEL 1
REMARK minimizedAffinity 0.696383059
REMARK minimizedRMSD -1
REMARK  0 active torsions:
REMARK  status: ('A' for Active; 'I' for Inactive)
ROOT
ATOM      1  C2' OXE d   1       1.360   2.056  -3.846  0.00  0.00     0.078 C 
ATOM      2  C1' OXE d   1       0.609   1.087  -1.321  0.00  0.00     0.078 C 
ATOM      3  C1  OXE d   1       0.982   0.079  -2.379  0.00  0.00    -0.078 A 
ATOM      4  C2  OXE d   1       1.303   0.560  -3.625  0.00  0.00    -0.078 A 
ATOM      5  C3  OXE d   1       1.708  -0.323  -4.622  0.00  0.00     0.003 A 
ATOM      6  C4  OXE d   1       1.643  -1.706  -4.413  0.00  0.00    -0.002 A 
ATOM      7  C5  OXE d   1       1.281  -2.219  -3.163  0.00  0.00    -0.002 A 
ATOM      8  C6  OXE d   1       0.989  -1.341  -2.125  0.00  0.00     0.003 A 
ENDROOT
TORSDOF 0
ENDMDL
