MODEL 1
REMARK minimizedAffinity 9.11672974
REMARK minimizedRMSD -1
REMARK  0 active torsions:
REMARK  status: ('A' for Active; 'I' for Inactive)
ROOT
ATOM      1  C4' PXY d   1      -4.082   4.041  -4.769  0.00  0.00     0.077 C 
ATOM      2  C1' PXY d   1      -3.414  -0.665  -1.479  0.00  0.00     0.077 C 
ATOM      3  C1  PXY d   1      -3.596   0.562  -2.350  0.00  0.00    -0.082 A 
ATOM      4  C2  PXY d   1      -2.758   1.580  -2.230  0.00  0.00     0.003 A 
ATOM      5  C3  PXY d   1      -2.927   2.710  -2.987  0.00  0.00     0.003 A 
ATOM      6  C4  PXY d   1      -3.931   2.778  -3.916  0.00  0.00    -0.082 A 
ATOM      7  C5  PXY d   1      -4.783   1.740  -4.052  0.00  0.00     0.003 A 
ATOM      8  C6  PXY d   1      -4.619   0.618  -3.245  0.00  0.00     0.003 A 
ENDROOT
TORSDOF 0
ENDMDL
