MODEL 1
REMARK minimizedAffinity -1.54419899
REMARK minimizedRMSD -1
REMARK  0 active torsions:
REMARK  status: ('A' for Active; 'I' for Inactive)
ROOT
ATOM      1  C4' PXY d   1      -0.517   5.998   5.863  0.00  0.00     0.077 C 
ATOM      2  C1' PXY d   1      -5.160   2.557   5.991  0.00  0.00     0.077 C 
ATOM      3  C1  PXY d   1      -3.950   3.469   5.952  0.00  0.00    -0.082 A 
ATOM      4  C2  PXY d   1      -2.735   2.946   6.000  0.00  0.00     0.003 A 
ATOM      5  C3  PXY d   1      -1.630   3.757   5.997  0.00  0.00     0.003 A 
ATOM      6  C4  PXY d   1      -1.768   5.115   5.891  0.00  0.00    -0.082 A 
ATOM      7  C5  PXY d   1      -3.004   5.656   5.830  0.00  0.00     0.003 A 
ATOM      8  C6  PXY d   1      -4.114   4.817   5.876  0.00  0.00     0.003 A 
ENDROOT
TORSDOF 0
ENDMDL
