MODEL 1
REMARK minimizedAffinity 14.8670483
REMARK minimizedRMSD -1
REMARK  0 active torsions:
REMARK  status: ('A' for Active; 'I' for Inactive)
ROOT
ATOM      1  C4' PXY d   1      -1.482  -2.354   2.228  0.00  0.00     0.077 C 
ATOM      2  C1' PXY d   1       4.013  -1.875   0.499  0.00  0.00     0.077 C 
ATOM      3  C1  PXY d   1       2.574  -1.993   0.963  0.00  0.00    -0.082 A 
ATOM      4  C2  PXY d   1       1.822  -2.984   0.514  0.00  0.00     0.003 A 
ATOM      5  C3  PXY d   1       0.510  -3.088   0.898  0.00  0.00     0.003 A 
ATOM      6  C4  PXY d   1      -0.022  -2.200   1.794  0.00  0.00    -0.082 A 
ATOM      7  C5  PXY d   1       0.742  -1.193   2.266  0.00  0.00     0.003 A 
ATOM      8  C6  PXY d   1       2.060  -1.080   1.831  0.00  0.00     0.003 A 
ENDROOT
TORSDOF 0
ENDMDL
