MODEL 1
REMARK minimizedAffinity 7.03039074
REMARK minimizedRMSD -1
REMARK  0 active torsions:
REMARK  status: ('A' for Active; 'I' for Inactive)
ROOT
ATOM      1  C4' PXY d   1       0.204  -0.766   2.617  0.00  0.00     0.077 C 
ATOM      2  C1' PXY d   1       2.388  -5.083  -0.548  0.00  0.00     0.077 C 
ATOM      3  C1  PXY d   1       1.803  -3.954   0.279  0.00  0.00    -0.082 A 
ATOM      4  C2  PXY d   1       2.544  -2.893   0.553  0.00  0.00     0.003 A 
ATOM      5  C3  PXY d   1       2.041  -1.878   1.326  0.00  0.00     0.003 A 
ATOM      6  C4  PXY d   1       0.750  -1.925   1.778  0.00  0.00    -0.082 A 
ATOM      7  C5  PXY d   1      -0.015  -3.000   1.494  0.00  0.00     0.003 A 
ATOM      8  C6  PXY d   1       0.527  -4.039   0.743  0.00  0.00     0.003 A 
ENDROOT
TORSDOF 0
ENDMDL
