MODEL 1
REMARK minimizedAffinity 16.0756493
REMARK minimizedRMSD -1
REMARK  0 active torsions:
REMARK  status: ('A' for Active; 'I' for Inactive)
ROOT
ATOM      1  C4' PXY d   1       1.794  -4.309  -0.858  0.00  0.00     0.077 C 
ATOM      2  C1' PXY d   1      -1.777  -1.115   2.377  0.00  0.00     0.077 C 
ATOM      3  C1  PXY d   1      -0.835  -1.942   1.524  0.00  0.00    -0.082 A 
ATOM      4  C2  PXY d   1      -1.201  -3.149   1.126  0.00  0.00     0.003 A 
ATOM      5  C3  PXY d   1      -0.349  -3.923   0.382  0.00  0.00     0.003 A 
ATOM      6  C4  PXY d   1       0.871  -3.435  -0.004  0.00  0.00    -0.082 A 
ATOM      7  C5  PXY d   1       1.248  -2.200   0.389  0.00  0.00     0.003 A 
ATOM      8  C6  PXY d   1       0.385  -1.447   1.179  0.00  0.00     0.003 A 
ENDROOT
TORSDOF 0
ENDMDL
