MODEL 1
REMARK minimizedAffinity 11.8275709
REMARK minimizedRMSD -1
REMARK  0 active torsions:
REMARK  status: ('A' for Active; 'I' for Inactive)
ROOT
ATOM      1  C4' PXY d   1       2.138  -3.555  -0.326  0.00  0.00     0.077 C 
ATOM      2  C1' PXY d   1      -0.889  -0.242   3.319  0.00  0.00     0.077 C 
ATOM      3  C1  PXY d   1      -0.085  -1.103   2.364  0.00  0.00    -0.082 A 
ATOM      4  C2  PXY d   1      -0.713  -1.894   1.509  0.00  0.00     0.003 A 
ATOM      5  C3  PXY d   1      -0.002  -2.702   0.661  0.00  0.00     0.003 A 
ATOM      6  C4  PXY d   1       1.367  -2.661   0.650  0.00  0.00    -0.082 A 
ATOM      7  C5  PXY d   1       2.015  -1.849   1.511  0.00  0.00     0.003 A 
ATOM      8  C6  PXY d   1       1.275  -1.067   2.393  0.00  0.00     0.003 A 
ENDROOT
TORSDOF 0
ENDMDL
