MODEL 1
REMARK minimizedAffinity -3.89486623
REMARK minimizedRMSD -1
REMARK  1 active torsions:
REMARK  status: ('A' for Active; 'I' for Inactive)
REMARK    1  A    between atoms: C1_2  and  C2_3 
ROOT
ATOM      1  C2  UNL d   1       1.030  -0.420  -1.129  0.00  0.00    -0.081 A 
ATOM      2  C3  UNL d   1       0.223   0.710  -1.306  0.00  0.00     0.006 A 
ATOM      3  C4  UNL d   1      -0.818   0.984  -0.416  0.00  0.00     0.002 A 
ATOM      4  C5  UNL d   1      -1.063   0.138   0.671  0.00  0.00    -0.080 A 
ATOM      5  C6  UNL d   1      -2.158   0.437   1.652  0.00  0.00     0.076 C 
ATOM      6  C7  UNL d   1      -0.268  -1.001   0.838  0.00  0.00     0.002 A 
ATOM      7  C8  UNL d   1       0.772  -1.275  -0.052  0.00  0.00     0.006 A 
ENDROOT
BRANCH   1   8
ATOM      8  C1  UNL d   1       2.194  -0.683  -2.050  0.00  0.00     0.054 C 
ATOM      9  C   UNL d   1       2.400   0.468  -3.024  0.00  0.00     0.018 C 
ENDBRANCH   1   8
TORSDOF 1
ENDMDL
