MODEL 1
REMARK minimizedAffinity -4.19740963
REMARK minimizedRMSD -1
REMARK  1 active torsions:
REMARK  status: ('A' for Active; 'I' for Inactive)
REMARK    1  A    between atoms: C1_2  and  C2_3 
ROOT
ATOM      1  C2  UNL d   1      -2.953  -0.025   3.386  0.00  0.00    -0.081 A 
ATOM      2  C3  UNL d   1      -3.203  -0.753   4.556  0.00  0.00     0.006 A 
ATOM      3  C4  UNL d   1      -4.191  -1.740   4.578  0.00  0.00     0.002 A 
ATOM      4  C5  UNL d   1      -4.939  -2.022   3.430  0.00  0.00    -0.080 A 
ATOM      5  C6  UNL d   1      -5.981  -3.100   3.431  0.00  0.00     0.076 C 
ATOM      6  C7  UNL d   1      -4.701  -1.283   2.266  0.00  0.00     0.002 A 
ATOM      7  C8  UNL d   1      -3.714  -0.295   2.243  0.00  0.00     0.006 A 
ENDROOT
BRANCH   1   8
ATOM      8  C1  UNL d   1      -1.845   0.996   3.340  0.00  0.00     0.054 C 
ATOM      9  C   UNL d   1      -1.349   1.212   1.918  0.00  0.00     0.018 C 
ENDBRANCH   1   8
TORSDOF 1
ENDMDL
