MODEL 1
REMARK minimizedAffinity -3.23005199
REMARK minimizedRMSD -1
REMARK  1 active torsions:
REMARK  status: ('A' for Active; 'I' for Inactive)
REMARK    1  A    between atoms: C1_2  and  C2_3 
ROOT
ATOM      1  C2  UNL d   1      -1.560  -0.173   1.187  0.00  0.00    -0.081 A 
ATOM      2  C3  UNL d   1      -1.085  -1.490   1.215  0.00  0.00     0.006 A 
ATOM      3  C4  UNL d   1      -0.028  -1.879   0.389  0.00  0.00     0.002 A 
ATOM      4  C5  UNL d   1       0.576  -0.957  -0.473  0.00  0.00    -0.080 A 
ATOM      5  C6  UNL d   1       1.731  -1.354  -1.343  0.00  0.00     0.076 C 
ATOM      6  C7  UNL d   1       0.090   0.354  -0.513  0.00  0.00     0.002 A 
ATOM      7  C8  UNL d   1      -0.968   0.744   0.312  0.00  0.00     0.006 A 
ENDROOT
BRANCH   1   8
ATOM      8  C1  UNL d   1      -2.657   0.266   2.124  0.00  0.00     0.054 C 
ATOM      9  C   UNL d   1      -2.127   1.211   3.192  0.00  0.00     0.018 C 
ENDBRANCH   1   8
TORSDOF 1
ENDMDL
