MODEL 1
REMARK minimizedAffinity -5.01707602
REMARK minimizedRMSD -1
REMARK  1 active torsions:
REMARK  status: ('A' for Active; 'I' for Inactive)
REMARK    1  A    between atoms: C1_2  and  C2_3 
ROOT
ATOM      1  C2  UNL d   1      -1.368   0.198   0.536  0.00  0.00    -0.081 A 
ATOM      2  C3  UNL d   1      -1.147  -1.175   0.374  0.00  0.00     0.006 A 
ATOM      3  C4  UNL d   1       0.058  -1.640  -0.158  0.00  0.00     0.002 A 
ATOM      4  C5  UNL d   1       1.064  -0.741  -0.529  0.00  0.00    -0.080 A 
ATOM      5  C6  UNL d   1       2.375  -1.229  -1.072  0.00  0.00     0.076 C 
ATOM      6  C7  UNL d   1       0.837   0.631  -0.383  0.00  0.00     0.002 A 
ATOM      7  C8  UNL d   1      -0.368   1.097   0.148  0.00  0.00     0.006 A 
ENDROOT
BRANCH   1   8
ATOM      8  C1  UNL d   1      -2.641   0.700   1.169  0.00  0.00     0.054 C 
ATOM      9  C   UNL d   1      -2.357   1.455   2.459  0.00  0.00     0.018 C 
ENDBRANCH   1   8
TORSDOF 1
ENDMDL
