MODEL 1
REMARK minimizedAffinity -4.87693739
REMARK minimizedRMSD -1
REMARK  1 active torsions:
REMARK  status: ('A' for Active; 'I' for Inactive)
REMARK    1  A    between atoms: C1_2  and  C2_3 
ROOT
ATOM      1  C2  UNL d   1      -0.905   0.249   0.581  0.00  0.00    -0.081 A 
ATOM      2  C3  UNL d   1      -0.821  -1.127   0.336  0.00  0.00     0.006 A 
ATOM      3  C4  UNL d   1       0.248  -1.653  -0.394  0.00  0.00     0.002 A 
ATOM      4  C5  UNL d   1       1.254  -0.813  -0.884  0.00  0.00    -0.080 A 
ATOM      5  C6  UNL d   1       2.422  -1.368  -1.643  0.00  0.00     0.076 C 
ATOM      6  C7  UNL d   1       1.161   0.564  -0.654  0.00  0.00     0.002 A 
ATOM      7  C8  UNL d   1       0.092   1.090   0.075  0.00  0.00     0.006 A 
ENDROOT
BRANCH   1   8
ATOM      8  C1  UNL d   1      -2.022   0.810   1.423  0.00  0.00     0.054 C 
ATOM      9  C   UNL d   1      -1.480   1.574   2.623  0.00  0.00     0.018 C 
ENDBRANCH   1   8
TORSDOF 1
ENDMDL
