MODEL 1
REMARK minimizedAffinity -4.1945653
REMARK minimizedRMSD -1
REMARK  1 active torsions:
REMARK  status: ('A' for Active; 'I' for Inactive)
REMARK    1  A    between atoms: C1_2  and  C2_3 
ROOT
ATOM      1  C2  UNL d   1       1.432   0.840  -1.565  0.00  0.00    -0.081 A 
ATOM      2  C3  UNL d   1       0.323   1.694  -1.524  0.00  0.00     0.006 A 
ATOM      3  C4  UNL d   1      -0.753   1.417  -0.677  0.00  0.00     0.002 A 
ATOM      4  C5  UNL d   1      -0.735   0.287   0.147  0.00  0.00    -0.080 A 
ATOM      5  C6  UNL d   1      -1.870  -0.006   1.083  0.00  0.00     0.076 C 
ATOM      6  C7  UNL d   1       0.365  -0.576   0.094  0.00  0.00     0.002 A 
ATOM      7  C8  UNL d   1       1.441  -0.300  -0.753  0.00  0.00     0.006 A 
ENDROOT
BRANCH   1   8
ATOM      8  C1  UNL d   1       2.622   1.170  -2.429  0.00  0.00     0.054 C 
ATOM      9  C   UNL d   1       3.588  -0.003  -2.512  0.00  0.00     0.018 C 
ENDBRANCH   1   8
TORSDOF 1
ENDMDL
