MODEL 1
REMARK minimizedAffinity -4.64480066
REMARK minimizedRMSD -1
REMARK  1 active torsions:
REMARK  status: ('A' for Active; 'I' for Inactive)
REMARK    1  A    between atoms: C1_2  and  C2_3 
ROOT
ATOM      1  C2  UNL d   1       1.670   0.440  -1.376  0.00  0.00    -0.081 A 
ATOM      2  C3  UNL d   1       2.299  -0.802  -1.229  0.00  0.00     0.006 A 
ATOM      3  C4  UNL d   1       1.684  -1.827  -0.506  0.00  0.00     0.002 A 
ATOM      4  C5  UNL d   1       0.426  -1.630   0.075  0.00  0.00    -0.080 A 
ATOM      5  C6  UNL d   1      -0.259  -2.731   0.827  0.00  0.00     0.076 C 
ATOM      6  C7  UNL d   1      -0.195  -0.383  -0.057  0.00  0.00     0.002 A 
ATOM      7  C8  UNL d   1       0.421   0.642  -0.779  0.00  0.00     0.006 A 
ENDROOT
BRANCH   1   8
ATOM      8  C1  UNL d   1       2.302   1.525  -2.209  0.00  0.00     0.054 C 
ATOM      9  C   UNL d   1       1.285   2.173  -3.137  0.00  0.00     0.018 C 
ENDBRANCH   1   8
TORSDOF 1
ENDMDL
