MODEL 1
REMARK minimizedAffinity -5.53376484
REMARK minimizedRMSD -1
REMARK  1 active torsions:
REMARK  status: ('A' for Active; 'I' for Inactive)
REMARK    1  A    between atoms: C1_2  and  C2_3 
ROOT
ATOM      1  C2  UNL d   1      -1.250   0.240   0.931  0.00  0.00    -0.081 A 
ATOM      2  C3  UNL d   1      -1.021  -1.096   0.580  0.00  0.00     0.006 A 
ATOM      3  C4  UNL d   1       0.062  -1.439  -0.233  0.00  0.00     0.002 A 
ATOM      4  C5  UNL d   1       0.937  -0.453  -0.702  0.00  0.00    -0.080 A 
ATOM      5  C6  UNL d   1       2.121  -0.811  -1.551  0.00  0.00     0.076 C 
ATOM      6  C7  UNL d   1       0.698   0.884  -0.366  0.00  0.00     0.002 A 
ATOM      7  C8  UNL d   1      -0.385   1.227   0.447  0.00  0.00     0.006 A 
ENDROOT
BRANCH   1   8
ATOM      8  C1  UNL d   1      -2.380   0.604   1.861  0.00  0.00     0.054 C 
ATOM      9  C   UNL d   1      -1.881   1.427   3.040  0.00  0.00     0.018 C 
ENDBRANCH   1   8
TORSDOF 1
ENDMDL
