MODEL 1
REMARK minimizedAffinity -5.1163888
REMARK minimizedRMSD -1
REMARK  1 active torsions:
REMARK  status: ('A' for Active; 'I' for Inactive)
REMARK    1  A    between atoms: C1_2  and  C2_3 
ROOT
ATOM      1  C2  UNL d   1      -0.610   0.475  -0.236  0.00  0.00    -0.081 A 
ATOM      2  C3  UNL d   1       0.160   1.525  -0.752  0.00  0.00     0.006 A 
ATOM      3  C4  UNL d   1       1.456   1.290  -1.216  0.00  0.00     0.002 A 
ATOM      4  C5  UNL d   1       2.001   0.003  -1.179  0.00  0.00    -0.080 A 
ATOM      5  C6  UNL d   1       3.381  -0.268  -1.702  0.00  0.00     0.076 C 
ATOM      6  C7  UNL d   1       1.239  -1.043  -0.647  0.00  0.00     0.002 A 
ATOM      7  C8  UNL d   1      -0.057  -0.809  -0.183  0.00  0.00     0.006 A 
ENDROOT
BRANCH   1   8
ATOM      8  C1  UNL d   1      -2.032   0.713   0.205  0.00  0.00     0.054 C 
ATOM      9  C   UNL d   1      -2.145   0.730   1.723  0.00  0.00     0.018 C 
ENDBRANCH   1   8
TORSDOF 1
ENDMDL
