MODEL 1
REMARK minimizedAffinity -3.06915951
REMARK minimizedRMSD -1
REMARK  1 active torsions:
REMARK  status: ('A' for Active; 'I' for Inactive)
REMARK    1  A    between atoms: C1_2  and  C2_3 
ROOT
ATOM      1  C2  UNL d   1      -0.609   0.126   0.093  0.00  0.00    -0.081 A 
ATOM      2  C3  UNL d   1      -0.062  -1.160   0.191  0.00  0.00     0.006 A 
ATOM      3  C4  UNL d   1       1.263  -1.396  -0.183  0.00  0.00     0.002 A 
ATOM      4  C5  UNL d   1       2.065  -0.350  -0.653  0.00  0.00    -0.080 A 
ATOM      5  C6  UNL d   1       3.498  -0.584  -1.029  0.00  0.00     0.076 C 
ATOM      6  C7  UNL d   1       1.513   0.931  -0.767  0.00  0.00     0.002 A 
ATOM      7  C8  UNL d   1       0.188   1.167  -0.394  0.00  0.00     0.006 A 
ENDROOT
BRANCH   1   8
ATOM      8  C1  UNL d   1      -2.018   0.396   0.556  0.00  0.00     0.054 C 
ATOM      9  C   UNL d   1      -2.094   0.483   2.074  0.00  0.00     0.018 C 
ENDBRANCH   1   8
TORSDOF 1
ENDMDL
