MODEL 1
REMARK minimizedAffinity -4.38791466
REMARK minimizedRMSD -1
REMARK  1 active torsions:
REMARK  status: ('A' for Active; 'I' for Inactive)
REMARK    1  A    between atoms: C1_2  and  C2_3 
ROOT
ATOM      1  C2  UNL d   1       1.482  -0.138  -0.715  0.00  0.00    -0.081 A 
ATOM      2  C3  UNL d   1       0.960   1.120  -0.389  0.00  0.00     0.006 A 
ATOM      3  C4  UNL d   1      -0.206   1.227   0.374  0.00  0.00     0.002 A 
ATOM      4  C5  UNL d   1      -0.864   0.079   0.829  0.00  0.00    -0.080 A 
ATOM      5  C6  UNL d   1      -2.099   0.181   1.674  0.00  0.00     0.076 C 
ATOM      6  C7  UNL d   1      -0.353  -1.177   0.488  0.00  0.00     0.002 A 
ATOM      7  C8  UNL d   1       0.812  -1.285  -0.275  0.00  0.00     0.006 A 
ENDROOT
BRANCH   1   8
ATOM      8  C1  UNL d   1       2.774  -0.256  -1.482  0.00  0.00     0.054 C 
ATOM      9  C   UNL d   1       2.575  -1.015  -2.787  0.00  0.00     0.018 C 
ENDBRANCH   1   8
TORSDOF 1
ENDMDL
