MODEL 1
REMARK minimizedAffinity -5.86127281
REMARK minimizedRMSD -1
REMARK  1 active torsions:
REMARK  status: ('A' for Active; 'I' for Inactive)
REMARK    1  A    between atoms: C1_2  and  C2_3 
ROOT
ATOM      1  C2  UNL d   1      -0.661   0.088   0.054  0.00  0.00    -0.081 A 
ATOM      2  C3  UNL d   1       0.166  -1.042   0.017  0.00  0.00     0.006 A 
ATOM      3  C4  UNL d   1       1.374  -1.013  -0.684  0.00  0.00     0.002 A 
ATOM      4  C5  UNL d   1       1.778   0.147  -1.353  0.00  0.00    -0.080 A 
ATOM      5  C6  UNL d   1       3.087   0.201  -2.084  0.00  0.00     0.076 C 
ATOM      6  C7  UNL d   1       0.945   1.270  -1.331  0.00  0.00     0.002 A 
ATOM      7  C8  UNL d   1      -0.263   1.241  -0.630  0.00  0.00     0.006 A 
ENDROOT
BRANCH   1   8
ATOM      8  C1  UNL d   1      -1.932   0.081   0.864  0.00  0.00     0.054 C 
ATOM      9  C   UNL d   1      -1.737   0.770   2.207  0.00  0.00     0.018 C 
ENDBRANCH   1   8
TORSDOF 1
ENDMDL
