MODEL 1
REMARK minimizedAffinity -3.36901021
REMARK minimizedRMSD -1
REMARK  0 active torsions:
REMARK  status: ('A' for Active; 'I' for Inactive)
ROOT
ATOM      1  C   UNL d   1       0.826  -0.302  -1.871  0.00  0.00     0.023 A 
ATOM      2  C1  UNL d   1       0.828  -0.778  -0.560  0.00  0.00     0.003 A 
ATOM      3  C2  UNL d   1       0.142  -0.082   0.438  0.00  0.00     0.048 A 
ATOM      4  C3  UNL d   1      -0.545   1.089   0.117  0.00  0.00     0.023 A 
ATOM      5  C4  UNL d   1      -0.551   1.568  -1.195  0.00  0.00     0.048 A 
ATOM      6  C5  UNL d   1       0.138   0.869  -2.188  0.00  0.00     0.003 A 
ATOM      7  I   UNL d   1      -1.567   2.126   1.599  0.00  0.00    -0.146 I 
ENDROOT
TORSDOF 0
ENDMDL
