MODEL 1
REMARK minimizedAffinity -3.89308381
REMARK minimizedRMSD -1
REMARK  0 active torsions:
REMARK  status: ('A' for Active; 'I' for Inactive)
ROOT
ATOM      1  C   UNL d   1      -0.700   1.580   2.346  0.00  0.00     0.023 A 
ATOM      2  C1  UNL d   1      -0.487   0.253   2.718  0.00  0.00     0.003 A 
ATOM      3  C2  UNL d   1      -0.228  -0.714   1.745  0.00  0.00     0.048 A 
ATOM      4  C3  UNL d   1      -0.183  -0.346   0.400  0.00  0.00     0.023 A 
ATOM      5  C4  UNL d   1      -0.396   0.981   0.023  0.00  0.00     0.048 A 
ATOM      6  C5  UNL d   1      -0.655   1.944   1.000  0.00  0.00     0.003 A 
ATOM      7  I   UNL d   1       0.202  -1.784  -1.051  0.00  0.00    -0.146 I 
ENDROOT
TORSDOF 0
ENDMDL
