MODEL 1
REMARK minimizedAffinity -2.76630378
REMARK minimizedRMSD -1
REMARK  0 active torsions:
REMARK  status: ('A' for Active; 'I' for Inactive)
ROOT
ATOM      1  C   UNL d   1      -2.126   1.980  -0.592  0.00  0.00     0.023 A 
ATOM      2  C1  UNL d   1      -2.162   1.924   0.801  0.00  0.00     0.003 A 
ATOM      3  C2  UNL d   1      -1.130   1.298   1.503  0.00  0.00     0.048 A 
ATOM      4  C3  UNL d   1      -0.064   0.731   0.805  0.00  0.00     0.023 A 
ATOM      5  C4  UNL d   1      -0.023   0.787  -0.590  0.00  0.00     0.048 A 
ATOM      6  C5  UNL d   1      -1.058   1.413  -1.287  0.00  0.00     0.003 A 
ATOM      7  I   UNL d   1       1.474  -0.201   1.846  0.00  0.00    -0.146 I 
ENDROOT
TORSDOF 0
ENDMDL
