MODEL 1
REMARK minimizedAffinity -0.652455091
REMARK minimizedRMSD -1
REMARK  0 active torsions:
REMARK  status: ('A' for Active; 'I' for Inactive)
ROOT
ATOM      1  C   UNL d   1       0.261   1.503   0.323  0.00  0.00     0.023 A 
ATOM      2  C1  UNL d   1       0.394   0.380   1.139  0.00  0.00     0.003 A 
ATOM      3  C2  UNL d   1       0.269  -0.900   0.594  0.00  0.00     0.048 A 
ATOM      4  C3  UNL d   1       0.012  -1.049  -0.768  0.00  0.00     0.023 A 
ATOM      5  C4  UNL d   1      -0.122   0.072  -1.589  0.00  0.00     0.048 A 
ATOM      6  C5  UNL d   1       0.003   1.350  -1.039  0.00  0.00     0.003 A 
ATOM      7  I   UNL d   1      -0.175  -2.952  -1.582  0.00  0.00    -0.146 I 
ENDROOT
TORSDOF 0
ENDMDL
