MODEL 1
REMARK minimizedAffinity -3.38386321
REMARK minimizedRMSD -1
REMARK  0 active torsions:
REMARK  status: ('A' for Active; 'I' for Inactive)
ROOT
ATOM      1  C   UNL d   1      -0.045   1.712   0.660  0.00  0.00     0.023 A 
ATOM      2  C1  UNL d   1      -0.108   1.388  -0.696  0.00  0.00     0.003 A 
ATOM      3  C2  UNL d   1      -0.170   0.051  -1.094  0.00  0.00     0.048 A 
ATOM      4  C3  UNL d   1      -0.171  -0.957  -0.131  0.00  0.00     0.023 A 
ATOM      5  C4  UNL d   1      -0.110  -0.638   1.227  0.00  0.00     0.048 A 
ATOM      6  C5  UNL d   1      -0.046   0.700   1.620  0.00  0.00     0.003 A 
ATOM      7  I   UNL d   1      -0.264  -2.948  -0.720  0.00  0.00    -0.146 I 
ENDROOT
TORSDOF 0
ENDMDL
