MODEL 1
REMARK minimizedAffinity -0.803337991
REMARK minimizedRMSD -1
REMARK  0 active torsions:
REMARK  status: ('A' for Active; 'I' for Inactive)
ROOT
ATOM      1  C   UNL d   1       0.155  -1.247  -0.811  0.00  0.00     0.023 A 
ATOM      2  C1  UNL d   1      -0.058  -0.035  -1.469  0.00  0.00     0.003 A 
ATOM      3  C2  UNL d   1      -0.314   1.124  -0.734  0.00  0.00     0.048 A 
ATOM      4  C3  UNL d   1      -0.356   1.065   0.659  0.00  0.00     0.023 A 
ATOM      5  C4  UNL d   1      -0.142  -0.145   1.321  0.00  0.00     0.048 A 
ATOM      6  C5  UNL d   1       0.113  -1.302   0.583  0.00  0.00     0.003 A 
ATOM      7  I   UNL d   1      -0.737   2.789   1.754  0.00  0.00    -0.146 I 
ENDROOT
TORSDOF 0
ENDMDL
