MODEL 1
REMARK minimizedAffinity -0.755805135
REMARK minimizedRMSD -1
REMARK  0 active torsions:
REMARK  status: ('A' for Active; 'I' for Inactive)
ROOT
ATOM      1  C   UNL d   1       0.872  -1.889  -2.161  0.00  0.00     0.023 A 
ATOM      2  C1  UNL d   1       0.822  -2.572  -0.946  0.00  0.00     0.003 A 
ATOM      3  C2  UNL d   1       0.645  -1.867   0.246  0.00  0.00     0.048 A 
ATOM      4  C3  UNL d   1       0.518  -0.479   0.216  0.00  0.00     0.023 A 
ATOM      5  C4  UNL d   1       0.566   0.209  -0.998  0.00  0.00     0.048 A 
ATOM      6  C5  UNL d   1       0.744  -0.501  -2.187  0.00  0.00     0.003 A 
ATOM      7  I   UNL d   1       0.254   0.573   1.989  0.00  0.00    -0.146 I 
ENDROOT
TORSDOF 0
ENDMDL
