MODEL 1
REMARK minimizedAffinity -3.68248868
REMARK minimizedRMSD -1
REMARK  0 active torsions:
REMARK  status: ('A' for Active; 'I' for Inactive)
ROOT
ATOM      1  C   UNL d   1      -2.319   0.539   0.670  0.00  0.00     0.020 A 
ATOM      2  C1  UNL d   1      -1.881   0.876   1.950  0.00  0.00     0.020 A 
ATOM      3  C2  UNL d   1      -0.566   0.603   2.333  0.00  0.00     0.034 A 
ATOM      4  C3  UNL d   1       0.316  -0.008   1.434  0.00  0.00     0.017 A 
ATOM      5  C4  UNL d   1      -0.125  -0.346   0.149  0.00  0.00     0.017 A 
ATOM      6  C5  UNL d   1      -1.443  -0.071  -0.228  0.00  0.00     0.034 A 
ATOM      7 Cl   UNL d   1       0.905  -1.103  -1.014  0.00  0.00    -0.070 Cl
ATOM      8 Cl1  UNL d   1       1.928  -0.316   1.974  0.00  0.00    -0.070 Cl
ENDROOT
TORSDOF 0
ENDMDL
