MODEL 1
REMARK minimizedAffinity -4.08318853
REMARK minimizedRMSD -1
REMARK  0 active torsions:
REMARK  status: ('A' for Active; 'I' for Inactive)
ROOT
ATOM      1  C   UNL d   1      -1.973   0.804   2.366  0.00  0.00     0.020 A 
ATOM      2  C1  UNL d   1      -2.584   0.710   1.116  0.00  0.00     0.020 A 
ATOM      3  C2  UNL d   1      -1.839   0.315   0.003  0.00  0.00     0.034 A 
ATOM      4  C3  UNL d   1      -0.479   0.012   0.137  0.00  0.00     0.017 A 
ATOM      5  C4  UNL d   1       0.133   0.107   1.392  0.00  0.00     0.017 A 
ATOM      6  C5  UNL d   1      -0.618   0.503   2.504  0.00  0.00     0.034 A 
ATOM      7 Cl   UNL d   1       1.806  -0.250   1.637  0.00  0.00    -0.070 Cl
ATOM      8 Cl1  UNL d   1       0.381  -0.470  -1.282  0.00  0.00    -0.070 Cl
ENDROOT
TORSDOF 0
ENDMDL
