MODEL 1
REMARK minimizedAffinity -1.50664032
REMARK minimizedRMSD -1
REMARK  0 active torsions:
REMARK  status: ('A' for Active; 'I' for Inactive)
ROOT
ATOM      1  C   UNL d   1      -1.356  -0.716  -3.750  0.00  0.00     0.020 A 
ATOM      2  C1  UNL d   1      -0.714  -0.000  -4.759  0.00  0.00     0.020 A 
ATOM      3  C2  UNL d   1       0.514   0.614  -4.506  0.00  0.00     0.034 A 
ATOM      4  C3  UNL d   1       1.104   0.513  -3.241  0.00  0.00     0.017 A 
ATOM      5  C4  UNL d   1       0.459  -0.206  -2.229  0.00  0.00     0.017 A 
ATOM      6  C5  UNL d   1      -0.771  -0.819  -2.487  0.00  0.00     0.034 A 
ATOM      7 Cl   UNL d   1       1.125  -0.375  -0.643  0.00  0.00    -0.070 Cl
ATOM      8 Cl1  UNL d   1       2.625   1.297  -2.999  0.00  0.00    -0.070 Cl
ENDROOT
TORSDOF 0
ENDMDL
