MODEL 1
REMARK minimizedAffinity -3.72741508
REMARK minimizedRMSD -1
REMARK  0 active torsions:
REMARK  status: ('A' for Active; 'I' for Inactive)
ROOT
ATOM      1  C   UNL d   1      -1.764   0.845   2.506  0.00  0.00     0.020 A 
ATOM      2  C1  UNL d   1      -2.387   0.719   1.265  0.00  0.00     0.020 A 
ATOM      3  C2  UNL d   1      -1.652   0.305   0.153  0.00  0.00     0.034 A 
ATOM      4  C3  UNL d   1      -0.288   0.017   0.278  0.00  0.00     0.017 A 
ATOM      5  C4  UNL d   1       0.338   0.144   1.524  0.00  0.00     0.017 A 
ATOM      6  C5  UNL d   1      -0.404   0.559   2.635  0.00  0.00     0.034 A 
ATOM      7 Cl   UNL d   1       2.016  -0.194   1.757  0.00  0.00    -0.070 Cl
ATOM      8 Cl1  UNL d   1       0.560  -0.489  -1.139  0.00  0.00    -0.070 Cl
ENDROOT
TORSDOF 0
ENDMDL
