MODEL 1
REMARK minimizedAffinity -3.82857275
REMARK minimizedRMSD -1
REMARK  0 active torsions:
REMARK  status: ('A' for Active; 'I' for Inactive)
ROOT
ATOM      1  C   UNL d   1       0.152  -0.762  -0.736  0.00  0.00     0.020 A 
ATOM      2  C1  UNL d   1      -1.154  -0.448  -0.363  0.00  0.00     0.020 A 
ATOM      3  C2  UNL d   1      -1.393   0.254   0.820  0.00  0.00     0.034 A 
ATOM      4  C3  UNL d   1      -0.324   0.643   1.635  0.00  0.00     0.017 A 
ATOM      5  C4  UNL d   1       0.987   0.328   1.260  0.00  0.00     0.017 A 
ATOM      6  C5  UNL d   1       1.220  -0.375   0.074  0.00  0.00     0.034 A 
ATOM      7 Cl   UNL d   1       2.357   0.775   2.214  0.00  0.00    -0.070 Cl
ATOM      8 Cl1  UNL d   1      -0.692   1.509   3.085  0.00  0.00    -0.070 Cl
ENDROOT
TORSDOF 0
ENDMDL
