MODEL 1
REMARK minimizedAffinity -2.94749665
REMARK minimizedRMSD -1
REMARK  0 active torsions:
REMARK  status: ('A' for Active; 'I' for Inactive)
ROOT
ATOM      1  C   UNL d   1       0.406   1.466   2.325  0.00  0.00     0.020 A 
ATOM      2  C1  UNL d   1      -0.964   1.390   2.576  0.00  0.00     0.020 A 
ATOM      3  C2  UNL d   1      -1.779   0.597   1.767  0.00  0.00     0.034 A 
ATOM      4  C3  UNL d   1      -1.226  -0.125   0.703  0.00  0.00     0.017 A 
ATOM      5  C4  UNL d   1       0.148  -0.049   0.452  0.00  0.00     0.017 A 
ATOM      6  C5  UNL d   1       0.960   0.748   1.265  0.00  0.00     0.034 A 
ATOM      7 Cl   UNL d   1       0.903  -0.910  -0.843  0.00  0.00    -0.070 Cl
ATOM      8 Cl1  UNL d   1      -2.294  -1.087  -0.256  0.00  0.00    -0.070 Cl
ENDROOT
TORSDOF 0
ENDMDL
