MODEL 1
REMARK minimizedAffinity -3.91304493
REMARK minimizedRMSD -1
REMARK  0 active torsions:
REMARK  status: ('A' for Active; 'I' for Inactive)
ROOT
ATOM      1  C   UNL d   1      -1.503   0.645   3.045  0.00  0.00     0.020 A 
ATOM      2  C1  UNL d   1      -2.004   0.468   1.756  0.00  0.00     0.020 A 
ATOM      3  C2  UNL d   1      -1.143   0.113   0.715  0.00  0.00     0.034 A 
ATOM      4  C3  UNL d   1       0.223  -0.066   0.962  0.00  0.00     0.017 A 
ATOM      5  C4  UNL d   1       0.725   0.112   2.256  0.00  0.00     0.017 A 
ATOM      6  C5  UNL d   1      -0.141   0.468   3.294  0.00  0.00     0.034 A 
ATOM      7 Cl   UNL d   1       2.399  -0.090   2.637  0.00  0.00    -0.070 Cl
ATOM      8 Cl1  UNL d   1       1.229  -0.505  -0.373  0.00  0.00    -0.070 Cl
ENDROOT
TORSDOF 0
ENDMDL
