MODEL 1
REMARK minimizedAffinity -3.50513172
REMARK minimizedRMSD -1
REMARK  0 active torsions:
REMARK  status: ('A' for Active; 'I' for Inactive)
ROOT
ATOM      1  C   UNL d   1      -0.864  -1.032  -4.696  0.00  0.00     0.020 A 
ATOM      2  C1  UNL d   1      -0.204  -0.295  -5.678  0.00  0.00     0.020 A 
ATOM      3  C2  UNL d   1       0.661   0.739  -5.312  0.00  0.00     0.034 A 
ATOM      4  C3  UNL d   1       0.869   1.037  -3.961  0.00  0.00     0.017 A 
ATOM      5  C4  UNL d   1       0.206   0.296  -2.976  0.00  0.00     0.017 A 
ATOM      6  C5  UNL d   1      -0.660  -0.737  -3.348  0.00  0.00     0.034 A 
ATOM      7 Cl   UNL d   1       0.411   0.606  -1.288  0.00  0.00    -0.070 Cl
ATOM      8 Cl1  UNL d   1       1.953   2.328  -3.580  0.00  0.00    -0.070 Cl
ENDROOT
TORSDOF 0
ENDMDL
