MODEL 1
REMARK minimizedAffinity -4.53200865
REMARK minimizedRMSD -1
REMARK  0 active torsions:
REMARK  status: ('A' for Active; 'I' for Inactive)
ROOT
ATOM      1  C   UNL d   1      -0.104  -0.506  -0.634  0.00  0.00     0.020 A 
ATOM      2  C1  UNL d   1       0.977   0.190  -0.095  0.00  0.00     0.020 A 
ATOM      3  C2  UNL d   1       0.818   0.923   1.083  0.00  0.00     0.034 A 
ATOM      4  C3  UNL d   1      -0.425   0.963   1.725  0.00  0.00     0.017 A 
ATOM      5  C4  UNL d   1      -1.510   0.264   1.183  0.00  0.00     0.017 A 
ATOM      6  C5  UNL d   1      -1.345  -0.469   0.004  0.00  0.00     0.034 A 
ATOM      7 Cl   UNL d   1      -3.074   0.264   1.918  0.00  0.00    -0.070 Cl
ATOM      8 Cl1  UNL d   1      -0.551   1.890   3.178  0.00  0.00    -0.070 Cl
ENDROOT
TORSDOF 0
ENDMDL
