MODEL 1
REMARK minimizedAffinity -4.54629564
REMARK minimizedRMSD -1
REMARK  0 active torsions:
REMARK  status: ('A' for Active; 'I' for Inactive)
ROOT
ATOM      1  C   UNL d   1      -0.780   0.745   2.189  0.00  0.00     0.020 A 
ATOM      2  C1  UNL d   1       0.256   0.426   3.066  0.00  0.00     0.020 A 
ATOM      3  C2  UNL d   1       1.370  -0.278   2.602  0.00  0.00     0.034 A 
ATOM      4  C3  UNL d   1       1.450  -0.664   1.260  0.00  0.00     0.017 A 
ATOM      5  C4  UNL d   1       0.409  -0.343   0.381  0.00  0.00     0.017 A 
ATOM      6  C5  UNL d   1      -0.704   0.362   0.850  0.00  0.00     0.034 A 
ATOM      7 Cl   UNL d   1       0.436  -0.786  -1.290  0.00  0.00    -0.070 Cl
ATOM      8 Cl1  UNL d   1       2.856  -1.532   0.755  0.00  0.00    -0.070 Cl
ENDROOT
TORSDOF 0
ENDMDL
