MODEL 1
REMARK minimizedAffinity -1.21518874
REMARK minimizedRMSD -1
REMARK  1 active torsions:
REMARK  status: ('A' for Active; 'I' for Inactive)
REMARK    1  A    between atoms: C1_2  and  C2_3 
ROOT
ATOM      1  C2  UNL d   1       3.924   5.197   0.963  0.00  0.00    -0.073 A 
ATOM      2  C3  UNL d   1       2.579   4.859   0.772  0.00  0.00    -0.002 A 
ATOM      3  C4  UNL d   1       2.017   4.898  -0.504  0.00  0.00     0.004 A 
ATOM      4  C5  UNL d   1       2.793   5.267  -1.602  0.00  0.00    -0.004 A 
ATOM      5  C6  UNL d   1       4.142   5.597  -1.434  0.00  0.00    -0.075 A 
ATOM      6  C7  UNL d   1       4.990   5.999  -2.605  0.00  0.00     0.076 C 
ATOM      7  C8  UNL d   1       4.699   5.559  -0.148  0.00  0.00     0.001 A 
ENDROOT
BRANCH   1   8
ATOM      8  C1  UNL d   1       4.537   5.151   2.339  0.00  0.00     0.053 C 
ATOM      9  C   UNL d   1       5.807   5.982   2.425  0.00  0.00     0.018 C 
ENDBRANCH   1   8
TORSDOF 1
ENDMDL
