MODEL 1
REMARK minimizedAffinity 12.6924963
REMARK minimizedRMSD -1
REMARK  1 active torsions:
REMARK  status: ('A' for Active; 'I' for Inactive)
REMARK    1  A    between atoms: C1_2  and  C2_3 
ROOT
ATOM      1  C2  UNL d   1       2.559  -5.487   3.022  0.00  0.00    -0.073 A 
ATOM      2  C3  UNL d   1       3.316  -5.357   1.852  0.00  0.00    -0.002 A 
ATOM      3  C4  UNL d   1       2.702  -5.443   0.602  0.00  0.00     0.004 A 
ATOM      4  C5  UNL d   1       1.326  -5.651   0.508  0.00  0.00    -0.004 A 
ATOM      5  C6  UNL d   1       0.551  -5.771   1.665  0.00  0.00    -0.075 A 
ATOM      6  C7  UNL d   1      -0.930  -5.997   1.581  0.00  0.00     0.076 C 
ATOM      7  C8  UNL d   1       1.175  -5.687   2.917  0.00  0.00     0.001 A 
ENDROOT
BRANCH   1   8
ATOM      8  C1  UNL d   1       3.216  -5.389   4.374  0.00  0.00     0.053 C 
ATOM      9  C   UNL d   1       4.617  -5.980   4.371  0.00  0.00     0.018 C 
ENDBRANCH   1   8
TORSDOF 1
ENDMDL
