MODEL 1
REMARK minimizedAffinity 10.8541203
REMARK minimizedRMSD -1
REMARK  1 active torsions:
REMARK  status: ('A' for Active; 'I' for Inactive)
REMARK    1  A    between atoms: C1_2  and  C2_3 
ROOT
ATOM      1  C2  UNL d   1      -0.343  -0.931  -1.092  0.00  0.00    -0.073 A 
ATOM      2  C3  UNL d   1       0.532  -2.021  -1.145  0.00  0.00    -0.002 A 
ATOM      3  C4  UNL d   1       1.908  -1.816  -1.259  0.00  0.00     0.004 A 
ATOM      4  C5  UNL d   1       2.422  -0.520  -1.314  0.00  0.00    -0.004 A 
ATOM      5  C6  UNL d   1       1.564   0.582  -1.251  0.00  0.00    -0.075 A 
ATOM      6  C7  UNL d   1       2.101   1.982  -1.312  0.00  0.00     0.076 C 
ATOM      7  C8  UNL d   1       0.184   0.368  -1.139  0.00  0.00     0.001 A 
ENDROOT
BRANCH   1   8
ATOM      8  C1  UNL d   1      -1.829  -1.148  -0.962  0.00  0.00     0.053 C 
ATOM      9  C   UNL d   1      -2.541   0.088  -0.434  0.00  0.00     0.018 C 
ENDBRANCH   1   8
TORSDOF 1
ENDMDL
