MODEL 1
REMARK minimizedAffinity 12.044982
REMARK minimizedRMSD -1
REMARK  1 active torsions:
REMARK  status: ('A' for Active; 'I' for Inactive)
REMARK    1  A    between atoms: C1_2  and  C2_3 
ROOT
ATOM      1  C2  UNL d   1       2.961  -3.018  -0.408  0.00  0.00    -0.073 A 
ATOM      2  C3  UNL d   1       2.485  -4.328  -0.278  0.00  0.00    -0.002 A 
ATOM      3  C4  UNL d   1       2.428  -4.935   0.977  0.00  0.00     0.004 A 
ATOM      4  C5  UNL d   1       2.838  -4.239   2.114  0.00  0.00    -0.004 A 
ATOM      5  C6  UNL d   1       3.305  -2.925   2.006  0.00  0.00    -0.075 A 
ATOM      6  C7  UNL d   1       3.752  -2.163   3.218  0.00  0.00     0.076 C 
ATOM      7  C8  UNL d   1       3.362  -2.323   0.741  0.00  0.00     0.001 A 
ENDROOT
BRANCH   1   8
ATOM      8  C1  UNL d   1       3.018  -2.356  -1.760  0.00  0.00     0.053 C 
ATOM      9  C   UNL d   1       1.947  -1.289  -1.918  0.00  0.00     0.018 C 
ENDBRANCH   1   8
TORSDOF 1
ENDMDL
