MODEL 1
REMARK minimizedAffinity 9.44784451
REMARK minimizedRMSD -1
REMARK  1 active torsions:
REMARK  status: ('A' for Active; 'I' for Inactive)
REMARK    1  A    between atoms: C1_2  and  C2_3 
ROOT
ATOM      1  C2  UNL d   1      -0.208   0.201  -1.053  0.00  0.00    -0.073 A 
ATOM      2  C3  UNL d   1       0.682   1.142  -1.582  0.00  0.00    -0.002 A 
ATOM      3  C4  UNL d   1       1.987   0.771  -1.911  0.00  0.00     0.004 A 
ATOM      4  C5  UNL d   1       2.412  -0.544  -1.721  0.00  0.00    -0.004 A 
ATOM      5  C6  UNL d   1       1.533  -1.501  -1.204  0.00  0.00    -0.075 A 
ATOM      6  C7  UNL d   1       1.975  -2.919  -0.991  0.00  0.00     0.076 C 
ATOM      7  C8  UNL d   1       0.225  -1.120  -0.873  0.00  0.00     0.001 A 
ENDROOT
BRANCH   1   8
ATOM      8  C1  UNL d   1      -1.620   0.596  -0.702  0.00  0.00     0.053 C 
ATOM      9  C   UNL d   1      -2.596  -0.554  -0.890  0.00  0.00     0.018 C 
ENDBRANCH   1   8
TORSDOF 1
ENDMDL
