MODEL 1
REMARK minimizedAffinity -2.22102118
REMARK minimizedRMSD -1
REMARK  1 active torsions:
REMARK  status: ('A' for Active; 'I' for Inactive)
REMARK    1  A    between atoms: C1_2  and  C2_3 
ROOT
ATOM      1  C2  UNL d   1       2.023  -2.817  -0.311  0.00  0.00    -0.073 A 
ATOM      2  C3  UNL d   1       0.663  -2.486  -0.310  0.00  0.00    -0.002 A 
ATOM      3  C4  UNL d   1       0.224  -1.310  -0.920  0.00  0.00     0.004 A 
ATOM      4  C5  UNL d   1       1.137  -0.458  -1.542  0.00  0.00    -0.004 A 
ATOM      5  C6  UNL d   1       2.498  -0.777  -1.563  0.00  0.00    -0.075 A 
ATOM      6  C7  UNL d   1       3.493   0.129  -2.226  0.00  0.00     0.076 C 
ATOM      7  C8  UNL d   1       2.932  -1.959  -0.946  0.00  0.00     0.001 A 
ENDROOT
BRANCH   1   8
ATOM      8  C1  UNL d   1       2.502  -4.088   0.341  0.00  0.00     0.053 C 
ATOM      9  C   UNL d   1       1.564  -4.551   1.445  0.00  0.00     0.018 C 
ENDBRANCH   1   8
TORSDOF 1
ENDMDL
