MODEL 1
REMARK minimizedAffinity 6.65903521
REMARK minimizedRMSD -1
REMARK  1 active torsions:
REMARK  status: ('A' for Active; 'I' for Inactive)
REMARK    1  A    between atoms: C1_2  and  C2_3 
ROOT
ATOM      1  C2  UNL d   1       1.907  -3.254  -0.308  0.00  0.00    -0.073 A 
ATOM      2  C3  UNL d   1       3.172  -2.663  -0.207  0.00  0.00    -0.002 A 
ATOM      3  C4  UNL d   1       3.553  -1.657  -1.096  0.00  0.00     0.004 A 
ATOM      4  C5  UNL d   1       2.672  -1.227  -2.089  0.00  0.00    -0.004 A 
ATOM      5  C6  UNL d   1       1.400  -1.797  -2.198  0.00  0.00    -0.075 A 
ATOM      6  C7  UNL d   1       0.442  -1.348  -3.262  0.00  0.00     0.076 C 
ATOM      7  C8  UNL d   1       1.026  -2.809  -1.303  0.00  0.00     0.001 A 
ENDROOT
BRANCH   1   8
ATOM      8  C1  UNL d   1       1.489  -4.336   0.654  0.00  0.00     0.053 C 
ATOM      9  C   UNL d   1       2.189  -5.655   0.367  0.00  0.00     0.018 C 
ENDBRANCH   1   8
TORSDOF 1
ENDMDL
