MODEL 1
REMARK minimizedAffinity 3.75743341
REMARK minimizedRMSD -1
REMARK  1 active torsions:
REMARK  status: ('A' for Active; 'I' for Inactive)
REMARK    1  A    between atoms: C1_2  and  C2_3 
ROOT
ATOM      1  C2  UNL d   1       2.383  -1.058  -1.729  0.00  0.00    -0.073 A 
ATOM      2  C3  UNL d   1       3.165  -0.647  -2.815  0.00  0.00    -0.002 A 
ATOM      3  C4  UNL d   1       3.025   0.640  -3.337  0.00  0.00     0.004 A 
ATOM      4  C5  UNL d   1       2.109   1.530  -2.776  0.00  0.00    -0.004 A 
ATOM      5  C6  UNL d   1       1.328   1.142  -1.682  0.00  0.00    -0.075 A 
ATOM      6  C7  UNL d   1       0.337   2.086  -1.068  0.00  0.00     0.076 C 
ATOM      7  C8  UNL d   1       1.472  -0.153  -1.166  0.00  0.00     0.001 A 
ENDROOT
BRANCH   1   8
ATOM      8  C1  UNL d   1       2.535  -2.444  -1.158  0.00  0.00     0.053 C 
ATOM      9  C   UNL d   1       1.464  -2.755  -0.124  0.00  0.00     0.018 C 
ENDBRANCH   1   8
TORSDOF 1
ENDMDL
