MODEL 1
REMARK minimizedAffinity -1.47437334
REMARK minimizedRMSD -1
REMARK  1 active torsions:
REMARK  status: ('A' for Active; 'I' for Inactive)
REMARK    1  A    between atoms: C1_2  and  C2_3 
ROOT
ATOM      1  C2  UNL d   1       0.427   0.560  -1.481  0.00  0.00    -0.073 A 
ATOM      2  C3  UNL d   1      -0.686  -0.088  -0.934  0.00  0.00    -0.002 A 
ATOM      3  C4  UNL d   1      -0.606  -1.429  -0.556  0.00  0.00     0.004 A 
ATOM      4  C5  UNL d   1       0.587  -2.133  -0.714  0.00  0.00    -0.004 A 
ATOM      5  C6  UNL d   1       1.714  -1.500  -1.248  0.00  0.00    -0.075 A 
ATOM      6  C7  UNL d   1       3.005  -2.244  -1.427  0.00  0.00     0.076 C 
ATOM      7  C8  UNL d   1       1.625  -0.154  -1.628  0.00  0.00     0.001 A 
ENDROOT
BRANCH   1   8
ATOM      8  C1  UNL d   1       0.348   2.009  -1.885  0.00  0.00     0.053 C 
ATOM      9  C   UNL d   1      -0.667   2.778  -1.054  0.00  0.00     0.018 C 
ENDBRANCH   1   8
TORSDOF 1
ENDMDL
