MODEL 1
REMARK minimizedAffinity -0.421838164
REMARK minimizedRMSD -1
REMARK  1 active torsions:
REMARK  status: ('A' for Active; 'I' for Inactive)
REMARK    1  A    between atoms: C1_2  and  C2_3 
ROOT
ATOM      1  C2  UNL d   1       0.705   0.647   0.341  0.00  0.00    -0.073 A 
ATOM      2  C3  UNL d   1       0.360   0.994  -0.970  0.00  0.00    -0.002 A 
ATOM      3  C4  UNL d   1       0.044   0.004  -1.901  0.00  0.00     0.004 A 
ATOM      4  C5  UNL d   1       0.063  -1.341  -1.530  0.00  0.00    -0.004 A 
ATOM      5  C6  UNL d   1       0.394  -1.707  -0.222  0.00  0.00    -0.075 A 
ATOM      6  C7  UNL d   1       0.421  -3.149   0.193  0.00  0.00     0.076 C 
ATOM      7  C8  UNL d   1       0.713  -0.707   0.707  0.00  0.00     0.001 A 
ENDROOT
BRANCH   1   8
ATOM      8  C1  UNL d   1       1.041   1.713   1.352  0.00  0.00     0.053 C 
ATOM      9  C   UNL d   1       1.806   2.869   0.729  0.00  0.00     0.018 C 
ENDBRANCH   1   8
TORSDOF 1
ENDMDL
