MODEL 1
REMARK minimizedAffinity -2.75519991
REMARK minimizedRMSD -1
REMARK  1 active torsions:
REMARK  status: ('A' for Active; 'I' for Inactive)
REMARK    1  A    between atoms: C1_2  and  C2_3 
ROOT
ATOM      1  C2  UNL d   1       0.075  -0.065   0.339  0.00  0.00    -0.073 A 
ATOM      2  C3  UNL d   1      -0.003  -0.361  -1.027  0.00  0.00    -0.002 A 
ATOM      3  C4  UNL d   1       0.222   0.635  -1.978  0.00  0.00     0.004 A 
ATOM      4  C5  UNL d   1       0.534   1.933  -1.575  0.00  0.00    -0.004 A 
ATOM      5  C6  UNL d   1       0.629   2.246  -0.215  0.00  0.00    -0.075 A 
ATOM      6  C7  UNL d   1       0.961   3.638   0.235  0.00  0.00     0.076 C 
ATOM      7  C8  UNL d   1       0.398   1.241   0.734  0.00  0.00     0.001 A 
ENDROOT
BRANCH   1   8
ATOM      8  C1  UNL d   1      -0.161  -1.139   1.369  0.00  0.00     0.053 C 
ATOM      9  C   UNL d   1      -0.825  -2.368   0.770  0.00  0.00     0.018 C 
ENDBRANCH   1   8
TORSDOF 1
ENDMDL
