MODEL 1
REMARK minimizedAffinity -5.82505608
REMARK minimizedRMSD -1
REMARK  1 active torsions:
REMARK  status: ('A' for Active; 'I' for Inactive)
REMARK    1  A    between atoms: C1_2  and  C2_3 
ROOT
ATOM      1  C2  UNL d   1      -0.459   0.060  -0.585  0.00  0.00    -0.073 A 
ATOM      2  C3  UNL d   1      -0.066   0.104  -1.927  0.00  0.00    -0.002 A 
ATOM      3  C4  UNL d   1       0.434  -1.039  -2.553  0.00  0.00     0.004 A 
ATOM      4  C5  UNL d   1       0.541  -2.236  -1.846  0.00  0.00    -0.004 A 
ATOM      5  C6  UNL d   1       0.142  -2.303  -0.507  0.00  0.00    -0.075 A 
ATOM      6  C7  UNL d   1       0.253  -3.583   0.268  0.00  0.00     0.076 C 
ATOM      7  C8  UNL d   1      -0.356  -1.151   0.115  0.00  0.00     0.001 A 
ENDROOT
BRANCH   1   8
ATOM      8  C1  UNL d   1      -1.006   1.290   0.093  0.00  0.00     0.053 C 
ATOM      9  C   UNL d   1      -2.307   1.006   0.825  0.00  0.00     0.018 C 
ENDBRANCH   1   8
TORSDOF 1
ENDMDL
