MODEL 1
REMARK minimizedAffinity -6.47588205
REMARK minimizedRMSD -1
REMARK  1 active torsions:
REMARK  status: ('A' for Active; 'I' for Inactive)
REMARK    1  A    between atoms: C1_2  and  C2_3 
ROOT
ATOM      1  C2  UNL d   1      -0.365  -2.459  -1.731  0.00  0.00    -0.073 A 
ATOM      2  C3  UNL d   1      -0.261  -3.325  -0.636  0.00  0.00    -0.002 A 
ATOM      3  C4  UNL d   1      -0.345  -2.829   0.665  0.00  0.00     0.004 A 
ATOM      4  C5  UNL d   1      -0.540  -1.465   0.886  0.00  0.00    -0.004 A 
ATOM      5  C6  UNL d   1      -0.658  -0.586  -0.195  0.00  0.00    -0.075 A 
ATOM      6  C7  UNL d   1      -0.867   0.884   0.025  0.00  0.00     0.076 C 
ATOM      7  C8  UNL d   1      -0.571  -1.092  -1.500  0.00  0.00     0.001 A 
ENDROOT
BRANCH   1   8
ATOM      8  C1  UNL d   1      -0.282  -2.992  -3.138  0.00  0.00     0.053 C 
ATOM      9  C   UNL d   1      -1.658  -3.217  -3.745  0.00  0.00     0.018 C 
ENDBRANCH   1   8
TORSDOF 1
ENDMDL
