MODEL 1
REMARK minimizedAffinity -4.96094608
REMARK minimizedRMSD -1
REMARK  1 active torsions:
REMARK  status: ('A' for Active; 'I' for Inactive)
REMARK    1  A    between atoms: C1_2  and  C2_3 
ROOT
ATOM      1  C2  UNL d   1       1.165   1.788   0.775  0.00  0.00    -0.073 A 
ATOM      2  C3  UNL d   1       0.507   1.944  -0.450  0.00  0.00    -0.002 A 
ATOM      3  C4  UNL d   1      -0.557   1.107  -0.789  0.00  0.00     0.004 A 
ATOM      4  C5  UNL d   1      -0.978   0.113   0.094  0.00  0.00    -0.004 A 
ATOM      5  C6  UNL d   1      -0.341  -0.050   1.328  0.00  0.00    -0.075 A 
ATOM      6  C7  UNL d   1      -0.780  -1.116   2.289  0.00  0.00     0.076 C 
ATOM      7  C8  UNL d   1       0.729   0.792   1.661  0.00  0.00     0.001 A 
ENDROOT
BRANCH   1   8
ATOM      8  C1  UNL d   1       2.311   2.693   1.149  0.00  0.00     0.053 C 
ATOM      9  C   UNL d   1       1.929   4.162   1.059  0.00  0.00     0.018 C 
ENDBRANCH   1   8
TORSDOF 1
ENDMDL
