MODEL 1
REMARK minimizedAffinity -3.34741998
REMARK minimizedRMSD -1
REMARK  1 active torsions:
REMARK  status: ('A' for Active; 'I' for Inactive)
REMARK    1  A    between atoms: C1_2  and  C2_3 
ROOT
ATOM      1  C2  UNL d   1       0.026  -2.104  -0.972  0.00  0.00    -0.073 A 
ATOM      2  C3  UNL d   1      -0.161  -2.870   0.184  0.00  0.00    -0.002 A 
ATOM      3  C4  UNL d   1       0.054  -2.309   1.444  0.00  0.00     0.004 A 
ATOM      4  C5  UNL d   1       0.450  -0.977   1.561  0.00  0.00    -0.004 A 
ATOM      5  C6  UNL d   1       0.630  -0.192   0.418  0.00  0.00    -0.075 A 
ATOM      6  C7  UNL d   1       1.058   1.242   0.526  0.00  0.00     0.076 C 
ATOM      7  C8  UNL d   1       0.415  -0.763  -0.844  0.00  0.00     0.001 A 
ENDROOT
BRANCH   1   8
ATOM      8  C1  UNL d   1      -0.211  -2.703  -2.334  0.00  0.00     0.053 C 
ATOM      9  C   UNL d   1       0.662  -2.060  -3.400  0.00  0.00     0.018 C 
ENDBRANCH   1   8
TORSDOF 1
ENDMDL
