MODEL 1
REMARK minimizedAffinity -3.60565257
REMARK minimizedRMSD -1
REMARK  1 active torsions:
REMARK  status: ('A' for Active; 'I' for Inactive)
REMARK    1  A    between atoms: C1_2  and  C2_3 
ROOT
ATOM      1  C2  UNL d   1      -0.450   0.071  -0.210  0.00  0.00    -0.073 A 
ATOM      2  C3  UNL d   1      -0.758  -0.516   1.023  0.00  0.00    -0.002 A 
ATOM      3  C4  UNL d   1      -1.062  -1.875   1.100  0.00  0.00     0.004 A 
ATOM      4  C5  UNL d   1      -1.055  -2.663  -0.051  0.00  0.00    -0.004 A 
ATOM      5  C6  UNL d   1      -0.738  -2.098  -1.290  0.00  0.00    -0.075 A 
ATOM      6  C7  UNL d   1      -0.727  -2.931  -2.538  0.00  0.00     0.076 C 
ATOM      7  C8  UNL d   1      -0.436  -0.731  -1.360  0.00  0.00     0.001 A 
ENDROOT
BRANCH   1   8
ATOM      8  C1  UNL d   1      -0.115   1.537  -0.298  0.00  0.00     0.053 C 
ATOM      9  C   UNL d   1       1.178   1.871   0.430  0.00  0.00     0.018 C 
ENDBRANCH   1   8
TORSDOF 1
ENDMDL
