MODEL 1
REMARK minimizedAffinity -0.757187307
REMARK minimizedRMSD -1
REMARK  1 active torsions:
REMARK  status: ('A' for Active; 'I' for Inactive)
REMARK    1  A    between atoms: C1_2  and  C2_3 
ROOT
ATOM      1  C2  UNL d   1      -0.359  -1.192  -0.914  0.00  0.00    -0.073 A 
ATOM      2  C3  UNL d   1      -0.950  -2.046   0.024  0.00  0.00    -0.002 A 
ATOM      3  C4  UNL d   1      -1.244  -1.587   1.309  0.00  0.00     0.004 A 
ATOM      4  C5  UNL d   1      -0.957  -0.269   1.666  0.00  0.00    -0.004 A 
ATOM      5  C6  UNL d   1      -0.377   0.603   0.739  0.00  0.00    -0.075 A 
ATOM      6  C7  UNL d   1      -0.059   2.022   1.109  0.00  0.00     0.076 C 
ATOM      7  C8  UNL d   1      -0.083   0.133  -0.548  0.00  0.00     0.001 A 
ENDROOT
BRANCH   1   8
ATOM      8  C1  UNL d   1      -0.046  -1.681  -2.304  0.00  0.00     0.053 C 
ATOM      9  C   UNL d   1      -0.777  -2.974  -2.631  0.00  0.00     0.018 C 
ENDBRANCH   1   8
TORSDOF 1
ENDMDL
