MODEL 1
REMARK minimizedAffinity -4.59099054
REMARK minimizedRMSD -1
REMARK  1 active torsions:
REMARK  status: ('A' for Active; 'I' for Inactive)
REMARK    1  A    between atoms: C1_2  and  C2_3 
ROOT
ATOM      1  C2  UNL d   1      -0.413  -1.526  -0.856  0.00  0.00    -0.073 A 
ATOM      2  C3  UNL d   1      -0.783  -2.197   0.315  0.00  0.00    -0.002 A 
ATOM      3  C4  UNL d   1      -0.698  -1.557   1.552  0.00  0.00     0.004 A 
ATOM      4  C5  UNL d   1      -0.250  -0.238   1.630  0.00  0.00    -0.004 A 
ATOM      5  C6  UNL d   1       0.113   0.453   0.470  0.00  0.00    -0.075 A 
ATOM      6  C7  UNL d   1       0.599   1.871   0.538  0.00  0.00     0.076 C 
ATOM      7  C8  UNL d   1       0.027  -0.197  -0.768  0.00  0.00     0.001 A 
ENDROOT
BRANCH   1   8
ATOM      8  C1  UNL d   1      -0.510  -2.211  -2.194  0.00  0.00     0.053 C 
ATOM      9  C   UNL d   1      -0.926  -3.667  -2.060  0.00  0.00     0.018 C 
ENDBRANCH   1   8
TORSDOF 1
ENDMDL
