MODEL 1
REMARK minimizedAffinity -5.74391651
REMARK minimizedRMSD -1
REMARK  1 active torsions:
REMARK  status: ('A' for Active; 'I' for Inactive)
REMARK    1  A    between atoms: C1_2  and  C2_3 
ROOT
ATOM      1  C2  UNL d   1      -0.036  -1.066  -0.804  0.00  0.00    -0.073 A 
ATOM      2  C3  UNL d   1       0.824  -1.941  -0.130  0.00  0.00    -0.002 A 
ATOM      3  C4  UNL d   1       0.748  -3.316  -0.355  0.00  0.00     0.004 A 
ATOM      4  C5  UNL d   1      -0.180  -3.829  -1.261  0.00  0.00    -0.004 A 
ATOM      5  C6  UNL d   1      -1.039  -2.969  -1.954  0.00  0.00    -0.075 A 
ATOM      6  C7  UNL d   1      -2.045  -3.505  -2.929  0.00  0.00     0.076 C 
ATOM      7  C8  UNL d   1      -0.959  -1.590  -1.719  0.00  0.00     0.001 A 
ENDROOT
BRANCH   1   8
ATOM      8  C1  UNL d   1       0.046   0.420  -0.568  0.00  0.00     0.053 C 
ATOM      9  C   UNL d   1       1.030   0.769   0.537  0.00  0.00     0.018 C 
ENDBRANCH   1   8
TORSDOF 1
ENDMDL
