MODEL 1
REMARK minimizedAffinity 0.0499916747
REMARK minimizedRMSD -1
REMARK  0 active torsions:
REMARK  status: ('A' for Active; 'I' for Inactive)
ROOT
ATOM      1  C   UNL d   1      -0.688   2.056   0.784  0.00  0.00     0.124 A 
ATOM      2  C1  UNL d   1       0.122   1.974  -0.340  0.00  0.00     0.062 A 
ATOM      3  C2  UNL d   1       0.675   0.753  -0.717  0.00  0.00     0.162 A 
ATOM      4  C3  UNL d   1       0.418  -0.396   0.031  0.00  0.00    -0.034 A 
ATOM      5  C4  UNL d   1      -0.397  -0.306   1.160  0.00  0.00     0.162 A 
ATOM      6  C5  UNL d   1      -0.947   0.917   1.533  0.00  0.00     0.062 A 
ATOM      7  F   UNL d   1      -1.730   0.994   2.619  0.00  0.00    -0.097 F 
ATOM      8  F1  UNL d   1      -0.665  -1.391   1.901  0.00  0.00    -0.096 F 
ATOM      9  I   UNL d   1       1.243  -2.224  -0.529  0.00  0.00    -0.060 I 
ATOM     10  F2  UNL d   1       1.454   0.703  -1.807  0.00  0.00    -0.096 F 
ATOM     11  F3  UNL d   1       0.375   3.073  -1.065  0.00  0.00    -0.097 F 
ATOM     12  F4  UNL d   1      -1.218   3.232   1.145  0.00  0.00    -0.092 F 
ENDROOT
TORSDOF 0
ENDMDL
