MODEL 1
REMARK minimizedAffinity -3.27350068
REMARK minimizedRMSD -1
REMARK  0 active torsions:
REMARK  status: ('A' for Active; 'I' for Inactive)
ROOT
ATOM      1  C   UNL d   1      -1.349   1.721   0.724  0.00  0.00     0.124 A 
ATOM      2  C1  UNL d   1      -0.443   1.811  -0.324  0.00  0.00     0.062 A 
ATOM      3  C2  UNL d   1       0.312   0.703  -0.694  0.00  0.00     0.162 A 
ATOM      4  C3  UNL d   1       0.165  -0.508  -0.017  0.00  0.00    -0.034 A 
ATOM      5  C4  UNL d   1      -0.747  -0.591   1.037  0.00  0.00     0.162 A 
ATOM      6  C5  UNL d   1      -1.499   0.520   1.404  0.00  0.00     0.062 A 
ATOM      7  F   UNL d   1      -2.373   0.431   2.417  0.00  0.00    -0.097 F 
ATOM      8  F1  UNL d   1      -0.913  -1.739   1.711  0.00  0.00    -0.096 F 
ATOM      9  I   UNL d   1       1.292  -2.168  -0.568  0.00  0.00    -0.060 I 
ATOM     10  F2  UNL d   1       1.179   0.819  -1.711  0.00  0.00    -0.096 F 
ATOM     11  F3  UNL d   1      -0.295   2.971  -0.981  0.00  0.00    -0.097 F 
ATOM     12  F4  UNL d   1      -2.073   2.789   1.080  0.00  0.00    -0.092 F 
ENDROOT
TORSDOF 0
ENDMDL
