MODEL 1
REMARK minimizedAffinity 0.706685245
REMARK minimizedRMSD -1
REMARK  0 active torsions:
REMARK  status: ('A' for Active; 'I' for Inactive)
ROOT
ATOM      1  C   UNL d   1      -0.018   1.109  -0.417  0.00  0.00     0.124 A 
ATOM      2  C1  UNL d   1      -0.782   0.239   0.350  0.00  0.00     0.062 A 
ATOM      3  C2  UNL d   1      -0.701  -1.134   0.140  0.00  0.00     0.162 A 
ATOM      4  C3  UNL d   1       0.147  -1.647  -0.842  0.00  0.00    -0.034 A 
ATOM      5  C4  UNL d   1       0.911  -0.767  -1.610  0.00  0.00     0.162 A 
ATOM      6  C5  UNL d   1       0.827   0.605  -1.395  0.00  0.00     0.062 A 
ATOM      7  F   UNL d   1       1.565   1.444  -2.137  0.00  0.00    -0.097 F 
ATOM      8  F1  UNL d   1       1.736  -1.226  -2.562  0.00  0.00    -0.096 F 
ATOM      9  I   UNL d   1       0.270  -3.701  -1.160  0.00  0.00    -0.060 I 
ATOM     10  F2  UNL d   1      -1.450  -1.951   0.895  0.00  0.00    -0.096 F 
ATOM     11  F3  UNL d   1      -1.600   0.723   1.296  0.00  0.00    -0.097 F 
ATOM     12  F4  UNL d   1      -0.099   2.430  -0.213  0.00  0.00    -0.092 F 
ENDROOT
TORSDOF 0
ENDMDL
