MODEL 1
REMARK minimizedAffinity -0.876255751
REMARK minimizedRMSD -1
REMARK  0 active torsions:
REMARK  status: ('A' for Active; 'I' for Inactive)
ROOT
ATOM      1  C   UNL d   1      -1.341   1.902   0.565  0.00  0.00     0.124 A 
ATOM      2  C1  UNL d   1      -0.676   1.842  -0.651  0.00  0.00     0.062 A 
ATOM      3  C2  UNL d   1       0.056   0.709  -0.994  0.00  0.00     0.162 A 
ATOM      4  C3  UNL d   1       0.125  -0.375  -0.118  0.00  0.00    -0.034 A 
ATOM      5  C4  UNL d   1      -0.547  -0.307   1.104  0.00  0.00     0.162 A 
ATOM      6  C5  UNL d   1      -1.276   0.828   1.441  0.00  0.00     0.062 A 
ATOM      7  F   UNL d   1      -1.919   0.884   2.617  0.00  0.00    -0.097 F 
ATOM      8  F1  UNL d   1      -0.501  -1.331   1.969  0.00  0.00    -0.096 F 
ATOM      9  I   UNL d   1       1.217  -2.072  -0.627  0.00  0.00    -0.060 I 
ATOM     10  F2  UNL d   1       0.689   0.678  -2.176  0.00  0.00    -0.096 F 
ATOM     11  F3  UNL d   1      -0.736   2.879  -1.499  0.00  0.00    -0.097 F 
ATOM     12  F4  UNL d   1      -2.044   2.994   0.893  0.00  0.00    -0.092 F 
ENDROOT
TORSDOF 0
ENDMDL
