MODEL 1
REMARK minimizedAffinity -2.10950708
REMARK minimizedRMSD -1
REMARK  0 active torsions:
REMARK  status: ('A' for Active; 'I' for Inactive)
ROOT
ATOM      1  C   UNL d   1       1.439  -0.192  -1.622  0.00  0.00     0.124 A 
ATOM      2  C1  UNL d   1       0.805  -0.985  -0.675  0.00  0.00     0.062 A 
ATOM      3  C2  UNL d   1      -0.129  -0.427   0.194  0.00  0.00     0.162 A 
ATOM      4  C3  UNL d   1      -0.435   0.932   0.119  0.00  0.00    -0.034 A 
ATOM      5  C4  UNL d   1       0.207   1.723  -0.836  0.00  0.00     0.162 A 
ATOM      6  C5  UNL d   1       1.139   1.160  -1.701  0.00  0.00     0.062 A 
ATOM      7  F   UNL d   1       1.751   1.928  -2.615  0.00  0.00    -0.097 F 
ATOM      8  F1  UNL d   1      -0.064   3.033  -0.935  0.00  0.00    -0.096 F 
ATOM      9  I   UNL d   1      -1.831   1.770   1.415  0.00  0.00    -0.060 I 
ATOM     10  F2  UNL d   1      -0.726  -1.216   1.099  0.00  0.00    -0.096 F 
ATOM     11  F3  UNL d   1       1.093  -2.292  -0.595  0.00  0.00    -0.097 F 
ATOM     12  F4  UNL d   1       2.337  -0.732  -2.455  0.00  0.00    -0.092 F 
ENDROOT
TORSDOF 0
ENDMDL
