MODEL 1
REMARK minimizedAffinity -3.7530601
REMARK minimizedRMSD -1
REMARK  0 active torsions:
REMARK  status: ('A' for Active; 'I' for Inactive)
ROOT
ATOM      1  C   UNL d   1      -1.085   2.231   1.280  0.00  0.00     0.124 A 
ATOM      2  C1  UNL d   1      -0.820   2.359  -0.076  0.00  0.00     0.062 A 
ATOM      3  C2  UNL d   1      -0.303   1.283  -0.793  0.00  0.00     0.162 A 
ATOM      4  C3  UNL d   1      -0.047   0.070  -0.154  0.00  0.00    -0.034 A 
ATOM      5  C4  UNL d   1      -0.314  -0.050   1.211  0.00  0.00     0.162 A 
ATOM      6  C5  UNL d   1      -0.832   1.027   1.923  0.00  0.00     0.062 A 
ATOM      7  F   UNL d   1      -1.086   0.902   3.233  0.00  0.00    -0.097 F 
ATOM      8  F1  UNL d   1      -0.080  -1.202   1.857  0.00  0.00    -0.096 F 
ATOM      9  I   UNL d   1       0.727  -1.540  -1.221  0.00  0.00    -0.060 I 
ATOM     10  F2  UNL d   1      -0.057   1.435  -2.103  0.00  0.00    -0.096 F 
ATOM     11  F3  UNL d   1      -1.063   3.521  -0.699  0.00  0.00    -0.097 F 
ATOM     12  F4  UNL d   1      -1.582   3.268   1.967  0.00  0.00    -0.092 F 
ENDROOT
TORSDOF 0
ENDMDL
