MODEL 1
REMARK minimizedAffinity 1.48896623
REMARK minimizedRMSD -1
REMARK  0 active torsions:
REMARK  status: ('A' for Active; 'I' for Inactive)
ROOT
ATOM      1  C   UNL d   1       0.536   0.169   1.816  0.00  0.00     0.124 A 
ATOM      2  C1  UNL d   1       0.514  -0.330   0.521  0.00  0.00     0.062 A 
ATOM      3  C2  UNL d   1      -0.532  -0.003  -0.338  0.00  0.00     0.162 A 
ATOM      4  C3  UNL d   1      -1.564   0.829   0.096  0.00  0.00    -0.034 A 
ATOM      5  C4  UNL d   1      -1.536   1.326   1.400  0.00  0.00     0.162 A 
ATOM      6  C5  UNL d   1      -0.489   0.997   2.254  0.00  0.00     0.062 A 
ATOM      7  F   UNL d   1      -0.469   1.480   3.505  0.00  0.00    -0.097 F 
ATOM      8  F1  UNL d   1      -2.512   2.129   1.849  0.00  0.00    -0.096 F 
ATOM      9  I   UNL d   1      -3.129   1.321  -1.185  0.00  0.00    -0.060 I 
ATOM     10  F2  UNL d   1      -0.527  -0.500  -1.584  0.00  0.00    -0.096 F 
ATOM     11  F3  UNL d   1       1.501  -1.131   0.096  0.00  0.00    -0.097 F 
ATOM     12  F4  UNL d   1       1.542  -0.148   2.640  0.00  0.00    -0.092 F 
ENDROOT
TORSDOF 0
ENDMDL
