MODEL 1
REMARK minimizedAffinity -3.05839825
REMARK minimizedRMSD -1
REMARK  0 active torsions:
REMARK  status: ('A' for Active; 'I' for Inactive)
ROOT
ATOM      1  C   UNL d   1      -1.049   2.568   0.587  0.00  0.00     0.124 A 
ATOM      2  C1  UNL d   1      -1.333   1.337   1.162  0.00  0.00     0.062 A 
ATOM      3  C2  UNL d   1      -0.722   0.183   0.681  0.00  0.00     0.162 A 
ATOM      4  C3  UNL d   1       0.181   0.254  -0.380  0.00  0.00    -0.034 A 
ATOM      5  C4  UNL d   1       0.461   1.495  -0.953  0.00  0.00     0.162 A 
ATOM      6  C5  UNL d   1      -0.152   2.646  -0.469  0.00  0.00     0.062 A 
ATOM      7  F   UNL d   1       0.123   3.835  -1.025  0.00  0.00    -0.097 F 
ATOM      8  F1  UNL d   1       1.324   1.600  -1.974  0.00  0.00    -0.096 F 
ATOM      9  I   UNL d   1       1.097  -1.470  -1.101  0.00  0.00    -0.060 I 
ATOM     10  F2  UNL d   1      -1.015  -0.994   1.255  0.00  0.00    -0.096 F 
ATOM     11  F3  UNL d   1      -2.199   1.259   2.182  0.00  0.00    -0.097 F 
ATOM     12  F4  UNL d   1      -1.639   3.677   1.051  0.00  0.00    -0.092 F 
ENDROOT
TORSDOF 0
ENDMDL
