MODEL 1
REMARK minimizedAffinity -0.967235386
REMARK minimizedRMSD -1
REMARK  0 active torsions:
REMARK  status: ('A' for Active; 'I' for Inactive)
ROOT
ATOM      1  C   UNL d   1      -0.736   1.149   0.971  0.00  0.00     0.124 A 
ATOM      2  C1  UNL d   1       0.183   1.194  -0.069  0.00  0.00     0.062 A 
ATOM      3  C2  UNL d   1       0.438   0.055  -0.827  0.00  0.00     0.162 A 
ATOM      4  C3  UNL d   1      -0.226  -1.140  -0.548  0.00  0.00    -0.034 A 
ATOM      5  C4  UNL d   1      -1.148  -1.177   0.500  0.00  0.00     0.162 A 
ATOM      6  C5  UNL d   1      -1.400  -0.036   1.254  0.00  0.00     0.062 A 
ATOM      7  F   UNL d   1      -2.288  -0.081   2.258  0.00  0.00    -0.097 F 
ATOM      8  F1  UNL d   1      -1.805  -2.309   0.795  0.00  0.00    -0.096 F 
ATOM      9  I   UNL d   1       0.153  -2.845  -1.678  0.00  0.00    -0.060 I 
ATOM     10  F2  UNL d   1       1.331   0.127  -1.825  0.00  0.00    -0.096 F 
ATOM     11  F3  UNL d   1       0.826   2.337  -0.344  0.00  0.00    -0.097 F 
ATOM     12  F4  UNL d   1      -0.979   2.247   1.698  0.00  0.00    -0.092 F 
ENDROOT
TORSDOF 0
ENDMDL
