MODEL 1
REMARK minimizedAffinity -0.325542122
REMARK minimizedRMSD -1
REMARK  0 active torsions:
REMARK  status: ('A' for Active; 'I' for Inactive)
ROOT
ATOM      1  C   UNL d   1      -0.525   1.459  -0.389  0.00  0.00     0.124 A 
ATOM      2  C1  UNL d   1      -1.036   1.624   0.890  0.00  0.00     0.062 A 
ATOM      3  C2  UNL d   1      -0.631   0.781   1.921  0.00  0.00     0.162 A 
ATOM      4  C3  UNL d   1       0.293  -0.235   1.676  0.00  0.00    -0.034 A 
ATOM      5  C4  UNL d   1       0.802  -0.396   0.386  0.00  0.00     0.162 A 
ATOM      6  C5  UNL d   1       0.394   0.450  -0.640  0.00  0.00     0.062 A 
ATOM      7  F   UNL d   1       0.889   0.289  -1.876  0.00  0.00    -0.097 F 
ATOM      8  F1  UNL d   1       1.692  -1.363   0.115  0.00  0.00    -0.096 F 
ATOM      9  I   UNL d   1       0.902  -1.499   3.213  0.00  0.00    -0.060 I 
ATOM     10  F2  UNL d   1      -1.141   0.963   3.147  0.00  0.00    -0.096 F 
ATOM     11  F3  UNL d   1      -1.924   2.598   1.135  0.00  0.00    -0.097 F 
ATOM     12  F4  UNL d   1      -0.918   2.272  -1.379  0.00  0.00    -0.092 F 
ENDROOT
TORSDOF 0
ENDMDL
