MODEL 1
REMARK minimizedAffinity 0.276936442
REMARK minimizedRMSD -1
REMARK  0 active torsions:
REMARK  status: ('A' for Active; 'I' for Inactive)
ROOT
ATOM      1  C   UNL d   1       1.338  -0.562  -1.160  0.00  0.00     0.124 A 
ATOM      2  C1  UNL d   1       0.332  -1.183  -0.433  0.00  0.00     0.062 A 
ATOM      3  C2  UNL d   1      -0.542  -0.426   0.341  0.00  0.00     0.162 A 
ATOM      4  C3  UNL d   1      -0.415   0.962   0.392  0.00  0.00    -0.034 A 
ATOM      5  C4  UNL d   1       0.599   1.580  -0.341  0.00  0.00     0.162 A 
ATOM      6  C5  UNL d   1       1.471   0.819  -1.114  0.00  0.00     0.062 A 
ATOM      7  F   UNL d   1       2.441   1.422  -1.815  0.00  0.00    -0.097 F 
ATOM      8  F1  UNL d   1       0.750   2.913  -0.315  0.00  0.00    -0.096 F 
ATOM      9  I   UNL d   1      -1.720   2.097   1.549  0.00  0.00    -0.060 I 
ATOM     10  F2  UNL d   1      -1.504  -1.054   1.034  0.00  0.00    -0.096 F 
ATOM     11  F3  UNL d   1       0.203  -2.517  -0.476  0.00  0.00    -0.097 F 
ATOM     12  F4  UNL d   1       2.178  -1.292  -1.904  0.00  0.00    -0.092 F 
ENDROOT
TORSDOF 0
ENDMDL
