MODEL 1
REMARK minimizedAffinity -1.88933659
REMARK minimizedRMSD -1
REMARK  0 active torsions:
REMARK  status: ('A' for Active; 'I' for Inactive)
ROOT
ATOM      1  C   UNL d   1      -1.372   2.034   0.846  0.00  0.00     0.124 A 
ATOM      2  C1  UNL d   1      -1.169   1.794  -0.506  0.00  0.00     0.062 A 
ATOM      3  C2  UNL d   1      -0.577   0.605  -0.925  0.00  0.00     0.162 A 
ATOM      4  C3  UNL d   1      -0.184  -0.352   0.010  0.00  0.00    -0.034 A 
ATOM      5  C4  UNL d   1      -0.390  -0.103   1.368  0.00  0.00     0.162 A 
ATOM      6  C5  UNL d   1      -0.982   1.086   1.781  0.00  0.00     0.062 A 
ATOM      7  F   UNL d   1      -1.177   1.317   3.088  0.00  0.00    -0.097 F 
ATOM      8  F1  UNL d   1      -0.025  -1.002   2.293  0.00  0.00    -0.096 F 
ATOM      9  I   UNL d   1       0.701  -2.131  -0.612  0.00  0.00    -0.060 I 
ATOM     10  F2  UNL d   1      -0.394   0.399  -2.237  0.00  0.00    -0.096 F 
ATOM     11  F3  UNL d   1      -1.544   2.709  -1.412  0.00  0.00    -0.097 F 
ATOM     12  F4  UNL d   1      -1.940   3.179   1.246  0.00  0.00    -0.092 F 
ENDROOT
TORSDOF 0
ENDMDL
