MODEL 1
REMARK minimizedAffinity -1.64778733
REMARK minimizedRMSD -1
REMARK  0 active torsions:
REMARK  status: ('A' for Active; 'I' for Inactive)
ROOT
ATOM      1  C   UNL d   1      -1.165   2.734   0.804  0.00  0.00     0.124 A 
ATOM      2  C1  UNL d   1      -1.494   1.540   1.430  0.00  0.00     0.062 A 
ATOM      3  C2  UNL d   1      -0.955   0.339   0.975  0.00  0.00     0.162 A 
ATOM      4  C3  UNL d   1      -0.082   0.328  -0.112  0.00  0.00    -0.034 A 
ATOM      5  C4  UNL d   1       0.243   1.533  -0.737  0.00  0.00     0.162 A 
ATOM      6  C5  UNL d   1      -0.297   2.730  -0.279  0.00  0.00     0.062 A 
ATOM      7  F   UNL d   1       0.021   3.882  -0.885  0.00  0.00    -0.097 F 
ATOM      8  F1  UNL d   1       1.080   1.557  -1.785  0.00  0.00    -0.096 F 
ATOM      9  I   UNL d   1       0.726  -1.465  -0.796  0.00  0.00    -0.060 I 
ATOM     10  F2  UNL d   1      -1.290  -0.800   1.599  0.00  0.00    -0.096 F 
ATOM     11  F3  UNL d   1      -2.333   1.541   2.476  0.00  0.00    -0.097 F 
ATOM     12  F4  UNL d   1      -1.686   3.887   1.244  0.00  0.00    -0.092 F 
ENDROOT
TORSDOF 0
ENDMDL
