MODEL 1
REMARK minimizedAffinity 4.66056061
REMARK minimizedRMSD -1
REMARK  2 active torsions:
REMARK  status: ('A' for Active; 'I' for Inactive)
REMARK    1  A    between atoms: C1_2  and  C2_3 
REMARK    2  A    between atoms: C2_3  and  C3_4 
ROOT
ATOM      1  C3  UNL d   1      -0.839   1.559  -0.434  0.00  0.00    -0.075 A 
ATOM      2  C4  UNL d   1       0.133   2.518  -0.753  0.00  0.00     0.002 A 
ATOM      3  C5  UNL d   1       1.374   2.508  -0.117  0.00  0.00     0.002 A 
ATOM      4  C6  UNL d   1       1.656   1.548   0.852  0.00  0.00    -0.004 A 
ATOM      5  C7  UNL d   1       0.692   0.600   1.189  0.00  0.00     0.002 A 
ATOM      6  C8  UNL d   1      -0.549   0.605   0.551  0.00  0.00     0.002 A 
ENDROOT
BRANCH   1   7
ATOM      7  C2  UNL d   1      -2.174   1.546  -1.140  0.00  0.00     0.056 C 
BRANCH   7   8
ATOM      8  C1  UNL d   1      -2.338   0.400  -2.144  0.00  0.00     0.007 C 
ATOM      9  C   UNL d   1      -2.786   0.869  -3.522  0.00  0.00     0.009 C 
ENDBRANCH   7   8
ENDBRANCH   1   7
TORSDOF 2
ENDMDL
