MODEL 1
REMARK minimizedAffinity -3.80252409
REMARK minimizedRMSD -1
REMARK  2 active torsions:
REMARK  status: ('A' for Active; 'I' for Inactive)
REMARK    1  A    between atoms: C1_2  and  C2_3 
REMARK    2  A    between atoms: C2_3  and  C3_4 
ROOT
ATOM      1  C3  UNL d   1      -1.592   0.043  -1.224  0.00  0.00    -0.075 A 
ATOM      2  C4  UNL d   1      -1.530  -0.788  -2.352  0.00  0.00     0.002 A 
ATOM      3  C5  UNL d   1      -2.471  -0.665  -3.375  0.00  0.00     0.002 A 
ATOM      4  C6  UNL d   1      -3.490   0.280  -3.278  0.00  0.00    -0.004 A 
ATOM      5  C7  UNL d   1      -3.572   1.099  -2.154  0.00  0.00     0.002 A 
ATOM      6  C8  UNL d   1      -2.629   0.981  -1.131  0.00  0.00     0.002 A 
ENDROOT
BRANCH   1   7
ATOM      7  C2  UNL d   1      -0.560  -0.065  -0.127  0.00  0.00     0.056 C 
BRANCH   7   8
ATOM      8  C1  UNL d   1       0.376   1.145  -0.031  0.00  0.00     0.007 C 
ATOM      9  C   UNL d   1       1.828   0.762   0.223  0.00  0.00     0.009 C 
ENDBRANCH   7   8
ENDBRANCH   1   7
TORSDOF 2
ENDMDL
