MODEL 1
REMARK minimizedAffinity 0.387484074
REMARK minimizedRMSD -1
REMARK  2 active torsions:
REMARK  status: ('A' for Active; 'I' for Inactive)
REMARK    1  A    between atoms: C1_2  and  C2_3 
REMARK    2  A    between atoms: C2_3  and  C3_4 
ROOT
ATOM      1  C3  UNL d   1      -0.351   0.718  -0.411  0.00  0.00    -0.075 A 
ATOM      2  C4  UNL d   1       0.705   1.639  -0.363  0.00  0.00     0.002 A 
ATOM      3  C5  UNL d   1       1.914   1.300   0.244  0.00  0.00     0.002 A 
ATOM      4  C6  UNL d   1       2.079   0.042   0.819  0.00  0.00    -0.004 A 
ATOM      5  C7  UNL d   1       1.031  -0.875   0.793  0.00  0.00     0.002 A 
ATOM      6  C8  UNL d   1      -0.179  -0.540   0.181  0.00  0.00     0.002 A 
ENDROOT
BRANCH   1   7
ATOM      7  C2  UNL d   1      -1.652   1.069  -1.093  0.00  0.00     0.056 C 
BRANCH   7   8
ATOM      8  C1  UNL d   1      -1.977   0.190  -2.306  0.00  0.00     0.007 C 
ATOM      9  C   UNL d   1      -2.440   0.988  -3.518  0.00  0.00     0.009 C 
ENDBRANCH   7   8
ENDBRANCH   1   7
TORSDOF 2
ENDMDL
