MODEL 1
REMARK minimizedAffinity -5.48228121
REMARK minimizedRMSD -1
REMARK  2 active torsions:
REMARK  status: ('A' for Active; 'I' for Inactive)
REMARK    1  A    between atoms: C1_2  and  C2_3 
REMARK    2  A    between atoms: C2_3  and  C3_4 
ROOT
ATOM      1  C3  UNL d   1       1.375  -0.855   0.931  0.00  0.00    -0.075 A 
ATOM      2  C4  UNL d   1       2.250   0.184   0.582  0.00  0.00     0.002 A 
ATOM      3  C5  UNL d   1       1.756   1.450   0.267  0.00  0.00     0.002 A 
ATOM      4  C6  UNL d   1       0.384   1.690   0.286  0.00  0.00    -0.004 A 
ATOM      5  C7  UNL d   1      -0.495   0.661   0.615  0.00  0.00     0.002 A 
ATOM      6  C8  UNL d   1      -0.004  -0.606   0.935  0.00  0.00     0.002 A 
ENDROOT
BRANCH   1   7
ATOM      7  C2  UNL d   1       1.905  -2.220   1.303  0.00  0.00     0.056 C 
BRANCH   7   8
ATOM      8  C1  UNL d   1       2.753  -2.233   2.579  0.00  0.00     0.007 C 
ATOM      9  C   UNL d   1       1.925  -2.110   3.851  0.00  0.00     0.009 C 
ENDBRANCH   7   8
ENDBRANCH   1   7
TORSDOF 2
ENDMDL
