MODEL 1
REMARK minimizedAffinity -3.50311089
REMARK minimizedRMSD -1
REMARK  2 active torsions:
REMARK  status: ('A' for Active; 'I' for Inactive)
REMARK    1  A    between atoms: C1_2  and  C2_3 
REMARK    2  A    between atoms: C2_3  and  C3_4 
ROOT
ATOM      1  C3  UNL d   1      -0.520   0.320   0.191  0.00  0.00    -0.075 A 
ATOM      2  C4  UNL d   1       0.401  -0.634   0.649  0.00  0.00     0.002 A 
ATOM      3  C5  UNL d   1       1.674  -0.246   1.068  0.00  0.00     0.002 A 
ATOM      4  C6  UNL d   1       2.046   1.096   1.025  0.00  0.00    -0.004 A 
ATOM      5  C7  UNL d   1       1.145   2.050   0.556  0.00  0.00     0.002 A 
ATOM      6  C8  UNL d   1      -0.131   1.665   0.140  0.00  0.00     0.002 A 
ENDROOT
BRANCH   1   7
ATOM      7  C2  UNL d   1      -1.909  -0.090  -0.236  0.00  0.00     0.056 C 
BRANCH   7   8
ATOM      8  C1  UNL d   1      -2.402   0.607  -1.508  0.00  0.00     0.007 C 
ATOM      9  C   UNL d   1      -2.374  -0.294  -2.735  0.00  0.00     0.009 C 
ENDBRANCH   7   8
ENDBRANCH   1   7
TORSDOF 2
ENDMDL
