MODEL 1
REMARK minimizedAffinity -5.67271566
REMARK minimizedRMSD -1
REMARK  2 active torsions:
REMARK  status: ('A' for Active; 'I' for Inactive)
REMARK    1  A    between atoms: C1_2  and  C2_3 
REMARK    2  A    between atoms: C2_3  and  C3_4 
ROOT
ATOM      1  C3  UNL d   1       0.756  -0.179  -0.044  0.00  0.00    -0.075 A 
ATOM      2  C4  UNL d   1       1.651   0.642   0.657  0.00  0.00     0.002 A 
ATOM      3  C5  UNL d   1       2.544   0.092   1.578  0.00  0.00     0.002 A 
ATOM      4  C6  UNL d   1       2.546  -1.281   1.816  0.00  0.00    -0.004 A 
ATOM      5  C7  UNL d   1       1.650  -2.104   1.137  0.00  0.00     0.002 A 
ATOM      6  C8  UNL d   1       0.759  -1.557   0.212  0.00  0.00     0.002 A 
ENDROOT
BRANCH   1   7
ATOM      7  C2  UNL d   1      -0.192   0.406  -1.064  0.00  0.00     0.056 C 
BRANCH   7   8
ATOM      8  C1  UNL d   1      -1.639  -0.076  -0.918  0.00  0.00     0.007 C 
ATOM      9  C   UNL d   1      -2.626   0.726  -1.756  0.00  0.00     0.009 C 
ENDBRANCH   7   8
ENDBRANCH   1   7
TORSDOF 2
ENDMDL
