MODEL 1
REMARK minimizedAffinity -6.69638968
REMARK minimizedRMSD -1
REMARK  2 active torsions:
REMARK  status: ('A' for Active; 'I' for Inactive)
REMARK    1  A    between atoms: C1_2  and  C2_3 
REMARK    2  A    between atoms: C2_3  and  C3_4 
ROOT
ATOM      1  C3  UNL d   1      -0.088  -0.515   0.528  0.00  0.00    -0.075 A 
ATOM      2  C4  UNL d   1       0.543  -1.599   1.155  0.00  0.00     0.002 A 
ATOM      3  C5  UNL d   1       1.906  -1.551   1.451  0.00  0.00     0.002 A 
ATOM      4  C6  UNL d   1       2.655  -0.424   1.117  0.00  0.00    -0.004 A 
ATOM      5  C7  UNL d   1       2.041   0.652   0.479  0.00  0.00     0.002 A 
ATOM      6  C8  UNL d   1       0.677   0.607   0.185  0.00  0.00     0.002 A 
ENDROOT
BRANCH   1   7
ATOM      7  C2  UNL d   1      -1.568  -0.550   0.231  0.00  0.00     0.056 C 
BRANCH   7   8
ATOM      8  C1  UNL d   1      -1.988   0.333  -0.949  0.00  0.00     0.007 C 
ATOM      9  C   UNL d   1      -2.497  -0.464  -2.143  0.00  0.00     0.009 C 
ENDBRANCH   7   8
ENDBRANCH   1   7
TORSDOF 2
ENDMDL
