MODEL 1
REMARK minimizedAffinity -4.58533621
REMARK minimizedRMSD -1
REMARK  2 active torsions:
REMARK  status: ('A' for Active; 'I' for Inactive)
REMARK    1  A    between atoms: C2'_3  and  C1'_4 
REMARK    2  A    between atoms: C1'_4  and  C1_5 
ROOT
ATOM      1  C1  I4B d   1       0.174  -0.069   0.220  0.00  0.00    -0.075 A 
ATOM      2  C2  I4B d   1       1.307   0.625  -0.125  0.00  0.00     0.003 A 
ATOM      3  C3  I4B d   1       1.368   2.027   0.061  0.00  0.00     0.002 A 
ATOM      4  C4  I4B d   1       0.263   2.698   0.545  0.00  0.00    -0.004 A 
ATOM      5  C5  I4B d   1      -0.876   1.990   0.916  0.00  0.00     0.002 A 
ATOM      6  C6  I4B d   1      -0.918   0.596   0.764  0.00  0.00     0.003 A 
ENDROOT
BRANCH   1   7
ATOM      7  C1' I4B d   1       0.131  -1.545  -0.021  0.00  0.00     0.060 C 
BRANCH   7   8
ATOM      8  C2' I4B d   1       0.225  -1.777  -1.515  0.00  0.00    -0.013 C 
ATOM      9  C4' I4B d   1      -0.339  -3.120  -1.895  0.00  0.00     0.013 C 
ATOM     10  C3' I4B d   1      -0.510  -0.666  -2.203  0.00  0.00     0.013 C 
ENDBRANCH   7   8
ENDBRANCH   1   7
TORSDOF 2
ENDMDL
