MODEL 1
REMARK minimizedAffinity -1.23461032
REMARK minimizedRMSD -1
REMARK  2 active torsions:
REMARK  status: ('A' for Active; 'I' for Inactive)
REMARK    1  A    between atoms: C2'_3  and  C1'_4 
REMARK    2  A    between atoms: C1'_4  and  C1_5 
ROOT
ATOM      1  C1  I4B d   1       0.634   1.006   0.245  0.00  0.00    -0.075 A 
ATOM      2  C2  I4B d   1       1.965   0.714   0.409  0.00  0.00     0.003 A 
ATOM      3  C3  I4B d   1       2.827   1.643   1.041  0.00  0.00     0.002 A 
ATOM      4  C4  I4B d   1       2.329   2.865   1.446  0.00  0.00    -0.004 A 
ATOM      5  C5  I4B d   1       0.974   3.150   1.300  0.00  0.00     0.002 A 
ATOM      6  C6  I4B d   1       0.119   2.211   0.707  0.00  0.00     0.003 A 
ENDROOT
BRANCH   1   7
ATOM      7  C1' I4B d   1      -0.240   0.016  -0.456  0.00  0.00     0.060 C 
BRANCH   7   8
ATOM      8  C2' I4B d   1       0.253  -1.373  -0.104  0.00  0.00    -0.013 C 
ATOM      9  C4' I4B d   1      -0.125  -1.745   1.305  0.00  0.00     0.013 C 
ATOM     10  C3' I4B d   1      -0.332  -2.336  -1.094  0.00  0.00     0.013 C 
ENDBRANCH   7   8
ENDBRANCH   1   7
TORSDOF 2
ENDMDL
