MODEL 1
REMARK minimizedAffinity -5.4103961
REMARK minimizedRMSD -1
REMARK  2 active torsions:
REMARK  status: ('A' for Active; 'I' for Inactive)
REMARK    1  A    between atoms: C2'_3  and  C1'_4 
REMARK    2  A    between atoms: C1'_4  and  C1_5 
ROOT
ATOM      1  C1  I4B d   1       0.299  -1.032  -0.459  0.00  0.00    -0.075 A 
ATOM      2  C2  I4B d   1      -0.261  -1.226  -1.696  0.00  0.00     0.003 A 
ATOM      3  C3  I4B d   1      -0.541  -2.537  -2.154  0.00  0.00     0.002 A 
ATOM      4  C4  I4B d   1      -0.200  -3.619  -1.369  0.00  0.00    -0.004 A 
ATOM      5  C5  I4B d   1       0.347  -3.419  -0.104  0.00  0.00     0.002 A 
ATOM      6  C6  I4B d   1       0.587  -2.117   0.359  0.00  0.00     0.003 A 
ENDROOT
BRANCH   1   7
ATOM      7  C1' I4B d   1       0.612   0.363  -0.020  0.00  0.00     0.060 C 
BRANCH   7   8
ATOM      8  C2' I4B d   1      -0.689   1.137   0.038  0.00  0.00    -0.013 C 
ATOM      9  C4' I4B d   1      -1.692   0.452   0.928  0.00  0.00     0.013 C 
ATOM     10  C3' I4B d   1      -0.384   2.520   0.531  0.00  0.00     0.013 C 
ENDBRANCH   7   8
ENDBRANCH   1   7
TORSDOF 2
ENDMDL
