MODEL 1
REMARK minimizedAffinity -4.29392338
REMARK minimizedRMSD -1
REMARK  2 active torsions:
REMARK  status: ('A' for Active; 'I' for Inactive)
REMARK    1  A    between atoms: C2'_3  and  C1'_4 
REMARK    2  A    between atoms: C1'_4  and  C1_5 
ROOT
ATOM      1  C1  I4B d   1      -0.446   0.577  -0.392  0.00  0.00    -0.075 A 
ATOM      2  C2  I4B d   1       0.562   1.476  -0.147  0.00  0.00     0.003 A 
ATOM      3  C3  I4B d   1       0.313   2.631   0.633  0.00  0.00     0.002 A 
ATOM      4  C4  I4B d   1      -0.962   2.872   1.102  0.00  0.00    -0.004 A 
ATOM      5  C5  I4B d   1      -1.978   1.949   0.872  0.00  0.00     0.002 A 
ATOM      6  C6  I4B d   1      -1.716   0.787   0.131  0.00  0.00     0.003 A 
ENDROOT
BRANCH   1   7
ATOM      7  C1' I4B d   1      -0.156  -0.616  -1.247  0.00  0.00     0.060 C 
BRANCH   7   8
ATOM      8  C2' I4B d   1      -0.239  -1.849  -0.370  0.00  0.00    -0.013 C 
ATOM      9  C4' I4B d   1      -0.349  -3.101  -1.200  0.00  0.00     0.013 C 
ATOM     10  C3' I4B d   1       0.983  -1.882   0.499  0.00  0.00     0.013 C 
ENDBRANCH   7   8
ENDBRANCH   1   7
TORSDOF 2
ENDMDL
