MODEL 1
REMARK minimizedAffinity -2.72721744
REMARK minimizedRMSD -1
REMARK  2 active torsions:
REMARK  status: ('A' for Active; 'I' for Inactive)
REMARK    1  A    between atoms: C2'_3  and  C1'_4 
REMARK    2  A    between atoms: C1'_4  and  C1_5 
ROOT
ATOM      1  C1  I4B d   1      -0.050  -2.394  -0.748  0.00  0.00    -0.075 A 
ATOM      2  C2  I4B d   1      -1.344  -2.767  -1.017  0.00  0.00     0.003 A 
ATOM      3  C3  I4B d   1      -1.637  -3.547  -2.162  0.00  0.00     0.002 A 
ATOM      4  C4  I4B d   1      -0.620  -3.885  -3.033  0.00  0.00    -0.004 A 
ATOM      5  C5  I4B d   1       0.693  -3.525  -2.746  0.00  0.00     0.002 A 
ATOM      6  C6  I4B d   1       0.982  -2.785  -1.590  0.00  0.00     0.003 A 
ENDROOT
BRANCH   1   7
ATOM      7  C1' I4B d   1       0.219  -1.543   0.453  0.00  0.00     0.060 C 
BRANCH   7   8
ATOM      8  C2' I4B d   1       0.558  -0.148  -0.030  0.00  0.00    -0.013 C 
ATOM      9  C4' I4B d   1      -0.463   0.855   0.440  0.00  0.00     0.013 C 
ATOM     10  C3' I4B d   1       1.927   0.197   0.474  0.00  0.00     0.013 C 
ENDBRANCH   7   8
ENDBRANCH   1   7
TORSDOF 2
ENDMDL
