MODEL 1
REMARK minimizedAffinity -1.03413773
REMARK minimizedRMSD -1
REMARK  2 active torsions:
REMARK  status: ('A' for Active; 'I' for Inactive)
REMARK    1  A    between atoms: C2'_3  and  C1'_4 
REMARK    2  A    between atoms: C1'_4  and  C1_5 
ROOT
ATOM      1  C1  I4B d   1      -0.321  -0.404   0.139  0.00  0.00    -0.075 A 
ATOM      2  C2  I4B d   1      -1.425   0.041  -0.545  0.00  0.00     0.003 A 
ATOM      3  C3  I4B d   1      -1.971   1.317  -0.264  0.00  0.00     0.002 A 
ATOM      4  C4  I4B d   1      -1.417   2.087   0.738  0.00  0.00    -0.004 A 
ATOM      5  C5  I4B d   1      -0.284   1.644   1.414  0.00  0.00     0.002 A 
ATOM      6  C6  I4B d   1       0.275   0.396   1.105  0.00  0.00     0.003 A 
ENDROOT
BRANCH   1   7
ATOM      7  C1' I4B d   1       0.210  -1.770  -0.161  0.00  0.00     0.060 C 
BRANCH   7   8
ATOM      8  C2' I4B d   1      -0.807  -2.487  -1.026  0.00  0.00    -0.013 C 
ATOM      9  C4' I4B d   1      -0.141  -3.213  -2.164  0.00  0.00     0.013 C 
ATOM     10  C3' I4B d   1      -1.571  -3.437  -0.151  0.00  0.00     0.013 C 
ENDBRANCH   7   8
ENDBRANCH   1   7
TORSDOF 2
ENDMDL
