MODEL 1
REMARK minimizedAffinity -2.98145509
REMARK minimizedRMSD -1
REMARK  2 active torsions:
REMARK  status: ('A' for Active; 'I' for Inactive)
REMARK    1  A    between atoms: C2'_3  and  C1'_4 
REMARK    2  A    between atoms: C1'_4  and  C1_5 
ROOT
ATOM      1  C1  I4B d   1      -0.573  -2.238  -0.690  0.00  0.00    -0.075 A 
ATOM      2  C2  I4B d   1      -0.012  -1.980  -1.916  0.00  0.00     0.003 A 
ATOM      3  C3  I4B d   1      -0.171  -2.901  -2.980  0.00  0.00     0.002 A 
ATOM      4  C4  I4B d   1      -0.851  -4.082  -2.761  0.00  0.00    -0.004 A 
ATOM      5  C5  I4B d   1      -1.439  -4.330  -1.524  0.00  0.00     0.002 A 
ATOM      6  C6  I4B d   1      -1.310  -3.397  -0.485  0.00  0.00     0.003 A 
ENDROOT
BRANCH   1   7
ATOM      7  C1' I4B d   1      -0.357  -1.259   0.421  0.00  0.00     0.060 C 
BRANCH   7   8
ATOM      8  C2' I4B d   1      -0.250   0.123  -0.189  0.00  0.00    -0.013 C 
ATOM      9  C4' I4B d   1      -1.608   0.753  -0.355  0.00  0.00     0.013 C 
ATOM     10  C3' I4B d   1       0.627   0.954   0.699  0.00  0.00     0.013 C 
ENDBRANCH   7   8
ENDBRANCH   1   7
TORSDOF 2
ENDMDL
