MODEL 1
REMARK minimizedAffinity -0.90922457
REMARK minimizedRMSD -1
REMARK  2 active torsions:
REMARK  status: ('A' for Active; 'I' for Inactive)
REMARK    1  A    between atoms: C2'_3  and  C1'_4 
REMARK    2  A    between atoms: C1'_4  and  C1_5 
ROOT
ATOM      1  C1  I4B d   1      -0.718  -2.058  -0.504  0.00  0.00    -0.075 A 
ATOM      2  C2  I4B d   1      -1.573  -3.084  -0.189  0.00  0.00     0.003 A 
ATOM      3  C3  I4B d   1      -1.896  -4.066  -1.156  0.00  0.00     0.002 A 
ATOM      4  C4  I4B d   1      -1.383  -3.957  -2.433  0.00  0.00    -0.004 A 
ATOM      5  C5  I4B d   1      -0.497  -2.929  -2.744  0.00  0.00     0.002 A 
ATOM      6  C6  I4B d   1      -0.152  -1.980  -1.770  0.00  0.00     0.003 A 
ENDROOT
BRANCH   1   7
ATOM      7  C1' I4B d   1      -0.425  -1.020   0.532  0.00  0.00     0.060 C 
BRANCH   7   8
ATOM      8  C2' I4B d   1      -0.533   0.341  -0.127  0.00  0.00    -0.013 C 
ATOM      9  C4' I4B d   1      -1.890   0.952   0.105  0.00  0.00     0.013 C 
ATOM     10  C3' I4B d   1       0.555   1.211   0.427  0.00  0.00     0.013 C 
ENDBRANCH   7   8
ENDBRANCH   1   7
TORSDOF 2
ENDMDL
