MODEL 1
REMARK minimizedAffinity -4.05017328
REMARK minimizedRMSD -1
REMARK  2 active torsions:
REMARK  status: ('A' for Active; 'I' for Inactive)
REMARK    1  A    between atoms: C2'_3  and  C1'_4 
REMARK    2  A    between atoms: C1'_4  and  C1_5 
ROOT
ATOM      1  C1  I4B d   1      -0.443  -0.703  -0.172  0.00  0.00    -0.075 A 
ATOM      2  C2  I4B d   1       0.196   0.113   0.727  0.00  0.00     0.003 A 
ATOM      3  C3  I4B d   1      -0.357   1.372   1.066  0.00  0.00     0.002 A 
ATOM      4  C4  I4B d   1      -1.516   1.794   0.447  0.00  0.00    -0.004 A 
ATOM      5  C5  I4B d   1      -2.175   0.955  -0.447  0.00  0.00     0.002 A 
ATOM      6  C6  I4B d   1      -1.642  -0.306  -0.750  0.00  0.00     0.003 A 
ENDROOT
BRANCH   1   7
ATOM      7  C1' I4B d   1       0.186  -2.012  -0.532  0.00  0.00     0.060 C 
BRANCH   7   8
ATOM      8  C2' I4B d   1      -0.784  -2.769  -1.415  0.00  0.00    -0.013 C 
ATOM      9  C4' I4B d   1      -0.062  -3.509  -2.510  0.00  0.00     0.013 C 
ATOM     10  C3' I4B d   1      -1.561  -3.713  -0.546  0.00  0.00     0.013 C 
ENDBRANCH   7   8
ENDBRANCH   1   7
TORSDOF 2
ENDMDL
