MODEL 1
REMARK minimizedAffinity -1.48126292
REMARK minimizedRMSD -1
REMARK  2 active torsions:
REMARK  status: ('A' for Active; 'I' for Inactive)
REMARK    1  A    between atoms: C2'_3  and  C1'_4 
REMARK    2  A    between atoms: C1'_4  and  C1_5 
ROOT
ATOM      1  C1  I4B d   1      -0.656   1.094   0.411  0.00  0.00    -0.075 A 
ATOM      2  C2  I4B d   1      -0.262   1.936   1.422  0.00  0.00     0.003 A 
ATOM      3  C3  I4B d   1      -0.164   3.329   1.191  0.00  0.00     0.002 A 
ATOM      4  C4  I4B d   1      -0.418   3.829  -0.070  0.00  0.00    -0.004 A 
ATOM      5  C5  I4B d   1      -0.840   2.977  -1.087  0.00  0.00     0.002 A 
ATOM      6  C6  I4B d   1      -0.972   1.603  -0.842  0.00  0.00     0.003 A 
ENDROOT
BRANCH   1   7
ATOM      7  C1' I4B d   1      -0.718  -0.376   0.681  0.00  0.00     0.060 C 
BRANCH   7   8
ATOM      8  C2' I4B d   1       0.328  -1.053  -0.183  0.00  0.00    -0.013 C 
ATOM      9  C4' I4B d   1       1.642  -1.170   0.544  0.00  0.00     0.013 C 
ATOM     10  C3' I4B d   1      -0.198  -2.402  -0.574  0.00  0.00     0.013 C 
ENDBRANCH   7   8
ENDBRANCH   1   7
TORSDOF 2
ENDMDL
