MODEL 1
REMARK minimizedAffinity -3.46999407
REMARK minimizedRMSD -1
REMARK  2 active torsions:
REMARK  status: ('A' for Active; 'I' for Inactive)
REMARK    1  A    between atoms: C2'_3  and  C1'_4 
REMARK    2  A    between atoms: C1'_4  and  C1_5 
ROOT
ATOM      1  C1  I4B d   1       0.482   0.940  -0.549  0.00  0.00    -0.075 A 
ATOM      2  C2  I4B d   1       1.729   1.500  -0.678  0.00  0.00     0.003 A 
ATOM      3  C3  I4B d   1       2.866   0.837  -0.156  0.00  0.00     0.002 A 
ATOM      4  C4  I4B d   1       2.705  -0.351   0.528  0.00  0.00    -0.004 A 
ATOM      5  C5  I4B d   1       1.444  -0.928   0.638  0.00  0.00     0.002 A 
ATOM      6  C6  I4B d   1       0.326  -0.286   0.086  0.00  0.00     0.003 A 
ENDROOT
BRANCH   1   7
ATOM      7  C1' I4B d   1      -0.701   1.683  -1.084  0.00  0.00     0.060 C 
BRANCH   7   8
ATOM      8  C2' I4B d   1      -1.400   2.350   0.083  0.00  0.00    -0.013 C 
ATOM      9  C4' I4B d   1      -2.525   1.495   0.606  0.00  0.00     0.013 C 
ATOM     10  C3' I4B d   1      -0.377   2.609   1.149  0.00  0.00     0.013 C 
ENDBRANCH   7   8
ENDBRANCH   1   7
TORSDOF 2
ENDMDL
