MODEL 1
REMARK minimizedAffinity -0.677338481
REMARK minimizedRMSD -1
REMARK  2 active torsions:
REMARK  status: ('A' for Active; 'I' for Inactive)
REMARK    1  A    between atoms: C2'_3  and  C1'_4 
REMARK    2  A    between atoms: C1'_4  and  C1_5 
ROOT
ATOM      1  C1  I4B d   1       0.341   0.276   0.054  0.00  0.00    -0.075 A 
ATOM      2  C2  I4B d   1       1.525   0.854   0.438  0.00  0.00     0.003 A 
ATOM      3  C3  I4B d   1       1.525   2.093   1.124  0.00  0.00     0.002 A 
ATOM      4  C4  I4B d   1       0.328   2.738   1.360  0.00  0.00    -0.004 A 
ATOM      5  C5  I4B d   1      -0.873   2.140   0.991  0.00  0.00     0.002 A 
ATOM      6  C6  I4B d   1      -0.868   0.895   0.345  0.00  0.00     0.003 A 
ENDROOT
BRANCH   1   7
ATOM      7  C1' I4B d   1       0.380  -1.016  -0.698  0.00  0.00     0.060 C 
BRANCH   7   8
ATOM      8  C2' I4B d   1      -0.306  -2.070   0.148  0.00  0.00    -0.013 C 
ATOM      9  C4' I4B d   1      -0.671  -3.277  -0.674  0.00  0.00     0.013 C 
ATOM     10  C3' I4B d   1       0.620  -2.438   1.269  0.00  0.00     0.013 C 
ENDBRANCH   7   8
ENDBRANCH   1   7
TORSDOF 2
ENDMDL
