MODEL 1
REMARK minimizedAffinity -5.37840271
REMARK minimizedRMSD -1
REMARK  2 active torsions:
REMARK  status: ('A' for Active; 'I' for Inactive)
REMARK    1  A    between atoms: C2'_3  and  C1'_4 
REMARK    2  A    between atoms: C1'_4  and  C1_5 
ROOT
ATOM      1  C1  I4B d   1      -0.346  -0.706  -0.111  0.00  0.00    -0.075 A 
ATOM      2  C2  I4B d   1      -1.502  -0.043   0.215  0.00  0.00     0.003 A 
ATOM      3  C3  I4B d   1      -1.478   1.350   0.469  0.00  0.00     0.002 A 
ATOM      4  C4  I4B d   1      -0.276   2.026   0.434  0.00  0.00    -0.004 A 
ATOM      5  C5  I4B d   1       0.892   1.357   0.081  0.00  0.00     0.002 A 
ATOM      6  C6  I4B d   1       0.856  -0.016  -0.206  0.00  0.00     0.003 A 
ENDROOT
BRANCH   1   7
ATOM      7  C1' I4B d   1      -0.402  -2.183  -0.340  0.00  0.00     0.060 C 
BRANCH   7   8
ATOM      8  C2' I4B d   1      -0.261  -2.431  -1.828  0.00  0.00    -0.013 C 
ATOM      9  C4' I4B d   1       0.749  -3.511  -2.108  0.00  0.00     0.013 C 
ATOM     10  C3' I4B d   1      -1.612  -2.800  -2.366  0.00  0.00     0.013 C 
ENDBRANCH   7   8
ENDBRANCH   1   7
TORSDOF 2
ENDMDL
