MODEL 1
REMARK minimizedAffinity 11.8014927
REMARK minimizedRMSD -1
REMARK  0 active torsions:
REMARK  status: ('A' for Active; 'I' for Inactive)
ROOT
ATOM      1  C   UNL d   1      -5.484  -2.284   3.644  0.00  0.00    -0.002 A 
ATOM      2  C1  UNL d   1      -4.876  -2.065   2.416  0.00  0.00     0.010 A 
ATOM      3  C2  UNL d   1      -3.931  -1.048   2.262  0.00  0.00     0.041 A 
ATOM      4  C3  UNL d   1      -3.603  -0.249   3.375  0.00  0.00    -0.075 A 
ATOM      5  S   UNL d   1      -2.473   1.052   3.423  0.00  0.00     0.015 SA
ATOM      6  C4  UNL d   1      -2.770   1.347   5.075  0.00  0.00     0.022 A 
ATOM      7  C5  UNL d   1      -3.705   0.483   5.593  0.00  0.00     0.026 A 
ATOM      8  C6  UNL d   1      -4.200  -0.452   4.622  0.00  0.00    -0.082 A 
ATOM      9  C7  UNL d   1      -5.155  -1.489   4.746  0.00  0.00     0.045 A 
ENDROOT
TORSDOF 0
ENDMDL
