MODEL 1
REMARK minimizedAffinity 20.4704056
REMARK minimizedRMSD -1
REMARK  0 active torsions:
REMARK  status: ('A' for Active; 'I' for Inactive)
ROOT
ATOM      1  C   UNL d   1      -5.865  -2.191   5.344  0.00  0.00    -0.002 A 
ATOM      2  C1  UNL d   1      -5.491  -1.026   5.999  0.00  0.00     0.010 A 
ATOM      3  C2  UNL d   1      -4.992   0.063   5.283  0.00  0.00     0.041 A 
ATOM      4  C3  UNL d   1      -4.876  -0.038   3.882  0.00  0.00    -0.075 A 
ATOM      5  S   UNL d   1      -4.292   1.169   2.798  0.00  0.00     0.015 SA
ATOM      6  C4  UNL d   1      -4.527   0.167   1.439  0.00  0.00     0.022 A 
ATOM      7  C5  UNL d   1      -5.037  -1.061   1.786  0.00  0.00     0.026 A 
ATOM      8  C6  UNL d   1      -5.247  -1.199   3.200  0.00  0.00    -0.082 A 
ATOM      9  C7  UNL d   1      -5.748  -2.287   3.955  0.00  0.00     0.045 A 
ENDROOT
TORSDOF 0
ENDMDL
