MODEL 1
REMARK minimizedAffinity 17.6311855
REMARK minimizedRMSD -1
REMARK  0 active torsions:
REMARK  status: ('A' for Active; 'I' for Inactive)
ROOT
ATOM      1  C   UNL d   1      -0.337  -3.887   0.765  0.00  0.00    -0.002 A 
ATOM      2  C1  UNL d   1      -1.522  -3.190   0.576  0.00  0.00     0.010 A 
ATOM      3  C2  UNL d   1      -1.847  -2.107   1.395  0.00  0.00     0.041 A 
ATOM      4  C3  UNL d   1      -0.951  -1.732   2.416  0.00  0.00    -0.075 A 
ATOM      5  S   UNL d   1      -1.139  -0.438   3.540  0.00  0.00     0.015 SA
ATOM      6  C4  UNL d   1       0.350  -0.780   4.296  0.00  0.00     0.022 A 
ATOM      7  C5  UNL d   1       0.987  -1.852   3.718  0.00  0.00     0.026 A 
ATOM      8  C6  UNL d   1       0.249  -2.418   2.625  0.00  0.00    -0.082 A 
ATOM      9  C7  UNL d   1       0.549  -3.512   1.778  0.00  0.00     0.045 A 
ENDROOT
TORSDOF 0
ENDMDL
