MODEL 1
REMARK minimizedAffinity 12.9468517
REMARK minimizedRMSD -1
REMARK  0 active torsions:
REMARK  status: ('A' for Active; 'I' for Inactive)
ROOT
ATOM      1  C   UNL d   1      -0.146  -3.861   0.730  0.00  0.00    -0.002 A 
ATOM      2  C1  UNL d   1       0.859  -3.064   1.259  0.00  0.00     0.010 A 
ATOM      3  C2  UNL d   1       0.567  -1.796   1.766  0.00  0.00     0.041 A 
ATOM      4  C3  UNL d   1      -0.765  -1.338   1.734  0.00  0.00    -0.075 A 
ATOM      5  S   UNL d   1      -1.357   0.179   2.298  0.00  0.00     0.015 SA
ATOM      6  C4  UNL d   1      -2.958  -0.195   1.851  0.00  0.00     0.022 A 
ATOM      7  C5  UNL d   1      -3.057  -1.443   1.283  0.00  0.00     0.026 A 
ATOM      8  C6  UNL d   1      -1.794  -2.123   1.206  0.00  0.00    -0.082 A 
ATOM      9  C7  UNL d   1      -1.466  -3.403   0.700  0.00  0.00     0.045 A 
ENDROOT
TORSDOF 0
ENDMDL
