MODEL 1
REMARK minimizedAffinity -3.30660486
REMARK minimizedRMSD -1
REMARK  0 active torsions:
REMARK  status: ('A' for Active; 'I' for Inactive)
ROOT
ATOM      1  C   UNL d   1       1.904  -2.262  -1.037  0.00  0.00    -0.002 A 
ATOM      2  C1  UNL d   1       1.799  -2.963   0.156  0.00  0.00     0.010 A 
ATOM      3  C2  UNL d   1       2.794  -3.866   0.540  0.00  0.00     0.041 A 
ATOM      4  C3  UNL d   1       3.907  -4.051  -0.303  0.00  0.00    -0.075 A 
ATOM      5  S   UNL d   1       5.248  -5.103  -0.038  0.00  0.00     0.015 SA
ATOM      6  C4  UNL d   1       5.991  -4.645  -1.502  0.00  0.00     0.022 A 
ATOM      7  C5  UNL d   1       5.249  -3.714  -2.189  0.00  0.00     0.026 A 
ATOM      8  C6  UNL d   1       4.036  -3.356  -1.509  0.00  0.00    -0.082 A 
ATOM      9  C7  UNL d   1       3.010  -2.449  -1.870  0.00  0.00     0.045 A 
ENDROOT
TORSDOF 0
ENDMDL
