MODEL 1
REMARK minimizedAffinity -1.69287777
REMARK minimizedRMSD -1
REMARK  0 active torsions:
REMARK  status: ('A' for Active; 'I' for Inactive)
ROOT
ATOM      1  C   UNL d   1       3.376  -2.115  -2.018  0.00  0.00    -0.002 A 
ATOM      2  C1  UNL d   1       4.683  -2.148  -2.485  0.00  0.00     0.010 A 
ATOM      3  C2  UNL d   1       5.562  -3.149  -2.066  0.00  0.00     0.041 A 
ATOM      4  C3  UNL d   1       5.101  -4.126  -1.162  0.00  0.00    -0.075 A 
ATOM      5  S   UNL d   1       6.000  -5.446  -0.511  0.00  0.00     0.015 SA
ATOM      6  C4  UNL d   1       4.670  -5.998   0.402  0.00  0.00     0.022 A 
ATOM      7  C5  UNL d   1       3.560  -5.206   0.227  0.00  0.00     0.026 A 
ATOM      8  C6  UNL d   1       3.790  -4.114  -0.678  0.00  0.00    -0.082 A 
ATOM      9  C7  UNL d   1       2.923  -3.086  -1.121  0.00  0.00     0.045 A 
ENDROOT
TORSDOF 0
ENDMDL
