MODEL 1
REMARK minimizedAffinity 10.7060261
REMARK minimizedRMSD -1
REMARK  0 active torsions:
REMARK  status: ('A' for Active; 'I' for Inactive)
ROOT
ATOM      1  C   UNL d   1       3.728   1.915  -0.798  0.00  0.00    -0.002 A 
ATOM      2  C1  UNL d   1       4.873   2.258  -1.501  0.00  0.00     0.010 A 
ATOM      3  C2  UNL d   1       5.555   3.442  -1.214  0.00  0.00     0.041 A 
ATOM      4  C3  UNL d   1       5.062   4.282  -0.195  0.00  0.00    -0.075 A 
ATOM      5  S   UNL d   1       5.733   5.781   0.331  0.00  0.00     0.015 SA
ATOM      6  C4  UNL d   1       4.515   5.999   1.503  0.00  0.00     0.022 A 
ATOM      7  C5  UNL d   1       3.611   4.964   1.507  0.00  0.00     0.026 A 
ATOM      8  C6  UNL d   1       3.912   3.957   0.528  0.00  0.00    -0.082 A 
ATOM      9  C7  UNL d   1       3.242   2.750   0.212  0.00  0.00     0.045 A 
ENDROOT
TORSDOF 0
ENDMDL
