MODEL 1
REMARK minimizedAffinity 7.48655415
REMARK minimizedRMSD -1
REMARK  0 active torsions:
REMARK  status: ('A' for Active; 'I' for Inactive)
ROOT
ATOM      1  C   UNL d   1       5.592   5.403   0.392  0.00  0.00    -0.002 A 
ATOM      2  C1  UNL d   1       5.264   4.373  -0.478  0.00  0.00     0.010 A 
ATOM      3  C2  UNL d   1       3.949   3.914  -0.571  0.00  0.00     0.041 A 
ATOM      4  C3  UNL d   1       2.959   4.515   0.231  0.00  0.00    -0.075 A 
ATOM      5  S   UNL d   1       1.282   4.118   0.284  0.00  0.00     0.015 SA
ATOM      6  C4  UNL d   1       0.961   5.307   1.462  0.00  0.00     0.022 A 
ATOM      7  C5  UNL d   1       2.094   6.000   1.817  0.00  0.00     0.026 A 
ATOM      8  C6  UNL d   1       3.264   5.555   1.114  0.00  0.00    -0.082 A 
ATOM      9  C7  UNL d   1       4.607   5.997   1.186  0.00  0.00     0.045 A 
ENDROOT
TORSDOF 0
ENDMDL
