MODEL 1
REMARK minimizedAffinity -4.74156284
REMARK minimizedRMSD -1
REMARK  0 active torsions:
REMARK  status: ('A' for Active; 'I' for Inactive)
ROOT
ATOM      1  C1  BNZ d   1       1.206  -1.348   0.860  0.00  0.00     0.000 A 
ATOM      2  C2  BNZ d   1       0.959  -0.001   0.865  0.00  0.00     0.000 A 
ATOM      3  C3  BNZ d   1       1.544   0.822  -0.056  0.00  0.00     0.000 A 
ATOM      4  C4  BNZ d   1       2.406   0.304  -0.955  0.00  0.00     0.000 A 
ATOM      5  C5  BNZ d   1       2.673  -1.051  -0.967  0.00  0.00     0.000 A 
ATOM      6  C6  BNZ d   1       2.052  -1.882  -0.063  0.00  0.00     0.000 A 
ENDROOT
TORSDOF 0
ENDMDL
