MODEL 1
REMARK minimizedAffinity -2.95112967
REMARK minimizedRMSD -1
REMARK  0 active torsions:
REMARK  status: ('A' for Active; 'I' for Inactive)
ROOT
ATOM      1  C1  BNZ d   1       2.960  -1.200  -0.794  0.00  0.00     0.000 A 
ATOM      2  C2  BNZ d   1       1.797  -1.299  -0.078  0.00  0.00     0.000 A 
ATOM      3  C3  BNZ d   1       1.051  -0.189   0.203  0.00  0.00     0.000 A 
ATOM      4  C4  BNZ d   1       1.489   1.023  -0.195  0.00  0.00     0.000 A 
ATOM      5  C5  BNZ d   1       2.665   1.141  -0.909  0.00  0.00     0.000 A 
ATOM      6  C6  BNZ d   1       3.393   0.016  -1.225  0.00  0.00     0.000 A 
ENDROOT
TORSDOF 0
ENDMDL
