MODEL 1
REMARK minimizedAffinity -4.31235123
REMARK minimizedRMSD -1
REMARK  0 active torsions:
REMARK  status: ('A' for Active; 'I' for Inactive)
ROOT
ATOM      1  C1  BNZ d   1       3.333  -0.799  -1.309  0.00  0.00     0.000 A 
ATOM      2  C2  BNZ d   1       2.245  -0.870  -0.480  0.00  0.00     0.000 A 
ATOM      3  C3  BNZ d   1       1.435   0.215  -0.293  0.00  0.00     0.000 A 
ATOM      4  C4  BNZ d   1       1.736   1.380  -0.902  0.00  0.00     0.000 A 
ATOM      5  C5  BNZ d   1       2.835   1.471  -1.733  0.00  0.00     0.000 A 
ATOM      6  C6  BNZ d   1       3.626   0.366  -1.949  0.00  0.00     0.000 A 
ENDROOT
TORSDOF 0
ENDMDL
