MODEL 1
REMARK minimizedAffinity -4.12273884
REMARK minimizedRMSD -1
REMARK  0 active torsions:
REMARK  status: ('A' for Active; 'I' for Inactive)
ROOT
ATOM      1  C1  BNZ d   1       0.631  -0.468   1.521  0.00  0.00     0.000 A 
ATOM      2  C2  BNZ d   1       1.190  -1.659   1.143  0.00  0.00     0.000 A 
ATOM      3  C3  BNZ d   1       2.024  -1.729   0.062  0.00  0.00     0.000 A 
ATOM      4  C4  BNZ d   1       2.266  -0.617  -0.661  0.00  0.00     0.000 A 
ATOM      5  C5  BNZ d   1       1.703   0.590  -0.298  0.00  0.00     0.000 A 
ATOM      6  C6  BNZ d   1       0.895   0.664   0.813  0.00  0.00     0.000 A 
ENDROOT
TORSDOF 0
ENDMDL
