MODEL 1
REMARK minimizedAffinity -3.39429426
REMARK minimizedRMSD -1
REMARK  0 active torsions:
REMARK  status: ('A' for Active; 'I' for Inactive)
ROOT
ATOM      1  C1  BNZ d   1       1.848  -0.334   0.014  0.00  0.00     0.000 A 
ATOM      2  C2  BNZ d   1       0.829  -0.380   0.927  0.00  0.00     0.000 A 
ATOM      3  C3  BNZ d   1       0.458  -1.563   1.503  0.00  0.00     0.000 A 
ATOM      4  C4  BNZ d   1       1.079  -2.702   1.136  0.00  0.00     0.000 A 
ATOM      5  C5  BNZ d   1       2.102  -2.674   0.209  0.00  0.00     0.000 A 
ATOM      6  C6  BNZ d   1       2.499  -1.476  -0.340  0.00  0.00     0.000 A 
ENDROOT
TORSDOF 0
ENDMDL
