MODEL 1
REMARK minimizedAffinity -2.32201409
REMARK minimizedRMSD -1
REMARK  0 active torsions:
REMARK  status: ('A' for Active; 'I' for Inactive)
ROOT
ATOM      1  C1  BNZ d   1       0.858  -1.033   1.222  0.00  0.00     0.000 A 
ATOM      2  C2  BNZ d   1       1.893  -1.750   0.683  0.00  0.00     0.000 A 
ATOM      3  C3  BNZ d   1       2.676  -1.217  -0.302  0.00  0.00     0.000 A 
ATOM      4  C4  BNZ d   1       2.398   0.015  -0.776  0.00  0.00     0.000 A 
ATOM      5  C5  BNZ d   1       1.351   0.747  -0.250  0.00  0.00     0.000 A 
ATOM      6  C6  BNZ d   1       0.590   0.222   0.769  0.00  0.00     0.000 A 
ENDROOT
TORSDOF 0
ENDMDL
