MODEL 1
REMARK minimizedAffinity -0.855862617
REMARK minimizedRMSD -1
REMARK  0 active torsions:
REMARK  status: ('A' for Active; 'I' for Inactive)
ROOT
ATOM      1  C1  BNZ d   1       3.103  -1.293  -1.189  0.00  0.00     0.000 A 
ATOM      2  C2  BNZ d   1       3.089   0.051  -0.924  0.00  0.00     0.000 A 
ATOM      3  C3  BNZ d   1       2.093   0.606  -0.171  0.00  0.00     0.000 A 
ATOM      4  C4  BNZ d   1       1.091  -0.175   0.282  0.00  0.00     0.000 A 
ATOM      5  C5  BNZ d   1       1.086  -1.530   0.016  0.00  0.00     0.000 A 
ATOM      6  C6  BNZ d   1       2.111  -2.092  -0.709  0.00  0.00     0.000 A 
ENDROOT
TORSDOF 0
ENDMDL
