MODEL 1
REMARK minimizedAffinity -2.81071138
REMARK minimizedRMSD -1
REMARK  0 active torsions:
REMARK  status: ('A' for Active; 'I' for Inactive)
ROOT
ATOM      1  C1  BNZ d   1       0.834  -1.654   0.611  0.00  0.00     0.000 A 
ATOM      2  C2  BNZ d   1       1.395  -2.082  -0.563  0.00  0.00     0.000 A 
ATOM      3  C3  BNZ d   1       2.373  -1.352  -1.178  0.00  0.00     0.000 A 
ATOM      4  C4  BNZ d   1       2.760  -0.176  -0.641  0.00  0.00     0.000 A 
ATOM      5  C5  BNZ d   1       2.196   0.274   0.536  0.00  0.00     0.000 A 
ATOM      6  C6  BNZ d   1       1.240  -0.483   1.173  0.00  0.00     0.000 A 
ENDROOT
TORSDOF 0
ENDMDL
