MODEL 1
REMARK minimizedAffinity -3.59409165
REMARK minimizedRMSD -1
REMARK  0 active torsions:
REMARK  status: ('A' for Active; 'I' for Inactive)
ROOT
ATOM      1  C1  BNZ d   1       0.851  -1.137   0.515  0.00  0.00     0.000 A 
ATOM      2  C2  BNZ d   1       1.395   0.113   0.392  0.00  0.00     0.000 A 
ATOM      3  C3  BNZ d   1       2.599   0.295  -0.228  0.00  0.00     0.000 A 
ATOM      4  C4  BNZ d   1       3.276  -0.777  -0.688  0.00  0.00     0.000 A 
ATOM      5  C5  BNZ d   1       2.745  -2.046  -0.563  0.00  0.00     0.000 A 
ATOM      6  C6  BNZ d   1       1.515  -2.220   0.027  0.00  0.00     0.000 A 
ENDROOT
TORSDOF 0
ENDMDL
