MODEL 1
REMARK minimizedAffinity -4.65897226
REMARK minimizedRMSD -1
REMARK  0 active torsions:
REMARK  status: ('A' for Active; 'I' for Inactive)
ROOT
ATOM      1  C1  BNZ d   1       1.442   0.232   0.231  0.00  0.00     0.000 A 
ATOM      2  C2  BNZ d   1       1.611  -0.934   0.929  0.00  0.00     0.000 A 
ATOM      3  C3  BNZ d   1       2.457  -1.906   0.473  0.00  0.00     0.000 A 
ATOM      4  C4  BNZ d   1       3.101  -1.728  -0.698  0.00  0.00     0.000 A 
ATOM      5  C5  BNZ d   1       2.934  -0.562  -1.418  0.00  0.00     0.000 A 
ATOM      6  C6  BNZ d   1       2.112   0.430  -0.937  0.00  0.00     0.000 A 
ENDROOT
TORSDOF 0
ENDMDL
