MODEL 1
REMARK minimizedAffinity -4.31750393
REMARK minimizedRMSD -1
REMARK  0 active torsions:
REMARK  status: ('A' for Active; 'I' for Inactive)
ROOT
ATOM      1  C1  BNZ d   1       2.948  -1.119  -0.903  0.00  0.00     0.000 A 
ATOM      2  C2  BNZ d   1       2.155  -1.832  -0.044  0.00  0.00     0.000 A 
ATOM      3  C3  BNZ d   1       1.112  -1.234   0.606  0.00  0.00     0.000 A 
ATOM      4  C4  BNZ d   1       0.888   0.084   0.428  0.00  0.00     0.000 A 
ATOM      5  C5  BNZ d   1       1.685   0.819  -0.428  0.00  0.00     0.000 A 
ATOM      6  C6  BNZ d   1       2.710   0.205  -1.110  0.00  0.00     0.000 A 
ENDROOT
TORSDOF 0
ENDMDL
