MODEL 1
REMARK minimizedAffinity -5.87631464
REMARK minimizedRMSD -1
REMARK  0 active torsions:
REMARK  status: ('A' for Active; 'I' for Inactive)
ROOT
ATOM      1  C1  BNZ d   1       2.992  -1.342  -0.652  0.00  0.00     0.000 A 
ATOM      2  C2  BNZ d   1       1.827  -1.127   0.035  0.00  0.00     0.000 A 
ATOM      3  C3  BNZ d   1       1.199   0.086  -0.014  0.00  0.00     0.000 A 
ATOM      4  C4  BNZ d   1       1.756   1.092  -0.718  0.00  0.00     0.000 A 
ATOM      5  C5  BNZ d   1       2.934   0.894  -1.409  0.00  0.00     0.000 A 
ATOM      6  C6  BNZ d   1       3.544  -0.339  -1.388  0.00  0.00     0.000 A 
ENDROOT
TORSDOF 0
ENDMDL
