MODEL 1
REMARK minimizedAffinity -5.10652208
REMARK minimizedRMSD -1
REMARK  0 active torsions:
REMARK  status: ('A' for Active; 'I' for Inactive)
ROOT
ATOM      1  C1  BNZ d   1       2.186   0.758  -1.295  0.00  0.00     0.000 A 
ATOM      2  C2  BNZ d   1       1.295   0.588  -0.269  0.00  0.00     0.000 A 
ATOM      3  C3  BNZ d   1       1.292  -0.560   0.473  0.00  0.00     0.000 A 
ATOM      4  C4  BNZ d   1       2.152  -1.552   0.163  0.00  0.00     0.000 A 
ATOM      5  C5  BNZ d   1       3.050  -1.399  -0.875  0.00  0.00     0.000 A 
ATOM      6  C6  BNZ d   1       3.076  -0.227  -1.594  0.00  0.00     0.000 A 
ENDROOT
TORSDOF 0
ENDMDL
