MODEL 1
REMARK minimizedAffinity -3.61678982
REMARK minimizedRMSD -1
REMARK  0 active torsions:
REMARK  status: ('A' for Active; 'I' for Inactive)
ROOT
ATOM      1  C1  BNZ d   1       4.426   0.072  -2.132  0.00  0.00     0.000 A 
ATOM      2  C2  BNZ d   1       4.124  -1.196  -1.711  0.00  0.00     0.000 A 
ATOM      3  C3  BNZ d   1       3.050  -1.427  -0.898  0.00  0.00     0.000 A 
ATOM      4  C4  BNZ d   1       2.303  -0.386  -0.476  0.00  0.00     0.000 A 
ATOM      5  C5  BNZ d   1       2.600   0.899  -0.884  0.00  0.00     0.000 A 
ATOM      6  C6  BNZ d   1       3.659   1.123  -1.733  0.00  0.00     0.000 A 
ENDROOT
TORSDOF 0
ENDMDL
