MODEL 1
REMARK minimizedAffinity 10.23211
REMARK minimizedRMSD -1
REMARK  3 active torsions:
REMARK  status: ('A' for Active; 'I' for Inactive)
REMARK    1  A    between atoms: C3'_2  and  C2'_3 
REMARK    2  A    between atoms: C2'_3  and  C1'_4 
REMARK    3  A    between atoms: C1'_4  and  C1_5 
ROOT
ATOM      1  C1  N4B d   1       3.811   1.443  -5.247  0.00  0.00    -0.075 A 
ATOM      2  C2  N4B d   1       4.960   1.202  -4.463  0.00  0.00     0.002 A 
ATOM      3  C3  N4B d   1       5.997   2.102  -4.469  0.00  0.00     0.002 A 
ATOM      4  C4  N4B d   1       5.916   3.236  -5.264  0.00  0.00    -0.004 A 
ATOM      5  C5  N4B d   1       4.792   3.474  -5.999  0.00  0.00     0.002 A 
ATOM      6  C6  N4B d   1       3.740   2.580  -5.999  0.00  0.00     0.002 A 
ENDROOT
BRANCH   1   7
ATOM      7  C1' N4B d   1       2.689   0.445  -5.339  0.00  0.00     0.057 C 
BRANCH   7   8
ATOM      8  C2' N4B d   1       1.400   1.095  -4.844  0.00  0.00     0.009 C 
BRANCH   8   9
ATOM      9  C3' N4B d   1       0.170   0.301  -5.251  0.00  0.00     0.004 C 
ATOM     10  C4' N4B d   1       0.041  -0.993  -4.503  0.00  0.00     0.003 C 
ENDBRANCH   8   9
ENDBRANCH   7   8
ENDBRANCH   1   7
TORSDOF 3
ENDMDL
