MODEL 1
REMARK minimizedAffinity 6.25576496
REMARK minimizedRMSD -1
REMARK  3 active torsions:
REMARK  status: ('A' for Active; 'I' for Inactive)
REMARK    1  A    between atoms: C3'_2  and  C2'_3 
REMARK    2  A    between atoms: C2'_3  and  C1'_4 
REMARK    3  A    between atoms: C1'_4  and  C1_5 
ROOT
ATOM      1  C1  N4B d   1       1.781  -0.980  -4.650  0.00  0.00    -0.075 A 
ATOM      2  C2  N4B d   1       0.822  -0.062  -4.168  0.00  0.00     0.002 A 
ATOM      3  C3  N4B d   1      -0.514  -0.284  -4.393  0.00  0.00     0.002 A 
ATOM      4  C4  N4B d   1      -0.913  -1.402  -5.111  0.00  0.00    -0.004 A 
ATOM      5  C5  N4B d   1       0.018  -2.297  -5.551  0.00  0.00     0.002 A 
ATOM      6  C6  N4B d   1       1.364  -2.089  -5.328  0.00  0.00     0.002 A 
ENDROOT
BRANCH   1   7
ATOM      7  C1' N4B d   1       3.258  -0.737  -4.502  0.00  0.00     0.057 C 
BRANCH   7   8
ATOM      8  C2' N4B d   1       3.623   0.567  -5.206  0.00  0.00     0.009 C 
BRANCH   8   9
ATOM      9  C3' N4B d   1       4.913   0.443  -5.998  0.00  0.00     0.004 C 
ATOM     10  C4' N4B d   1       5.893   1.535  -5.687  0.00  0.00     0.003 C 
ENDBRANCH   8   9
ENDBRANCH   7   8
ENDBRANCH   1   7
TORSDOF 3
ENDMDL
