MODEL 1
REMARK minimizedAffinity 8.0455122
REMARK minimizedRMSD -1
REMARK  3 active torsions:
REMARK  status: ('A' for Active; 'I' for Inactive)
REMARK    1  A    between atoms: C3'_2  and  C2'_3 
REMARK    2  A    between atoms: C2'_3  and  C1'_4 
REMARK    3  A    between atoms: C1'_4  and  C1_5 
ROOT
ATOM      1  C1  N4B d   1      -1.845  -0.644   1.550  0.00  0.00    -0.075 A 
ATOM      2  C2  N4B d   1      -1.758  -1.408   0.366  0.00  0.00     0.002 A 
ATOM      3  C3  N4B d   1      -2.764  -2.284   0.039  0.00  0.00     0.002 A 
ATOM      4  C4  N4B d   1      -3.852  -2.425   0.886  0.00  0.00    -0.004 A 
ATOM      5  C5  N4B d   1      -3.941  -1.665   2.015  0.00  0.00     0.002 A 
ATOM      6  C6  N4B d   1      -2.939  -0.777   2.354  0.00  0.00     0.002 A 
ENDROOT
BRANCH   1   7
ATOM      7  C1' N4B d   1      -0.729   0.264   1.993  0.00  0.00     0.057 C 
BRANCH   7   8
ATOM      8  C2' N4B d   1       0.590  -0.500   1.937  0.00  0.00     0.009 C 
BRANCH   8   9
ATOM      9  C3' N4B d   1       1.359  -0.402   3.243  0.00  0.00     0.004 C 
ATOM     10  C4' N4B d   1       1.703  -1.744   3.818  0.00  0.00     0.003 C 
ENDBRANCH   8   9
ENDBRANCH   7   8
ENDBRANCH   1   7
TORSDOF 3
ENDMDL
