MODEL 1
REMARK minimizedAffinity 6.85369921
REMARK minimizedRMSD -1
REMARK  3 active torsions:
REMARK  status: ('A' for Active; 'I' for Inactive)
REMARK    1  A    between atoms: C3'_2  and  C2'_3 
REMARK    2  A    between atoms: C2'_3  and  C1'_4 
REMARK    3  A    between atoms: C1'_4  and  C1_5 
ROOT
ATOM      1  C1  N4B d   1      -1.597  -3.670  -3.276  0.00  0.00    -0.075 A 
ATOM      2  C2  N4B d   1      -1.596  -3.477  -4.675  0.00  0.00     0.002 A 
ATOM      3  C3  N4B d   1      -1.764  -4.549  -5.516  0.00  0.00     0.002 A 
ATOM      4  C4  N4B d   1      -1.915  -5.821  -4.984  0.00  0.00    -0.004 A 
ATOM      5  C5  N4B d   1      -1.941  -5.996  -3.631  0.00  0.00     0.002 A 
ATOM      6  C6  N4B d   1      -1.777  -4.926  -2.774  0.00  0.00     0.002 A 
ENDROOT
BRANCH   1   7
ATOM      7  C1' N4B d   1      -1.331  -2.541  -2.318  0.00  0.00     0.057 C 
BRANCH   7   8
ATOM      8  C2' N4B d   1      -0.058  -1.814  -2.742  0.00  0.00     0.009 C 
BRANCH   8   9
ATOM      9  C3' N4B d   1      -0.320  -0.809  -3.851  0.00  0.00     0.004 C 
ATOM     10  C4' N4B d   1       0.888   0.014  -4.187  0.00  0.00     0.003 C 
ENDBRANCH   8   9
ENDBRANCH   7   8
ENDBRANCH   1   7
TORSDOF 3
ENDMDL
