MODEL 1
REMARK minimizedAffinity 3.21198463
REMARK minimizedRMSD -1
REMARK  3 active torsions:
REMARK  status: ('A' for Active; 'I' for Inactive)
REMARK    1  A    between atoms: C3'_2  and  C2'_3 
REMARK    2  A    between atoms: C2'_3  and  C1'_4 
REMARK    3  A    between atoms: C1'_4  and  C1_5 
ROOT
ATOM      1  C1  N4B d   1       2.437  -4.890   5.443  0.00  0.00    -0.075 A 
ATOM      2  C2  N4B d   1       1.265  -5.451   5.998  0.00  0.00     0.002 A 
ATOM      3  C3  N4B d   1       0.033  -5.085   5.513  0.00  0.00     0.002 A 
ATOM      4  C4  N4B d   1      -0.053  -4.150   4.493  0.00  0.00    -0.004 A 
ATOM      5  C5  N4B d   1       1.085  -3.632   3.945  0.00  0.00     0.002 A 
ATOM      6  C6  N4B d   1       2.330  -3.994   4.420  0.00  0.00     0.002 A 
ENDROOT
BRANCH   1   7
ATOM      7  C1' N4B d   1       3.802  -5.194   5.997  0.00  0.00     0.057 C 
BRANCH   7   8
ATOM      8  C2' N4B d   1       4.747  -4.044   5.660  0.00  0.00     0.009 C 
BRANCH   8   9
ATOM      9  C3' N4B d   1       5.998  -4.528   4.948  0.00  0.00     0.004 C 
ATOM     10  C4' N4B d   1       5.911  -5.966   4.533  0.00  0.00     0.003 C 
ENDBRANCH   8   9
ENDBRANCH   7   8
ENDBRANCH   1   7
TORSDOF 3
ENDMDL
