MODEL 1
REMARK minimizedAffinity 4.54107809
REMARK minimizedRMSD -1
REMARK  3 active torsions:
REMARK  status: ('A' for Active; 'I' for Inactive)
REMARK    1  A    between atoms: C3'_2  and  C2'_3 
REMARK    2  A    between atoms: C2'_3  and  C1'_4 
REMARK    3  A    between atoms: C1'_4  and  C1_5 
ROOT
ATOM      1  C1  N4B d   1       2.055  -1.295  -0.909  0.00  0.00    -0.075 A 
ATOM      2  C2  N4B d   1       1.728  -0.807   0.376  0.00  0.00     0.002 A 
ATOM      3  C3  N4B d   1       1.985  -1.573   1.486  0.00  0.00     0.002 A 
ATOM      4  C4  N4B d   1       2.549  -2.831   1.337  0.00  0.00    -0.004 A 
ATOM      5  C5  N4B d   1       2.885  -3.284   0.095  0.00  0.00     0.002 A 
ATOM      6  C6  N4B d   1       2.636  -2.524  -1.030  0.00  0.00     0.002 A 
ENDROOT
BRANCH   1   7
ATOM      7  C1' N4B d   1       1.714  -0.530  -2.159  0.00  0.00     0.057 C 
BRANCH   7   8
ATOM      8  C2' N4B d   1       2.051   0.943  -1.952  0.00  0.00     0.009 C 
BRANCH   8   9
ATOM      9  C3' N4B d   1       2.616   1.579  -3.211  0.00  0.00     0.004 C 
ATOM     10  C4' N4B d   1       2.057   0.979  -4.466  0.00  0.00     0.003 C 
ENDBRANCH   8   9
ENDBRANCH   7   8
ENDBRANCH   1   7
TORSDOF 3
ENDMDL
