MODEL 1
REMARK minimizedAffinity 1.52071714
REMARK minimizedRMSD -1
REMARK  3 active torsions:
REMARK  status: ('A' for Active; 'I' for Inactive)
REMARK    1  A    between atoms: C3'_2  and  C2'_3 
REMARK    2  A    between atoms: C2'_3  and  C1'_4 
REMARK    3  A    between atoms: C1'_4  and  C1_5 
ROOT
ATOM      1  C1  N4B d   1       1.414  -0.878   2.532  0.00  0.00    -0.075 A 
ATOM      2  C2  N4B d   1       0.974   0.424   2.857  0.00  0.00     0.002 A 
ATOM      3  C3  N4B d   1      -0.369   0.709   2.886  0.00  0.00     0.002 A 
ATOM      4  C4  N4B d   1      -1.287  -0.284   2.575  0.00  0.00    -0.004 A 
ATOM      5  C5  N4B d   1      -0.855  -1.545   2.287  0.00  0.00     0.002 A 
ATOM      6  C6  N4B d   1       0.492  -1.847   2.259  0.00  0.00     0.002 A 
ENDROOT
BRANCH   1   7
ATOM      7  C1' N4B d   1       2.874  -1.215   2.405  0.00  0.00     0.057 C 
BRANCH   7   8
ATOM      8  C2' N4B d   1       3.341  -0.891   0.989  0.00  0.00     0.009 C 
BRANCH   8   9
ATOM      9  C3' N4B d   1       2.743  -1.837  -0.038  0.00  0.00     0.004 C 
ATOM     10  C4' N4B d   1       2.045  -1.119  -1.153  0.00  0.00     0.003 C 
ENDBRANCH   8   9
ENDBRANCH   7   8
ENDBRANCH   1   7
TORSDOF 3
ENDMDL
