MODEL 1
REMARK minimizedAffinity 5.70159578
REMARK minimizedRMSD -1
REMARK  3 active torsions:
REMARK  status: ('A' for Active; 'I' for Inactive)
REMARK    1  A    between atoms: C3'_2  and  C2'_3 
REMARK    2  A    between atoms: C2'_3  and  C1'_4 
REMARK    3  A    between atoms: C1'_4  and  C1_5 
ROOT
ATOM      1  C1  N4B d   1       2.449   0.007  -0.334  0.00  0.00    -0.075 A 
ATOM      2  C2  N4B d   1       2.794   1.057   0.545  0.00  0.00     0.002 A 
ATOM      3  C3  N4B d   1       2.559   2.361   0.182  0.00  0.00     0.002 A 
ATOM      4  C4  N4B d   1       2.000   2.638  -1.057  0.00  0.00    -0.004 A 
ATOM      5  C5  N4B d   1       1.647   1.617  -1.889  0.00  0.00     0.002 A 
ATOM      6  C6  N4B d   1       1.874   0.302  -1.536  0.00  0.00     0.002 A 
ENDROOT
BRANCH   1   7
ATOM      7  C1' N4B d   1       2.766  -1.429  -0.018  0.00  0.00     0.057 C 
BRANCH   7   8
ATOM      8  C2' N4B d   1       4.044  -1.833  -0.747  0.00  0.00     0.009 C 
BRANCH   8   9
ATOM      9  C3' N4B d   1       5.213  -2.006   0.208  0.00  0.00     0.004 C 
ATOM     10  C4' N4B d   1       5.999  -0.743   0.398  0.00  0.00     0.003 C 
ENDBRANCH   8   9
ENDBRANCH   7   8
ENDBRANCH   1   7
TORSDOF 3
ENDMDL
