MODEL 1
REMARK minimizedAffinity 2.39211416
REMARK minimizedRMSD -1
REMARK  3 active torsions:
REMARK  status: ('A' for Active; 'I' for Inactive)
REMARK    1  A    between atoms: C3'_2  and  C2'_3 
REMARK    2  A    between atoms: C2'_3  and  C1'_4 
REMARK    3  A    between atoms: C1'_4  and  C1_5 
ROOT
ATOM      1  C1  N4B d   1       1.205  -1.307   2.449  0.00  0.00    -0.075 A 
ATOM      2  C2  N4B d   1       1.136  -1.098   1.054  0.00  0.00     0.002 A 
ATOM      3  C3  N4B d   1       1.951  -1.813   0.211  0.00  0.00     0.002 A 
ATOM      4  C4  N4B d   1       2.853  -2.725   0.740  0.00  0.00    -0.004 A 
ATOM      5  C5  N4B d   1       2.896  -2.939   2.086  0.00  0.00     0.002 A 
ATOM      6  C6  N4B d   1       2.079  -2.230   2.945  0.00  0.00     0.002 A 
ENDROOT
BRANCH   1   7
ATOM      7  C1' N4B d   1       0.395  -0.487   3.416  0.00  0.00     0.057 C 
BRANCH   7   8
ATOM      8  C2' N4B d   1      -1.069  -0.509   2.986  0.00  0.00     0.009 C 
BRANCH   8   9
ATOM      9  C3' N4B d   1      -1.802   0.755   3.403  0.00  0.00     0.004 C 
ATOM     10  C4' N4B d   1      -3.205   0.813   2.876  0.00  0.00     0.003 C 
ENDBRANCH   8   9
ENDBRANCH   7   8
ENDBRANCH   1   7
TORSDOF 3
ENDMDL
