MODEL 1
REMARK minimizedAffinity 10.5041456
REMARK minimizedRMSD -1
REMARK  3 active torsions:
REMARK  status: ('A' for Active; 'I' for Inactive)
REMARK    1  A    between atoms: C3'_2  and  C2'_3 
REMARK    2  A    between atoms: C2'_3  and  C1'_4 
REMARK    3  A    between atoms: C1'_4  and  C1_5 
ROOT
ATOM      1  C1  N4B d   1       1.063  -1.624   1.101  0.00  0.00    -0.075 A 
ATOM      2  C2  N4B d   1       2.401  -2.074   1.118  0.00  0.00     0.002 A 
ATOM      3  C3  N4B d   1       3.130  -2.105  -0.045  0.00  0.00     0.002 A 
ATOM      4  C4  N4B d   1       2.539  -1.709  -1.236  0.00  0.00    -0.004 A 
ATOM      5  C5  N4B d   1       1.254  -1.251  -1.239  0.00  0.00     0.002 A 
ATOM      6  C6  N4B d   1       0.510  -1.212  -0.077  0.00  0.00     0.002 A 
ENDROOT
BRANCH   1   7
ATOM      7  C1' N4B d   1       0.199  -1.654   2.333  0.00  0.00     0.057 C 
BRANCH   7   8
ATOM      8  C2' N4B d   1       0.336  -0.327   3.073  0.00  0.00     0.009 C 
BRANCH   8   9
ATOM      9  C3' N4B d   1       1.768  -0.063   3.506  0.00  0.00     0.004 C 
ATOM     10  C4' N4B d   1       2.124   1.393   3.480  0.00  0.00     0.003 C 
ENDBRANCH   8   9
ENDBRANCH   7   8
ENDBRANCH   1   7
TORSDOF 3
ENDMDL
