MODEL 1
REMARK minimizedAffinity 2.09638691
REMARK minimizedRMSD -1
REMARK  3 active torsions:
REMARK  status: ('A' for Active; 'I' for Inactive)
REMARK    1  A    between atoms: C3'_2  and  C2'_3 
REMARK    2  A    between atoms: C2'_3  and  C1'_4 
REMARK    3  A    between atoms: C1'_4  and  C1_5 
ROOT
ATOM      1  C1  N4B d   1       1.237  -1.515   1.393  0.00  0.00    -0.075 A 
ATOM      2  C2  N4B d   1      -0.160  -1.718   1.353  0.00  0.00     0.002 A 
ATOM      3  C3  N4B d   1      -0.971  -1.093   2.269  0.00  0.00     0.002 A 
ATOM      4  C4  N4B d   1      -0.408  -0.279   3.240  0.00  0.00    -0.004 A 
ATOM      5  C5  N4B d   1       0.940  -0.068   3.255  0.00  0.00     0.002 A 
ATOM      6  C6  N4B d   1       1.766  -0.686   2.339  0.00  0.00     0.002 A 
ENDROOT
BRANCH   1   7
ATOM      7  C1' N4B d   1       2.171  -2.244   0.467  0.00  0.00     0.057 C 
BRANCH   7   8
ATOM      8  C2' N4B d   1       1.885  -1.819  -0.970  0.00  0.00     0.009 C 
BRANCH   8   9
ATOM      9  C3' N4B d   1       0.803  -0.756  -1.044  0.00  0.00     0.004 C 
ATOM     10  C4' N4B d   1       1.179   0.395  -1.928  0.00  0.00     0.003 C 
ENDBRANCH   8   9
ENDBRANCH   7   8
ENDBRANCH   1   7
TORSDOF 3
ENDMDL
