MODEL 1
REMARK minimizedAffinity 4.35121107
REMARK minimizedRMSD -1
REMARK  3 active torsions:
REMARK  status: ('A' for Active; 'I' for Inactive)
REMARK    1  A    between atoms: C3'_2  and  C2'_3 
REMARK    2  A    between atoms: C2'_3  and  C1'_4 
REMARK    3  A    between atoms: C1'_4  and  C1_5 
ROOT
ATOM      1  C1  N4B d   1       1.667  -0.215   0.629  0.00  0.00    -0.075 A 
ATOM      2  C2  N4B d   1       2.116   1.123   0.631  0.00  0.00     0.002 A 
ATOM      3  C3  N4B d   1       2.017   1.883  -0.509  0.00  0.00     0.002 A 
ATOM      4  C4  N4B d   1       1.490   1.322  -1.663  0.00  0.00    -0.004 A 
ATOM      5  C5  N4B d   1       1.035   0.036  -1.650  0.00  0.00     0.002 A 
ATOM      6  C6  N4B d   1       1.125  -0.738  -0.510  0.00  0.00     0.002 A 
ENDROOT
BRANCH   1   7
ATOM      7  C1' N4B d   1       1.834  -1.111   1.826  0.00  0.00     0.057 C 
BRANCH   7   8
ATOM      8  C2' N4B d   1       3.119  -1.919   1.671  0.00  0.00     0.009 C 
BRANCH   8   9
ATOM      9  C3' N4B d   1       2.927  -3.125   0.768  0.00  0.00     0.004 C 
ATOM     10  C4' N4B d   1       3.755  -3.053  -0.480  0.00  0.00     0.003 C 
ENDBRANCH   8   9
ENDBRANCH   7   8
ENDBRANCH   1   7
TORSDOF 3
ENDMDL
