MODEL 1
REMARK minimizedAffinity 4.07690954
REMARK minimizedRMSD -1
REMARK  3 active torsions:
REMARK  status: ('A' for Active; 'I' for Inactive)
REMARK    1  A    between atoms: C3'_2  and  C2'_3 
REMARK    2  A    between atoms: C2'_3  and  C1'_4 
REMARK    3  A    between atoms: C1'_4  and  C1_5 
ROOT
ATOM      1  C1  N4B d   1       1.311  -1.456   2.296  0.00  0.00    -0.075 A 
ATOM      2  C2  N4B d   1       1.064  -1.078   0.958  0.00  0.00     0.002 A 
ATOM      3  C3  N4B d   1       1.980  -1.376  -0.020  0.00  0.00     0.002 A 
ATOM      4  C4  N4B d   1       3.155  -2.031   0.317  0.00  0.00    -0.004 A 
ATOM      5  C5  N4B d   1       3.375  -2.415   1.607  0.00  0.00     0.002 A 
ATOM      6  C6  N4B d   1       2.461  -2.126   2.600  0.00  0.00     0.002 A 
ENDROOT
BRANCH   1   7
ATOM      7  C1' N4B d   1       0.379  -1.077   3.414  0.00  0.00     0.057 C 
BRANCH   7   8
ATOM      8  C2' N4B d   1      -0.986  -0.724   2.830  0.00  0.00     0.009 C 
BRANCH   8   9
ATOM      9  C3' N4B d   1      -1.672   0.379   3.617  0.00  0.00     0.004 C 
ATOM     10  C4' N4B d   1      -3.003   0.762   3.041  0.00  0.00     0.003 C 
ENDBRANCH   8   9
ENDBRANCH   7   8
ENDBRANCH   1   7
TORSDOF 3
ENDMDL
