MODEL 1
REMARK minimizedAffinity 7.30288792
REMARK minimizedRMSD -1
REMARK  0 active torsions:
REMARK  status: ('A' for Active; 'I' for Inactive)
ROOT
ATOM      1  C   UNL d   1      -2.356  -2.267  -5.963  0.00  0.00     0.172 C 
ATOM      2  N   UNL d   1      -2.666  -3.677  -5.970  0.00  0.00    -0.070 N 
ATOM      3  C1  UNL d   1      -3.924  -4.218  -5.960  0.00  0.00    -0.004 A 
ATOM      4  C2  UNL d   1      -3.794  -5.590  -5.972  0.00  0.00    -0.047 A 
ATOM      5  C3  UNL d   1      -2.410  -5.884  -5.989  0.00  0.00    -0.047 A 
ATOM      6  C4  UNL d   1      -1.735  -4.681  -5.987  0.00  0.00    -0.004 A 
ENDROOT
TORSDOF 0
ENDMDL
