MODEL 1
REMARK minimizedAffinity -0.848433912
REMARK minimizedRMSD -1
REMARK  0 active torsions:
REMARK  status: ('A' for Active; 'I' for Inactive)
ROOT
ATOM      1  C   UNL d   1       3.352  -1.864  -2.632  0.00  0.00     0.172 C 
ATOM      2  N   UNL d   1       4.398  -2.566  -3.339  0.00  0.00    -0.070 N 
ATOM      3  C1  UNL d   1       5.096  -3.645  -2.867  0.00  0.00    -0.004 A 
ATOM      4  C2  UNL d   1       5.999  -4.021  -3.838  0.00  0.00    -0.047 A 
ATOM      5  C3  UNL d   1       5.839  -3.136  -4.930  0.00  0.00    -0.047 A 
ATOM      6  C4  UNL d   1       4.841  -2.246  -4.595  0.00  0.00    -0.004 A 
ENDROOT
TORSDOF 0
ENDMDL
