MODEL 1
REMARK minimizedAffinity 1.82077551
REMARK minimizedRMSD -1
REMARK  0 active torsions:
REMARK  status: ('A' for Active; 'I' for Inactive)
ROOT
ATOM      1  C   UNL d   1       0.412   0.483   1.521  0.00  0.00     0.172 C 
ATOM      2  N   UNL d   1       0.700   1.768   0.929  0.00  0.00    -0.070 N 
ATOM      3  C1  UNL d   1       1.191   2.861   1.593  0.00  0.00    -0.004 A 
ATOM      4  C2  UNL d   1       1.328   3.883   0.680  0.00  0.00    -0.047 A 
ATOM      5  C3  UNL d   1       0.904   3.388  -0.577  0.00  0.00    -0.047 A 
ATOM      6  C4  UNL d   1       0.521   2.076  -0.393  0.00  0.00    -0.004 A 
ENDROOT
TORSDOF 0
ENDMDL
