MODEL 1
REMARK minimizedAffinity -2.11907578
REMARK minimizedRMSD -1
REMARK  0 active torsions:
REMARK  status: ('A' for Active; 'I' for Inactive)
ROOT
ATOM      1  C   UNL d   1       1.254  -4.116  -1.221  0.00  0.00     0.172 C 
ATOM      2  N   UNL d   1       2.586  -3.742  -1.634  0.00  0.00    -0.070 N 
ATOM      3  C1  UNL d   1       3.223  -2.574  -1.310  0.00  0.00    -0.004 A 
ATOM      4  C2  UNL d   1       4.471  -2.598  -1.894  0.00  0.00    -0.047 A 
ATOM      5  C3  UNL d   1       4.588  -3.823  -2.593  0.00  0.00    -0.047 A 
ATOM      6  C4  UNL d   1       3.407  -4.511  -2.416  0.00  0.00    -0.004 A 
ENDROOT
TORSDOF 0
ENDMDL
