MODEL 1
REMARK minimizedAffinity 0.165540546
REMARK minimizedRMSD -1
REMARK  0 active torsions:
REMARK  status: ('A' for Active; 'I' for Inactive)
ROOT
ATOM      1  C   UNL d   1       0.431   1.357  -0.546  0.00  0.00     0.172 C 
ATOM      2  N   UNL d   1       0.354   0.942   0.835  0.00  0.00    -0.070 N 
ATOM      3  C1  UNL d   1       0.305   1.778   1.918  0.00  0.00    -0.004 A 
ATOM      4  C2  UNL d   1       0.238   0.997   3.052  0.00  0.00    -0.047 A 
ATOM      5  C3  UNL d   1       0.247  -0.355   2.635  0.00  0.00    -0.047 A 
ATOM      6  C4  UNL d   1       0.320  -0.360   1.258  0.00  0.00    -0.004 A 
ENDROOT
TORSDOF 0
ENDMDL
