MODEL 1
REMARK minimizedAffinity -3.41246033
REMARK minimizedRMSD -1
REMARK  0 active torsions:
REMARK  status: ('A' for Active; 'I' for Inactive)
ROOT
ATOM      1  C   UNL d   1       0.306   3.630  -0.630  0.00  0.00     0.172 C 
ATOM      2  N   UNL d   1       0.156   2.458   0.200  0.00  0.00    -0.070 N 
ATOM      3  C1  UNL d   1       0.333   1.163  -0.209  0.00  0.00    -0.004 A 
ATOM      4  C2  UNL d   1       0.098   0.343   0.874  0.00  0.00    -0.047 A 
ATOM      5  C3  UNL d   1      -0.233   1.174   1.970  0.00  0.00    -0.047 A 
ATOM      6  C4  UNL d   1      -0.190   2.478   1.525  0.00  0.00    -0.004 A 
ENDROOT
TORSDOF 0
ENDMDL
