MODEL 1
REMARK minimizedAffinity 10.061903
REMARK minimizedRMSD -1
REMARK  0 active torsions:
REMARK  status: ('A' for Active; 'I' for Inactive)
ROOT
ATOM      1  C   UNL d   1      -3.142   5.170   1.366  0.00  0.00     0.172 C 
ATOM      2  N   UNL d   1      -2.270   4.023   1.265  0.00  0.00    -0.070 N 
ATOM      3  C1  UNL d   1      -1.397   3.771   0.240  0.00  0.00    -0.004 A 
ATOM      4  C2  UNL d   1      -0.753   2.585   0.516  0.00  0.00    -0.047 A 
ATOM      5  C3  UNL d   1      -1.257   2.106   1.749  0.00  0.00    -0.047 A 
ATOM      6  C4  UNL d   1      -2.194   3.016   2.190  0.00  0.00    -0.004 A 
ENDROOT
TORSDOF 0
ENDMDL
