MODEL 1
REMARK minimizedAffinity 5.78036499
REMARK minimizedRMSD -1
REMARK  0 active torsions:
REMARK  status: ('A' for Active; 'I' for Inactive)
ROOT
ATOM      1  C   UNL d   1       1.435   5.169  -2.027  0.00  0.00     0.172 C 
ATOM      2  N   UNL d   1       0.585   4.290  -1.259  0.00  0.00    -0.070 N 
ATOM      3  C1  UNL d   1       0.944   3.066  -0.761  0.00  0.00    -0.004 A 
ATOM      4  C2  UNL d   1      -0.143   2.548  -0.090  0.00  0.00    -0.047 A 
ATOM      5  C3  UNL d   1      -1.192   3.492  -0.189  0.00  0.00    -0.047 A 
ATOM      6  C4  UNL d   1      -0.714   4.561  -0.918  0.00  0.00    -0.004 A 
ENDROOT
TORSDOF 0
ENDMDL
