MODEL 1
REMARK minimizedAffinity -0.195784822
REMARK minimizedRMSD -1
REMARK  0 active torsions:
REMARK  status: ('A' for Active; 'I' for Inactive)
ROOT
ATOM      1  C   UNL d   1      -2.884   5.792   1.074  0.00  0.00     0.172 C 
ATOM      2  N   UNL d   1      -1.988   4.837   0.465  0.00  0.00    -0.070 N 
ATOM      3  C1  UNL d   1      -1.513   4.893  -0.819  0.00  0.00    -0.004 A 
ATOM      4  C2  UNL d   1      -0.691   3.805  -1.012  0.00  0.00    -0.047 A 
ATOM      5  C3  UNL d   1      -0.670   3.069   0.196  0.00  0.00    -0.047 A 
ATOM      6  C4  UNL d   1      -1.482   3.730   1.094  0.00  0.00    -0.004 A 
ENDROOT
TORSDOF 0
ENDMDL
