MODEL 1
REMARK minimizedAffinity 2.78641176
REMARK minimizedRMSD -1
REMARK  0 active torsions:
REMARK  status: ('A' for Active; 'I' for Inactive)
ROOT
ATOM      1  C   UNL d   1      -1.510  -3.370  -3.984  0.00  0.00     0.172 C 
ATOM      2  N   UNL d   1      -2.311  -4.250  -4.802  0.00  0.00    -0.070 N 
ATOM      3  C1  UNL d   1      -1.930  -5.484  -5.257  0.00  0.00    -0.004 A 
ATOM      4  C2  UNL d   1      -2.971  -5.999  -6.000  0.00  0.00    -0.047 A 
ATOM      5  C3  UNL d   1      -4.012  -5.042  -5.991  0.00  0.00    -0.047 A 
ATOM      6  C4  UNL d   1      -3.577  -3.968  -5.243  0.00  0.00    -0.004 A 
ENDROOT
TORSDOF 0
ENDMDL
