MODEL 1
REMARK minimizedAffinity 3.13522601
REMARK minimizedRMSD -1
REMARK  0 active torsions:
REMARK  status: ('A' for Active; 'I' for Inactive)
ROOT
ATOM      1  C   UNL d   1      -5.971  -5.906  -5.269  0.00  0.00     0.172 C 
ATOM      2  N   UNL d   1      -4.605  -5.437  -5.286  0.00  0.00    -0.070 N 
ATOM      3  C1  UNL d   1      -3.577  -6.000  -5.995  0.00  0.00    -0.004 A 
ATOM      4  C2  UNL d   1      -2.440  -5.262  -5.747  0.00  0.00    -0.047 A 
ATOM      5  C3  UNL d   1      -2.796  -4.221  -4.857  0.00  0.00    -0.047 A 
ATOM      6  C4  UNL d   1      -4.142  -4.353  -4.588  0.00  0.00    -0.004 A 
ENDROOT
TORSDOF 0
ENDMDL
