MODEL 1
REMARK minimizedAffinity 7.47923946
REMARK minimizedRMSD -1
REMARK  0 active torsions:
REMARK  status: ('A' for Active; 'I' for Inactive)
ROOT
ATOM      1  C4' PXY d   1      -4.485  -6.000  -5.954  0.00  0.00     0.077 C 
ATOM      2  C1' PXY d   1      -0.434  -1.877  -5.933  0.00  0.00     0.077 C 
ATOM      3  C1  PXY d   1      -1.487  -2.966  -5.943  0.00  0.00    -0.082 A 
ATOM      4  C2  PXY d   1      -2.768  -2.638  -5.999  0.00  0.00     0.003 A 
ATOM      5  C3  PXY d   1      -3.735  -3.609  -5.976  0.00  0.00     0.003 A 
ATOM      6  C4  PXY d   1      -3.387  -4.933  -5.950  0.00  0.00    -0.082 A 
ATOM      7  C5  PXY d   1      -2.082  -5.277  -5.904  0.00  0.00     0.003 A 
ATOM      8  C6  PXY d   1      -1.117  -4.274  -5.886  0.00  0.00     0.003 A 
ENDROOT
TORSDOF 0
ENDMDL
