MODEL 1
REMARK minimizedAffinity 6.61146069
REMARK minimizedRMSD -1
REMARK  0 active torsions:
REMARK  status: ('A' for Active; 'I' for Inactive)
ROOT
ATOM      1  C4' PXY d   1      -0.630  -3.135  -5.821  0.00  0.00     0.077 C 
ATOM      2  C1' PXY d   1      -5.651  -5.994  -6.000  0.00  0.00     0.077 C 
ATOM      3  C1  PXY d   1      -4.340  -5.234  -5.959  0.00  0.00    -0.082 A 
ATOM      4  C2  PXY d   1      -3.199  -5.901  -5.903  0.00  0.00     0.003 A 
ATOM      5  C3  PXY d   1      -2.006  -5.229  -5.833  0.00  0.00     0.003 A 
ATOM      6  C4  PXY d   1      -1.977  -3.861  -5.874  0.00  0.00    -0.082 A 
ATOM      7  C5  PXY d   1      -3.137  -3.173  -5.941  0.00  0.00     0.003 A 
ATOM      8  C6  PXY d   1      -4.340  -3.873  -5.970  0.00  0.00     0.003 A 
ENDROOT
TORSDOF 0
ENDMDL
