MODEL 1
REMARK minimizedAffinity 4.47289705
REMARK minimizedRMSD -1
REMARK  0 active torsions:
REMARK  status: ('A' for Active; 'I' for Inactive)
ROOT
ATOM      1  C4' PXY d   1      -0.927  -1.353   5.259  0.00  0.00     0.077 C 
ATOM      2  C1' PXY d   1      -6.000  -4.099   4.881  0.00  0.00     0.077 C 
ATOM      3  C1  PXY d   1      -4.670  -3.376   4.968  0.00  0.00    -0.082 A 
ATOM      4  C2  PXY d   1      -3.788  -3.737   5.885  0.00  0.00     0.003 A 
ATOM      5  C3  PXY d   1      -2.594  -3.072   5.998  0.00  0.00     0.003 A 
ATOM      6  C4  PXY d   1      -2.278  -2.062   5.129  0.00  0.00    -0.082 A 
ATOM      7  C5  PXY d   1      -3.169  -1.695   4.184  0.00  0.00     0.003 A 
ATOM      8  C6  PXY d   1      -4.393  -2.355   4.112  0.00  0.00     0.003 A 
ENDROOT
TORSDOF 0
ENDMDL
