MODEL 1
REMARK minimizedAffinity 9.30120087
REMARK minimizedRMSD -1
REMARK  0 active torsions:
REMARK  status: ('A' for Active; 'I' for Inactive)
ROOT
ATOM      1  C4' PXY d   1      -0.898   3.068  -2.617  0.00  0.00     0.077 C 
ATOM      2  C1' PXY d   1       0.824   1.789   2.751  0.00  0.00     0.077 C 
ATOM      3  C1  PXY d   1       0.376   2.137   1.345  0.00  0.00    -0.082 A 
ATOM      4  C2  PXY d   1      -0.491   1.355   0.722  0.00  0.00     0.003 A 
ATOM      5  C3  PXY d   1      -0.883   1.637  -0.561  0.00  0.00     0.003 A 
ATOM      6  C4  PXY d   1      -0.424   2.761  -1.194  0.00  0.00    -0.082 A 
ATOM      7  C5  PXY d   1       0.452   3.570  -0.561  0.00  0.00     0.003 A 
ATOM      8  C6  PXY d   1       0.869   3.244   0.726  0.00  0.00     0.003 A 
ENDROOT
TORSDOF 0
ENDMDL
