MODEL 1
REMARK minimizedAffinity 11.6872606
REMARK minimizedRMSD -1
REMARK  0 active torsions:
REMARK  status: ('A' for Active; 'I' for Inactive)
ROOT
ATOM      1  C4' PXY d   1       0.133  -1.971  -5.986  0.00  0.00     0.077 C 
ATOM      2  C1' PXY d   1      -4.583  -5.313  -5.991  0.00  0.00     0.077 C 
ATOM      3  C1  PXY d   1      -3.353  -4.427  -5.995  0.00  0.00    -0.082 A 
ATOM      4  C2  PXY d   1      -2.150  -4.978  -6.000  0.00  0.00     0.003 A 
ATOM      5  C3  PXY d   1      -1.027  -4.191  -5.971  0.00  0.00     0.003 A 
ATOM      6  C4  PXY d   1      -1.137  -2.827  -5.991  0.00  0.00    -0.082 A 
ATOM      7  C5  PXY d   1      -2.360  -2.257  -5.997  0.00  0.00     0.003 A 
ATOM      8  C6  PXY d   1      -3.488  -3.073  -5.984  0.00  0.00     0.003 A 
ENDROOT
TORSDOF 0
ENDMDL
