MODEL 1
REMARK minimizedAffinity 5.84280634
REMARK minimizedRMSD -1
REMARK  0 active torsions:
REMARK  status: ('A' for Active; 'I' for Inactive)
ROOT
ATOM      1  C4' PXY d   1      -3.994  -5.889  -6.000  0.00  0.00     0.077 C 
ATOM      2  C1' PXY d   1       1.078  -4.493  -3.604  0.00  0.00     0.077 C 
ATOM      3  C1  PXY d   1      -0.253  -4.870  -4.225  0.00  0.00    -0.082 A 
ATOM      4  C2  PXY d   1      -0.556  -4.433  -5.436  0.00  0.00     0.003 A 
ATOM      5  C3  PXY d   1      -1.769  -4.738  -6.000  0.00  0.00     0.003 A 
ATOM      6  C4  PXY d   1      -2.658  -5.541  -5.338  0.00  0.00    -0.082 A 
ATOM      7  C5  PXY d   1      -2.351  -5.999  -4.106  0.00  0.00     0.003 A 
ATOM      8  C6  PXY d   1      -1.132  -5.645  -3.534  0.00  0.00     0.003 A 
ENDROOT
TORSDOF 0
ENDMDL
