MODEL 1
REMARK minimizedAffinity 4.6975894
REMARK minimizedRMSD -1
REMARK  0 active torsions:
REMARK  status: ('A' for Active; 'I' for Inactive)
ROOT
ATOM      1  C4' PXY d   1      -0.507  -1.268  -5.281  0.00  0.00     0.077 C 
ATOM      2  C1' PXY d   1      -3.757  -5.995  -5.996  0.00  0.00     0.077 C 
ATOM      3  C1  PXY d   1      -2.897  -4.762  -5.800  0.00  0.00    -0.082 A 
ATOM      4  C2  PXY d   1      -3.418  -3.562  -6.000  0.00  0.00     0.003 A 
ATOM      5  C3  PXY d   1      -2.646  -2.438  -5.859  0.00  0.00     0.003 A 
ATOM      6  C4  PXY d   1      -1.341  -2.541  -5.457  0.00  0.00    -0.082 A 
ATOM      7  C5  PXY d   1      -0.805  -3.760  -5.241  0.00  0.00     0.003 A 
ATOM      8  C6  PXY d   1      -1.594  -4.891  -5.430  0.00  0.00     0.003 A 
ENDROOT
TORSDOF 0
ENDMDL
