MODEL 1
REMARK minimizedAffinity 5.47275352
REMARK minimizedRMSD -1
REMARK  0 active torsions:
REMARK  status: ('A' for Active; 'I' for Inactive)
ROOT
ATOM      1  C4' PXY d   1      -3.435   4.155  -2.647  0.00  0.00     0.077 C 
ATOM      2  C1' PXY d   1       1.817   5.643  -0.744  0.00  0.00     0.077 C 
ATOM      3  C1  PXY d   1       0.434   5.259  -1.233  0.00  0.00    -0.082 A 
ATOM      4  C2  PXY d   1       0.288   4.209  -2.024  0.00  0.00     0.003 A 
ATOM      5  C3  PXY d   1      -0.951   3.866  -2.501  0.00  0.00     0.003 A 
ATOM      6  C4  PXY d   1      -2.059   4.574  -2.121  0.00  0.00    -0.082 A 
ATOM      7  C5  PXY d   1      -1.920   5.641  -1.306  0.00  0.00     0.003 A 
ATOM      8  C6  PXY d   1      -0.649   5.997  -0.866  0.00  0.00     0.003 A 
ENDROOT
TORSDOF 0
ENDMDL
