MODEL 1
REMARK minimizedAffinity 2.50089788
REMARK minimizedRMSD -1
REMARK  0 active torsions:
REMARK  status: ('A' for Active; 'I' for Inactive)
ROOT
ATOM      1  C4' PXY d   1      -4.497  -0.000   1.715  0.00  0.00     0.077 C 
ATOM      2  C1' PXY d   1      -5.577  -3.728   6.000  0.00  0.00     0.077 C 
ATOM      3  C1  PXY d   1      -5.305  -2.745   4.878  0.00  0.00    -0.082 A 
ATOM      4  C2  PXY d   1      -4.385  -3.027   3.970  0.00  0.00     0.003 A 
ATOM      5  C3  PXY d   1      -4.104  -2.135   2.967  0.00  0.00     0.003 A 
ATOM      6  C4  PXY d   1      -4.811  -0.967   2.861  0.00  0.00    -0.082 A 
ATOM      7  C5  PXY d   1      -5.759  -0.677   3.777  0.00  0.00     0.003 A 
ATOM      8  C6  PXY d   1      -6.000  -1.577   4.811  0.00  0.00     0.003 A 
ENDROOT
TORSDOF 0
ENDMDL
