MODEL 1
REMARK minimizedAffinity 6.45777178
REMARK minimizedRMSD -1
REMARK  0 active torsions:
REMARK  status: ('A' for Active; 'I' for Inactive)
ROOT
ATOM      1  C4' PXY d   1      -5.212  -5.999  -4.448  0.00  0.00     0.077 C 
ATOM      2  C1' PXY d   1      -0.017  -3.657  -5.418  0.00  0.00     0.077 C 
ATOM      3  C1  PXY d   1      -1.379  -4.276  -5.176  0.00  0.00    -0.082 A 
ATOM      4  C2  PXY d   1      -2.188  -3.745  -4.274  0.00  0.00     0.003 A 
ATOM      5  C3  PXY d   1      -3.411  -4.311  -4.019  0.00  0.00     0.003 A 
ATOM      6  C4  PXY d   1      -3.831  -5.402  -4.733  0.00  0.00    -0.082 A 
ATOM      7  C5  PXY d   1      -3.016  -5.944  -5.662  0.00  0.00     0.003 A 
ATOM      8  C6  PXY d   1      -1.762  -5.378  -5.876  0.00  0.00     0.003 A 
ENDROOT
TORSDOF 0
ENDMDL
