MODEL 1
REMARK minimizedAffinity 4.66208458
REMARK minimizedRMSD -1
REMARK  0 active torsions:
REMARK  status: ('A' for Active; 'I' for Inactive)
ROOT
ATOM      1  C4' PXY d   1      -1.689  -1.315  -5.666  0.00  0.00     0.077 C 
ATOM      2  C1' PXY d   1       0.221  -4.962  -1.608  0.00  0.00     0.077 C 
ATOM      3  C1  PXY d   1      -0.268  -4.006  -2.678  0.00  0.00    -0.082 A 
ATOM      4  C2  PXY d   1      -1.293  -3.209  -2.423  0.00  0.00     0.003 A 
ATOM      5  C3  PXY d   1      -1.769  -2.361  -3.390  0.00  0.00     0.003 A 
ATOM      6  C4  PXY d   1      -1.156  -2.290  -4.612  0.00  0.00    -0.082 A 
ATOM      7  C5  PXY d   1      -0.103  -3.093  -4.876  0.00  0.00     0.003 A 
ATOM      8  C6  PXY d   1       0.339  -3.976  -3.895  0.00  0.00     0.003 A 
ENDROOT
TORSDOF 0
ENDMDL
