MODEL 1
REMARK minimizedAffinity 3.68186331
REMARK minimizedRMSD -1
REMARK  1 active torsions:
REMARK  status: ('A' for Active; 'I' for Inactive)
REMARK    1  A    between atoms: C1_2  and  C2_3 
ROOT
ATOM      1  C2  UNL d   1      -0.507  -0.609   1.629  0.00  0.00    -0.077 A 
ATOM      2  C3  UNL d   1       0.263   0.352   2.298  0.00  0.00     0.002 A 
ATOM      3  C4  UNL d   1       1.429   0.854   1.716  0.00  0.00     0.002 A 
ATOM      4  C5  UNL d   1       1.832   0.403   0.460  0.00  0.00    -0.004 A 
ATOM      5  C6  UNL d   1       1.074  -0.554  -0.212  0.00  0.00     0.002 A 
ATOM      6  C7  UNL d   1      -0.091  -1.057   0.369  0.00  0.00     0.002 A 
ENDROOT
BRANCH   1   7
ATOM      7  C1  UNL d   1      -1.791  -1.114   2.233  0.00  0.00     0.055 C 
ATOM      8  C   UNL d   1      -2.961  -0.203   1.890  0.00  0.00     0.019 C 
ENDBRANCH   1   7
TORSDOF 1
ENDMDL
