MODEL 1
REMARK minimizedAffinity 4.28816128
REMARK minimizedRMSD -1
REMARK  1 active torsions:
REMARK  status: ('A' for Active; 'I' for Inactive)
REMARK    1  A    between atoms: C1_2  and  C2_3 
ROOT
ATOM      1  C2  UNL d   1       2.615  -5.254   0.054  0.00  0.00    -0.077 A 
ATOM      2  C3  UNL d   1       1.490  -6.000   0.434  0.00  0.00     0.002 A 
ATOM      3  C4  UNL d   1       0.215  -5.618   0.013  0.00  0.00     0.002 A 
ATOM      4  C5  UNL d   1       0.053  -4.493  -0.792  0.00  0.00    -0.004 A 
ATOM      5  C6  UNL d   1       1.165  -3.744  -1.174  0.00  0.00     0.002 A 
ATOM      6  C7  UNL d   1       2.440  -4.123  -0.753  0.00  0.00     0.002 A 
ENDROOT
BRANCH   1   7
ATOM      7  C1  UNL d   1       3.996  -5.693   0.466  0.00  0.00     0.055 C 
ATOM      8  C   UNL d   1       4.864  -6.000  -0.746  0.00  0.00     0.019 C 
ENDBRANCH   1   7
TORSDOF 1
ENDMDL
