MODEL 1
REMARK minimizedAffinity -3.03678656
REMARK minimizedRMSD -1
REMARK  1 active torsions:
REMARK  status: ('A' for Active; 'I' for Inactive)
REMARK    1  A    between atoms: C1_2  and  C2_3 
ROOT
ATOM      1  C2  UNL d   1       0.415  -1.978  -1.326  0.00  0.00    -0.077 A 
ATOM      2  C3  UNL d   1      -0.643  -2.248  -2.206  0.00  0.00     0.002 A 
ATOM      3  C4  UNL d   1      -1.063  -3.562  -2.424  0.00  0.00     0.002 A 
ATOM      4  C5  UNL d   1      -0.434  -4.615  -1.762  0.00  0.00    -0.004 A 
ATOM      5  C6  UNL d   1       0.620  -4.357  -0.887  0.00  0.00     0.002 A 
ATOM      6  C7  UNL d   1       1.042  -3.045  -0.669  0.00  0.00     0.002 A 
ENDROOT
BRANCH   1   7
ATOM      7  C1  UNL d   1       0.837  -0.558  -1.053  0.00  0.00     0.055 C 
ATOM      8  C   UNL d   1       0.434  -0.121   0.348  0.00  0.00     0.019 C 
ENDBRANCH   1   7
TORSDOF 1
ENDMDL
