MODEL 1
REMARK minimizedAffinity -5.25547791
REMARK minimizedRMSD -1
REMARK  1 active torsions:
REMARK  status: ('A' for Active; 'I' for Inactive)
REMARK    1  A    between atoms: C1_2  and  C2_3 
ROOT
ATOM      1  C2  UNL d   1       0.169   0.272  -0.230  0.00  0.00    -0.077 A 
ATOM      2  C3  UNL d   1      -0.397   1.404  -0.833  0.00  0.00     0.002 A 
ATOM      3  C4  UNL d   1      -0.944   2.423  -0.050  0.00  0.00     0.002 A 
ATOM      4  C5  UNL d   1      -0.927   2.321   1.339  0.00  0.00    -0.004 A 
ATOM      5  C6  UNL d   1      -0.369   1.199   1.949  0.00  0.00     0.002 A 
ATOM      6  C7  UNL d   1       0.178   0.179   1.168  0.00  0.00     0.002 A 
ENDROOT
BRANCH   1   7
ATOM      7  C1  UNL d   1       0.804  -0.804  -1.071  0.00  0.00     0.055 C 
ATOM      8  C   UNL d   1      -0.190  -1.908  -1.400  0.00  0.00     0.019 C 
ENDBRANCH   1   7
TORSDOF 1
ENDMDL
