MODEL 1
REMARK minimizedAffinity 5.15515041
REMARK minimizedRMSD -1
REMARK  0 active torsions:
REMARK  status: ('A' for Active; 'I' for Inactive)
ROOT
ATOM      1  C2' OXE d   1       1.641  -0.559  -5.988  0.00  0.00     0.078 C 
ATOM      2  C1' OXE d   1       0.393  -2.523  -4.418  0.00  0.00     0.078 C 
ATOM      3  C1  OXE d   1      -0.425  -1.321  -4.823  0.00  0.00    -0.078 A 
ATOM      4  C2  OXE d   1       0.208  -0.343  -5.552  0.00  0.00    -0.078 A 
ATOM      5  C3  OXE d   1      -0.514   0.760  -5.999  0.00  0.00     0.003 A 
ATOM      6  C4  OXE d   1      -1.837   0.956  -5.583  0.00  0.00    -0.002 A 
ATOM      7  C5  OXE d   1      -2.488  -0.008  -4.807  0.00  0.00    -0.002 A 
ATOM      8  C6  OXE d   1      -1.811  -1.171  -4.455  0.00  0.00     0.003 A 
ENDROOT
TORSDOF 0
ENDMDL
