MODEL 1
REMARK minimizedAffinity -0.540009081
REMARK minimizedRMSD -1
REMARK  0 active torsions:
REMARK  status: ('A' for Active; 'I' for Inactive)
ROOT
ATOM      1  C2' OXE d   1      -6.000   0.761  -0.086  0.00  0.00     0.078 C 
ATOM      2  C1' OXE d   1      -4.523  -1.370  -1.162  0.00  0.00     0.078 C 
ATOM      3  C1  OXE d   1      -3.886  -0.556  -0.063  0.00  0.00    -0.078 A 
ATOM      4  C2  OXE d   1      -4.597   0.513   0.425  0.00  0.00    -0.078 A 
ATOM      5  C3  OXE d   1      -4.079   1.263   1.477  0.00  0.00     0.003 A 
ATOM      6  C4  OXE d   1      -2.777   1.034   1.937  0.00  0.00    -0.002 A 
ATOM      7  C5  OXE d   1      -2.019  -0.026   1.426  0.00  0.00    -0.002 A 
ATOM      8  C6  OXE d   1      -2.574  -0.855   0.457  0.00  0.00     0.003 A 
ENDROOT
TORSDOF 0
ENDMDL
