MODEL 1
REMARK minimizedAffinity -2.8461535
REMARK minimizedRMSD -1
REMARK  0 active torsions:
REMARK  status: ('A' for Active; 'I' for Inactive)
ROOT
ATOM      1  C2' OXE d   1      -2.546   0.370  -4.836  0.00  0.00     0.078 C 
ATOM      2  C1' OXE d   1      -1.087   1.131  -2.562  0.00  0.00     0.078 C 
ATOM      3  C1  OXE d   1      -0.315   0.631  -3.758  0.00  0.00    -0.078 A 
ATOM      4  C2  OXE d   1      -1.040   0.217  -4.849  0.00  0.00    -0.078 A 
ATOM      5  C3  OXE d   1      -0.377  -0.201  -5.999  0.00  0.00     0.003 A 
ATOM      6  C4  OXE d   1       1.016  -0.349  -6.000  0.00  0.00    -0.002 A 
ATOM      7  C5  OXE d   1       1.770   0.029  -4.885  0.00  0.00    -0.002 A 
ATOM      8  C6  OXE d   1       1.125   0.561  -3.773  0.00  0.00     0.003 A 
ENDROOT
TORSDOF 0
ENDMDL
