MODEL 1
REMARK minimizedAffinity 2.91548753
REMARK minimizedRMSD -1
REMARK  0 active torsions:
REMARK  status: ('A' for Active; 'I' for Inactive)
ROOT
ATOM      1  C2' OXE d   1      -4.522   1.111   1.153  0.00  0.00     0.078 C 
ATOM      2  C1' OXE d   1      -3.216  -1.037  -0.094  0.00  0.00     0.078 C 
ATOM      3  C1  OXE d   1      -2.538  -0.393   1.089  0.00  0.00    -0.078 A 
ATOM      4  C2  OXE d   1      -3.163   0.687   1.664  0.00  0.00    -0.078 A 
ATOM      5  C3  OXE d   1      -2.608   1.284   2.793  0.00  0.00     0.003 A 
ATOM      6  C4  OXE d   1      -1.345   0.892   3.253  0.00  0.00    -0.002 A 
ATOM      7  C5  OXE d   1      -0.673  -0.181   2.657  0.00  0.00    -0.002 A 
ATOM      8  C6  OXE d   1      -1.274  -0.860   1.604  0.00  0.00     0.003 A 
ENDROOT
TORSDOF 0
ENDMDL
