MODEL 1
REMARK minimizedAffinity -0.123109259
REMARK minimizedRMSD -1
REMARK  0 active torsions:
REMARK  status: ('A' for Active; 'I' for Inactive)
ROOT
ATOM      1  C2' OXE d   1      -1.756  -0.139  -4.160  0.00  0.00     0.078 C 
ATOM      2  C1' OXE d   1      -0.641  -2.094  -5.838  0.00  0.00     0.078 C 
ATOM      3  C1  OXE d   1       0.212  -0.901  -5.485  0.00  0.00    -0.078 A 
ATOM      4  C2  OXE d   1      -0.358   0.074  -4.701  0.00  0.00    -0.078 A 
ATOM      5  C3  OXE d   1       0.402   1.169  -4.301  0.00  0.00     0.003 A 
ATOM      6  C4  OXE d   1       1.690   1.363  -4.814  0.00  0.00    -0.002 A 
ATOM      7  C5  OXE d   1       2.275   0.402  -5.646  0.00  0.00    -0.002 A 
ATOM      8  C6  OXE d   1       1.567  -0.753  -5.956  0.00  0.00     0.003 A 
ENDROOT
TORSDOF 0
ENDMDL
