MODEL 1
REMARK minimizedAffinity 6.29269552
REMARK minimizedRMSD -1
REMARK  0 active torsions:
REMARK  status: ('A' for Active; 'I' for Inactive)
ROOT
ATOM      1  C2' OXE d   1      -2.295   0.904   2.567  0.00  0.00     0.078 C 
ATOM      2  C1' OXE d   1      -1.896  -1.491   1.158  0.00  0.00     0.078 C 
ATOM      3  C1  OXE d   1      -0.846  -1.081   2.160  0.00  0.00    -0.078 A 
ATOM      4  C2  OXE d   1      -1.026   0.116   2.811  0.00  0.00    -0.078 A 
ATOM      5  C3  OXE d   1      -0.115   0.515   3.785  0.00  0.00     0.003 A 
ATOM      6  C4  OXE d   1       1.060  -0.216   3.998  0.00  0.00    -0.002 A 
ATOM      7  C5  OXE d   1       1.283  -1.417   3.317  0.00  0.00    -0.002 A 
ATOM      8  C6  OXE d   1       0.321  -1.885   2.428  0.00  0.00     0.003 A 
ENDROOT
TORSDOF 0
ENDMDL
