MODEL 1
REMARK minimizedAffinity -1.70215321
REMARK minimizedRMSD -1
REMARK  0 active torsions:
REMARK  status: ('A' for Active; 'I' for Inactive)
ROOT
ATOM      1  C2' OXE d   1      -0.745   1.905  -2.978  0.00  0.00     0.078 C 
ATOM      2  C1' OXE d   1      -2.154   0.485  -4.948  0.00  0.00     0.078 C 
ATOM      3  C1  OXE d   1      -0.647   0.437  -4.989  0.00  0.00    -0.078 A 
ATOM      4  C2  OXE d   1       0.034   1.173  -4.049  0.00  0.00    -0.078 A 
ATOM      5  C3  OXE d   1       1.425   1.120  -4.009  0.00  0.00     0.003 A 
ATOM      6  C4  OXE d   1       2.138   0.449  -5.009  0.00  0.00    -0.002 A 
ATOM      7  C5  OXE d   1       1.464  -0.274  -5.999  0.00  0.00    -0.002 A 
ATOM      8  C6  OXE d   1       0.074  -0.325  -5.978  0.00  0.00     0.003 A 
ENDROOT
TORSDOF 0
ENDMDL
