MODEL 1
REMARK minimizedAffinity -0.422445059
REMARK minimizedRMSD -1
REMARK  0 active torsions:
REMARK  status: ('A' for Active; 'I' for Inactive)
ROOT
ATOM      1  C2' OXE d   1      -5.257   1.154   0.774  0.00  0.00     0.078 C 
ATOM      2  C1' OXE d   1      -4.103  -0.761  -0.924  0.00  0.00     0.078 C 
ATOM      3  C1  OXE d   1      -3.315  -0.329   0.288  0.00  0.00    -0.078 A 
ATOM      4  C2  OXE d   1      -3.868   0.642   1.088  0.00  0.00    -0.078 A 
ATOM      5  C3  OXE d   1      -3.208   1.037   2.248  0.00  0.00     0.003 A 
ATOM      6  C4  OXE d   1      -1.919   0.566   2.526  0.00  0.00    -0.002 A 
ATOM      7  C5  OXE d   1      -1.321  -0.394   1.703  0.00  0.00    -0.002 A 
ATOM      8  C6  OXE d   1      -2.022  -0.883   0.606  0.00  0.00     0.003 A 
ENDROOT
TORSDOF 0
ENDMDL
