MODEL 1
REMARK minimizedAffinity 7.73267365
REMARK minimizedRMSD -1
REMARK  3 active torsions:
REMARK  status: ('A' for Active; 'I' for Inactive)
REMARK    1  A    between atoms: C3'_2  and  C2'_3 
REMARK    2  A    between atoms: C2'_3  and  C1'_4 
REMARK    3  A    between atoms: C1'_4  and  C1_5 
ROOT
ATOM      1  C1  N4B d   1       1.768  -2.049   3.426  0.00  0.00    -0.075 A 
ATOM      2  C2  N4B d   1       1.060  -1.383   4.451  0.00  0.00     0.002 A 
ATOM      3  C3  N4B d   1       1.064  -1.888   5.728  0.00  0.00     0.002 A 
ATOM      4  C4  N4B d   1       1.750  -3.062   5.999  0.00  0.00    -0.004 A 
ATOM      5  C5  N4B d   1       2.453  -3.685   5.010  0.00  0.00     0.002 A 
ATOM      6  C6  N4B d   1       2.461  -3.188   3.722  0.00  0.00     0.002 A 
ENDROOT
BRANCH   1   7
ATOM      7  C1' N4B d   1       1.722  -1.583   1.997  0.00  0.00     0.057 C 
BRANCH   7   8
ATOM      8  C2' N4B d   1       2.215  -2.705   1.088  0.00  0.00     0.009 C 
BRANCH   8   9
ATOM      9  C3' N4B d   1       3.233  -2.211   0.075  0.00  0.00     0.004 C 
ATOM     10  C4' N4B d   1       4.585  -2.833   0.261  0.00  0.00     0.003 C 
ENDBRANCH   8   9
ENDBRANCH   7   8
ENDBRANCH   1   7
TORSDOF 3
ENDMDL
