MODEL 1
REMARK minimizedAffinity 8.49705029
REMARK minimizedRMSD -1
REMARK  3 active torsions:
REMARK  status: ('A' for Active; 'I' for Inactive)
REMARK    1  A    between atoms: C3'_2  and  C2'_3 
REMARK    2  A    between atoms: C2'_3  and  C1'_4 
REMARK    3  A    between atoms: C1'_4  and  C1_5 
ROOT
ATOM      1  C1  N4B d   1      -1.558  -1.190   0.242  0.00  0.00    -0.075 A 
ATOM      2  C2  N4B d   1      -1.015  -2.489   0.135  0.00  0.00     0.002 A 
ATOM      3  C3  N4B d   1      -1.806  -3.532  -0.278  0.00  0.00     0.002 A 
ATOM      4  C4  N4B d   1      -3.143  -3.305  -0.571  0.00  0.00    -0.004 A 
ATOM      5  C5  N4B d   1      -3.653  -2.043  -0.490  0.00  0.00     0.002 A 
ATOM      6  C6  N4B d   1      -2.869  -0.984  -0.080  0.00  0.00     0.002 A 
ENDROOT
BRANCH   1   7
ATOM      7  C1' N4B d   1      -0.754  -0.034   0.771  0.00  0.00     0.057 C 
BRANCH   7   8
ATOM      8  C2' N4B d   1       0.604  -0.543   1.244  0.00  0.00     0.009 C 
BRANCH   8   9
ATOM      9  C3' N4B d   1       1.140   0.269   2.411  0.00  0.00     0.004 C 
ATOM     10  C4' N4B d   1       1.074  -0.471   3.713  0.00  0.00     0.003 C 
ENDBRANCH   8   9
ENDBRANCH   7   8
ENDBRANCH   1   7
TORSDOF 3
ENDMDL
