MODEL 1
REMARK minimizedAffinity 14.3663845
REMARK minimizedRMSD -1
REMARK  3 active torsions:
REMARK  status: ('A' for Active; 'I' for Inactive)
REMARK    1  A    between atoms: C3'_2  and  C2'_3 
REMARK    2  A    between atoms: C2'_3  and  C1'_4 
REMARK    3  A    between atoms: C1'_4  and  C1_5 
ROOT
ATOM      1  C1  N4B d   1      -5.644   3.259  -3.984  0.00  0.00    -0.075 A 
ATOM      2  C2  N4B d   1      -5.814   3.887  -2.731  0.00  0.00     0.002 A 
ATOM      3  C3  N4B d   1      -5.993   5.247  -2.665  0.00  0.00     0.002 A 
ATOM      4  C4  N4B d   1      -5.987   5.998  -3.831  0.00  0.00    -0.004 A 
ATOM      5  C5  N4B d   1      -5.848   5.380  -5.039  0.00  0.00     0.002 A 
ATOM      6  C6  N4B d   1      -5.671   4.013  -5.121  0.00  0.00     0.002 A 
ENDROOT
BRANCH   1   7
ATOM      7  C1' N4B d   1      -5.359   1.786  -4.102  0.00  0.00     0.057 C 
BRANCH   7   8
ATOM      8  C2' N4B d   1      -5.051   1.450  -5.558  0.00  0.00     0.009 C 
BRANCH   8   9
ATOM      9  C3' N4B d   1      -4.649  -0.004  -5.733  0.00  0.00     0.004 C 
ATOM     10  C4' N4B d   1      -5.826  -0.933  -5.763  0.00  0.00     0.003 C 
ENDBRANCH   8   9
ENDBRANCH   7   8
ENDBRANCH   1   7
TORSDOF 3
ENDMDL
