MODEL 1
REMARK minimizedAffinity -0.599510729
REMARK minimizedRMSD -1
REMARK  0 active torsions:
REMARK  status: ('A' for Active; 'I' for Inactive)
ROOT
ATOM      1  C   UNL d   1       2.272  -1.601  -0.137  0.00  0.00     0.020 A 
ATOM      2  C1  UNL d   1       1.928  -0.687  -1.132  0.00  0.00     0.020 A 
ATOM      3  C2  UNL d   1       0.802   0.125  -0.975  0.00  0.00     0.034 A 
ATOM      4  C3  UNL d   1       0.017   0.024   0.180  0.00  0.00     0.017 A 
ATOM      5  C4  UNL d   1       0.364  -0.894   1.178  0.00  0.00     0.017 A 
ATOM      6  C5  UNL d   1       1.492  -1.704   1.015  0.00  0.00     0.034 A 
ATOM      7 Cl   UNL d   1      -0.555  -1.076   2.630  0.00  0.00    -0.070 Cl
ATOM      8 Cl1  UNL d   1      -1.361   1.059   0.308  0.00  0.00    -0.070 Cl
ENDROOT
TORSDOF 0
ENDMDL
