MODEL 1
REMARK minimizedAffinity -3.12819791
REMARK minimizedRMSD -1
REMARK  0 active torsions:
REMARK  status: ('A' for Active; 'I' for Inactive)
ROOT
ATOM      1  C   UNL d   1      -1.871   1.826   0.470  0.00  0.00     0.020 A 
ATOM      2  C1  UNL d   1      -1.096   1.893  -0.687  0.00  0.00     0.020 A 
ATOM      3  C2  UNL d   1      -0.018   1.021  -0.856  0.00  0.00     0.034 A 
ATOM      4  C3  UNL d   1       0.287   0.078   0.132  0.00  0.00     0.017 A 
ATOM      5  C4  UNL d   1      -0.493   0.011   1.293  0.00  0.00     0.017 A 
ATOM      6  C5  UNL d   1      -1.570   0.887   1.457  0.00  0.00     0.034 A 
ATOM      7 Cl   UNL d   1      -0.178  -1.125   2.556  0.00  0.00    -0.070 Cl
ATOM      8 Cl1  UNL d   1       1.633  -0.969  -0.144  0.00  0.00    -0.070 Cl
ENDROOT
TORSDOF 0
ENDMDL
