MODEL 1
REMARK minimizedAffinity -4.05229855
REMARK minimizedRMSD -1
REMARK  0 active torsions:
REMARK  status: ('A' for Active; 'I' for Inactive)
ROOT
ATOM      1  C   UNL d   1       1.631  -0.476  -0.706  0.00  0.00     0.020 A 
ATOM      2  C1  UNL d   1       1.228  -0.553  -2.039  0.00  0.00     0.020 A 
ATOM      3  C2  UNL d   1       0.010   0.003  -2.433  0.00  0.00     0.034 A 
ATOM      4  C3  UNL d   1      -0.810   0.639  -1.494  0.00  0.00     0.017 A 
ATOM      5  C4  UNL d   1      -0.405   0.716  -0.157  0.00  0.00     0.017 A 
ATOM      6  C5  UNL d   1       0.816   0.157   0.233  0.00  0.00     0.034 A 
ATOM      7 Cl   UNL d   1      -1.363   1.484   1.059  0.00  0.00    -0.070 Cl
ATOM      8 Cl1  UNL d   1      -2.304   1.305  -2.052  0.00  0.00    -0.070 Cl
ENDROOT
TORSDOF 0
ENDMDL
