MODEL 1
REMARK minimizedAffinity -0.703323722
REMARK minimizedRMSD -1
REMARK  0 active torsions:
REMARK  status: ('A' for Active; 'I' for Inactive)
ROOT
ATOM      1  C   UNL d   1      -1.340   1.558  -3.289  0.00  0.00     0.020 A 
ATOM      2  C1  UNL d   1      -2.428   2.107  -2.611  0.00  0.00     0.020 A 
ATOM      3  C2  UNL d   1      -2.510   2.000  -1.221  0.00  0.00     0.034 A 
ATOM      4  C3  UNL d   1      -1.504   1.342  -0.505  0.00  0.00     0.017 A 
ATOM      5  C4  UNL d   1      -0.412   0.791  -1.186  0.00  0.00     0.017 A 
ATOM      6  C5  UNL d   1      -0.335   0.902  -2.578  0.00  0.00     0.034 A 
ATOM      7 Cl   UNL d   1       0.868  -0.035  -0.371  0.00  0.00    -0.070 Cl
ATOM      8 Cl1  UNL d   1      -1.671   1.247   1.212  0.00  0.00    -0.070 Cl
ENDROOT
TORSDOF 0
ENDMDL
