MODEL 1
REMARK minimizedAffinity 0.158063218
REMARK minimizedRMSD -1
REMARK  0 active torsions:
REMARK  status: ('A' for Active; 'I' for Inactive)
ROOT
ATOM      1  C   UNL d   1      -0.543   1.359  -0.722  0.00  0.00     0.020 A 
ATOM      2  C1  UNL d   1       0.741   1.124  -1.211  0.00  0.00     0.020 A 
ATOM      3  C2  UNL d   1       1.549   0.154  -0.614  0.00  0.00     0.034 A 
ATOM      4  C3  UNL d   1       1.074  -0.584   0.476  0.00  0.00     0.017 A 
ATOM      5  C4  UNL d   1      -0.215  -0.348   0.966  0.00  0.00     0.017 A 
ATOM      6  C5  UNL d   1      -1.020   0.625   0.365  0.00  0.00     0.034 A 
ATOM      7 Cl   UNL d   1      -0.871  -1.219   2.307  0.00  0.00    -0.070 Cl
ATOM      8 Cl1  UNL d   1       2.127  -1.768   1.164  0.00  0.00    -0.070 Cl
ENDROOT
TORSDOF 0
ENDMDL
