MODEL 1
REMARK minimizedAffinity -0.37131834
REMARK minimizedRMSD -1
REMARK  0 active torsions:
REMARK  status: ('A' for Active; 'I' for Inactive)
ROOT
ATOM      1  C   UNL d   1       0.218   0.860  -1.048  0.00  0.00     0.020 A 
ATOM      2  C1  UNL d   1      -1.024   1.052  -0.446  0.00  0.00     0.020 A 
ATOM      3  C2  UNL d   1      -1.324   0.411   0.758  0.00  0.00     0.034 A 
ATOM      4  C3  UNL d   1      -0.380  -0.426   1.363  0.00  0.00     0.017 A 
ATOM      5  C4  UNL d   1       0.868  -0.618   0.758  0.00  0.00     0.017 A 
ATOM      6  C5  UNL d   1       1.162   0.026  -0.447  0.00  0.00     0.034 A 
ATOM      7 Cl   UNL d   1       2.084  -1.636   1.446  0.00  0.00    -0.070 Cl
ATOM      8 Cl1  UNL d   1      -0.817  -1.186   2.852  0.00  0.00    -0.070 Cl
ENDROOT
TORSDOF 0
ENDMDL
