MODEL 1
REMARK minimizedAffinity -3.21573544
REMARK minimizedRMSD -1
REMARK  0 active torsions:
REMARK  status: ('A' for Active; 'I' for Inactive)
ROOT
ATOM      1  C   UNL d   1       1.999  -0.875  -0.122  0.00  0.00     0.020 A 
ATOM      2  C1  UNL d   1       1.355   0.196  -0.741  0.00  0.00     0.020 A 
ATOM      3  C2  UNL d   1       0.177   0.712  -0.197  0.00  0.00     0.034 A 
ATOM      4  C3  UNL d   1      -0.361   0.157   0.970  0.00  0.00     0.017 A 
ATOM      5  C4  UNL d   1       0.285  -0.918   1.591  0.00  0.00     0.017 A 
ATOM      6  C5  UNL d   1       1.465  -1.431   1.042  0.00  0.00     0.034 A 
ATOM      7 Cl   UNL d   1      -0.318  -1.654   3.033  0.00  0.00    -0.070 Cl
ATOM      8 Cl1  UNL d   1      -1.820   0.846   1.587  0.00  0.00    -0.070 Cl
ENDROOT
TORSDOF 0
ENDMDL
