MODEL 1
REMARK minimizedAffinity -3.3075695
REMARK minimizedRMSD -1
REMARK  0 active torsions:
REMARK  status: ('A' for Active; 'I' for Inactive)
ROOT
ATOM      1  C   UNL d   1       1.139  -1.187  -1.843  0.00  0.00     0.020 A 
ATOM      2  C1  UNL d   1       1.609  -0.848  -0.575  0.00  0.00     0.020 A 
ATOM      3  C2  UNL d   1       0.923   0.095   0.194  0.00  0.00     0.034 A 
ATOM      4  C3  UNL d   1      -0.236   0.701  -0.304  0.00  0.00     0.017 A 
ATOM      5  C4  UNL d   1      -0.706   0.359  -1.577  0.00  0.00     0.017 A 
ATOM      6  C5  UNL d   1      -0.016  -0.585  -2.343  0.00  0.00     0.034 A 
ATOM      7 Cl   UNL d   1      -2.129   1.065  -2.259  0.00  0.00    -0.070 Cl
ATOM      8 Cl1  UNL d   1      -1.033   1.858   0.702  0.00  0.00    -0.070 Cl
ENDROOT
TORSDOF 0
ENDMDL
