MODEL 1
REMARK minimizedAffinity -2.79331946
REMARK minimizedRMSD -1
REMARK  0 active torsions:
REMARK  status: ('A' for Active; 'I' for Inactive)
ROOT
ATOM      1  C   UNL d   1       0.086   0.437  -1.662  0.00  0.00     0.020 A 
ATOM      2  C1  UNL d   1      -1.132   0.719  -1.045  0.00  0.00     0.020 A 
ATOM      3  C2  UNL d   1      -1.349   0.338   0.280  0.00  0.00     0.034 A 
ATOM      4  C3  UNL d   1      -0.345  -0.328   0.994  0.00  0.00     0.017 A 
ATOM      5  C4  UNL d   1       0.877  -0.611   0.374  0.00  0.00     0.017 A 
ATOM      6  C5  UNL d   1       1.088  -0.227  -0.954  0.00  0.00     0.034 A 
ATOM      7 Cl   UNL d   1       2.163  -1.429   1.190  0.00  0.00    -0.070 Cl
ATOM      8 Cl1  UNL d   1      -0.681  -0.770   2.630  0.00  0.00    -0.070 Cl
ENDROOT
TORSDOF 0
ENDMDL
