MODEL 1
REMARK minimizedAffinity -3.00518918
REMARK minimizedRMSD -1
REMARK  0 active torsions:
REMARK  status: ('A' for Active; 'I' for Inactive)
ROOT
ATOM      1  C   UNL d   1       1.762  -1.116  -0.779  0.00  0.00     0.020 A 
ATOM      2  C1  UNL d   1       1.680  -1.336   0.595  0.00  0.00     0.020 A 
ATOM      3  C2  UNL d   1       0.602  -0.825   1.321  0.00  0.00     0.034 A 
ATOM      4  C3  UNL d   1      -0.399  -0.093   0.672  0.00  0.00     0.017 A 
ATOM      5  C4  UNL d   1      -0.316   0.127  -0.708  0.00  0.00     0.017 A 
ATOM      6  C5  UNL d   1       0.766  -0.387  -1.429  0.00  0.00     0.034 A 
ATOM      7 Cl   UNL d   1      -1.512   1.021  -1.578  0.00  0.00    -0.070 Cl
ATOM      8 Cl1  UNL d   1      -1.704   0.509   1.631  0.00  0.00    -0.070 Cl
ENDROOT
TORSDOF 0
ENDMDL
