MODEL 1
REMARK minimizedAffinity -1.6387496
REMARK minimizedRMSD -1
REMARK  0 active torsions:
REMARK  status: ('A' for Active; 'I' for Inactive)
ROOT
ATOM      1  C   UNL d   1      -0.613   0.510  -1.327  0.00  0.00     0.020 A 
ATOM      2  C1  UNL d   1       0.725   0.300  -1.657  0.00  0.00     0.020 A 
ATOM      3  C2  UNL d   1       1.594  -0.267  -0.722  0.00  0.00     0.034 A 
ATOM      4  C3  UNL d   1       1.125  -0.626   0.547  0.00  0.00     0.017 A 
ATOM      5  C4  UNL d   1      -0.218  -0.415   0.877  0.00  0.00     0.017 A 
ATOM      6  C5  UNL d   1      -1.084   0.154  -0.063  0.00  0.00     0.034 A 
ATOM      7 Cl   UNL d   1      -0.869  -0.831   2.423  0.00  0.00    -0.070 Cl
ATOM      8 Cl1  UNL d   1       2.255  -1.323   1.653  0.00  0.00    -0.070 Cl
ENDROOT
TORSDOF 0
ENDMDL
