MODEL 1
REMARK minimizedAffinity -2.28923821
REMARK minimizedRMSD -1
REMARK  0 active torsions:
REMARK  status: ('A' for Active; 'I' for Inactive)
ROOT
ATOM      1  C   UNL d   1       2.241  -1.198   0.321  0.00  0.00     0.020 A 
ATOM      2  C1  UNL d   1       1.477  -0.343  -0.473  0.00  0.00     0.020 A 
ATOM      3  C2  UNL d   1       0.264   0.157   0.005  0.00  0.00     0.034 A 
ATOM      4  C3  UNL d   1      -0.189  -0.198   1.281  0.00  0.00     0.017 A 
ATOM      5  C4  UNL d   1       0.578  -1.056   2.077  0.00  0.00     0.017 A 
ATOM      6  C5  UNL d   1       1.792  -1.553   1.593  0.00  0.00     0.034 A 
ATOM      7 Cl   UNL d   1       0.085  -1.538   3.662  0.00  0.00    -0.070 Cl
ATOM      8 Cl1  UNL d   1      -1.698   0.458   1.809  0.00  0.00    -0.070 Cl
ENDROOT
TORSDOF 0
ENDMDL
