MODEL 1
REMARK minimizedAffinity 13.899148
REMARK minimizedRMSD -1
REMARK  0 active torsions:
REMARK  status: ('A' for Active; 'I' for Inactive)
ROOT
ATOM      1  C   UNL d   1      -2.015   2.616  -2.887  0.00  0.00     0.020 A 
ATOM      2  C1  UNL d   1      -0.831   2.699  -2.154  0.00  0.00     0.020 A 
ATOM      3  C2  UNL d   1      -0.768   2.159  -0.868  0.00  0.00     0.034 A 
ATOM      4  C3  UNL d   1      -1.890   1.535  -0.310  0.00  0.00     0.017 A 
ATOM      5  C4  UNL d   1      -3.077   1.453  -1.046  0.00  0.00     0.017 A 
ATOM      6  C5  UNL d   1      -3.135   1.994  -2.334  0.00  0.00     0.034 A 
ATOM      7 Cl   UNL d   1      -4.502   0.697  -0.426  0.00  0.00    -0.070 Cl
ATOM      8 Cl1  UNL d   1      -1.740   0.890   1.286  0.00  0.00    -0.070 Cl
ENDROOT
TORSDOF 0
ENDMDL
