MODEL 1
REMARK minimizedAffinity 7.12616682
REMARK minimizedRMSD -1
REMARK  0 active torsions:
REMARK  status: ('A' for Active; 'I' for Inactive)
ROOT
ATOM      1  C   UNL d   1      -3.049   1.811  -3.768  0.00  0.00     0.124 A 
ATOM      2  C1  UNL d   1      -2.716   0.483  -3.996  0.00  0.00     0.062 A 
ATOM      3  C2  UNL d   1      -2.074  -0.257  -3.007  0.00  0.00     0.162 A 
ATOM      4  C3  UNL d   1      -1.760   0.330  -1.781  0.00  0.00    -0.034 A 
ATOM      5  C4  UNL d   1      -2.097   1.666  -1.560  0.00  0.00     0.162 A 
ATOM      6  C5  UNL d   1      -2.739   2.401  -2.551  0.00  0.00     0.062 A 
ATOM      7  F   UNL d   1      -3.060   3.684  -2.330  0.00  0.00    -0.097 F 
ATOM      8  F1  UNL d   1      -1.811   2.261  -0.393  0.00  0.00    -0.096 F 
ATOM      9  I   UNL d   1      -0.800  -0.773  -0.300  0.00  0.00    -0.060 I 
ATOM     10  F2  UNL d   1      -1.764  -1.539  -3.254  0.00  0.00    -0.096 F 
ATOM     11  F3  UNL d   1      -3.013  -0.090  -5.171  0.00  0.00    -0.097 F 
ATOM     12  F4  UNL d   1      -3.666   2.521  -4.722  0.00  0.00    -0.092 F 
ENDROOT
TORSDOF 0
ENDMDL
