MODEL 1
REMARK minimizedAffinity 8.88986206
REMARK minimizedRMSD -1
REMARK  0 active torsions:
REMARK  status: ('A' for Active; 'I' for Inactive)
ROOT
ATOM      1  C   UNL d   1       2.501   0.076   3.688  0.00  0.00     0.124 A 
ATOM      2  C1  UNL d   1       1.820  -0.784   2.837  0.00  0.00     0.062 A 
ATOM      3  C2  UNL d   1       1.369  -0.333   1.600  0.00  0.00     0.162 A 
ATOM      4  C3  UNL d   1       1.598   0.985   1.205  0.00  0.00    -0.034 A 
ATOM      5  C4  UNL d   1       2.283   1.844   2.066  0.00  0.00     0.162 A 
ATOM      6  C5  UNL d   1       2.732   1.388   3.301  0.00  0.00     0.062 A 
ATOM      7  F   UNL d   1       3.390   2.221   4.122  0.00  0.00    -0.097 F 
ATOM      8  F1  UNL d   1       2.521   3.117   1.717  0.00  0.00    -0.096 F 
ATOM      9  I   UNL d   1       0.925   1.663  -0.644  0.00  0.00    -0.060 I 
ATOM     10  F2  UNL d   1       0.713  -1.186   0.799  0.00  0.00    -0.096 F 
ATOM     11  F3  UNL d   1       1.594  -2.053   3.209  0.00  0.00    -0.097 F 
ATOM     12  F4  UNL d   1       2.933  -0.360   4.878  0.00  0.00    -0.092 F 
ENDROOT
TORSDOF 0
ENDMDL
