MODEL 1
REMARK minimizedAffinity 6.41847849
REMARK minimizedRMSD -1
REMARK  0 active torsions:
REMARK  status: ('A' for Active; 'I' for Inactive)
ROOT
ATOM      1  C   UNL d   1       3.137   1.067   2.592  0.00  0.00     0.124 A 
ATOM      2  C1  UNL d   1       2.826  -0.186   3.103  0.00  0.00     0.062 A 
ATOM      3  C2  UNL d   1       2.116  -1.100   2.330  0.00  0.00     0.162 A 
ATOM      4  C3  UNL d   1       1.713  -0.765   1.037  0.00  0.00    -0.034 A 
ATOM      5  C4  UNL d   1       2.028   0.497   0.531  0.00  0.00     0.162 A 
ATOM      6  C5  UNL d   1       2.738   1.407   1.308  0.00  0.00     0.062 A 
ATOM      7  F   UNL d   1       3.038   2.617   0.813  0.00  0.00    -0.097 F 
ATOM      8  F1  UNL d   1       1.655   0.852  -0.707  0.00  0.00    -0.096 F 
ATOM      9  I   UNL d   1       0.650  -2.129  -0.121  0.00  0.00    -0.060 I 
ATOM     10  F2  UNL d   1       1.830  -2.303   2.849  0.00  0.00    -0.096 F 
ATOM     11  F3  UNL d   1       3.210  -0.517   4.344  0.00  0.00    -0.097 F 
ATOM     12  F4  UNL d   1       3.820   1.945   3.338  0.00  0.00    -0.092 F 
ENDROOT
TORSDOF 0
ENDMDL
