MODEL 1
REMARK minimizedAffinity 20.8998528
REMARK minimizedRMSD -1
REMARK  0 active torsions:
REMARK  status: ('A' for Active; 'I' for Inactive)
ROOT
ATOM      1  C   UNL d   1       1.016   0.063   0.043  0.00  0.00     0.124 A 
ATOM      2  C1  UNL d   1      -0.320   0.305   0.334  0.00  0.00     0.062 A 
ATOM      3  C2  UNL d   1      -0.771   1.609   0.518  0.00  0.00     0.162 A 
ATOM      4  C3  UNL d   1       0.113   2.682   0.410  0.00  0.00    -0.034 A 
ATOM      5  C4  UNL d   1       1.455   2.431   0.118  0.00  0.00     0.162 A 
ATOM      6  C5  UNL d   1       1.902   1.126  -0.065  0.00  0.00     0.062 A 
ATOM      7  F   UNL d   1       3.192   0.894  -0.346  0.00  0.00    -0.097 F 
ATOM      8  F1  UNL d   1       2.333   3.439   0.007  0.00  0.00    -0.096 F 
ATOM      9  I   UNL d   1      -0.558   4.632   0.684  0.00  0.00    -0.060 I 
ATOM     10  F2  UNL d   1      -2.067   1.813   0.799  0.00  0.00    -0.096 F 
ATOM     11  F3  UNL d   1      -1.178  -0.720   0.440  0.00  0.00    -0.097 F 
ATOM     12  F4  UNL d   1       1.448  -1.192  -0.133  0.00  0.00    -0.092 F 
ENDROOT
TORSDOF 0
ENDMDL
