MODEL 1
REMARK minimizedAffinity 13.6687021
REMARK minimizedRMSD -1
REMARK  0 active torsions:
REMARK  status: ('A' for Active; 'I' for Inactive)
ROOT
ATOM      1  C   UNL d   1       1.152   1.994  -0.172  0.00  0.00     0.124 A 
ATOM      2  C1  UNL d   1       2.200   2.203   0.714  0.00  0.00     0.062 A 
ATOM      3  C2  UNL d   1       2.431   1.302   1.749  0.00  0.00     0.162 A 
ATOM      4  C3  UNL d   1       1.613   0.184   1.905  0.00  0.00    -0.034 A 
ATOM      5  C4  UNL d   1       0.560  -0.019   1.011  0.00  0.00     0.162 A 
ATOM      6  C5  UNL d   1       0.333   0.883  -0.022  0.00  0.00     0.062 A 
ATOM      7  F   UNL d   1      -0.680   0.680  -0.877  0.00  0.00    -0.097 F 
ATOM      8  F1  UNL d   1      -0.246  -1.085   1.132  0.00  0.00    -0.096 F 
ATOM      9  I   UNL d   1       1.956  -1.165   3.453  0.00  0.00    -0.060 I 
ATOM     10  F2  UNL d   1       3.452   1.529   2.590  0.00  0.00    -0.096 F 
ATOM     11  F3  UNL d   1       2.992   3.275   0.572  0.00  0.00    -0.097 F 
ATOM     12  F4  UNL d   1       0.931   2.862  -1.167  0.00  0.00    -0.092 F 
ENDROOT
TORSDOF 0
ENDMDL
