MODEL 1
REMARK minimizedAffinity 14.6874704
REMARK minimizedRMSD -1
REMARK  0 active torsions:
REMARK  status: ('A' for Active; 'I' for Inactive)
ROOT
ATOM      1  C   UNL d   1       2.730   2.048   2.848  0.00  0.00     0.124 A 
ATOM      2  C1  UNL d   1       2.352   0.880   3.496  0.00  0.00     0.062 A 
ATOM      3  C2  UNL d   1       1.710  -0.135   2.792  0.00  0.00     0.162 A 
ATOM      4  C3  UNL d   1       1.442   0.014   1.431  0.00  0.00    -0.034 A 
ATOM      5  C4  UNL d   1       1.823   1.192   0.787  0.00  0.00     0.162 A 
ATOM      6  C5  UNL d   1       2.465   2.203   1.494  0.00  0.00     0.062 A 
ATOM      7  F   UNL d   1       2.828   3.331   0.867  0.00  0.00    -0.097 F 
ATOM      8  F1  UNL d   1       1.580   1.367  -0.521  0.00  0.00    -0.096 F 
ATOM      9  I   UNL d   1       0.481  -1.501   0.376  0.00  0.00    -0.060 I 
ATOM     10  F2  UNL d   1       1.357  -1.253   3.444  0.00  0.00    -0.096 F 
ATOM     11  F3  UNL d   1       2.606   0.728   4.803  0.00  0.00    -0.097 F 
ATOM     12  F4  UNL d   1       3.347   3.023   3.527  0.00  0.00    -0.092 F 
ENDROOT
TORSDOF 0
ENDMDL
