MODEL 1
REMARK minimizedAffinity 3.83005047
REMARK minimizedRMSD -1
REMARK  0 active torsions:
REMARK  status: ('A' for Active; 'I' for Inactive)
ROOT
ATOM      1  C   UNL d   1       0.464  -1.051   1.215  0.00  0.00     0.124 A 
ATOM      2  C1  UNL d   1      -0.458  -1.885   0.597  0.00  0.00     0.062 A 
ATOM      3  C2  UNL d   1      -1.176  -1.438  -0.508  0.00  0.00     0.162 A 
ATOM      4  C3  UNL d   1      -0.976  -0.150  -1.004  0.00  0.00    -0.034 A 
ATOM      5  C4  UNL d   1      -0.048   0.684  -0.377  0.00  0.00     0.162 A 
ATOM      6  C5  UNL d   1       0.668   0.233   0.727  0.00  0.00     0.062 A 
ATOM      7  F   UNL d   1       1.557   1.040   1.323  0.00  0.00    -0.097 F 
ATOM      8  F1  UNL d   1       0.170   1.928  -0.828  0.00  0.00    -0.096 F 
ATOM      9  I   UNL d   1      -2.048   0.522  -2.656  0.00  0.00    -0.060 I 
ATOM     10  F2  UNL d   1      -2.060  -2.266  -1.085  0.00  0.00    -0.096 F 
ATOM     11  F3  UNL d   1      -0.657  -3.125   1.067  0.00  0.00    -0.097 F 
ATOM     12  F4  UNL d   1       1.153  -1.483   2.279  0.00  0.00    -0.092 F 
ENDROOT
TORSDOF 0
ENDMDL
