MODEL 1
REMARK minimizedAffinity 8.08843803
REMARK minimizedRMSD -1
REMARK  0 active torsions:
REMARK  status: ('A' for Active; 'I' for Inactive)
ROOT
ATOM      1  C   UNL d   1      -2.362  -0.160  -3.693  0.00  0.00     0.124 A 
ATOM      2  C1  UNL d   1      -1.524  -1.135  -3.169  0.00  0.00     0.062 A 
ATOM      3  C2  UNL d   1      -0.914  -0.944  -1.933  0.00  0.00     0.162 A 
ATOM      4  C3  UNL d   1      -1.139   0.228  -1.211  0.00  0.00    -0.034 A 
ATOM      5  C4  UNL d   1      -1.982   1.205  -1.744  0.00  0.00     0.162 A 
ATOM      6  C5  UNL d   1      -2.590   1.009  -2.980  0.00  0.00     0.062 A 
ATOM      7  F   UNL d   1      -3.399   1.952  -3.484  0.00  0.00    -0.097 F 
ATOM      8  F1  UNL d   1      -2.221   2.343  -1.076  0.00  0.00    -0.096 F 
ATOM      9  I   UNL d   1      -0.229   0.518   0.638  0.00  0.00    -0.060 I 
ATOM     10  F2  UNL d   1      -0.109  -1.903  -1.452  0.00  0.00    -0.096 F 
ATOM     11  F3  UNL d   1      -1.301  -2.264  -3.857  0.00  0.00    -0.097 F 
ATOM     12  F4  UNL d   1      -2.947  -0.346  -4.883  0.00  0.00    -0.092 F 
ENDROOT
TORSDOF 0
ENDMDL
