MODEL 1
REMARK minimizedAffinity 13.0713062
REMARK minimizedRMSD -1
REMARK  0 active torsions:
REMARK  status: ('A' for Active; 'I' for Inactive)
ROOT
ATOM      1  C   UNL d   1       0.721   2.839  -0.060  0.00  0.00     0.124 A 
ATOM      2  C1  UNL d   1      -0.499   2.177  -0.062  0.00  0.00     0.062 A 
ATOM      3  C2  UNL d   1      -0.575   0.848   0.344  0.00  0.00     0.162 A 
ATOM      4  C3  UNL d   1       0.573   0.172   0.758  0.00  0.00    -0.034 A 
ATOM      5  C4  UNL d   1       1.797   0.844   0.757  0.00  0.00     0.162 A 
ATOM      6  C5  UNL d   1       1.867   2.172   0.350  0.00  0.00     0.062 A 
ATOM      7  F   UNL d   1       3.047   2.811   0.353  0.00  0.00    -0.097 F 
ATOM      8  F1  UNL d   1       2.920   0.224   1.149  0.00  0.00    -0.096 F 
ATOM      9  I   UNL d   1       0.464  -1.815   1.367  0.00  0.00    -0.060 I 
ATOM     10  F2  UNL d   1      -1.767   0.233   0.332  0.00  0.00    -0.096 F 
ATOM     11  F3  UNL d   1      -1.607   2.819  -0.459  0.00  0.00    -0.097 F 
ATOM     12  F4  UNL d   1       0.792   4.117  -0.453  0.00  0.00    -0.092 F 
ENDROOT
TORSDOF 0
ENDMDL
