MODEL 1
REMARK minimizedAffinity -4.15050602
REMARK minimizedRMSD -1
REMARK  0 active torsions:
REMARK  status: ('A' for Active; 'I' for Inactive)
ROOT
ATOM      1  C1  BNZ d   1       1.170  -0.498  -1.726  0.00  0.00     0.000 A 
ATOM      2  C2  BNZ d   1      -0.073  -0.013  -2.034  0.00  0.00     0.000 A 
ATOM      3  C3  BNZ d   1      -0.910   0.441  -1.054  0.00  0.00     0.000 A 
ATOM      4  C4  BNZ d   1      -0.520   0.372   0.235  0.00  0.00     0.000 A 
ATOM      5  C5  BNZ d   1       0.726  -0.123   0.563  0.00  0.00     0.000 A 
ATOM      6  C6  BNZ d   1       1.582  -0.543  -0.429  0.00  0.00     0.000 A 
ENDROOT
TORSDOF 0
ENDMDL
