MODEL 1
REMARK minimizedAffinity -3.30756736
REMARK minimizedRMSD -1
REMARK  0 active torsions:
REMARK  status: ('A' for Active; 'I' for Inactive)
ROOT
ATOM      1  C1  BNZ d   1       1.870  -1.666  -0.367  0.00  0.00     0.000 A 
ATOM      2  C2  BNZ d   1       1.043  -1.079  -1.287  0.00  0.00     0.000 A 
ATOM      3  C3  BNZ d   1      -0.086  -0.418  -0.892  0.00  0.00     0.000 A 
ATOM      4  C4  BNZ d   1      -0.407  -0.379   0.417  0.00  0.00     0.000 A 
ATOM      5  C5  BNZ d   1       0.411  -0.974   1.356  0.00  0.00     0.000 A 
ATOM      6  C6  BNZ d   1       1.568  -1.605   0.958  0.00  0.00     0.000 A 
ENDROOT
TORSDOF 0
ENDMDL
