MODEL 1
REMARK minimizedAffinity -3.39256334
REMARK minimizedRMSD -1
REMARK  0 active torsions:
REMARK  status: ('A' for Active; 'I' for Inactive)
ROOT
ATOM      1  C1  BNZ d   1      -0.559   0.051   1.442  0.00  0.00     0.000 A 
ATOM      2  C2  BNZ d   1       0.268   0.290   0.377  0.00  0.00     0.000 A 
ATOM      3  C3  BNZ d   1       1.433  -0.407   0.225  0.00  0.00     0.000 A 
ATOM      4  C4  BNZ d   1       1.791  -1.312   1.158  0.00  0.00     0.000 A 
ATOM      5  C5  BNZ d   1       0.973  -1.558   2.243  0.00  0.00     0.000 A 
ATOM      6  C6  BNZ d   1      -0.219  -0.883   2.372  0.00  0.00     0.000 A 
ENDROOT
TORSDOF 0
ENDMDL
