MODEL 1
REMARK minimizedAffinity -1.7005173
REMARK minimizedRMSD -1
REMARK  0 active torsions:
REMARK  status: ('A' for Active; 'I' for Inactive)
ROOT
ATOM      1  C1  BNZ d   1       0.559  -0.742  -0.606  0.00  0.00     0.000 A 
ATOM      2  C2  BNZ d   1       0.219  -0.760  -1.933  0.00  0.00     0.000 A 
ATOM      3  C3  BNZ d   1      -0.802   0.016  -2.405  0.00  0.00     0.000 A 
ATOM      4  C4  BNZ d   1      -1.507   0.779  -1.545  0.00  0.00     0.000 A 
ATOM      5  C5  BNZ d   1      -1.183   0.801  -0.203  0.00  0.00     0.000 A 
ATOM      6  C6  BNZ d   1      -0.129   0.048   0.262  0.00  0.00     0.000 A 
ENDROOT
TORSDOF 0
ENDMDL
