MODEL 1
REMARK minimizedAffinity -1.64107072
REMARK minimizedRMSD -1
REMARK  0 active torsions:
REMARK  status: ('A' for Active; 'I' for Inactive)
ROOT
ATOM      1  C1  BNZ d   1       2.094  -1.082   0.608  0.00  0.00     0.000 A 
ATOM      2  C2  BNZ d   1       1.660  -0.232  -0.374  0.00  0.00     0.000 A 
ATOM      3  C3  BNZ d   1       0.421   0.341  -0.306  0.00  0.00     0.000 A 
ATOM      4  C4  BNZ d   1      -0.397   0.033   0.721  0.00  0.00     0.000 A 
ATOM      5  C5  BNZ d   1       0.023  -0.830   1.714  0.00  0.00     0.000 A 
ATOM      6  C6  BNZ d   1       1.285  -1.374   1.663  0.00  0.00     0.000 A 
ENDROOT
TORSDOF 0
ENDMDL
