MODEL 1
REMARK minimizedAffinity -3.8967371
REMARK minimizedRMSD -1
REMARK  0 active torsions:
REMARK  status: ('A' for Active; 'I' for Inactive)
ROOT
ATOM      1  C1  BNZ d   1      -0.564   0.881   0.103  0.00  0.00     0.000 A 
ATOM      2  C2  BNZ d   1       0.608   0.174   0.049  0.00  0.00     0.000 A 
ATOM      3  C3  BNZ d   1       0.943  -0.541  -1.067  0.00  0.00     0.000 A 
ATOM      4  C4  BNZ d   1       0.089  -0.580  -2.110  0.00  0.00     0.000 A 
ATOM      5  C5  BNZ d   1      -1.100   0.120  -2.067  0.00  0.00     0.000 A 
ATOM      6  C6  BNZ d   1      -1.416   0.869  -0.957  0.00  0.00     0.000 A 
ENDROOT
TORSDOF 0
ENDMDL
