MODEL 1
REMARK minimizedAffinity -2.97944045
REMARK minimizedRMSD -1
REMARK  0 active torsions:
REMARK  status: ('A' for Active; 'I' for Inactive)
ROOT
ATOM      1  C1  BNZ d   1       1.644  -0.720  -0.873  0.00  0.00     0.000 A 
ATOM      2  C2  BNZ d   1       0.441  -0.068  -0.815  0.00  0.00     0.000 A 
ATOM      3  C3  BNZ d   1      -0.307  -0.079   0.330  0.00  0.00     0.000 A 
ATOM      4  C4  BNZ d   1       0.129  -0.774   1.400  0.00  0.00     0.000 A 
ATOM      5  C5  BNZ d   1       1.335  -1.445   1.354  0.00  0.00     0.000 A 
ATOM      6  C6  BNZ d   1       2.104  -1.399   0.213  0.00  0.00     0.000 A 
ENDROOT
TORSDOF 0
ENDMDL
