MODEL 1
REMARK minimizedAffinity 2.2853148
REMARK minimizedRMSD -1
REMARK  0 active torsions:
REMARK  status: ('A' for Active; 'I' for Inactive)
ROOT
ATOM      1  C1  BNZ d   1      -0.748   3.751   0.093  0.00  0.00     0.000 A 
ATOM      2  C2  BNZ d   1      -1.126   4.881   0.768  0.00  0.00     0.000 A 
ATOM      3  C3  BNZ d   1      -1.528   5.999   0.092  0.00  0.00     0.000 A 
ATOM      4  C4  BNZ d   1      -1.512   6.000  -1.257  0.00  0.00     0.000 A 
ATOM      5  C5  BNZ d   1      -1.124   4.872  -1.952  0.00  0.00     0.000 A 
ATOM      6  C6  BNZ d   1      -0.758   3.735  -1.268  0.00  0.00     0.000 A 
ENDROOT
TORSDOF 0
ENDMDL
