MODEL 1
REMARK minimizedAffinity 4.31367493
REMARK minimizedRMSD -1
REMARK  0 active torsions:
REMARK  status: ('A' for Active; 'I' for Inactive)
ROOT
ATOM      1  C1  BNZ d   1      -3.034   2.808  -2.636  0.00  0.00     0.000 A 
ATOM      2  C2  BNZ d   1      -3.634   1.612  -2.347  0.00  0.00     0.000 A 
ATOM      3  C3  BNZ d   1      -4.700   1.551  -1.493  0.00  0.00     0.000 A 
ATOM      4  C4  BNZ d   1      -5.138   2.680  -0.899  0.00  0.00     0.000 A 
ATOM      5  C5  BNZ d   1      -4.538   3.893  -1.173  0.00  0.00     0.000 A 
ATOM      6  C6  BNZ d   1      -3.491   3.955  -2.063  0.00  0.00     0.000 A 
ENDROOT
TORSDOF 0
ENDMDL
