MODEL 1
REMARK minimizedAffinity -3.72399569
REMARK minimizedRMSD -1
REMARK  0 active torsions:
REMARK  status: ('A' for Active; 'I' for Inactive)
ROOT
ATOM      1  C1  BNZ d   1      -1.100  -0.163  -1.842  0.00  0.00     0.000 A 
ATOM      2  C2  BNZ d   1       0.038  -0.876  -1.575  0.00  0.00     0.000 A 
ATOM      3  C3  BNZ d   1       0.894  -0.482  -0.584  0.00  0.00     0.000 A 
ATOM      4  C4  BNZ d   1       0.631   0.644   0.111  0.00  0.00     0.000 A 
ATOM      5  C5  BNZ d   1      -0.507   1.378  -0.153  0.00  0.00     0.000 A 
ATOM      6  C6  BNZ d   1      -1.386   0.958  -1.125  0.00  0.00     0.000 A 
ENDROOT
TORSDOF 0
ENDMDL
