MODEL 1
REMARK minimizedAffinity 1.89116192
REMARK minimizedRMSD -1
REMARK  0 active torsions:
REMARK  status: ('A' for Active; 'I' for Inactive)
ROOT
ATOM      1  C1  BNZ d   1       0.251  -0.581  -1.326  0.00  0.00     0.000 A 
ATOM      2  C2  BNZ d   1       1.469   0.045  -1.348  0.00  0.00     0.000 A 
ATOM      3  C3  BNZ d   1       1.943   0.693  -0.242  0.00  0.00     0.000 A 
ATOM      4  C4  BNZ d   1       1.183   0.749   0.870  0.00  0.00     0.000 A 
ATOM      5  C5  BNZ d   1      -0.051   0.131   0.906  0.00  0.00     0.000 A 
ATOM      6  C6  BNZ d   1      -0.508  -0.554  -0.197  0.00  0.00     0.000 A 
ENDROOT
TORSDOF 0
ENDMDL
