MODEL 1
REMARK minimizedAffinity -2.50825524
REMARK minimizedRMSD -1
REMARK  0 active torsions:
REMARK  status: ('A' for Active; 'I' for Inactive)
ROOT
ATOM      1  C1  BNZ d   1      -5.459  -5.998   0.754  0.00  0.00     0.000 A 
ATOM      2  C2  BNZ d   1      -4.884  -5.992  -0.488  0.00  0.00     0.000 A 
ATOM      3  C3  BNZ d   1      -3.553  -5.723  -0.641  0.00  0.00     0.000 A 
ATOM      4  C4  BNZ d   1      -2.808  -5.421   0.442  0.00  0.00     0.000 A 
ATOM      5  C5  BNZ d   1      -3.376  -5.413   1.700  0.00  0.00     0.000 A 
ATOM      6  C6  BNZ d   1      -4.708  -5.724   1.855  0.00  0.00     0.000 A 
ENDROOT
TORSDOF 0
ENDMDL
