MODEL 1
REMARK minimizedAffinity -1.56417596
REMARK minimizedRMSD -1
REMARK  0 active torsions:
REMARK  status: ('A' for Active; 'I' for Inactive)
ROOT
ATOM      1  C1  BNZ d   1       0.740  -0.584  -1.079  0.00  0.00     0.000 A 
ATOM      2  C2  BNZ d   1       0.967  -1.869  -0.664  0.00  0.00     0.000 A 
ATOM      3  C3  BNZ d   1       1.839  -2.132   0.356  0.00  0.00     0.000 A 
ATOM      4  C4  BNZ d   1       2.511  -1.114   0.932  0.00  0.00     0.000 A 
ATOM      5  C5  BNZ d   1       2.300   0.186   0.518  0.00  0.00     0.000 A 
ATOM      6  C6  BNZ d   1       1.393   0.450  -0.482  0.00  0.00     0.000 A 
ENDROOT
TORSDOF 0
ENDMDL
