MODEL 1
REMARK minimizedAffinity -3.81571651
REMARK minimizedRMSD -1
REMARK  0 active torsions:
REMARK  status: ('A' for Active; 'I' for Inactive)
ROOT
ATOM      1  C1  BNZ d   1       1.524  -1.664   1.278  0.00  0.00     0.000 A 
ATOM      2  C2  BNZ d   1       2.385  -1.005   0.441  0.00  0.00     0.000 A 
ATOM      3  C3  BNZ d   1       1.967   0.078  -0.281  0.00  0.00     0.000 A 
ATOM      4  C4  BNZ d   1       0.681   0.476  -0.195  0.00  0.00     0.000 A 
ATOM      5  C5  BNZ d   1      -0.201  -0.184   0.637  0.00  0.00     0.000 A 
ATOM      6  C6  BNZ d   1       0.233  -1.250   1.391  0.00  0.00     0.000 A 
ENDROOT
TORSDOF 0
ENDMDL
