MODEL 1
REMARK minimizedAffinity -4.10979223
REMARK minimizedRMSD -1
REMARK  0 active torsions:
REMARK  status: ('A' for Active; 'I' for Inactive)
ROOT
ATOM      1  C1  BNZ d   1      -0.327   0.970  -0.422  0.00  0.00     0.000 A 
ATOM      2  C2  BNZ d   1       0.761   0.146  -0.311  0.00  0.00     0.000 A 
ATOM      3  C3  BNZ d   1       1.099  -0.707  -1.325  0.00  0.00     0.000 A 
ATOM      4  C4  BNZ d   1       0.326  -0.765  -2.428  0.00  0.00     0.000 A 
ATOM      5  C5  BNZ d   1      -0.780   0.053  -2.551  0.00  0.00     0.000 A 
ATOM      6  C6  BNZ d   1      -1.094   0.938  -1.545  0.00  0.00     0.000 A 
ENDROOT
TORSDOF 0
ENDMDL
