MODEL 1
REMARK minimizedAffinity -1.62311089
REMARK minimizedRMSD -1
REMARK  0 active torsions:
REMARK  status: ('A' for Active; 'I' for Inactive)
ROOT
ATOM      1  C1  BNZ d   1       0.321  -0.368  -1.838  0.00  0.00     0.000 A 
ATOM      2  C2  BNZ d   1      -0.333   0.104  -2.944  0.00  0.00     0.000 A 
ATOM      3  C3  BNZ d   1      -1.138   1.206  -2.864  0.00  0.00     0.000 A 
ATOM      4  C4  BNZ d   1      -1.319   1.810  -1.672  0.00  0.00     0.000 A 
ATOM      5  C5  BNZ d   1      -0.673   1.341  -0.545  0.00  0.00     0.000 A 
ATOM      6  C6  BNZ d   1       0.167   0.254  -0.637  0.00  0.00     0.000 A 
ENDROOT
TORSDOF 0
ENDMDL
