MODEL 1
REMARK minimizedAffinity -1.703076
REMARK minimizedRMSD -1
REMARK  0 active torsions:
REMARK  status: ('A' for Active; 'I' for Inactive)
ROOT
ATOM      1  C1  BNZ d   1      -1.497   1.764  -2.155  0.00  0.00     0.000 A 
ATOM      2  C2  BNZ d   1      -0.521   0.806  -2.217  0.00  0.00     0.000 A 
ATOM      3  C3  BNZ d   1      -0.114   0.148  -1.090  0.00  0.00     0.000 A 
ATOM      4  C4  BNZ d   1      -0.654   0.476   0.101  0.00  0.00     0.000 A 
ATOM      5  C5  BNZ d   1      -1.633   1.447   0.181  0.00  0.00     0.000 A 
ATOM      6  C6  BNZ d   1      -2.067   2.080  -0.961  0.00  0.00     0.000 A 
ENDROOT
TORSDOF 0
ENDMDL
