MODEL 1
REMARK minimizedAffinity 3.97273374
REMARK minimizedRMSD -1
REMARK  0 active torsions:
REMARK  status: ('A' for Active; 'I' for Inactive)
ROOT
ATOM      1  C1  BNZ d   1      -1.870   1.205   1.052  0.00  0.00     0.000 A 
ATOM      2  C2  BNZ d   1      -2.645   1.398  -0.060  0.00  0.00     0.000 A 
ATOM      3  C3  BNZ d   1      -3.013   0.343  -0.848  0.00  0.00     0.000 A 
ATOM      4  C4  BNZ d   1      -2.574  -0.895  -0.546  0.00  0.00     0.000 A 
ATOM      5  C5  BNZ d   1      -1.785  -1.105   0.568  0.00  0.00     0.000 A 
ATOM      6  C6  BNZ d   1      -1.448  -0.046   1.380  0.00  0.00     0.000 A 
ENDROOT
TORSDOF 0
ENDMDL
