MODEL 1
REMARK minimizedAffinity -4.12901688
REMARK minimizedRMSD -1
REMARK  0 active torsions:
REMARK  status: ('A' for Active; 'I' for Inactive)
ROOT
ATOM      1  C4' PXY d   1      -0.079   0.398   2.591  0.00  0.00     0.077 C 
ATOM      2  C1' PXY d   1       0.895  -0.849  -2.969  0.00  0.00     0.077 C 
ATOM      3  C1  PXY d   1       0.627  -0.525  -1.512  0.00  0.00    -0.082 A 
ATOM      4  C2  PXY d   1       1.442   0.291  -0.863  0.00  0.00     0.003 A 
ATOM      5  C3  PXY d   1       1.233   0.569   0.463  0.00  0.00     0.003 A 
ATOM      6  C4  PXY d   1       0.148   0.050   1.117  0.00  0.00    -0.082 A 
ATOM      7  C5  PXY d   1      -0.694  -0.774   0.459  0.00  0.00     0.003 A 
ATOM      8  C6  PXY d   1      -0.441  -1.077  -0.876  0.00  0.00     0.003 A 
ENDROOT
TORSDOF 0
ENDMDL
