MODEL 1
REMARK minimizedAffinity -5.45808458
REMARK minimizedRMSD -1
REMARK  0 active torsions:
REMARK  status: ('A' for Active; 'I' for Inactive)
ROOT
ATOM      1  C4' PXY d   1       0.680  -0.291  -2.112  0.00  0.00     0.077 C 
ATOM      2  C1' PXY d   1      -0.989  -0.254   3.422  0.00  0.00     0.077 C 
ATOM      3  C1  PXY d   1      -0.539  -0.262   1.975  0.00  0.00    -0.082 A 
ATOM      4  C2  PXY d   1      -1.406   0.032   1.019  0.00  0.00     0.003 A 
ATOM      5  C3  PXY d   1      -1.023  -0.002  -0.298  0.00  0.00     0.003 A 
ATOM      6  C4  PXY d   1       0.272  -0.286  -0.636  0.00  0.00    -0.082 A 
ATOM      7  C5  PXY d   1       1.165  -0.576   0.334  0.00  0.00     0.003 A 
ATOM      8  C6  PXY d   1       0.747  -0.577   1.662  0.00  0.00     0.003 A 
ENDROOT
TORSDOF 0
ENDMDL
