MODEL 1
REMARK minimizedAffinity -5.68227005
REMARK minimizedRMSD -1
REMARK  0 active torsions:
REMARK  status: ('A' for Active; 'I' for Inactive)
ROOT
ATOM      1  C4' PXY d   1       0.868   0.595  -1.616  0.00  0.00     0.077 C 
ATOM      2  C1' PXY d   1      -1.934  -0.715   3.267  0.00  0.00     0.077 C 
ATOM      3  C1  PXY d   1      -1.189  -0.368   1.994  0.00  0.00    -0.082 A 
ATOM      4  C2  PXY d   1      -1.869  -0.057   0.902  0.00  0.00     0.003 A 
ATOM      5  C3  PXY d   1      -1.211   0.228  -0.267  0.00  0.00     0.003 A 
ATOM      6  C4  PXY d   1       0.157   0.247  -0.305  0.00  0.00    -0.082 A 
ATOM      7  C5  PXY d   1       0.858  -0.058   0.808  0.00  0.00     0.003 A 
ATOM      8  C6  PXY d   1       0.172  -0.385   1.973  0.00  0.00     0.003 A 
ENDROOT
TORSDOF 0
ENDMDL
