MODEL 1
REMARK minimizedAffinity -5.0890789
REMARK minimizedRMSD -1
REMARK  0 active torsions:
REMARK  status: ('A' for Active; 'I' for Inactive)
ROOT
ATOM      1  C4' PXY d   1      -0.686  -0.858   3.400  0.00  0.00     0.077 C 
ATOM      2  C1' PXY d   1       0.888   0.426  -2.012  0.00  0.00     0.077 C 
ATOM      3  C1  PXY d   1       0.487   0.090  -0.589  0.00  0.00    -0.082 A 
ATOM      4  C2  PXY d   1      -0.617  -0.604  -0.367  0.00  0.00     0.003 A 
ATOM      5  C3  PXY d   1      -1.010  -0.889   0.915  0.00  0.00     0.003 A 
ATOM      6  C4  PXY d   1      -0.238  -0.504   1.979  0.00  0.00    -0.082 A 
ATOM      7  C5  PXY d   1       0.895   0.195   1.760  0.00  0.00     0.003 A 
ATOM      8  C6  PXY d   1       1.256   0.510   0.452  0.00  0.00     0.003 A 
ENDROOT
TORSDOF 0
ENDMDL
