MODEL 1
REMARK minimizedAffinity 0.705611408
REMARK minimizedRMSD -1
REMARK  0 active torsions:
REMARK  status: ('A' for Active; 'I' for Inactive)
ROOT
ATOM      1  C4' PXY d   1       1.579   0.020  -3.455  0.00  0.00     0.077 C 
ATOM      2  C1' PXY d   1      -1.659  -0.422   1.314  0.00  0.00     0.077 C 
ATOM      3  C1  PXY d   1      -0.820  -0.300   0.057  0.00  0.00    -0.082 A 
ATOM      4  C2  PXY d   1       0.211  -1.110  -0.122  0.00  0.00     0.003 A 
ATOM      5  C3  PXY d   1       1.000  -0.993  -1.237  0.00  0.00     0.003 A 
ATOM      6  C4  PXY d   1       0.698  -0.073  -2.206  0.00  0.00    -0.082 A 
ATOM      7  C5  PXY d   1      -0.359   0.750  -2.036  0.00  0.00     0.003 A 
ATOM      8  C6  PXY d   1      -1.122   0.642  -0.877  0.00  0.00     0.003 A 
ENDROOT
TORSDOF 0
ENDMDL
