MODEL 1
REMARK minimizedAffinity -3.45205975
REMARK minimizedRMSD -1
REMARK  0 active torsions:
REMARK  status: ('A' for Active; 'I' for Inactive)
ROOT
ATOM      1  C4' PXY d   1       0.553  -0.041  -2.342  0.00  0.00     0.077 C 
ATOM      2  C1' PXY d   1      -0.213  -0.307   3.381  0.00  0.00     0.077 C 
ATOM      3  C1  PXY d   1      -0.021  -0.246   1.878  0.00  0.00    -0.082 A 
ATOM      4  C2  PXY d   1       1.144   0.137   1.382  0.00  0.00     0.003 A 
ATOM      5  C3  PXY d   1       1.324   0.229   0.026  0.00  0.00     0.003 A 
ATOM      6  C4  PXY d   1       0.318  -0.127  -0.832  0.00  0.00    -0.082 A 
ATOM      7  C5  PXY d   1      -0.870  -0.529  -0.334  0.00  0.00     0.003 A 
ATOM      8  C6  PXY d   1      -1.046  -0.576   1.046  0.00  0.00     0.003 A 
ENDROOT
TORSDOF 0
ENDMDL
