MODEL 1
REMARK minimizedAffinity 1.71948457
REMARK minimizedRMSD -1
REMARK  0 active torsions:
REMARK  status: ('A' for Active; 'I' for Inactive)
ROOT
ATOM      1  C4' PXY d   1       5.376   2.185  -5.274  0.00  0.00     0.077 C 
ATOM      2  C1' PXY d   1       1.501  -1.931  -4.072  0.00  0.00     0.077 C 
ATOM      3  C1  PXY d   1       2.507  -0.843  -4.388  0.00  0.00    -0.082 A 
ATOM      4  C2  PXY d   1       3.682  -1.168  -4.902  0.00  0.00     0.003 A 
ATOM      5  C3  PXY d   1       4.617  -0.200  -5.164  0.00  0.00     0.003 A 
ATOM      6  C4  PXY d   1       4.326   1.121  -4.948  0.00  0.00    -0.082 A 
ATOM      7  C5  PXY d   1       3.125   1.461  -4.433  0.00  0.00     0.003 A 
ATOM      8  C6  PXY d   1       2.206   0.460  -4.136  0.00  0.00     0.003 A 
ENDROOT
TORSDOF 0
ENDMDL
