MODEL 1
REMARK minimizedAffinity -3.06041574
REMARK minimizedRMSD -1
REMARK  0 active torsions:
REMARK  status: ('A' for Active; 'I' for Inactive)
ROOT
ATOM      1  C4' PXY d   1      -3.427   1.361   2.427  0.00  0.00     0.077 C 
ATOM      2  C1' PXY d   1       1.962   0.008   0.834  0.00  0.00     0.077 C 
ATOM      3  C1  PXY d   1       0.546   0.367   1.240  0.00  0.00    -0.082 A 
ATOM      4  C2  PXY d   1       0.277   0.636   2.507  0.00  0.00     0.003 A 
ATOM      5  C3  PXY d   1      -1.004   0.931   2.896  0.00  0.00     0.003 A 
ATOM      6  C4  PXY d   1      -2.010   1.003   1.971  0.00  0.00    -0.082 A 
ATOM      7  C5  PXY d   1      -1.742   0.741   0.674  0.00  0.00     0.003 A 
ATOM      8  C6  PXY d   1      -0.443   0.403   0.306  0.00  0.00     0.003 A 
ENDROOT
TORSDOF 0
ENDMDL
