MODEL 1
REMARK minimizedAffinity -2.78153396
REMARK minimizedRMSD -1
REMARK  0 active torsions:
REMARK  status: ('A' for Active; 'I' for Inactive)
ROOT
ATOM      1  C4' PXY d   1      -1.046  -0.442   3.650  0.00  0.00     0.077 C 
ATOM      2  C1' PXY d   1       0.481   0.583  -1.830  0.00  0.00     0.077 C 
ATOM      3  C1  PXY d   1       0.093   0.311  -0.390  0.00  0.00    -0.082 A 
ATOM      4  C2  PXY d   1      -1.154  -0.024  -0.101  0.00  0.00     0.003 A 
ATOM      5  C3  PXY d   1      -1.529  -0.242   1.200  0.00  0.00     0.003 A 
ATOM      6  C4  PXY d   1      -0.607  -0.168   2.209  0.00  0.00    -0.082 A 
ATOM      7  C5  PXY d   1       0.670   0.163   1.921  0.00  0.00     0.003 A 
ATOM      8  C6  PXY d   1       1.021   0.420   0.599  0.00  0.00     0.003 A 
ENDROOT
TORSDOF 0
ENDMDL
