MODEL 1
REMARK minimizedAffinity 0.0512425229
REMARK minimizedRMSD -1
REMARK  0 active torsions:
REMARK  status: ('A' for Active; 'I' for Inactive)
ROOT
ATOM      1  C4' PXY d   1       0.772  -0.088  -2.510  0.00  0.00     0.077 C 
ATOM      2  C1' PXY d   1      -0.534   0.114   3.117  0.00  0.00     0.077 C 
ATOM      3  C1  PXY d   1      -0.202   0.054   1.639  0.00  0.00    -0.082 A 
ATOM      4  C2  PXY d   1       1.049   0.219   1.242  0.00  0.00     0.003 A 
ATOM      5  C3  PXY d   1       1.362   0.200  -0.093  0.00  0.00     0.003 A 
ATOM      6  C4  PXY d   1       0.392  -0.045  -1.028  0.00  0.00    -0.082 A 
ATOM      7  C5  PXY d   1      -0.885  -0.225  -0.630  0.00  0.00     0.003 A 
ATOM      8  C6  PXY d   1      -1.189  -0.160   0.727  0.00  0.00     0.003 A 
ENDROOT
TORSDOF 0
ENDMDL
