MODEL 1
REMARK minimizedAffinity 0.0853458121
REMARK minimizedRMSD -1
REMARK  0 active torsions:
REMARK  status: ('A' for Active; 'I' for Inactive)
ROOT
ATOM      1  C4' PXY d   1       0.091  -0.601  -2.505  0.00  0.00     0.077 C 
ATOM      2  C1' PXY d   1       0.540   0.879   3.065  0.00  0.00     0.077 C 
ATOM      3  C1  PXY d   1       0.409   0.492   1.605  0.00  0.00    -0.082 A 
ATOM      4  C2  PXY d   1       1.392  -0.167   1.013  0.00  0.00     0.003 A 
ATOM      5  C3  PXY d   1       1.304  -0.498  -0.315  0.00  0.00     0.003 A 
ATOM      6  C4  PXY d   1       0.175  -0.198  -1.030  0.00  0.00    -0.082 A 
ATOM      7  C5  PXY d   1      -0.836   0.465  -0.430  0.00  0.00     0.003 A 
ATOM      8  C6  PXY d   1      -0.710   0.828   0.908  0.00  0.00     0.003 A 
ENDROOT
TORSDOF 0
ENDMDL
