MODEL 1
REMARK minimizedAffinity -4.76204967
REMARK minimizedRMSD -1
REMARK  0 active torsions:
REMARK  status: ('A' for Active; 'I' for Inactive)
ROOT
ATOM      1  C4' PXY d   1      -0.516  -1.084   3.190  0.00  0.00     0.077 C 
ATOM      2  C1' PXY d   1       1.012   0.934  -2.007  0.00  0.00     0.077 C 
ATOM      3  C1  PXY d   1       0.623   0.406  -0.641  0.00  0.00    -0.082 A 
ATOM      4  C2  PXY d   1      -0.471  -0.325  -0.509  0.00  0.00     0.003 A 
ATOM      5  C3  PXY d   1      -0.854  -0.784   0.725  0.00  0.00     0.003 A 
ATOM      6  C4  PXY d   1      -0.080  -0.537   1.827  0.00  0.00    -0.082 A 
ATOM      7  C5  PXY d   1       1.044   0.199   1.699  0.00  0.00     0.003 A 
ATOM      8  C6  PXY d   1       1.393   0.690   0.445  0.00  0.00     0.003 A 
ENDROOT
TORSDOF 0
ENDMDL
