MODEL 1
REMARK minimizedAffinity -4.54811096
REMARK minimizedRMSD -1
REMARK  0 active torsions:
REMARK  status: ('A' for Active; 'I' for Inactive)
ROOT
ATOM      1  C4' PXY d   1       0.449   0.139  -2.307  0.00  0.00     0.077 C 
ATOM      2  C1' PXY d   1      -0.682  -0.848   3.275  0.00  0.00     0.077 C 
ATOM      3  C1  PXY d   1      -0.376  -0.581   1.815  0.00  0.00    -0.082 A 
ATOM      4  C2  PXY d   1      -1.324  -0.745   0.907  0.00  0.00     0.003 A 
ATOM      5  C3  PXY d   1      -1.056  -0.539  -0.422  0.00  0.00     0.003 A 
ATOM      6  C4  PXY d   1       0.182  -0.110  -0.820  0.00  0.00    -0.082 A 
ATOM      7  C5  PXY d   1       1.152   0.070   0.101  0.00  0.00     0.003 A 
ATOM      8  C6  PXY d   1       0.871  -0.184   1.441  0.00  0.00     0.003 A 
ENDROOT
TORSDOF 0
ENDMDL
