MODEL 1
REMARK minimizedAffinity -0.0485285185
REMARK minimizedRMSD -1
REMARK  0 active torsions:
REMARK  status: ('A' for Active; 'I' for Inactive)
ROOT
ATOM      1  C4' PXY d   1      -0.695  -0.189   2.561  0.00  0.00     0.077 C 
ATOM      2  C1' PXY d   1       1.054   0.228  -2.933  0.00  0.00     0.077 C 
ATOM      3  C1  PXY d   1       0.583   0.120  -1.496  0.00  0.00    -0.082 A 
ATOM      4  C2  PXY d   1       1.409   0.435  -0.512  0.00  0.00     0.003 A 
ATOM      5  C3  PXY d   1       1.009   0.313   0.794  0.00  0.00     0.003 A 
ATOM      6  C4  PXY d   1      -0.266  -0.086   1.095  0.00  0.00    -0.082 A 
ATOM      7  C5  PXY d   1      -1.118  -0.399   0.095  0.00  0.00     0.003 A 
ATOM      8  C6  PXY d   1      -0.680  -0.307  -1.223  0.00  0.00     0.003 A 
ENDROOT
TORSDOF 0
ENDMDL
