MODEL 1
REMARK minimizedAffinity -2.91019869
REMARK minimizedRMSD -1
REMARK  0 active torsions:
REMARK  status: ('A' for Active; 'I' for Inactive)
ROOT
ATOM      1  C4' PXY d   1       2.296   0.310   1.431  0.00  0.00     0.077 C 
ATOM      2  C1' PXY d   1      -3.367  -0.395   2.346  0.00  0.00     0.077 C 
ATOM      3  C1  PXY d   1      -1.883  -0.219   2.096  0.00  0.00    -0.082 A 
ATOM      4  C2  PXY d   1      -1.107   0.241   3.064  0.00  0.00     0.003 A 
ATOM      5  C3  PXY d   1       0.233   0.436   2.846  0.00  0.00     0.003 A 
ATOM      6  C4  PXY d   1       0.793   0.108   1.641  0.00  0.00    -0.082 A 
ATOM      7  C5  PXY d   1       0.010  -0.372   0.651  0.00  0.00     0.003 A 
ATOM      8  C6  PXY d   1      -1.354  -0.525   0.880  0.00  0.00     0.003 A 
ENDROOT
TORSDOF 0
ENDMDL
