MODEL 1
REMARK minimizedAffinity -4.07555389
REMARK minimizedRMSD -1
REMARK  0 active torsions:
REMARK  status: ('A' for Active; 'I' for Inactive)
ROOT
ATOM      1  C4' PXY d   1      -3.035  -0.266   2.428  0.00  0.00     0.077 C 
ATOM      2  C1' PXY d   1       2.578   0.475   1.261  0.00  0.00     0.077 C 
ATOM      3  C1  PXY d   1       1.103   0.284   1.555  0.00  0.00    -0.082 A 
ATOM      4  C2  PXY d   1       0.672   0.342   2.804  0.00  0.00     0.003 A 
ATOM      5  C3  PXY d   1      -0.653   0.141   3.091  0.00  0.00     0.003 A 
ATOM      6  C4  PXY d   1      -1.556  -0.070   2.084  0.00  0.00    -0.082 A 
ATOM      7  C5  PXY d   1      -1.126  -0.120   0.805  0.00  0.00     0.003 A 
ATOM      8  C6  PXY d   1       0.230   0.046   0.539  0.00  0.00     0.003 A 
ENDROOT
TORSDOF 0
ENDMDL
