MODEL 1
REMARK minimizedAffinity -3.35493708
REMARK minimizedRMSD -1
REMARK  0 active torsions:
REMARK  status: ('A' for Active; 'I' for Inactive)
ROOT
ATOM      1  C4' PXY d   1       0.415   0.699   2.567  0.00  0.00     0.077 C 
ATOM      2  C1' PXY d   1       1.064  -1.488  -2.744  0.00  0.00     0.077 C 
ATOM      3  C1  PXY d   1       0.894  -0.902  -1.356  0.00  0.00    -0.082 A 
ATOM      4  C2  PXY d   1       1.307  -1.587  -0.302  0.00  0.00     0.003 A 
ATOM      5  C3  PXY d   1       1.132  -1.086   0.962  0.00  0.00     0.003 A 
ATOM      6  C4  PXY d   1       0.575   0.151   1.147  0.00  0.00    -0.082 A 
ATOM      7  C5  PXY d   1       0.161   0.860   0.076  0.00  0.00     0.003 A 
ATOM      8  C6  PXY d   1       0.310   0.316  -1.197  0.00  0.00     0.003 A 
ENDROOT
TORSDOF 0
ENDMDL
