MODEL 1
REMARK minimizedAffinity -3.58766913
REMARK minimizedRMSD -1
REMARK  0 active torsions:
REMARK  status: ('A' for Active; 'I' for Inactive)
ROOT
ATOM      1  C4' PXY d   1       0.214   0.582   2.057  0.00  0.00     0.077 C 
ATOM      2  C1' PXY d   1       0.435  -1.609  -3.288  0.00  0.00     0.077 C 
ATOM      3  C1  PXY d   1       0.382  -1.023  -1.891  0.00  0.00    -0.082 A 
ATOM      4  C2  PXY d   1       0.439  -1.827  -0.842  0.00  0.00     0.003 A 
ATOM      5  C3  PXY d   1       0.360  -1.317   0.429  0.00  0.00     0.003 A 
ATOM      6  C4  PXY d   1       0.275   0.035   0.628  0.00  0.00    -0.082 A 
ATOM      7  C5  PXY d   1       0.226   0.863  -0.437  0.00  0.00     0.003 A 
ATOM      8  C6  PXY d   1       0.267   0.322  -1.719  0.00  0.00     0.003 A 
ENDROOT
TORSDOF 0
ENDMDL
