MODEL 1
REMARK minimizedAffinity -2.66406202
REMARK minimizedRMSD -1
REMARK  0 active torsions:
REMARK  status: ('A' for Active; 'I' for Inactive)
ROOT
ATOM      1  C4' PXY d   1       0.748  -0.454  -2.869  0.00  0.00     0.077 C 
ATOM      2  C1' PXY d   1       0.815   0.242   2.870  0.00  0.00     0.077 C 
ATOM      3  C1  PXY d   1       0.788   0.069   1.364  0.00  0.00    -0.082 A 
ATOM      4  C2  PXY d   1       1.191  -1.073   0.829  0.00  0.00     0.003 A 
ATOM      5  C3  PXY d   1       1.204  -1.235  -0.532  0.00  0.00     0.003 A 
ATOM      6  C4  PXY d   1       0.749  -0.238  -1.353  0.00  0.00    -0.082 A 
ATOM      7  C5  PXY d   1       0.326   0.926  -0.815  0.00  0.00     0.003 A 
ATOM      8  C6  PXY d   1       0.360   1.086   0.568  0.00  0.00     0.003 A 
ENDROOT
TORSDOF 0
ENDMDL
