MODEL 1
REMARK minimizedAffinity 5.63282776
REMARK minimizedRMSD -1
REMARK  0 active torsions:
REMARK  status: ('A' for Active; 'I' for Inactive)
ROOT
ATOM      1  C   UNL d   1      -2.388   0.124  -4.016  0.00  0.00     0.023 A 
ATOM      2  C1  UNL d   1      -2.016  -0.732  -5.053  0.00  0.00     0.003 A 
ATOM      3  C2  UNL d   1      -0.746  -0.629  -5.624  0.00  0.00     0.048 A 
ATOM      4  C3  UNL d   1       0.148   0.332  -5.152  0.00  0.00     0.023 A 
ATOM      5  C4  UNL d   1      -0.220   1.190  -4.114  0.00  0.00     0.048 A 
ATOM      6  C5  UNL d   1      -1.491   1.083  -3.548  0.00  0.00     0.003 A 
ATOM      7  I   UNL d   1       2.039   0.487  -6.000  0.00  0.00    -0.146 I 
ENDROOT
TORSDOF 0
ENDMDL
