MODEL 1
REMARK minimizedAffinity 15.0464573
REMARK minimizedRMSD -1
REMARK  0 active torsions:
REMARK  status: ('A' for Active; 'I' for Inactive)
ROOT
ATOM      1  C   UNL d   1      -0.015   1.748  -5.971  0.00  0.00     0.023 A 
ATOM      2  C1  UNL d   1       1.050   0.847  -6.000  0.00  0.00     0.003 A 
ATOM      3  C2  UNL d   1       0.811  -0.523  -5.879  0.00  0.00     0.048 A 
ATOM      4  C3  UNL d   1      -0.496  -0.986  -5.730  0.00  0.00     0.023 A 
ATOM      5  C4  UNL d   1      -1.565  -0.089  -5.701  0.00  0.00     0.048 A 
ATOM      6  C5  UNL d   1      -1.320   1.281  -5.821  0.00  0.00     0.003 A 
ATOM      7  I   UNL d   1      -0.855  -3.025  -5.549  0.00  0.00    -0.146 I 
ENDROOT
TORSDOF 0
ENDMDL
