MODEL 1
REMARK minimizedAffinity 1.0527575
REMARK minimizedRMSD -1
REMARK  0 active torsions:
REMARK  status: ('A' for Active; 'I' for Inactive)
ROOT
ATOM      1  C   UNL d   1      -2.141  -1.151   2.697  0.00  0.00     0.023 A 
ATOM      2  C1  UNL d   1      -2.098  -2.218   3.595  0.00  0.00     0.003 A 
ATOM      3  C2  UNL d   1      -0.974  -2.409   4.400  0.00  0.00     0.048 A 
ATOM      4  C3  UNL d   1       0.104  -1.530   4.304  0.00  0.00     0.023 A 
ATOM      5  C4  UNL d   1       0.066  -0.461   3.407  0.00  0.00     0.048 A 
ATOM      6  C5  UNL d   1      -1.060  -0.274   2.603  0.00  0.00     0.003 A 
ATOM      7  I   UNL d   1       1.779  -1.814   5.502  0.00  0.00    -0.146 I 
ENDROOT
TORSDOF 0
ENDMDL
