MODEL 1
REMARK minimizedAffinity 3.62065411
REMARK minimizedRMSD -1
REMARK  0 active torsions:
REMARK  status: ('A' for Active; 'I' for Inactive)
ROOT
ATOM      1  C   UNL d   1       1.399  -5.833  -4.696  0.00  0.00     0.023 A 
ATOM      2  C1  UNL d   1       1.853  -5.134  -3.578  0.00  0.00     0.003 A 
ATOM      3  C2  UNL d   1       0.942  -4.481  -2.744  0.00  0.00     0.048 A 
ATOM      4  C3  UNL d   1      -0.421  -4.532  -3.034  0.00  0.00     0.023 A 
ATOM      5  C4  UNL d   1      -0.879  -5.232  -4.152  0.00  0.00     0.048 A 
ATOM      6  C5  UNL d   1       0.035  -5.882  -4.983  0.00  0.00     0.003 A 
ATOM      7  I   UNL d   1      -1.777  -3.561  -1.795  0.00  0.00    -0.146 I 
ENDROOT
TORSDOF 0
ENDMDL
