MODEL 1
REMARK minimizedAffinity 5.72590494
REMARK minimizedRMSD -1
REMARK  0 active torsions:
REMARK  status: ('A' for Active; 'I' for Inactive)
ROOT
ATOM      1  C   UNL d   1       2.444  -0.508  -5.997  0.00  0.00     0.023 A 
ATOM      2  C1  UNL d   1       3.362  -0.989  -5.064  0.00  0.00     0.003 A 
ATOM      3  C2  UNL d   1       2.972  -1.953  -4.131  0.00  0.00     0.048 A 
ATOM      4  C3  UNL d   1       1.662  -2.430  -4.138  0.00  0.00     0.023 A 
ATOM      5  C4  UNL d   1       0.740  -1.952  -5.070  0.00  0.00     0.048 A 
ATOM      6  C5  UNL d   1       1.134  -0.988  -6.000  0.00  0.00     0.003 A 
ATOM      7  I   UNL d   1       1.079  -3.864  -2.751  0.00  0.00    -0.146 I 
ENDROOT
TORSDOF 0
ENDMDL
