MODEL 1
REMARK minimizedAffinity 1.81776118
REMARK minimizedRMSD -1
REMARK  0 active torsions:
REMARK  status: ('A' for Active; 'I' for Inactive)
ROOT
ATOM      1  C   UNL d   1      -2.640  -0.165   1.901  0.00  0.00     0.023 A 
ATOM      2  C1  UNL d   1      -1.606   0.750   2.101  0.00  0.00     0.003 A 
ATOM      3  C2  UNL d   1      -0.440   0.355   2.761  0.00  0.00     0.048 A 
ATOM      4  C3  UNL d   1      -0.315  -0.957   3.217  0.00  0.00     0.023 A 
ATOM      5  C4  UNL d   1      -1.346  -1.876   3.018  0.00  0.00     0.048 A 
ATOM      6  C5  UNL d   1      -2.510  -1.476   2.359  0.00  0.00     0.003 A 
ATOM      7  I   UNL d   1       1.419  -1.547   4.199  0.00  0.00    -0.146 I 
ENDROOT
TORSDOF 0
ENDMDL
