MODEL 1
REMARK minimizedAffinity 0.612447262
REMARK minimizedRMSD -1
REMARK  0 active torsions:
REMARK  status: ('A' for Active; 'I' for Inactive)
ROOT
ATOM      1  C   UNL d   1      -0.350  -1.463   3.028  0.00  0.00     0.023 A 
ATOM      2  C1  UNL d   1      -0.884  -0.448   2.234  0.00  0.00     0.003 A 
ATOM      3  C2  UNL d   1      -0.037   0.389   1.505  0.00  0.00     0.048 A 
ATOM      4  C3  UNL d   1       1.344   0.206   1.576  0.00  0.00     0.023 A 
ATOM      5  C4  UNL d   1       1.883  -0.808   2.369  0.00  0.00     0.048 A 
ATOM      6  C5  UNL d   1       1.032  -1.642   3.096  0.00  0.00     0.003 A 
ATOM      7  I   UNL d   1       2.607   1.451   0.492  0.00  0.00    -0.146 I 
ENDROOT
TORSDOF 0
ENDMDL
