MODEL 1
REMARK minimizedAffinity 1.6428349
REMARK minimizedRMSD -1
REMARK  0 active torsions:
REMARK  status: ('A' for Active; 'I' for Inactive)
ROOT
ATOM      1  C   UNL d   1       5.258  -2.397  -6.000  0.00  0.00     0.023 A 
ATOM      2  C1  UNL d   1       4.865  -3.304  -5.016  0.00  0.00     0.003 A 
ATOM      3  C2  UNL d   1       4.899  -2.934  -3.670  0.00  0.00     0.048 A 
ATOM      4  C3  UNL d   1       5.326  -1.655  -3.315  0.00  0.00     0.023 A 
ATOM      5  C4  UNL d   1       5.720  -0.744  -4.296  0.00  0.00     0.048 A 
ATOM      6  C5  UNL d   1       5.685  -1.118  -5.641  0.00  0.00     0.003 A 
ATOM      7  I   UNL d   1       5.378  -1.102  -1.312  0.00  0.00    -0.146 I 
ENDROOT
TORSDOF 0
ENDMDL
