MODEL 1
REMARK minimizedAffinity -1.33572423
REMARK minimizedRMSD -1
REMARK  0 active torsions:
REMARK  status: ('A' for Active; 'I' for Inactive)
ROOT
ATOM      1  C   UNL d   1      -0.681  -1.374  -2.541  0.00  0.00     0.023 A 
ATOM      2  C1  UNL d   1      -1.329  -2.607  -2.613  0.00  0.00     0.003 A 
ATOM      3  C2  UNL d   1      -0.595  -3.771  -2.847  0.00  0.00     0.048 A 
ATOM      4  C3  UNL d   1       0.789  -3.695  -3.006  0.00  0.00     0.023 A 
ATOM      5  C4  UNL d   1       1.442  -2.464  -2.934  0.00  0.00     0.048 A 
ATOM      6  C5  UNL d   1       0.703  -1.303  -2.702  0.00  0.00     0.003 A 
ATOM      7  I   UNL d   1       1.884  -5.427  -3.353  0.00  0.00    -0.146 I 
ENDROOT
TORSDOF 0
ENDMDL
