MODEL 1
REMARK minimizedAffinity 2.75227356
REMARK minimizedRMSD -1
REMARK  0 active torsions:
REMARK  status: ('A' for Active; 'I' for Inactive)
ROOT
ATOM      1  C   UNL d   1       1.821  -4.644  -3.104  0.00  0.00     0.023 A 
ATOM      2  C1  UNL d   1       1.696  -3.399  -2.488  0.00  0.00     0.003 A 
ATOM      3  C2  UNL d   1       0.485  -3.028  -1.899  0.00  0.00     0.048 A 
ATOM      4  C3  UNL d   1      -0.597  -3.908  -1.930  0.00  0.00     0.023 A 
ATOM      5  C4  UNL d   1      -0.476  -5.155  -2.545  0.00  0.00     0.048 A 
ATOM      6  C5  UNL d   1       0.736  -5.521  -3.132  0.00  0.00     0.003 A 
ATOM      7  I   UNL d   1      -2.400  -3.358  -1.055  0.00  0.00    -0.146 I 
ENDROOT
TORSDOF 0
ENDMDL
