MODEL 1
REMARK minimizedAffinity 2.67332482
REMARK minimizedRMSD -1
REMARK  0 active torsions:
REMARK  status: ('A' for Active; 'I' for Inactive)
ROOT
ATOM      1  C4' PXY d   1       1.773   2.805   2.840  0.00  0.00     0.077 C 
ATOM      2  C1' PXY d   1      -1.588   4.216  -1.646  0.00  0.00     0.077 C 
ATOM      3  C1  PXY d   1      -0.717   3.847  -0.462  0.00  0.00    -0.082 A 
ATOM      4  C2  PXY d   1       0.587   4.069  -0.514  0.00  0.00     0.003 A 
ATOM      5  C3  PXY d   1       1.394   3.712   0.535  0.00  0.00     0.003 A 
ATOM      6  C4  PXY d   1       0.854   3.171   1.671  0.00  0.00    -0.082 A 
ATOM      7  C5  PXY d   1      -0.476   2.951   1.737  0.00  0.00     0.003 A 
ATOM      8  C6  PXY d   1      -1.273   3.282   0.644  0.00  0.00     0.003 A 
ENDROOT
TORSDOF 0
ENDMDL
