MODEL 1
REMARK minimizedAffinity -1.24297416
REMARK minimizedRMSD -1
REMARK  0 active torsions:
REMARK  status: ('A' for Active; 'I' for Inactive)
ROOT
ATOM      1  C4' PXY d   1       0.715   3.800  -0.737  0.00  0.00     0.077 C 
ATOM      2  C1' PXY d   1      -3.025   3.504   3.660  0.00  0.00     0.077 C 
ATOM      3  C1  PXY d   1      -2.034   3.579   2.515  0.00  0.00    -0.082 A 
ATOM      4  C2  PXY d   1      -2.344   4.264   1.426  0.00  0.00     0.003 A 
ATOM      5  C3  PXY d   1      -1.473   4.316   0.369  0.00  0.00     0.003 A 
ATOM      6  C4  PXY d   1      -0.251   3.705   0.447  0.00  0.00    -0.082 A 
ATOM      7  C5  PXY d   1       0.077   3.013   1.559  0.00  0.00     0.003 A 
ATOM      8  C6  PXY d   1      -0.838   2.938   2.605  0.00  0.00     0.003 A 
ENDROOT
TORSDOF 0
ENDMDL
