MODEL 1
REMARK minimizedAffinity 3.69129014
REMARK minimizedRMSD -1
REMARK  0 active torsions:
REMARK  status: ('A' for Active; 'I' for Inactive)
ROOT
ATOM      1  C4' PXY d   1       4.746  -5.526  -4.804  0.00  0.00     0.077 C 
ATOM      2  C1' PXY d   1       4.327  -2.157  -0.125  0.00  0.00     0.077 C 
ATOM      3  C1  PXY d   1       4.441  -3.051  -1.345  0.00  0.00    -0.082 A 
ATOM      4  C2  PXY d   1       4.571  -2.507  -2.544  0.00  0.00     0.003 A 
ATOM      5  C3  PXY d   1       4.643  -3.299  -3.661  0.00  0.00     0.003 A 
ATOM      6  C4  PXY d   1       4.637  -4.663  -3.544  0.00  0.00    -0.082 A 
ATOM      7  C5  PXY d   1       4.516  -5.226  -2.322  0.00  0.00     0.003 A 
ATOM      8  C6  PXY d   1       4.402  -4.404  -1.205  0.00  0.00     0.003 A 
ENDROOT
TORSDOF 0
ENDMDL
