MODEL 1
REMARK minimizedAffinity -4.13857937
REMARK minimizedRMSD -1
REMARK  0 active torsions:
REMARK  status: ('A' for Active; 'I' for Inactive)
ROOT
ATOM      1  C4' PXY d   1      -4.125   0.208   1.450  0.00  0.00     0.077 C 
ATOM      2  C1' PXY d   1      -5.257   3.719  -3.000  0.00  0.00     0.077 C 
ATOM      3  C1  PXY d   1      -4.972   2.801  -1.828  0.00  0.00    -0.082 A 
ATOM      4  C2  PXY d   1      -3.719   2.529  -1.500  0.00  0.00     0.003 A 
ATOM      5  C3  PXY d   1      -3.443   1.676  -0.463  0.00  0.00     0.003 A 
ATOM      6  C4  PXY d   1      -4.460   1.137   0.280  0.00  0.00    -0.082 A 
ATOM      7  C5  PXY d   1      -5.740   1.418  -0.043  0.00  0.00     0.003 A 
ATOM      8  C6  PXY d   1      -6.000   2.254  -1.125  0.00  0.00     0.003 A 
ENDROOT
TORSDOF 0
ENDMDL
