MODEL 1
REMARK minimizedAffinity 1.40080535
REMARK minimizedRMSD -1
REMARK  0 active torsions:
REMARK  status: ('A' for Active; 'I' for Inactive)
ROOT
ATOM      1  C4' PXY d   1      -5.970   2.494  -0.726  0.00  0.00     0.077 C 
ATOM      2  C1' PXY d   1      -5.997   4.916  -5.975  0.00  0.00     0.077 C 
ATOM      3  C1  PXY d   1      -5.985   4.291  -4.593  0.00  0.00    -0.082 A 
ATOM      4  C2  PXY d   1      -5.975   2.974  -4.471  0.00  0.00     0.003 A 
ATOM      5  C3  PXY d   1      -5.996   2.393  -3.229  0.00  0.00     0.003 A 
ATOM      6  C4  PXY d   1      -5.973   3.168  -2.101  0.00  0.00    -0.082 A 
ATOM      7  C5  PXY d   1      -5.973   4.513  -2.217  0.00  0.00     0.003 A 
ATOM      8  C6  PXY d   1      -5.993   5.083  -3.487  0.00  0.00     0.003 A 
ENDROOT
TORSDOF 0
ENDMDL
