MODEL 1
REMARK minimizedAffinity 2.64399195
REMARK minimizedRMSD -1
REMARK  0 active torsions:
REMARK  status: ('A' for Active; 'I' for Inactive)
ROOT
ATOM      1  C4' PXY d   1      -5.980   2.002  -0.666  0.00  0.00     0.077 C 
ATOM      2  C1' PXY d   1      -5.830   4.226  -6.000  0.00  0.00     0.077 C 
ATOM      3  C1  PXY d   1      -5.865   3.654  -4.596  0.00  0.00    -0.082 A 
ATOM      4  C2  PXY d   1      -5.796   2.344  -4.421  0.00  0.00     0.003 A 
ATOM      5  C3  PXY d   1      -5.859   1.809  -3.161  0.00  0.00     0.003 A 
ATOM      6  C4  PXY d   1      -5.938   2.625  -2.064  0.00  0.00    -0.082 A 
ATOM      7  C5  PXY d   1      -5.998   3.963  -2.234  0.00  0.00     0.003 A 
ATOM      8  C6  PXY d   1      -5.975   4.485  -3.524  0.00  0.00     0.003 A 
ENDROOT
TORSDOF 0
ENDMDL
