MODEL 1
REMARK minimizedAffinity 3.58877778
REMARK minimizedRMSD -1
REMARK  0 active torsions:
REMARK  status: ('A' for Active; 'I' for Inactive)
ROOT
ATOM      1  C4' PXY d   1       0.242   1.939  -0.349  0.00  0.00     0.077 C 
ATOM      2  C1' PXY d   1      -0.036  -3.712  -1.531  0.00  0.00     0.077 C 
ATOM      3  C1  PXY d   1       0.050  -2.231  -1.220  0.00  0.00    -0.082 A 
ATOM      4  C2  PXY d   1      -1.011  -1.600  -0.744  0.00  0.00     0.003 A 
ATOM      5  C3  PXY d   1      -0.961  -0.254  -0.487  0.00  0.00     0.003 A 
ATOM      6  C4  PXY d   1       0.204   0.442  -0.669  0.00  0.00    -0.082 A 
ATOM      7  C5  PXY d   1       1.294  -0.196  -1.144  0.00  0.00     0.003 A 
ATOM      8  C6  PXY d   1       1.210  -1.554  -1.437  0.00  0.00     0.003 A 
ENDROOT
TORSDOF 0
ENDMDL
