MODEL 1
REMARK minimizedAffinity -4.88913631
REMARK minimizedRMSD -1
REMARK  0 active torsions:
REMARK  status: ('A' for Active; 'I' for Inactive)
ROOT
ATOM      1  C4' PXY d   1      -4.877   2.250  -1.059  0.00  0.00     0.077 C 
ATOM      2  C1' PXY d   1      -5.423   5.201  -6.000  0.00  0.00     0.077 C 
ATOM      3  C1  PXY d   1      -5.283   4.438  -4.697  0.00  0.00    -0.082 A 
ATOM      4  C2  PXY d   1      -4.506   3.368  -4.646  0.00  0.00     0.003 A 
ATOM      5  C3  PXY d   1      -4.393   2.647  -3.485  0.00  0.00     0.003 A 
ATOM      6  C4  PXY d   1      -5.040   3.057  -2.350  0.00  0.00    -0.082 A 
ATOM      7  C5  PXY d   1      -5.826   4.153  -2.391  0.00  0.00     0.003 A 
ATOM      8  C6  PXY d   1      -5.960   4.847  -3.590  0.00  0.00     0.003 A 
ENDROOT
TORSDOF 0
ENDMDL
