MODEL 1
REMARK minimizedAffinity 5.29671192
REMARK minimizedRMSD -1
REMARK  0 active torsions:
REMARK  status: ('A' for Active; 'I' for Inactive)
ROOT
ATOM      1  C4' PXY d   1      -4.472   1.992  -1.565  0.00  0.00     0.077 C 
ATOM      2  C1' PXY d   1      -5.468   5.664  -5.917  0.00  0.00     0.077 C 
ATOM      3  C1  PXY d   1      -5.220   4.697  -4.776  0.00  0.00    -0.082 A 
ATOM      4  C2  PXY d   1      -4.235   4.930  -3.924  0.00  0.00     0.003 A 
ATOM      5  C3  PXY d   1      -3.976   4.049  -2.905  0.00  0.00     0.003 A 
ATOM      6  C4  PXY d   1      -4.766   2.946  -2.726  0.00  0.00    -0.082 A 
ATOM      7  C5  PXY d   1      -5.779   2.706  -3.585  0.00  0.00     0.003 A 
ATOM      8  C6  PXY d   1      -6.000   3.591  -4.637  0.00  0.00     0.003 A 
ENDROOT
TORSDOF 0
ENDMDL
