MODEL 1
REMARK minimizedAffinity 10.1078997
REMARK minimizedRMSD -1
REMARK  0 active torsions:
REMARK  status: ('A' for Active; 'I' for Inactive)
ROOT
ATOM      1  C4' PXY d   1       0.754   1.715   0.275  0.00  0.00     0.077 C 
ATOM      2  C1' PXY d   1      -3.013   6.000   1.203  0.00  0.00     0.077 C 
ATOM      3  C1  PXY d   1      -2.024   4.880   0.947  0.00  0.00    -0.082 A 
ATOM      4  C2  PXY d   1      -2.056   3.794   1.702  0.00  0.00     0.003 A 
ATOM      5  C3  PXY d   1      -1.148   2.786   1.505  0.00  0.00     0.003 A 
ATOM      6  C4  PXY d   1      -0.232   2.866   0.491  0.00  0.00    -0.082 A 
ATOM      7  C5  PXY d   1      -0.200   3.967  -0.291  0.00  0.00     0.003 A 
ATOM      8  C6  PXY d   1      -1.104   4.997  -0.048  0.00  0.00     0.003 A 
ENDROOT
TORSDOF 0
ENDMDL
