MODEL 1
REMARK minimizedAffinity -0.767278552
REMARK minimizedRMSD -1
REMARK  0 active torsions:
REMARK  status: ('A' for Active; 'I' for Inactive)
ROOT
ATOM      1  C4' PXY d   1       0.163   0.347  -1.915  0.00  0.00     0.077 C 
ATOM      2  C1' PXY d   1       0.550  -5.399  -1.413  0.00  0.00     0.077 C 
ATOM      3  C1  PXY d   1       0.447  -3.893  -1.558  0.00  0.00    -0.082 A 
ATOM      4  C2  PXY d   1       0.983  -3.109  -0.636  0.00  0.00     0.003 A 
ATOM      5  C3  PXY d   1       0.872  -1.746  -0.735  0.00  0.00     0.003 A 
ATOM      6  C4  PXY d   1       0.251  -1.178  -1.815  0.00  0.00    -0.082 A 
ATOM      7  C5  PXY d   1      -0.290  -1.971  -2.765  0.00  0.00     0.003 A 
ATOM      8  C6  PXY d   1      -0.202  -3.353  -2.625  0.00  0.00     0.003 A 
ENDROOT
TORSDOF 0
ENDMDL
