MODEL 1
REMARK minimizedAffinity -5.08611202
REMARK minimizedRMSD -1
REMARK  0 active torsions:
REMARK  status: ('A' for Active; 'I' for Inactive)
ROOT
ATOM      1  C4' PXY d   1      -5.147   4.724  -4.214  0.00  0.00     0.077 C 
ATOM      2  C1' PXY d   1      -4.278  -0.716  -5.963  0.00  0.00     0.077 C 
ATOM      3  C1  PXY d   1      -4.519   0.708  -5.504  0.00  0.00    -0.082 A 
ATOM      4  C2  PXY d   1      -3.595   1.630  -5.722  0.00  0.00     0.003 A 
ATOM      5  C3  PXY d   1      -3.783   2.917  -5.286  0.00  0.00     0.003 A 
ATOM      6  C4  PXY d   1      -4.951   3.275  -4.668  0.00  0.00    -0.082 A 
ATOM      7  C5  PXY d   1      -5.903   2.343  -4.452  0.00  0.00     0.003 A 
ATOM      8  C6  PXY d   1      -5.676   1.033  -4.866  0.00  0.00     0.003 A 
ENDROOT
TORSDOF 0
ENDMDL
