MODEL 1
REMARK minimizedAffinity -3.00733161
REMARK minimizedRMSD -1
REMARK  0 active torsions:
REMARK  status: ('A' for Active; 'I' for Inactive)
ROOT
ATOM      1  C4' PXY d   1      -4.953   4.116  -6.000  0.00  0.00     0.077 C 
ATOM      2  C1' PXY d   1      -5.982   1.849  -0.783  0.00  0.00     0.077 C 
ATOM      3  C1  PXY d   1      -5.711   2.432  -2.156  0.00  0.00    -0.082 A 
ATOM      4  C2  PXY d   1      -5.204   3.649  -2.262  0.00  0.00     0.003 A 
ATOM      5  C3  PXY d   1      -4.982   4.203  -3.496  0.00  0.00     0.003 A 
ATOM      6  C4  PXY d   1      -5.234   3.484  -4.634  0.00  0.00    -0.082 A 
ATOM      7  C5  PXY d   1      -5.742   2.238  -4.534  0.00  0.00     0.003 A 
ATOM      8  C6  PXY d   1      -5.998   1.709  -3.272  0.00  0.00     0.003 A 
ENDROOT
TORSDOF 0
ENDMDL
