MODEL 1
REMARK minimizedAffinity -0.840218365
REMARK minimizedRMSD -1
REMARK  3 active torsions:
REMARK  status: ('A' for Active; 'I' for Inactive)
REMARK    1  A    between atoms: C3'_2  and  C2'_3 
REMARK    2  A    between atoms: C2'_3  and  C1'_4 
REMARK    3  A    between atoms: C1'_4  and  C1_5 
ROOT
ATOM      1  C1  N4B d   1      -0.742  -0.129   0.015  0.00  0.00    -0.075 A 
ATOM      2  C2  N4B d   1       0.323  -0.142   0.942  0.00  0.00     0.002 A 
ATOM      3  C3  N4B d   1       0.068   0.006   2.283  0.00  0.00     0.002 A 
ATOM      4  C4  N4B d   1      -1.237   0.187   2.717  0.00  0.00    -0.004 A 
ATOM      5  C5  N4B d   1      -2.262   0.173   1.818  0.00  0.00     0.002 A 
ATOM      6  C6  N4B d   1      -2.021   0.021   0.467  0.00  0.00     0.002 A 
ENDROOT
BRANCH   1   7
ATOM      7  C1' N4B d   1      -0.505  -0.201  -1.469  0.00  0.00     0.057 C 
BRANCH   7   8
ATOM      8  C2' N4B d   1       0.489   0.885  -1.871  0.00  0.00     0.009 C 
BRANCH   8   9
ATOM      9  C3' N4B d   1       0.627   0.999  -3.379  0.00  0.00     0.004 C 
ATOM     10  C4' N4B d   1       2.054   0.953  -3.837  0.00  0.00     0.003 C 
ENDBRANCH   8   9
ENDBRANCH   7   8
ENDBRANCH   1   7
TORSDOF 3
ENDMDL
