MODEL 1
REMARK minimizedAffinity -3.64094853
REMARK minimizedRMSD -1
REMARK  3 active torsions:
REMARK  status: ('A' for Active; 'I' for Inactive)
REMARK    1  A    between atoms: C3'_2  and  C2'_3 
REMARK    2  A    between atoms: C2'_3  and  C1'_4 
REMARK    3  A    between atoms: C1'_4  and  C1_5 
ROOT
ATOM      1  C1  N4B d   1       0.883  -0.457  -0.229  0.00  0.00    -0.075 A 
ATOM      2  C2  N4B d   1       1.688  -0.669   0.912  0.00  0.00     0.002 A 
ATOM      3  C3  N4B d   1       1.251  -0.256   2.147  0.00  0.00     0.002 A 
ATOM      4  C4  N4B d   1       0.027   0.385   2.262  0.00  0.00    -0.004 A 
ATOM      5  C5  N4B d   1      -0.756   0.563   1.158  0.00  0.00     0.002 A 
ATOM      6  C6  N4B d   1      -0.331   0.149  -0.088  0.00  0.00     0.002 A 
ENDROOT
BRANCH   1   7
ATOM      7  C1' N4B d   1       1.356  -0.814  -1.612  0.00  0.00     0.057 C 
BRANCH   7   8
ATOM      8  C2' N4B d   1       1.197   0.398  -2.524  0.00  0.00     0.009 C 
BRANCH   8   9
ATOM      9  C3' N4B d   1       1.404   0.040  -3.986  0.00  0.00     0.004 C 
ATOM     10  C4' N4B d   1       0.245  -0.712  -4.570  0.00  0.00     0.003 C 
ENDBRANCH   8   9
ENDBRANCH   7   8
ENDBRANCH   1   7
TORSDOF 3
ENDMDL
