MODEL 1
REMARK minimizedAffinity 9.88433743
REMARK minimizedRMSD -1
REMARK  0 active torsions:
REMARK  status: ('A' for Active; 'I' for Inactive)
ROOT
ATOM      1  C   UNL d   1      -0.897   3.412   3.458  0.00  0.00    -0.002 A 
ATOM      2  C1  UNL d   1      -0.498   2.285   2.753  0.00  0.00     0.010 A 
ATOM      3  C2  UNL d   1      -1.442   1.462   2.136  0.00  0.00     0.041 A 
ATOM      4  C3  UNL d   1      -2.807   1.794   2.239  0.00  0.00    -0.075 A 
ATOM      5  S   UNL d   1      -4.140   0.934   1.564  0.00  0.00     0.015 SA
ATOM      6  C4  UNL d   1      -5.271   2.042   2.195  0.00  0.00     0.022 A 
ATOM      7  C5  UNL d   1      -4.664   3.050   2.907  0.00  0.00     0.026 A 
ATOM      8  C6  UNL d   1      -3.234   2.924   2.943  0.00  0.00    -0.082 A 
ATOM      9  C7  UNL d   1      -2.253   3.738   3.558  0.00  0.00     0.045 A 
ENDROOT
TORSDOF 0
ENDMDL
