MODEL 1
REMARK minimizedAffinity 11.7132788
REMARK minimizedRMSD -1
REMARK  0 active torsions:
REMARK  status: ('A' for Active; 'I' for Inactive)
ROOT
ATOM      1  C   UNL d   1      -0.839  -1.965  -1.238  0.00  0.00    -0.002 A 
ATOM      2  C1  UNL d   1      -0.236  -0.847  -0.681  0.00  0.00     0.010 A 
ATOM      3  C2  UNL d   1       1.156  -0.734  -0.646  0.00  0.00     0.041 A 
ATOM      4  C3  UNL d   1       1.938  -1.774  -1.186  0.00  0.00    -0.075 A 
ATOM      5  S   UNL d   1       3.659  -1.853  -1.253  0.00  0.00     0.015 SA
ATOM      6  C4  UNL d   1       3.633  -3.373  -2.023  0.00  0.00     0.022 A 
ATOM      7  C5  UNL d   1       2.351  -3.824  -2.231  0.00  0.00     0.026 A 
ATOM      8  C6  UNL d   1       1.353  -2.910  -1.753  0.00  0.00    -0.082 A 
ATOM      9  C7  UNL d   1      -0.060  -2.995  -1.773  0.00  0.00     0.045 A 
ENDROOT
TORSDOF 0
ENDMDL
