MODEL 1
REMARK minimizedAffinity 6.03098106
REMARK minimizedRMSD -1
REMARK  0 active torsions:
REMARK  status: ('A' for Active; 'I' for Inactive)
ROOT
ATOM      1  C   UNL d   1       0.157  -0.359   1.387  0.00  0.00    -0.002 A 
ATOM      2  C1  UNL d   1       0.032  -0.860   0.099  0.00  0.00     0.010 A 
ATOM      3  C2  UNL d   1      -1.226  -1.003  -0.488  0.00  0.00     0.041 A 
ATOM      4  C3  UNL d   1      -2.368  -0.629   0.247  0.00  0.00    -0.075 A 
ATOM      5  S   UNL d   1      -4.011  -0.715  -0.268  0.00  0.00     0.015 SA
ATOM      6  C4  UNL d   1      -4.586  -0.087   1.208  0.00  0.00     0.022 A 
ATOM      7  C5  UNL d   1      -3.563   0.186   2.085  0.00  0.00     0.026 A 
ATOM      8  C6  UNL d   1      -2.268  -0.120   1.546  0.00  0.00    -0.082 A 
ATOM      9  C7  UNL d   1      -0.978   0.012   2.114  0.00  0.00     0.045 A 
ENDROOT
TORSDOF 0
ENDMDL
