MODEL 1
REMARK minimizedAffinity 22.0132389
REMARK minimizedRMSD -1
REMARK  0 active torsions:
REMARK  status: ('A' for Active; 'I' for Inactive)
ROOT
ATOM      1  C   UNL d   1      -2.447  -5.721   5.244  0.00  0.00    -0.002 A 
ATOM      2  C1  UNL d   1      -1.996  -5.971   3.956  0.00  0.00     0.010 A 
ATOM      3  C2  UNL d   1      -1.002  -5.175   3.385  0.00  0.00     0.041 A 
ATOM      4  C3  UNL d   1      -0.463  -4.113   4.137  0.00  0.00    -0.075 A 
ATOM      5  S   UNL d   1       0.763  -3.006   3.643  0.00  0.00     0.015 SA
ATOM      6  C4  UNL d   1       0.717  -2.175   5.130  0.00  0.00     0.022 A 
ATOM      7  C5  UNL d   1      -0.206  -2.715   5.994  0.00  0.00     0.026 A 
ATOM      8  C6  UNL d   1      -0.901  -3.841   5.437  0.00  0.00    -0.082 A 
ATOM      9  C7  UNL d   1      -1.910  -4.666   5.988  0.00  0.00     0.045 A 
ENDROOT
TORSDOF 0
ENDMDL
