MODEL 1
REMARK minimizedAffinity 10.2105961
REMARK minimizedRMSD -1
REMARK  0 active torsions:
REMARK  status: ('A' for Active; 'I' for Inactive)
ROOT
ATOM      1  C   UNL d   1       1.906  -2.511  -0.651  0.00  0.00    -0.002 A 
ATOM      2  C1  UNL d   1       2.330  -1.537   0.241  0.00  0.00     0.010 A 
ATOM      3  C2  UNL d   1       1.607  -0.352   0.396  0.00  0.00     0.041 A 
ATOM      4  C3  UNL d   1       0.438  -0.163  -0.367  0.00  0.00    -0.075 A 
ATOM      5  S   UNL d   1      -0.609   1.207  -0.344  0.00  0.00     0.015 SA
ATOM      6  C4  UNL d   1      -1.643   0.530  -1.517  0.00  0.00     0.022 A 
ATOM      7  C5  UNL d   1      -1.216  -0.710  -1.928  0.00  0.00     0.026 A 
ATOM      8  C6  UNL d   1      -0.010  -1.130  -1.272  0.00  0.00    -0.082 A 
ATOM      9  C7  UNL d   1       0.746  -2.320  -1.407  0.00  0.00     0.045 A 
ENDROOT
TORSDOF 0
ENDMDL
