MODEL 1
REMARK minimizedAffinity 4.7846036
REMARK minimizedRMSD -1
REMARK  3 active torsions:
REMARK  status: ('A' for Active; 'I' for Inactive)
REMARK    1  A    between atoms: C3'_2  and  C2'_3 
REMARK    2  A    between atoms: C2'_3  and  C1'_4 
REMARK    3  A    between atoms: C1'_4  and  C1_5 
ROOT
ATOM      1  C1  N4B d   1       3.899  -3.932  -1.040  0.00  0.00    -0.075 A 
ATOM      2  C2  N4B d   1       3.246  -2.797  -0.512  0.00  0.00     0.002 A 
ATOM      3  C3  N4B d   1       3.970  -1.828   0.138  0.00  0.00     0.002 A 
ATOM      4  C4  N4B d   1       5.341  -1.981   0.288  0.00  0.00    -0.004 A 
ATOM      5  C5  N4B d   1       5.968  -3.068  -0.247  0.00  0.00     0.002 A 
ATOM      6  C6  N4B d   1       5.252  -4.048  -0.906  0.00  0.00     0.002 A 
ENDROOT
BRANCH   1   7
ATOM      7  C1' N4B d   1       3.138  -5.059  -1.682  0.00  0.00     0.057 C 
BRANCH   7   8
ATOM      8  C2' N4B d   1       2.377  -5.827  -0.606  0.00  0.00     0.009 C 
BRANCH   8   9
ATOM      9  C3' N4B d   1       0.909  -5.999  -0.961  0.00  0.00     0.004 C 
ATOM     10  C4' N4B d   1       0.665  -5.998  -2.440  0.00  0.00     0.003 C 
ENDBRANCH   8   9
ENDBRANCH   7   8
ENDBRANCH   1   7
TORSDOF 3
ENDMDL
