MODEL 1
REMARK minimizedAffinity 7.54330254
REMARK minimizedRMSD -1
REMARK  3 active torsions:
REMARK  status: ('A' for Active; 'I' for Inactive)
REMARK    1  A    between atoms: C3'_2  and  C2'_3 
REMARK    2  A    between atoms: C2'_3  and  C1'_4 
REMARK    3  A    between atoms: C1'_4  and  C1_5 
ROOT
ATOM      1  C1  N4B d   1       3.389  -1.425   0.064  0.00  0.00    -0.075 A 
ATOM      2  C2  N4B d   1       4.736  -1.405   0.489  0.00  0.00     0.002 A 
ATOM      3  C3  N4B d   1       5.731  -1.814  -0.363  0.00  0.00     0.002 A 
ATOM      4  C4  N4B d   1       5.404  -2.264  -1.634  0.00  0.00    -0.004 A 
ATOM      5  C5  N4B d   1       4.104  -2.257  -2.046  0.00  0.00     0.002 A 
ATOM      6  C6  N4B d   1       3.093  -1.844  -1.201  0.00  0.00     0.002 A 
ENDROOT
BRANCH   1   7
ATOM      7  C1' N4B d   1       2.258  -1.069   0.990  0.00  0.00     0.057 C 
BRANCH   7   8
ATOM      8  C2' N4B d   1       2.819  -0.339   2.207  0.00  0.00     0.009 C 
BRANCH   8   9
ATOM      9  C3' N4B d   1       1.912  -0.475   3.418  0.00  0.00     0.004 C 
ATOM     10  C4' N4B d   1       0.937   0.657   3.544  0.00  0.00     0.003 C 
ENDBRANCH   8   9
ENDBRANCH   7   8
ENDBRANCH   1   7
TORSDOF 3
ENDMDL
