MODEL 1
REMARK minimizedAffinity 5.03715134
REMARK minimizedRMSD -1
REMARK  3 active torsions:
REMARK  status: ('A' for Active; 'I' for Inactive)
REMARK    1  A    between atoms: C3'_2  and  C2'_3 
REMARK    2  A    between atoms: C2'_3  and  C1'_4 
REMARK    3  A    between atoms: C1'_4  and  C1_5 
ROOT
ATOM      1  C1  N4B d   1      -0.126   5.669  -2.128  0.00  0.00    -0.075 A 
ATOM      2  C2  N4B d   1       0.667   5.721  -3.295  0.00  0.00     0.002 A 
ATOM      3  C3  N4B d   1       0.073   5.894  -4.521  0.00  0.00     0.002 A 
ATOM      4  C4  N4B d   1      -1.307   5.998  -4.606  0.00  0.00    -0.004 A 
ATOM      5  C5  N4B d   1      -2.064   5.973  -3.471  0.00  0.00     0.002 A 
ATOM      6  C6  N4B d   1      -1.480   5.803  -2.232  0.00  0.00     0.002 A 
ENDROOT
BRANCH   1   7
ATOM      7  C1' N4B d   1       0.470   5.395  -0.774  0.00  0.00     0.057 C 
BRANCH   7   8
ATOM      8  C2' N4B d   1      -0.639   4.976   0.186  0.00  0.00     0.009 C 
BRANCH   8   9
ATOM      9  C3' N4B d   1      -0.461   3.547   0.670  0.00  0.00     0.004 C 
ATOM     10  C4' N4B d   1       0.836   2.941   0.226  0.00  0.00     0.003 C 
ENDBRANCH   8   9
ENDBRANCH   7   8
ENDBRANCH   1   7
TORSDOF 3
ENDMDL
