MODEL 1
REMARK minimizedAffinity -5.19846487
REMARK minimizedRMSD -1
REMARK  2 active torsions:
REMARK  status: ('A' for Active; 'I' for Inactive)
REMARK    1  A    between atoms: C2'_3  and  C1'_4 
REMARK    2  A    between atoms: C1'_4  and  C1_5 
ROOT
ATOM      1  C1  I4B d   1      -0.952   0.713  -0.286  0.00  0.00    -0.075 A 
ATOM      2  C2  I4B d   1       0.029   1.673  -0.308  0.00  0.00     0.003 A 
ATOM      3  C3  I4B d   1       1.393   1.301  -0.239  0.00  0.00     0.002 A 
ATOM      4  C4  I4B d   1       1.728  -0.031  -0.100  0.00  0.00    -0.004 A 
ATOM      5  C5  I4B d   1       0.733  -1.005  -0.101  0.00  0.00     0.002 A 
ATOM      6  C6  I4B d   1      -0.615  -0.632  -0.207  0.00  0.00     0.003 A 
ENDROOT
BRANCH   1   7
ATOM      7  C1' I4B d   1      -2.384   1.144  -0.327  0.00  0.00     0.060 C 
BRANCH   7   8
ATOM      8  C2' I4B d   1      -2.950   1.016   1.073  0.00  0.00    -0.013 C 
ATOM      9  C4' I4B d   1      -3.087   2.363   1.732  0.00  0.00     0.013 C 
ATOM     10  C3' I4B d   1      -4.277   0.324   0.973  0.00  0.00     0.013 C 
ENDBRANCH   7   8
ENDBRANCH   1   7
TORSDOF 2
ENDMDL
