MODEL 1
REMARK minimizedAffinity 0.790682137
REMARK minimizedRMSD -1
REMARK  2 active torsions:
REMARK  status: ('A' for Active; 'I' for Inactive)
REMARK    1  A    between atoms: C2'_3  and  C1'_4 
REMARK    2  A    between atoms: C1'_4  and  C1_5 
ROOT
ATOM      1  C1  I4B d   1      -0.421   0.295  -0.582  0.00  0.00    -0.075 A 
ATOM      2  C2  I4B d   1       0.903   0.654  -0.581  0.00  0.00     0.003 A 
ATOM      3  C3  I4B d   1       1.911  -0.339  -0.536  0.00  0.00     0.002 A 
ATOM      4  C4  I4B d   1       1.552  -1.668  -0.444  0.00  0.00    -0.004 A 
ATOM      5  C5  I4B d   1       0.208  -2.032  -0.468  0.00  0.00     0.002 A 
ATOM      6  C6  I4B d   1      -0.785  -1.045  -0.550  0.00  0.00     0.003 A 
ENDROOT
BRANCH   1   7
ATOM      7  C1' I4B d   1      -1.460   1.372  -0.596  0.00  0.00     0.060 C 
BRANCH   7   8
ATOM      8  C2' I4B d   1      -2.528   1.003   0.413  0.00  0.00    -0.013 C 
ATOM      9  C4' I4B d   1      -2.545   1.969   1.568  0.00  0.00     0.013 C 
ATOM     10  C3' I4B d   1      -3.849   0.985  -0.297  0.00  0.00     0.013 C 
ENDBRANCH   7   8
ENDBRANCH   1   7
TORSDOF 2
ENDMDL
