MODEL 1
REMARK minimizedAffinity -5.56661129
REMARK minimizedRMSD -1
REMARK  2 active torsions:
REMARK  status: ('A' for Active; 'I' for Inactive)
REMARK    1  A    between atoms: C2'_3  and  C1'_4 
REMARK    2  A    between atoms: C1'_4  and  C1_5 
ROOT
ATOM      1  C1  I4B d   1      -0.083  -0.073  -0.195  0.00  0.00    -0.075 A 
ATOM      2  C2  I4B d   1       0.153  -1.297  -0.770  0.00  0.00     0.003 A 
ATOM      3  C3  I4B d   1       1.266  -2.073  -0.364  0.00  0.00     0.002 A 
ATOM      4  C4  I4B d   1       2.139  -1.568   0.577  0.00  0.00    -0.004 A 
ATOM      5  C5  I4B d   1       1.886  -0.337   1.176  0.00  0.00     0.002 A 
ATOM      6  C6  I4B d   1       0.761   0.410   0.796  0.00  0.00     0.003 A 
ENDROOT
BRANCH   1   7
ATOM      7  C1' I4B d   1      -1.249   0.734  -0.671  0.00  0.00     0.060 C 
BRANCH   7   8
ATOM      8  C2' I4B d   1      -2.449   0.366   0.177  0.00  0.00    -0.013 C 
ATOM      9  C4' I4B d   1      -2.782   1.461   1.155  0.00  0.00     0.013 C 
ATOM     10  C3' I4B d   1      -3.601   0.093  -0.743  0.00  0.00     0.013 C 
ENDBRANCH   7   8
ENDBRANCH   1   7
TORSDOF 2
ENDMDL
