MODEL 1
REMARK minimizedAffinity -4.42947483
REMARK minimizedRMSD -1
REMARK  2 active torsions:
REMARK  status: ('A' for Active; 'I' for Inactive)
REMARK    1  A    between atoms: C2'_3  and  C1'_4 
REMARK    2  A    between atoms: C1'_4  and  C1_5 
ROOT
ATOM      1  C1  I4B d   1      -0.429   0.232  -0.175  0.00  0.00    -0.075 A 
ATOM      2  C2  I4B d   1      -0.404  -0.952  -0.868  0.00  0.00     0.003 A 
ATOM      3  C3  I4B d   1       0.726  -1.802  -0.787  0.00  0.00     0.002 A 
ATOM      4  C4  I4B d   1       1.821  -1.407  -0.047  0.00  0.00    -0.004 A 
ATOM      5  C5  I4B d   1       1.785  -0.217   0.674  0.00  0.00     0.002 A 
ATOM      6  C6  I4B d   1       0.648   0.602   0.620  0.00  0.00     0.003 A 
ENDROOT
BRANCH   1   7
ATOM      7  C1' I4B d   1      -1.625   1.121  -0.309  0.00  0.00     0.060 C 
BRANCH   7   8
ATOM      8  C2' I4B d   1      -2.670   0.649   0.682  0.00  0.00    -0.013 C 
ATOM      9  C4' I4B d   1      -2.696   1.526   1.906  0.00  0.00     0.013 C 
ATOM     10  C3' I4B d   1      -3.999   0.650  -0.013  0.00  0.00     0.013 C 
ENDBRANCH   7   8
ENDBRANCH   1   7
TORSDOF 2
ENDMDL
