MODEL 1
REMARK minimizedAffinity -2.37202406
REMARK minimizedRMSD -1
REMARK  2 active torsions:
REMARK  status: ('A' for Active; 'I' for Inactive)
REMARK    1  A    between atoms: C2'_3  and  C1'_4 
REMARK    2  A    between atoms: C1'_4  and  C1_5 
ROOT
ATOM      1  C1  I4B d   1      -0.805   0.319  -0.394  0.00  0.00    -0.075 A 
ATOM      2  C2  I4B d   1       0.397   0.876  -0.032  0.00  0.00     0.003 A 
ATOM      3  C3  I4B d   1       1.554   0.066   0.075  0.00  0.00     0.002 A 
ATOM      4  C4  I4B d   1       1.454  -1.294  -0.138  0.00  0.00    -0.004 A 
ATOM      5  C5  I4B d   1       0.240  -1.852  -0.528  0.00  0.00     0.002 A 
ATOM      6  C6  I4B d   1      -0.894  -1.039  -0.668  0.00  0.00     0.003 A 
ENDROOT
BRANCH   1   7
ATOM      7  C1' I4B d   1      -2.013   1.198  -0.465  0.00  0.00     0.060 C 
BRANCH   7   8
ATOM      8  C2' I4B d   1      -2.991   0.734   0.596  0.00  0.00    -0.013 C 
ATOM      9  C4' I4B d   1      -3.247   1.815   1.612  0.00  0.00     0.013 C 
ATOM     10  C3' I4B d   1      -4.259   0.325  -0.091  0.00  0.00     0.013 C 
ENDBRANCH   7   8
ENDBRANCH   1   7
TORSDOF 2
ENDMDL
