MODEL 1
REMARK minimizedAffinity 11.8162479
REMARK minimizedRMSD -1
REMARK  0 active torsions:
REMARK  status: ('A' for Active; 'I' for Inactive)
ROOT
ATOM      1  C1  DEN d   1      -5.587   2.017   4.123  0.00  0.00     0.130 A 
ATOM      2  C2  DEN d   1      -4.461   2.551   4.883  0.00  0.00    -0.031 A 
ATOM      3  C3  DEN d   1      -3.423   1.504   4.959  0.00  0.00     0.027 A 
ATOM      4  C4  DEN d   1      -3.449  -0.880   3.976  0.00  0.00     0.027 A 
ATOM      5  C5  DEN d   1      -4.194  -1.791   3.260  0.00  0.00    -0.003 A 
ATOM      6  C6  DEN d   1      -5.459  -1.511   2.815  0.00  0.00     0.001 A 
ATOM      7  C7  DEN d   1      -6.000  -0.274   3.042  0.00  0.00     0.017 A 
ATOM      8  C8  DEN d   1      -5.258   0.648   3.769  0.00  0.00    -0.094 A 
ATOM      9  C9  DEN d   1      -3.976   0.350   4.200  0.00  0.00    -0.072 A 
ENDROOT
TORSDOF 0
ENDMDL
