MODEL 1
REMARK minimizedAffinity 1.9721688
REMARK minimizedRMSD -1
REMARK  0 active torsions:
REMARK  status: ('A' for Active; 'I' for Inactive)
ROOT
ATOM      1  C1  DEN d   1      -4.108  -3.512  -6.000  0.00  0.00     0.130 A 
ATOM      2  C2  DEN d   1      -5.440  -4.112  -6.000  0.00  0.00    -0.031 A 
ATOM      3  C3  DEN d   1      -5.524  -5.037  -4.852  0.00  0.00     0.027 A 
ATOM      4  C4  DEN d   1      -3.732  -5.592  -3.081  0.00  0.00     0.027 A 
ATOM      5  C5  DEN d   1      -2.441  -5.340  -2.673  0.00  0.00    -0.003 A 
ATOM      6  C6  DEN d   1      -1.611  -4.494  -3.359  0.00  0.00     0.001 A 
ATOM      7  C7  DEN d   1      -2.077  -3.834  -4.465  0.00  0.00     0.017 A 
ATOM      8  C8  DEN d   1      -3.376  -4.089  -4.887  0.00  0.00    -0.094 A 
ATOM      9  C9  DEN d   1      -4.204  -4.938  -4.173  0.00  0.00    -0.072 A 
ENDROOT
TORSDOF 0
ENDMDL
