MODEL 1
REMARK minimizedAffinity 15.3492155
REMARK minimizedRMSD -1
REMARK  0 active torsions:
REMARK  status: ('A' for Active; 'I' for Inactive)
ROOT
ATOM      1  C1  DEN d   1       2.122  -1.860  -2.136  0.00  0.00     0.130 A 
ATOM      2  C2  DEN d   1       2.994  -1.548  -1.008  0.00  0.00    -0.031 A 
ATOM      3  C3  DEN d   1       3.403  -2.821  -0.381  0.00  0.00     0.027 A 
ATOM      4  C4  DEN d   1       2.776  -5.233  -1.048  0.00  0.00     0.027 A 
ATOM      5  C5  DEN d   1       2.051  -6.000  -1.933  0.00  0.00    -0.003 A 
ATOM      6  C6  DEN d   1       1.278  -5.445  -2.918  0.00  0.00     0.001 A 
ATOM      7  C7  DEN d   1       1.248  -4.084  -3.071  0.00  0.00     0.017 A 
ATOM      8  C8  DEN d   1       1.970  -3.303  -2.178  0.00  0.00    -0.094 A 
ATOM      9  C9  DEN d   1       2.755  -3.884  -1.197  0.00  0.00    -0.072 A 
ENDROOT
TORSDOF 0
ENDMDL
