MODEL 1
REMARK minimizedAffinity 18.4987869
REMARK minimizedRMSD -1
REMARK  0 active torsions:
REMARK  status: ('A' for Active; 'I' for Inactive)
ROOT
ATOM      1  C1  DEN d   1       4.195   0.736   0.506  0.00  0.00     0.130 A 
ATOM      2  C2  DEN d   1       4.219   2.044  -0.144  0.00  0.00    -0.031 A 
ATOM      3  C3  DEN d   1       3.345   1.979  -1.333  0.00  0.00     0.027 A 
ATOM      4  C4  DEN d   1       1.961  -0.007  -2.223  0.00  0.00     0.027 A 
ATOM      5  C5  DEN d   1       1.630  -1.328  -2.014  0.00  0.00    -0.003 A 
ATOM      6  C6  DEN d   1       2.153  -2.057  -0.979  0.00  0.00     0.001 A 
ATOM      7  C7  DEN d   1       3.001  -1.456  -0.087  0.00  0.00     0.017 A 
ATOM      8  C8  DEN d   1       3.345  -0.127  -0.294  0.00  0.00    -0.094 A 
ATOM      9  C9  DEN d   1       2.796   0.596  -1.340  0.00  0.00    -0.072 A 
ENDROOT
TORSDOF 0
ENDMDL
