MODEL 1
REMARK minimizedAffinity 11.2406235
REMARK minimizedRMSD -1
REMARK  0 active torsions:
REMARK  status: ('A' for Active; 'I' for Inactive)
ROOT
ATOM      1  C1  DEN d   1      -0.136  -0.697   2.898  0.00  0.00     0.130 A 
ATOM      2  C2  DEN d   1       0.497   0.605   2.711  0.00  0.00    -0.031 A 
ATOM      3  C3  DEN d   1      -0.558   1.638   2.760  0.00  0.00     0.027 A 
ATOM      4  C4  DEN d   1      -3.096   1.348   3.112  0.00  0.00     0.027 A 
ATOM      5  C5  DEN d   1      -4.105   0.430   3.304  0.00  0.00    -0.003 A 
ATOM      6  C6  DEN d   1      -3.869  -0.918   3.341  0.00  0.00     0.001 A 
ATOM      7  C7  DEN d   1      -2.586  -1.386   3.228  0.00  0.00     0.017 A 
ATOM      8  C8  DEN d   1      -1.564  -0.467   3.026  0.00  0.00    -0.094 A 
ATOM      9  C9  DEN d   1      -1.822   0.893   3.004  0.00  0.00    -0.072 A 
ENDROOT
TORSDOF 0
ENDMDL
