MODEL 1
REMARK minimizedAffinity 14.3865814
REMARK minimizedRMSD -1
REMARK  0 active torsions:
REMARK  status: ('A' for Active; 'I' for Inactive)
ROOT
ATOM      1  C1  DEN d   1      -2.627  -2.729  -6.000  0.00  0.00     0.130 A 
ATOM      2  C2  DEN d   1      -4.080  -2.867  -5.985  0.00  0.00    -0.031 A 
ATOM      3  C3  DEN d   1      -4.457  -3.602  -4.761  0.00  0.00     0.027 A 
ATOM      4  C4  DEN d   1      -2.938  -4.530  -2.894  0.00  0.00     0.027 A 
ATOM      5  C5  DEN d   1      -1.634  -4.668  -2.473  0.00  0.00    -0.003 A 
ATOM      6  C6  DEN d   1      -0.576  -4.203  -3.208  0.00  0.00     0.001 A 
ATOM      7  C7  DEN d   1      -0.806  -3.538  -4.383  0.00  0.00     0.017 A 
ATOM      8  C8  DEN d   1      -2.118  -3.401  -4.818  0.00  0.00    -0.094 A 
ATOM      9  C9  DEN d   1      -3.174  -3.867  -4.054  0.00  0.00    -0.072 A 
ENDROOT
TORSDOF 0
ENDMDL
