MODEL 1
REMARK minimizedAffinity 13.0121012
REMARK minimizedRMSD -1
REMARK  0 active torsions:
REMARK  status: ('A' for Active; 'I' for Inactive)
ROOT
ATOM      1  C1  DEN d   1       0.323  -0.277   3.336  0.00  0.00     0.130 A 
ATOM      2  C2  DEN d   1       0.904   0.999   2.924  0.00  0.00    -0.031 A 
ATOM      3  C3  DEN d   1      -0.203   1.914   2.581  0.00  0.00     0.027 A 
ATOM      4  C4  DEN d   1      -2.745   1.485   2.651  0.00  0.00     0.027 A 
ATOM      5  C5  DEN d   1      -3.718   0.550   2.925  0.00  0.00    -0.003 A 
ATOM      6  C6  DEN d   1      -3.415  -0.726   3.318  0.00  0.00     0.001 A 
ATOM      7  C7  DEN d   1      -2.105  -1.089   3.493  0.00  0.00     0.017 A 
ATOM      8  C8  DEN d   1      -1.118  -0.154   3.213  0.00  0.00    -0.094 A 
ATOM      9  C9  DEN d   1      -1.446   1.135   2.828  0.00  0.00    -0.072 A 
ENDROOT
TORSDOF 0
ENDMDL
