MODEL 1
REMARK minimizedAffinity 9.24733543
REMARK minimizedRMSD -1
REMARK  0 active torsions:
REMARK  status: ('A' for Active; 'I' for Inactive)
ROOT
ATOM      1  C1  DEN d   1      -3.302  -2.478  -4.980  0.00  0.00     0.130 A 
ATOM      2  C2  DEN d   1      -4.655  -2.977  -5.205  0.00  0.00    -0.031 A 
ATOM      3  C3  DEN d   1      -4.844  -4.179  -4.368  0.00  0.00     0.027 A 
ATOM      4  C4  DEN d   1      -3.181  -5.307  -2.750  0.00  0.00     0.027 A 
ATOM      5  C5  DEN d   1      -1.906  -5.252  -2.234  0.00  0.00    -0.003 A 
ATOM      6  C6  DEN d   1      -1.002  -4.298  -2.619  0.00  0.00     0.001 A 
ATOM      7  C7  DEN d   1      -1.376  -3.330  -3.513  0.00  0.00     0.017 A 
ATOM      8  C8  DEN d   1      -2.659  -3.383  -4.044  0.00  0.00    -0.094 A 
ATOM      9  C9  DEN d   1      -3.561  -4.349  -3.633  0.00  0.00    -0.072 A 
ENDROOT
TORSDOF 0
ENDMDL
