MODEL 1
REMARK minimizedAffinity 13.2501736
REMARK minimizedRMSD -1
REMARK  0 active torsions:
REMARK  status: ('A' for Active; 'I' for Inactive)
ROOT
ATOM      1  C1  DEN d   1      -2.741  -1.646   2.621  0.00  0.00     0.130 A 
ATOM      2  C2  DEN d   1      -4.010  -0.986   2.323  0.00  0.00    -0.031 A 
ATOM      3  C3  DEN d   1      -3.752   0.462   2.194  0.00  0.00     0.027 A 
ATOM      4  C4  DEN d   1      -1.522   1.739   2.421  0.00  0.00     0.027 A 
ATOM      5  C5  DEN d   1      -0.176   1.610   2.679  0.00  0.00    -0.003 A 
ATOM      6  C6  DEN d   1       0.400   0.401   2.968  0.00  0.00     0.001 A 
ATOM      7  C7  DEN d   1      -0.367  -0.735   2.960  0.00  0.00     0.017 A 
ATOM      8  C8  DEN d   1      -1.727  -0.611   2.707  0.00  0.00    -0.094 A 
ATOM      9  C9  DEN d   1      -2.287   0.618   2.406  0.00  0.00    -0.072 A 
ENDROOT
TORSDOF 0
ENDMDL
