MODEL 1
REMARK minimizedAffinity 14.1453371
REMARK minimizedRMSD -1
REMARK  0 active torsions:
REMARK  status: ('A' for Active; 'I' for Inactive)
ROOT
ATOM      1  C1  DEN d   1      -3.499  -3.087  -4.485  0.00  0.00     0.130 A 
ATOM      2  C2  DEN d   1      -4.899  -3.414  -4.739  0.00  0.00    -0.031 A 
ATOM      3  C3  DEN d   1      -5.262  -4.562  -3.885  0.00  0.00     0.027 A 
ATOM      4  C4  DEN d   1      -3.802  -5.855  -2.197  0.00  0.00     0.027 A 
ATOM      5  C5  DEN d   1      -2.544  -5.952  -1.644  0.00  0.00    -0.003 A 
ATOM      6  C6  DEN d   1      -1.516  -5.130  -2.021  0.00  0.00     0.001 A 
ATOM      7  C7  DEN d   1      -1.739  -4.144  -2.946  0.00  0.00     0.017 A 
ATOM      8  C8  DEN d   1      -3.002  -4.045  -3.513  0.00  0.00    -0.094 A 
ATOM      9  C9  DEN d   1      -4.032  -4.877  -3.109  0.00  0.00    -0.072 A 
ENDROOT
TORSDOF 0
ENDMDL
