MODEL 1
REMARK minimizedAffinity 6.82871675
REMARK minimizedRMSD -1
REMARK  0 active torsions:
REMARK  status: ('A' for Active; 'I' for Inactive)
ROOT
ATOM      1  C1  DEN d   1      -3.229  -0.084   1.880  0.00  0.00     0.130 A 
ATOM      2  C2  DEN d   1      -4.035   0.590   2.895  0.00  0.00    -0.031 A 
ATOM      3  C3  DEN d   1      -3.132   1.422   3.715  0.00  0.00     0.027 A 
ATOM      4  C4  DEN d   1      -0.580   1.734   3.511  0.00  0.00     0.027 A 
ATOM      5  C5  DEN d   1       0.545   1.359   2.809  0.00  0.00    -0.003 A 
ATOM      6  C6  DEN d   1       0.495   0.457   1.779  0.00  0.00     0.001 A 
ATOM      7  C7  DEN d   1      -0.711  -0.065   1.391  0.00  0.00     0.017 A 
ATOM      8  C8  DEN d   1      -1.847   0.303   2.099  0.00  0.00    -0.094 A 
ATOM      9  C9  DEN d   1      -1.778   1.225   3.130  0.00  0.00    -0.072 A 
ENDROOT
TORSDOF 0
ENDMDL
