MODEL 1
REMARK minimizedAffinity 17.2247906
REMARK minimizedRMSD -1
REMARK  0 active torsions:
REMARK  status: ('A' for Active; 'I' for Inactive)
ROOT
ATOM      1  C1  DEN d   1       0.355   2.476   4.683  0.00  0.00     0.130 A 
ATOM      2  C2  DEN d   1       0.404   1.829   5.991  0.00  0.00    -0.031 A 
ATOM      3  C3  DEN d   1       0.417   0.367   5.778  0.00  0.00     0.027 A 
ATOM      4  C4  DEN d   1       0.372  -0.949   3.560  0.00  0.00     0.027 A 
ATOM      5  C5  DEN d   1       0.317  -0.836   2.189  0.00  0.00    -0.003 A 
ATOM      6  C6  DEN d   1       0.237   0.378   1.559  0.00  0.00     0.001 A 
ATOM      7  C7  DEN d   1       0.256   1.530   2.300  0.00  0.00     0.017 A 
ATOM      8  C8  DEN d   1       0.303   1.424   3.684  0.00  0.00    -0.094 A 
ATOM      9  C9  DEN d   1       0.396   0.188   4.301  0.00  0.00    -0.072 A 
ENDROOT
TORSDOF 0
ENDMDL
