MODEL 1
REMARK minimizedAffinity 0.636437893
REMARK minimizedRMSD -1
REMARK  0 active torsions:
REMARK  status: ('A' for Active; 'I' for Inactive)
ROOT
ATOM      1  C1  DEN d   1      -0.332  -4.160  -4.233  0.00  0.00     0.130 A 
ATOM      2  C2  DEN d   1      -0.000  -4.884  -3.010  0.00  0.00    -0.031 A 
ATOM      3  C3  DEN d   1      -1.256  -5.402  -2.430  0.00  0.00     0.027 A 
ATOM      4  C4  DEN d   1      -3.669  -5.157  -3.307  0.00  0.00     0.027 A 
ATOM      5  C5  DEN d   1      -4.452  -4.618  -4.304  0.00  0.00    -0.003 A 
ATOM      6  C6  DEN d   1      -3.925  -3.865  -5.320  0.00  0.00     0.001 A 
ATOM      7  C7  DEN d   1      -2.571  -3.669  -5.387  0.00  0.00     0.017 A 
ATOM      8  C8  DEN d   1      -1.776  -4.204  -4.382  0.00  0.00    -0.094 A 
ATOM      9  C9  DEN d   1      -2.326  -4.972  -3.370  0.00  0.00    -0.072 A 
ENDROOT
TORSDOF 0
ENDMDL
