MODEL 1
REMARK minimizedAffinity 1.50891018
REMARK minimizedRMSD -1
REMARK  0 active torsions:
REMARK  status: ('A' for Active; 'I' for Inactive)
ROOT
ATOM      1  C1  DEN d   1      -4.631  -4.344  -4.783  0.00  0.00     0.130 A 
ATOM      2  C2  DEN d   1      -4.444  -3.444  -5.918  0.00  0.00    -0.031 A 
ATOM      3  C3  DEN d   1      -3.010  -3.104  -6.000  0.00  0.00     0.027 A 
ATOM      4  C4  DEN d   1      -1.069  -3.884  -4.490  0.00  0.00     0.027 A 
ATOM      5  C5  DEN d   1      -0.738  -4.644  -3.390  0.00  0.00    -0.003 A 
ATOM      6  C6  DEN d   1      -1.679  -5.323  -2.662  0.00  0.00     0.001 A 
ATOM      7  C7  DEN d   1      -2.991  -5.294  -3.054  0.00  0.00     0.017 A 
ATOM      8  C8  DEN d   1      -3.334  -4.524  -4.158  0.00  0.00    -0.094 A 
ATOM      9  C9  DEN d   1      -2.366  -3.854  -4.887  0.00  0.00    -0.072 A 
ENDROOT
TORSDOF 0
ENDMDL
