MODEL 1
REMARK minimizedAffinity 0.793828368
REMARK minimizedRMSD -1
REMARK  0 active torsions:
REMARK  status: ('A' for Active; 'I' for Inactive)
ROOT
ATOM      1  C1  DEN d   1       3.686  -2.963  -0.604  0.00  0.00     0.130 A 
ATOM      2  C2  DEN d   1       2.865  -1.755  -0.585  0.00  0.00    -0.031 A 
ATOM      3  C3  DEN d   1       1.691  -1.987  -1.450  0.00  0.00     0.027 A 
ATOM      4  C4  DEN d   1       1.067  -4.089  -2.809  0.00  0.00     0.027 A 
ATOM      5  C5  DEN d   1       1.463  -5.364  -3.149  0.00  0.00    -0.003 A 
ATOM      6  C6  DEN d   1       2.634  -5.911  -2.696  0.00  0.00     0.001 A 
ATOM      7  C7  DEN d   1       3.430  -5.197  -1.840  0.00  0.00     0.017 A 
ATOM      8  C8  DEN d   1       3.042  -3.908  -1.498  0.00  0.00    -0.094 A 
ATOM      9  C9  DEN d   1       1.848  -3.378  -1.957  0.00  0.00    -0.072 A 
ENDROOT
TORSDOF 0
ENDMDL
