MODEL 1
REMARK minimizedAffinity 13.7738333
REMARK minimizedRMSD -1
REMARK  1 active torsions:
REMARK  status: ('A' for Active; 'I' for Inactive)
REMARK    1  A    between atoms: C1_2  and  C2_3 
ROOT
ATOM      1  C2  UNL d   1       5.159   3.690  -1.290  0.00  0.00    -0.073 A 
ATOM      2  C3  UNL d   1       5.999   2.964  -2.142  0.00  0.00    -0.002 A 
ATOM      3  C4  UNL d   1       5.625   1.695  -2.587  0.00  0.00     0.004 A 
ATOM      4  C5  UNL d   1       4.406   1.144  -2.193  0.00  0.00    -0.004 A 
ATOM      5  C6  UNL d   1       3.547   1.860  -1.353  0.00  0.00    -0.075 A 
ATOM      6  C7  UNL d   1       2.233   1.280  -0.918  0.00  0.00     0.076 C 
ATOM      7  C8  UNL d   1       3.931   3.132  -0.907  0.00  0.00     0.001 A 
ENDROOT
BRANCH   1   8
ATOM      8  C1  UNL d   1       5.556   5.063  -0.812  0.00  0.00     0.053 C 
ATOM      9  C   UNL d   1       5.930   5.982  -1.963  0.00  0.00     0.018 C 
ENDBRANCH   1   8
TORSDOF 1
ENDMDL
