MODEL 1
REMARK minimizedAffinity 10.5524426
REMARK minimizedRMSD -1
REMARK  1 active torsions:
REMARK  status: ('A' for Active; 'I' for Inactive)
REMARK    1  A    between atoms: C1_2  and  C2_3 
ROOT
ATOM      1  C2  UNL d   1       2.081   2.060   1.985  0.00  0.00    -0.073 A 
ATOM      2  C3  UNL d   1       1.766   2.218   0.630  0.00  0.00    -0.002 A 
ATOM      3  C4  UNL d   1       2.042   1.197  -0.281  0.00  0.00     0.004 A 
ATOM      4  C5  UNL d   1       2.628   0.008   0.154  0.00  0.00    -0.004 A 
ATOM      5  C6  UNL d   1       2.939  -0.173   1.505  0.00  0.00    -0.075 A 
ATOM      6  C7  UNL d   1       3.572  -1.445   1.988  0.00  0.00     0.076 C 
ATOM      7  C8  UNL d   1       2.661   0.858   2.413  0.00  0.00     0.001 A 
ENDROOT
BRANCH   1   8
ATOM      8  C1  UNL d   1       1.778   3.157   2.973  0.00  0.00     0.053 C 
ATOM      9  C   UNL d   1       1.071   2.629   4.211  0.00  0.00     0.018 C 
ENDBRANCH   1   8
TORSDOF 1
ENDMDL
