MODEL 1
REMARK minimizedAffinity -1.93402493
REMARK minimizedRMSD -1
REMARK  1 active torsions:
REMARK  status: ('A' for Active; 'I' for Inactive)
REMARK    1  A    between atoms: C3_4  and  O_7 
ROOT
ATOM      1  C   UNL d   1       0.995  -0.887  -0.492  0.00  0.00    -0.033 A 
ATOM      2  C1  UNL d   1      -0.267  -0.808  -1.084  0.00  0.00     0.039 A 
ATOM      3  C2  UNL d   1      -1.337  -0.251  -0.381  0.00  0.00    -0.080 A 
ATOM      4  C3  UNL d   1      -1.132   0.224   0.912  0.00  0.00     0.150 A 
ATOM      5  C4  UNL d   1       0.124   0.152   1.507  0.00  0.00    -0.007 A 
ATOM      6  C5  UNL d   1       1.190  -0.406   0.803  0.00  0.00     0.039 A 
ENDROOT
BRANCH   4   7
ATOM      7  O   UNL d   1      -2.146   0.771   1.639  0.00  0.00    -0.526 OA
ATOM      8  H5  UNL d   1      -2.961   0.728   1.112  0.00  0.00     0.418 HD
ENDBRANCH   4   7
TORSDOF 1
ENDMDL
