MODEL 1
REMARK minimizedAffinity -2.08372378
REMARK minimizedRMSD -1
REMARK  1 active torsions:
REMARK  status: ('A' for Active; 'I' for Inactive)
REMARK    1  A    between atoms: C3_4  and  O_7 
ROOT
ATOM      1  C   UNL d   1      -1.395   0.106   0.349  0.00  0.00    -0.033 A 
ATOM      2  C1  UNL d   1      -1.872   0.328   1.642  0.00  0.00     0.039 A 
ATOM      3  C2  UNL d   1      -1.029   0.148   2.740  0.00  0.00    -0.080 A 
ATOM      4  C3  UNL d   1       0.288  -0.253   2.531  0.00  0.00     0.150 A 
ATOM      5  C4  UNL d   1       0.771  -0.473   1.245  0.00  0.00    -0.007 A 
ATOM      6  C5  UNL d   1      -0.073  -0.293   0.150  0.00  0.00     0.039 A 
ENDROOT
BRANCH   4   7
ATOM      7  O   UNL d   1       1.147  -0.447   3.572  0.00  0.00    -0.526 OA
ATOM      8  H5  UNL d   1       0.668  -0.286   4.401  0.00  0.00     0.418 HD
ENDBRANCH   4   7
TORSDOF 1
ENDMDL
