MODEL 1
REMARK minimizedAffinity 1.13451707
REMARK minimizedRMSD -1
REMARK  1 active torsions:
REMARK  status: ('A' for Active; 'I' for Inactive)
REMARK    1  A    between atoms: C3_4  and  O_7 
ROOT
ATOM      1  C   UNL d   1      -1.697  -1.748  -4.893  0.00  0.00    -0.033 A 
ATOM      2  C1  UNL d   1      -1.861  -0.762  -5.868  0.00  0.00     0.039 A 
ATOM      3  C2  UNL d   1      -1.030   0.360  -5.874  0.00  0.00    -0.080 A 
ATOM      4  C3  UNL d   1      -0.041   0.484  -4.902  0.00  0.00     0.150 A 
ATOM      5  C4  UNL d   1       0.130  -0.497  -3.930  0.00  0.00    -0.007 A 
ATOM      6  C5  UNL d   1      -0.701  -1.616  -3.925  0.00  0.00     0.039 A 
ENDROOT
BRANCH   4   7
ATOM      7  O   UNL d   1       0.790   1.564  -4.864  0.00  0.00    -0.526 OA
ATOM      8  H5  UNL d   1       0.537   2.172  -5.579  0.00  0.00     0.418 HD
ENDBRANCH   4   7
TORSDOF 1
ENDMDL
