MODEL 1
REMARK minimizedAffinity -3.83786273
REMARK minimizedRMSD -1
REMARK  1 active torsions:
REMARK  status: ('A' for Active; 'I' for Inactive)
REMARK    1  A    between atoms: C3_4  and  O_7 
ROOT
ATOM      1  C   UNL d   1      -1.986   0.261   0.150  0.00  0.00    -0.033 A 
ATOM      2  C1  UNL d   1      -0.959  -0.510  -0.398  0.00  0.00     0.039 A 
ATOM      3  C2  UNL d   1       0.164  -0.828   0.370  0.00  0.00    -0.080 A 
ATOM      4  C3  UNL d   1       0.246  -0.369   1.682  0.00  0.00     0.150 A 
ATOM      5  C4  UNL d   1      -0.775   0.396   2.235  0.00  0.00    -0.007 A 
ATOM      6  C5  UNL d   1      -1.895   0.712   1.467  0.00  0.00     0.039 A 
ENDROOT
BRANCH   4   7
ATOM      7  O   UNL d   1       1.324  -0.649   2.468  0.00  0.00    -0.526 OA
ATOM      8  H5  UNL d   1       1.963  -1.161   1.943  0.00  0.00     0.418 HD
ENDBRANCH   4   7
TORSDOF 1
ENDMDL
