MODEL 1
REMARK minimizedAffinity -3.39545655
REMARK minimizedRMSD -1
REMARK  1 active torsions:
REMARK  status: ('A' for Active; 'I' for Inactive)
REMARK    1  A    between atoms: C3_4  and  O_7 
ROOT
ATOM      1  C   UNL d   1       0.294  -0.940  -0.740  0.00  0.00    -0.033 A 
ATOM      2  C1  UNL d   1      -1.061  -0.603  -0.741  0.00  0.00     0.039 A 
ATOM      3  C2  UNL d   1      -1.634  -0.003   0.382  0.00  0.00    -0.080 A 
ATOM      4  C3  UNL d   1      -0.842   0.257   1.497  0.00  0.00     0.150 A 
ATOM      5  C4  UNL d   1       0.510  -0.072   1.503  0.00  0.00    -0.007 A 
ATOM      6  C5  UNL d   1       1.079  -0.673   0.381  0.00  0.00     0.039 A 
ENDROOT
BRANCH   4   7
ATOM      7  O   UNL d   1      -1.357   0.837   2.617  0.00  0.00    -0.526 OA
ATOM      8  H5  UNL d   1      -2.308   0.982   2.479  0.00  0.00     0.418 HD
ENDBRANCH   4   7
TORSDOF 1
ENDMDL
