MODEL 1
REMARK minimizedAffinity -2.60535812
REMARK minimizedRMSD -1
REMARK  1 active torsions:
REMARK  status: ('A' for Active; 'I' for Inactive)
REMARK    1  A    between atoms: C3_4  and  O_7 
ROOT
ATOM      1  C   UNL d   1      -1.746   0.290  -0.210  0.00  0.00    -0.033 A 
ATOM      2  C1  UNL d   1      -0.462  -0.255  -0.275  0.00  0.00     0.039 A 
ATOM      3  C2  UNL d   1       0.236  -0.543   0.899  0.00  0.00    -0.080 A 
ATOM      4  C3  UNL d   1      -0.361  -0.285   2.130  0.00  0.00     0.150 A 
ATOM      5  C4  UNL d   1      -1.641   0.254   2.202  0.00  0.00    -0.007 A 
ATOM      6  C5  UNL d   1      -2.336   0.543   1.028  0.00  0.00     0.039 A 
ENDROOT
BRANCH   4   7
ATOM      7  O   UNL d   1       0.283  -0.545   3.303  0.00  0.00    -0.526 OA
ATOM      8  H5  UNL d   1       1.169  -0.888   3.098  0.00  0.00     0.418 HD
ENDBRANCH   4   7
TORSDOF 1
ENDMDL
