MODEL 1
REMARK minimizedAffinity -2.80868077
REMARK minimizedRMSD -1
REMARK  1 active torsions:
REMARK  status: ('A' for Active; 'I' for Inactive)
REMARK    1  A    between atoms: C1_2  and  C2_3 
ROOT
ATOM      1  C2  UNL d   1      -0.434   0.703  -1.670  0.00  0.00    -0.077 A 
ATOM      2  C3  UNL d   1      -1.496   0.627  -0.758  0.00  0.00     0.002 A 
ATOM      3  C4  UNL d   1      -1.285   0.138   0.533  0.00  0.00     0.002 A 
ATOM      4  C5  UNL d   1      -0.013  -0.273   0.925  0.00  0.00    -0.004 A 
ATOM      5  C6  UNL d   1       1.049  -0.204   0.024  0.00  0.00     0.002 A 
ATOM      6  C7  UNL d   1       0.840   0.283  -1.267  0.00  0.00     0.002 A 
ENDROOT
BRANCH   1   7
ATOM      7  C1  UNL d   1      -0.649   1.275  -3.047  0.00  0.00     0.055 C 
ATOM      8  C   UNL d   1      -0.998   2.755  -2.983  0.00  0.00     0.019 C 
ENDBRANCH   1   7
TORSDOF 1
ENDMDL
