MODEL 1
REMARK minimizedAffinity -2.41794538
REMARK minimizedRMSD -1
REMARK  1 active torsions:
REMARK  status: ('A' for Active; 'I' for Inactive)
REMARK    1  A    between atoms: C1_2  and  C2_3 
ROOT
ATOM      1  C2  UNL d   1      -0.136   1.173  -1.933  0.00  0.00    -0.077 A 
ATOM      2  C3  UNL d   1       0.710   2.102  -2.555  0.00  0.00     0.002 A 
ATOM      3  C4  UNL d   1       0.201   3.308  -3.039  0.00  0.00     0.002 A 
ATOM      4  C5  UNL d   1      -1.155   3.598  -2.903  0.00  0.00    -0.004 A 
ATOM      5  C6  UNL d   1      -2.006   2.680  -2.288  0.00  0.00     0.002 A 
ATOM      6  C7  UNL d   1      -1.498   1.473  -1.805  0.00  0.00     0.002 A 
ENDROOT
BRANCH   1   7
ATOM      7  C1  UNL d   1       0.420  -0.107  -1.367  0.00  0.00     0.055 C 
ATOM      8  C   UNL d   1      -0.013  -0.307   0.079  0.00  0.00     0.019 C 
ENDBRANCH   1   7
TORSDOF 1
ENDMDL
