MODEL 1
REMARK minimizedAffinity 4.61704111
REMARK minimizedRMSD -1
REMARK  1 active torsions:
REMARK  status: ('A' for Active; 'I' for Inactive)
REMARK    1  A    between atoms: C1_2  and  C2_3 
ROOT
ATOM      1  C2  UNL d   1      -0.865   3.051  -3.217  0.00  0.00    -0.077 A 
ATOM      2  C3  UNL d   1      -0.402   3.510  -4.458  0.00  0.00     0.002 A 
ATOM      3  C4  UNL d   1       0.965   3.527  -4.740  0.00  0.00     0.002 A 
ATOM      4  C5  UNL d   1       1.880   3.083  -3.788  0.00  0.00    -0.004 A 
ATOM      5  C6  UNL d   1       1.430   2.626  -2.550  0.00  0.00     0.002 A 
ATOM      6  C7  UNL d   1       0.064   2.610  -2.266  0.00  0.00     0.002 A 
ENDROOT
BRANCH   1   7
ATOM      7  C1  UNL d   1      -2.342   2.986  -2.929  0.00  0.00     0.055 C 
ATOM      8  C   UNL d   1      -3.103   4.057  -3.696  0.00  0.00     0.019 C 
ENDBRANCH   1   7
TORSDOF 1
ENDMDL
