MODEL 1
REMARK minimizedAffinity -4.9498992
REMARK minimizedRMSD -1
REMARK  1 active torsions:
REMARK  status: ('A' for Active; 'I' for Inactive)
REMARK    1  A    between atoms: C1_2  and  C2_3 
ROOT
ATOM      1  C2  UNL d   1      -1.236   0.867  -1.021  0.00  0.00    -0.077 A 
ATOM      2  C3  UNL d   1      -2.291   0.860  -0.097  0.00  0.00     0.002 A 
ATOM      3  C4  UNL d   1      -2.111   0.317   1.176  0.00  0.00     0.002 A 
ATOM      4  C5  UNL d   1      -0.878  -0.220   1.539  0.00  0.00    -0.004 A 
ATOM      5  C6  UNL d   1       0.177  -0.220   0.626  0.00  0.00     0.002 A 
ATOM      6  C7  UNL d   1      -0.001   0.322  -0.647  0.00  0.00     0.002 A 
ENDROOT
BRANCH   1   7
ATOM      7  C1  UNL d   1      -1.414   1.498  -2.377  0.00  0.00     0.055 C 
ATOM      8  C   UNL d   1      -0.312   2.507  -2.667  0.00  0.00     0.019 C 
ENDBRANCH   1   7
TORSDOF 1
ENDMDL
