MODEL 1
REMARK minimizedAffinity -1.99697256
REMARK minimizedRMSD -1
REMARK  1 active torsions:
REMARK  status: ('A' for Active; 'I' for Inactive)
REMARK    1  A    between atoms: C1_2  and  C2_3 
ROOT
ATOM      1  C2  UNL d   1      -0.921   1.271  -1.951  0.00  0.00    -0.077 A 
ATOM      2  C3  UNL d   1       0.091   1.963  -2.630  0.00  0.00     0.002 A 
ATOM      3  C4  UNL d   1      -0.154   3.231  -3.161  0.00  0.00     0.002 A 
ATOM      4  C5  UNL d   1      -1.408   3.819  -3.015  0.00  0.00    -0.004 A 
ATOM      5  C6  UNL d   1      -2.422   3.138  -2.342  0.00  0.00     0.002 A 
ATOM      6  C7  UNL d   1      -2.180   1.870  -1.812  0.00  0.00     0.002 A 
ENDROOT
BRANCH   1   7
ATOM      7  C1  UNL d   1      -0.644  -0.075  -1.335  0.00  0.00     0.055 C 
ATOM      8  C   UNL d   1      -0.464   0.032   0.172  0.00  0.00     0.019 C 
ENDBRANCH   1   7
TORSDOF 1
ENDMDL
