MODEL 1
REMARK minimizedAffinity 3.12273526
REMARK minimizedRMSD -1
REMARK  0 active torsions:
REMARK  status: ('A' for Active; 'I' for Inactive)
ROOT
ATOM      1  C4' PXY d   1       3.815   0.279  -0.783  0.00  0.00     0.077 C 
ATOM      2  C1' PXY d   1      -0.471  -3.402  -2.006  0.00  0.00     0.077 C 
ATOM      3  C1  PXY d   1       0.648  -2.429  -1.695  0.00  0.00    -0.082 A 
ATOM      4  C2  PXY d   1       1.762  -2.871  -1.134  0.00  0.00     0.003 A 
ATOM      5  C3  PXY d   1       2.772  -1.999  -0.816  0.00  0.00     0.003 A 
ATOM      6  C4  PXY d   1       2.662  -0.670  -1.124  0.00  0.00    -0.082 A 
ATOM      7  C5  PXY d   1       1.533  -0.213  -1.706  0.00  0.00     0.003 A 
ATOM      8  C6  PXY d   1       0.503  -1.107  -1.983  0.00  0.00     0.003 A 
ENDROOT
TORSDOF 0
ENDMDL
