MODEL 1
REMARK minimizedAffinity 23.1340561
REMARK minimizedRMSD -1
REMARK  0 active torsions:
REMARK  status: ('A' for Active; 'I' for Inactive)
ROOT
ATOM      1  C4' PXY d   1      -1.218  -3.387  -1.889  0.00  0.00     0.077 C 
ATOM      2  C1' PXY d   1       2.750   0.622  -0.623  0.00  0.00     0.077 C 
ATOM      3  C1  PXY d   1       1.703  -0.421  -0.964  0.00  0.00    -0.082 A 
ATOM      4  C2  PXY d   1       1.438  -1.387  -0.099  0.00  0.00     0.003 A 
ATOM      5  C3  PXY d   1       0.518  -2.357  -0.404  0.00  0.00     0.003 A 
ATOM      6  C4  PXY d   1      -0.177  -2.307  -1.584  0.00  0.00    -0.082 A 
ATOM      7  C5  PXY d   1       0.081  -1.318  -2.466  0.00  0.00     0.003 A 
ATOM      8  C6  PXY d   1       1.048  -0.367  -2.155  0.00  0.00     0.003 A 
ENDROOT
TORSDOF 0
ENDMDL
