MODEL 1
REMARK minimizedAffinity 22.182682
REMARK minimizedRMSD -1
REMARK  0 active torsions:
REMARK  status: ('A' for Active; 'I' for Inactive)
ROOT
ATOM      1  C4' PXY d   1      -2.687   0.625  -3.840  0.00  0.00     0.077 C 
ATOM      2  C1' PXY d   1      -3.709   5.889  -6.000  0.00  0.00     0.077 C 
ATOM      3  C1  PXY d   1      -3.430   4.513  -5.428  0.00  0.00    -0.082 A 
ATOM      4  C2  PXY d   1      -3.965   3.446  -6.000  0.00  0.00     0.003 A 
ATOM      5  C3  PXY d   1      -3.749   2.197  -5.477  0.00  0.00     0.003 A 
ATOM      6  C4  PXY d   1      -2.934   2.033  -4.389  0.00  0.00    -0.082 A 
ATOM      7  C5  PXY d   1      -2.376   3.115  -3.807  0.00  0.00     0.003 A 
ATOM      8  C6  PXY d   1      -2.641   4.378  -4.328  0.00  0.00     0.003 A 
ENDROOT
TORSDOF 0
ENDMDL
