MODEL 1
REMARK minimizedAffinity 14.508028
REMARK minimizedRMSD -1
REMARK  0 active torsions:
REMARK  status: ('A' for Active; 'I' for Inactive)
ROOT
ATOM      1  C4' PXY d   1      -3.287   1.721   3.325  0.00  0.00     0.077 C 
ATOM      2  C1' PXY d   1       2.254   1.195   4.888  0.00  0.00     0.077 C 
ATOM      3  C1  PXY d   1       0.797   1.335   4.490  0.00  0.00    -0.082 A 
ATOM      4  C2  PXY d   1       0.368   0.774   3.371  0.00  0.00     0.003 A 
ATOM      5  C3  PXY d   1      -0.939   0.918   2.981  0.00  0.00     0.003 A 
ATOM      6  C4  PXY d   1      -1.827   1.598   3.770  0.00  0.00    -0.082 A 
ATOM      7  C5  PXY d   1      -1.399   2.164   4.919  0.00  0.00     0.003 A 
ATOM      8  C6  PXY d   1      -0.059   2.041   5.277  0.00  0.00     0.003 A 
ENDROOT
TORSDOF 0
ENDMDL
