MODEL 1
REMARK minimizedAffinity 13.542448
REMARK minimizedRMSD -1
REMARK  0 active torsions:
REMARK  status: ('A' for Active; 'I' for Inactive)
ROOT
ATOM      1  C4' PXY d   1      -0.191   1.024   2.330  0.00  0.00     0.077 C 
ATOM      2  C1' PXY d   1       4.740   0.742  -0.673  0.00  0.00     0.077 C 
ATOM      3  C1  PXY d   1       3.441   0.812   0.104  0.00  0.00    -0.082 A 
ATOM      4  C2  PXY d   1       3.342   1.628   1.141  0.00  0.00     0.003 A 
ATOM      5  C3  PXY d   1       2.184   1.680   1.874  0.00  0.00     0.003 A 
ATOM      6  C4  PXY d   1       1.099   0.928   1.511  0.00  0.00    -0.082 A 
ATOM      7  C5  PXY d   1       1.189   0.101   0.448  0.00  0.00     0.003 A 
ATOM      8  C6  PXY d   1       2.386   0.032  -0.259  0.00  0.00     0.003 A 
ENDROOT
TORSDOF 0
ENDMDL
