MODEL 1
REMARK minimizedAffinity 13.4839134
REMARK minimizedRMSD -1
REMARK  0 active torsions:
REMARK  status: ('A' for Active; 'I' for Inactive)
ROOT
ATOM      1  C4' PXY d   1       0.939  -3.308  -0.341  0.00  0.00     0.077 C 
ATOM      2  C1' PXY d   1       6.000  -5.934  -1.294  0.00  0.00     0.077 C 
ATOM      3  C1  PXY d   1       4.666  -5.256  -1.050  0.00  0.00    -0.082 A 
ATOM      4  C2  PXY d   1       4.614  -3.938  -0.936  0.00  0.00     0.003 A 
ATOM      5  C3  PXY d   1       3.421  -3.311  -0.683  0.00  0.00     0.003 A 
ATOM      6  C4  PXY d   1       2.262  -4.035  -0.598  0.00  0.00    -0.082 A 
ATOM      7  C5  PXY d   1       2.306  -5.378  -0.723  0.00  0.00     0.003 A 
ATOM      8  C6  PXY d   1       3.532  -6.000  -0.939  0.00  0.00     0.003 A 
ENDROOT
TORSDOF 0
ENDMDL
