MODEL 1
REMARK minimizedAffinity 9.32898617
REMARK minimizedRMSD -1
REMARK  0 active torsions:
REMARK  status: ('A' for Active; 'I' for Inactive)
ROOT
ATOM      1  C4' PXY d   1       4.386   0.010  -0.731  0.00  0.00     0.077 C 
ATOM      2  C1' PXY d   1      -0.231  -3.280  -1.862  0.00  0.00     0.077 C 
ATOM      3  C1  PXY d   1       0.983  -2.424  -1.555  0.00  0.00    -0.082 A 
ATOM      4  C2  PXY d   1       1.034  -1.178  -1.997  0.00  0.00     0.003 A 
ATOM      5  C3  PXY d   1       2.138  -0.401  -1.756  0.00  0.00     0.003 A 
ATOM      6  C4  PXY d   1       3.177  -0.887  -1.009  0.00  0.00    -0.082 A 
ATOM      7  C5  PXY d   1       3.128  -2.154  -0.545  0.00  0.00     0.003 A 
ATOM      8  C6  PXY d   1       2.017  -2.940  -0.836  0.00  0.00     0.003 A 
ENDROOT
TORSDOF 0
ENDMDL
