MODEL 1
REMARK minimizedAffinity 9.50945854
REMARK minimizedRMSD -1
REMARK  0 active torsions:
REMARK  status: ('A' for Active; 'I' for Inactive)
ROOT
ATOM      1  C4' PXY d   1      -0.103  -4.051  -2.278  0.00  0.00     0.077 C 
ATOM      2  C1' PXY d   1       2.646   0.622  -0.274  0.00  0.00     0.077 C 
ATOM      3  C1  PXY d   1       1.934  -0.611  -0.794  0.00  0.00    -0.082 A 
ATOM      4  C2  PXY d   1       1.142  -0.513  -1.849  0.00  0.00     0.003 A 
ATOM      5  C3  PXY d   1       0.466  -1.612  -2.314  0.00  0.00     0.003 A 
ATOM      6  C4  PXY d   1       0.643  -2.834  -1.724  0.00  0.00    -0.082 A 
ATOM      7  C5  PXY d   1       1.458  -2.945  -0.653  0.00  0.00     0.003 A 
ATOM      8  C6  PXY d   1       2.103  -1.809  -0.172  0.00  0.00     0.003 A 
ENDROOT
TORSDOF 0
ENDMDL
