MODEL 1
REMARK minimizedAffinity 21.5966473
REMARK minimizedRMSD -1
REMARK  0 active torsions:
REMARK  status: ('A' for Active; 'I' for Inactive)
ROOT
ATOM      1  C4' PXY d   1       0.344  -1.476  -1.487  0.00  0.00     0.077 C 
ATOM      2  C1' PXY d   1       4.946   1.835  -0.360  0.00  0.00     0.077 C 
ATOM      3  C1  PXY d   1       3.734   0.977  -0.662  0.00  0.00    -0.082 A 
ATOM      4  C2  PXY d   1       3.437  -0.038   0.133  0.00  0.00     0.003 A 
ATOM      5  C3  PXY d   1       2.363  -0.844  -0.144  0.00  0.00     0.003 A 
ATOM      6  C4  PXY d   1       1.553  -0.577  -1.215  0.00  0.00    -0.082 A 
ATOM      7  C5  PXY d   1       1.844   0.463  -2.025  0.00  0.00     0.003 A 
ATOM      8  C6  PXY d   1       2.963   1.245  -1.751  0.00  0.00     0.003 A 
ENDROOT
TORSDOF 0
ENDMDL
