MODEL 1
REMARK minimizedAffinity 23.8592396
REMARK minimizedRMSD -1
REMARK  0 active torsions:
REMARK  status: ('A' for Active; 'I' for Inactive)
ROOT
ATOM      1  C4' PXY d   1       5.961  -5.452  -1.373  0.00  0.00     0.077 C 
ATOM      2  C1' PXY d   1       0.612  -3.761   0.022  0.00  0.00     0.077 C 
ATOM      3  C1  PXY d   1       2.012  -4.216  -0.340  0.00  0.00    -0.082 A 
ATOM      4  C2  PXY d   1       2.988  -3.327  -0.421  0.00  0.00     0.003 A 
ATOM      5  C3  PXY d   1       4.253  -3.717  -0.778  0.00  0.00     0.003 A 
ATOM      6  C4  PXY d   1       4.534  -5.039  -1.002  0.00  0.00    -0.082 A 
ATOM      7  C5  PXY d   1       3.545  -5.953  -0.910  0.00  0.00     0.003 A 
ATOM      8  C6  PXY d   1       2.259  -5.531  -0.587  0.00  0.00     0.003 A 
ENDROOT
TORSDOF 0
ENDMDL
