MODEL 1
REMARK minimizedAffinity 7.50602579
REMARK minimizedRMSD -1
REMARK  0 active torsions:
REMARK  status: ('A' for Active; 'I' for Inactive)
ROOT
ATOM      1  C4' PXY d   1       4.129   0.381  -0.703  0.00  0.00     0.077 C 
ATOM      2  C1' PXY d   1      -0.024  -3.490  -1.794  0.00  0.00     0.077 C 
ATOM      3  C1  PXY d   1       1.070  -2.483  -1.498  0.00  0.00    -0.082 A 
ATOM      4  C2  PXY d   1       0.897  -1.213  -1.830  0.00  0.00     0.003 A 
ATOM      5  C3  PXY d   1       1.889  -0.295  -1.599  0.00  0.00     0.003 A 
ATOM      6  C4  PXY d   1       3.048  -0.669  -0.974  0.00  0.00    -0.082 A 
ATOM      7  C5  PXY d   1       3.228  -1.961  -0.623  0.00  0.00     0.003 A 
ATOM      8  C6  PXY d   1       2.226  -2.885  -0.904  0.00  0.00     0.003 A 
ENDROOT
TORSDOF 0
ENDMDL
