MODEL 1
REMARK minimizedAffinity 14.2948542
REMARK minimizedRMSD -1
REMARK  0 active torsions:
REMARK  status: ('A' for Active; 'I' for Inactive)
ROOT
ATOM      1  C4' PXY d   1      -2.979   1.977   2.864  0.00  0.00     0.077 C 
ATOM      2  C1' PXY d   1      -6.000  -2.603   4.684  0.00  0.00     0.077 C 
ATOM      3  C1  PXY d   1      -5.212  -1.403   4.195  0.00  0.00    -0.082 A 
ATOM      4  C2  PXY d   1      -4.132  -1.017   4.853  0.00  0.00     0.003 A 
ATOM      5  C3  PXY d   1      -3.426   0.084   4.443  0.00  0.00     0.003 A 
ATOM      6  C4  PXY d   1      -3.800   0.766   3.316  0.00  0.00    -0.082 A 
ATOM      7  C5  PXY d   1      -4.895   0.373   2.633  0.00  0.00     0.003 A 
ATOM      8  C6  PXY d   1      -5.622  -0.723   3.089  0.00  0.00     0.003 A 
ENDROOT
TORSDOF 0
ENDMDL
