MODEL 1
REMARK minimizedAffinity 9.61607838
REMARK minimizedRMSD -1
REMARK  0 active torsions:
REMARK  status: ('A' for Active; 'I' for Inactive)
ROOT
ATOM      1  C4' PXY d   1       4.675   0.844  -0.383  0.00  0.00     0.077 C 
ATOM      2  C1' PXY d   1       0.227  -2.710  -1.381  0.00  0.00     0.077 C 
ATOM      3  C1  PXY d   1       1.396  -1.784  -1.108  0.00  0.00    -0.082 A 
ATOM      4  C2  PXY d   1       1.430  -0.589  -1.675  0.00  0.00     0.003 A 
ATOM      5  C3  PXY d   1       2.495   0.249  -1.464  0.00  0.00     0.003 A 
ATOM      6  C4  PXY d   1       3.510  -0.120  -0.623  0.00  0.00    -0.082 A 
ATOM      7  C5  PXY d   1       3.477  -1.333  -0.032  0.00  0.00     0.003 A 
ATOM      8  C6  PXY d   1       2.407  -2.185  -0.291  0.00  0.00     0.003 A 
ENDROOT
TORSDOF 0
ENDMDL
