MODEL 1
REMARK minimizedAffinity 9.29745865
REMARK minimizedRMSD -1
REMARK  0 active torsions:
REMARK  status: ('A' for Active; 'I' for Inactive)
ROOT
ATOM      1  C4' PXY d   1       3.053   0.478  -0.689  0.00  0.00     0.077 C 
ATOM      2  C1' PXY d   1      -0.980  -3.352  -2.264  0.00  0.00     0.077 C 
ATOM      3  C1  PXY d   1       0.074  -2.350  -1.838  0.00  0.00    -0.082 A 
ATOM      4  C2  PXY d   1       0.458  -1.406  -2.682  0.00  0.00     0.003 A 
ATOM      5  C3  PXY d   1       1.433  -0.511  -2.325  0.00  0.00     0.003 A 
ATOM      6  C4  PXY d   1       1.984  -0.549  -1.073  0.00  0.00    -0.082 A 
ATOM      7  C5  PXY d   1       1.591  -1.503  -0.202  0.00  0.00     0.003 A 
ATOM      8  C6  PXY d   1       0.629  -2.427  -0.598  0.00  0.00     0.003 A 
ENDROOT
TORSDOF 0
ENDMDL
