MODEL 1
REMARK minimizedAffinity 11.8639269
REMARK minimizedRMSD -1
REMARK  0 active torsions:
REMARK  status: ('A' for Active; 'I' for Inactive)
ROOT
ATOM      1  C4' PXY d   1      -3.567   2.185   3.382  0.00  0.00     0.077 C 
ATOM      2  C1' PXY d   1      -4.334  -3.002   5.817  0.00  0.00     0.077 C 
ATOM      3  C1  PXY d   1      -4.134  -1.636   5.190  0.00  0.00    -0.082 A 
ATOM      4  C2  PXY d   1      -4.461  -1.444   3.923  0.00  0.00     0.003 A 
ATOM      5  C3  PXY d   1      -4.256  -0.224   3.331  0.00  0.00     0.003 A 
ATOM      6  C4  PXY d   1      -3.761   0.825   4.059  0.00  0.00    -0.082 A 
ATOM      7  C5  PXY d   1      -3.435   0.640   5.356  0.00  0.00     0.003 A 
ATOM      8  C6  PXY d   1      -3.612  -0.617   5.926  0.00  0.00     0.003 A 
ENDROOT
TORSDOF 0
ENDMDL
