MODEL 1
REMARK minimizedAffinity 22.4991741
REMARK minimizedRMSD -1
REMARK  0 active torsions:
REMARK  status: ('A' for Active; 'I' for Inactive)
ROOT
ATOM      1  C4' PXY d   1       0.012   1.059  -3.812  0.00  0.00     0.077 C 
ATOM      2  C1' PXY d   1      -5.041   2.836  -5.985  0.00  0.00     0.077 C 
ATOM      3  C1  PXY d   1      -3.721   2.369  -5.403  0.00  0.00    -0.082 A 
ATOM      4  C2  PXY d   1      -2.589   2.703  -6.000  0.00  0.00     0.003 A 
ATOM      5  C3  PXY d   1      -1.388   2.262  -5.505  0.00  0.00     0.003 A 
ATOM      6  C4  PXY d   1      -1.343   1.516  -4.358  0.00  0.00    -0.082 A 
ATOM      7  C5  PXY d   1      -2.494   1.180  -3.738  0.00  0.00     0.003 A 
ATOM      8  C6  PXY d   1      -3.704   1.603  -4.279  0.00  0.00     0.003 A 
ENDROOT
TORSDOF 0
ENDMDL
