MODEL 1
REMARK minimizedAffinity 16.3051167
REMARK minimizedRMSD -1
REMARK  0 active torsions:
REMARK  status: ('A' for Active; 'I' for Inactive)
ROOT
ATOM      1  C4' PXY d   1      -0.261  -4.098  -2.575  0.00  0.00     0.077 C 
ATOM      2  C1' PXY d   1       2.120   0.972  -1.146  0.00  0.00     0.077 C 
ATOM      3  C1  PXY d   1       1.497  -0.354  -1.534  0.00  0.00    -0.082 A 
ATOM      4  C2  PXY d   1       0.705  -0.980  -0.678  0.00  0.00     0.003 A 
ATOM      5  C3  PXY d   1       0.159  -2.195  -0.999  0.00  0.00     0.003 A 
ATOM      6  C4  PXY d   1       0.383  -2.752  -2.230  0.00  0.00    -0.082 A 
ATOM      7  C5  PXY d   1       1.181  -2.115  -3.113  0.00  0.00     0.003 A 
ATOM      8  C6  PXY d   1       1.759  -0.901  -2.752  0.00  0.00     0.003 A 
ENDROOT
TORSDOF 0
ENDMDL
