MODEL 1
REMARK minimizedAffinity 6.39015532
REMARK minimizedRMSD -1
REMARK  0 active torsions:
REMARK  status: ('A' for Active; 'I' for Inactive)
ROOT
ATOM      1  C4' PXY d   1      -2.676   1.699   2.539  0.00  0.00     0.077 C 
ATOM      2  C1' PXY d   1       1.887   0.914   6.000  0.00  0.00     0.077 C 
ATOM      3  C1  PXY d   1       0.682   1.120   5.103  0.00  0.00    -0.082 A 
ATOM      4  C2  PXY d   1       0.742   0.752   3.833  0.00  0.00     0.003 A 
ATOM      5  C3  PXY d   1      -0.327   0.960   3.000  0.00  0.00     0.003 A 
ATOM      6  C4  PXY d   1      -1.488   1.502   3.484  0.00  0.00    -0.082 A 
ATOM      7  C5  PXY d   1      -1.560   1.869   4.781  0.00  0.00     0.003 A 
ATOM      8  C6  PXY d   1      -0.450   1.688   5.600  0.00  0.00     0.003 A 
ENDROOT
TORSDOF 0
ENDMDL
