MODEL 1
REMARK minimizedAffinity 12.4396353
REMARK minimizedRMSD -1
REMARK  0 active torsions:
REMARK  status: ('A' for Active; 'I' for Inactive)
ROOT
ATOM      1  C4' PXY d   1       1.195   1.019   1.491  0.00  0.00     0.077 C 
ATOM      2  C1' PXY d   1      -4.057   1.683   3.812  0.00  0.00     0.077 C 
ATOM      3  C1  PXY d   1      -2.674   1.512   3.214  0.00  0.00    -0.082 A 
ATOM      4  C2  PXY d   1      -2.513   1.598   1.904  0.00  0.00     0.003 A 
ATOM      5  C3  PXY d   1      -1.274   1.415   1.344  0.00  0.00     0.003 A 
ATOM      6  C4  PXY d   1      -0.181   1.194   2.138  0.00  0.00    -0.082 A 
ATOM      7  C5  PXY d   1      -0.336   1.116   3.477  0.00  0.00     0.003 A 
ATOM      8  C6  PXY d   1      -1.608   1.264   4.022  0.00  0.00     0.003 A 
ENDROOT
TORSDOF 0
ENDMDL
