MODEL 1
REMARK minimizedAffinity -3.06288075
REMARK minimizedRMSD -1
REMARK  0 active torsions:
REMARK  status: ('A' for Active; 'I' for Inactive)
ROOT
ATOM      1  C1  BNZ d   1       5.829  -4.158   3.816  0.00  0.00     0.000 A 
ATOM      2  C2  BNZ d   1       5.346  -4.747   4.954  0.00  0.00     0.000 A 
ATOM      3  C3  BNZ d   1       4.889  -3.988   5.995  0.00  0.00     0.000 A 
ATOM      4  C4  BNZ d   1       4.953  -2.643   5.914  0.00  0.00     0.000 A 
ATOM      5  C5  BNZ d   1       5.446  -2.035   4.777  0.00  0.00     0.000 A 
ATOM      6  C6  BNZ d   1       5.869  -2.801   3.715  0.00  0.00     0.000 A 
ENDROOT
TORSDOF 0
ENDMDL
