MODEL 1
REMARK minimizedAffinity -1.98924577
REMARK minimizedRMSD -1
REMARK  0 active torsions:
REMARK  status: ('A' for Active; 'I' for Inactive)
ROOT
ATOM      1  C1  BNZ d   1       4.830  -4.893  -5.499  0.00  0.00     0.000 A 
ATOM      2  C2  BNZ d   1       3.665  -4.879  -4.779  0.00  0.00     0.000 A 
ATOM      3  C3  BNZ d   1       3.655  -4.479  -3.471  0.00  0.00     0.000 A 
ATOM      4  C4  BNZ d   1       4.814  -4.133  -2.875  0.00  0.00     0.000 A 
ATOM      5  C5  BNZ d   1       5.998  -4.150  -3.585  0.00  0.00     0.000 A 
ATOM      6  C6  BNZ d   1       5.999  -4.516  -4.911  0.00  0.00     0.000 A 
ENDROOT
TORSDOF 0
ENDMDL
