MODEL 1
REMARK minimizedAffinity -2.30078387
REMARK minimizedRMSD -1
REMARK  0 active torsions:
REMARK  status: ('A' for Active; 'I' for Inactive)
ROOT
ATOM      1  C1  BNZ d   1       5.954  -4.186   3.900  0.00  0.00     0.000 A 
ATOM      2  C2  BNZ d   1       5.874  -4.219   5.266  0.00  0.00     0.000 A 
ATOM      3  C3  BNZ d   1       5.827  -3.062   5.993  0.00  0.00     0.000 A 
ATOM      4  C4  BNZ d   1       5.900  -1.876   5.355  0.00  0.00     0.000 A 
ATOM      5  C5  BNZ d   1       5.991  -1.826   3.978  0.00  0.00     0.000 A 
ATOM      6  C6  BNZ d   1       5.999  -2.992   3.248  0.00  0.00     0.000 A 
ENDROOT
TORSDOF 0
ENDMDL
