MODEL 1
REMARK minimizedAffinity -2.9963429
REMARK minimizedRMSD -1
REMARK  0 active torsions:
REMARK  status: ('A' for Active; 'I' for Inactive)
ROOT
ATOM      1  C1  BNZ d   1       5.250  -4.832   3.003  0.00  0.00     0.000 A 
ATOM      2  C2  BNZ d   1       5.262  -4.362   4.289  0.00  0.00     0.000 A 
ATOM      3  C3  BNZ d   1       5.617  -3.069   4.559  0.00  0.00     0.000 A 
ATOM      4  C4  BNZ d   1       5.997  -2.262   3.548  0.00  0.00     0.000 A 
ATOM      5  C5  BNZ d   1       6.000  -2.723   2.247  0.00  0.00     0.000 A 
ATOM      6  C6  BNZ d   1       5.604  -4.013   1.975  0.00  0.00     0.000 A 
ENDROOT
TORSDOF 0
ENDMDL
