MODEL 1
REMARK minimizedAffinity -2.52540088
REMARK minimizedRMSD -1
REMARK  0 active torsions:
REMARK  status: ('A' for Active; 'I' for Inactive)
ROOT
ATOM      1  C1  BNZ d   1       5.720  -3.322  -4.861  0.00  0.00     0.000 A 
ATOM      2  C2  BNZ d   1       5.989  -4.104  -3.769  0.00  0.00     0.000 A 
ATOM      3  C3  BNZ d   1       5.735  -5.447  -3.790  0.00  0.00     0.000 A 
ATOM      4  C4  BNZ d   1       5.176  -5.999  -4.886  0.00  0.00     0.000 A 
ATOM      5  C5  BNZ d   1       4.891  -5.223  -5.992  0.00  0.00     0.000 A 
ATOM      6  C6  BNZ d   1       5.184  -3.878  -5.981  0.00  0.00     0.000 A 
ENDROOT
TORSDOF 0
ENDMDL
