MODEL 1
REMARK minimizedAffinity -1.80716467
REMARK minimizedRMSD -1
REMARK  0 active torsions:
REMARK  status: ('A' for Active; 'I' for Inactive)
ROOT
ATOM      1  C1  BNZ d   1       5.999  -3.794  -0.866  0.00  0.00     0.000 A 
ATOM      2  C2  BNZ d   1       5.994  -2.444  -0.633  0.00  0.00     0.000 A 
ATOM      3  C3  BNZ d   1       6.000  -1.954   0.642  0.00  0.00     0.000 A 
ATOM      4  C4  BNZ d   1       5.971  -2.812   1.683  0.00  0.00     0.000 A 
ATOM      5  C5  BNZ d   1       5.966  -4.175   1.465  0.00  0.00     0.000 A 
ATOM      6  C6  BNZ d   1       5.999  -4.665   0.179  0.00  0.00     0.000 A 
ENDROOT
TORSDOF 0
ENDMDL
