MODEL 1
REMARK minimizedAffinity -1.66156709
REMARK minimizedRMSD -1
REMARK  0 active torsions:
REMARK  status: ('A' for Active; 'I' for Inactive)
ROOT
ATOM      1  C1  BNZ d   1       5.994  -3.212  -4.574  0.00  0.00     0.000 A 
ATOM      2  C2  BNZ d   1       5.989  -3.170  -3.205  0.00  0.00     0.000 A 
ATOM      3  C3  BNZ d   1       5.999  -4.321  -2.469  0.00  0.00     0.000 A 
ATOM      4  C4  BNZ d   1       5.973  -5.512  -3.101  0.00  0.00     0.000 A 
ATOM      5  C5  BNZ d   1       5.969  -5.572  -4.481  0.00  0.00     0.000 A 
ATOM      6  C6  BNZ d   1       5.999  -4.411  -5.219  0.00  0.00     0.000 A 
ENDROOT
TORSDOF 0
ENDMDL
