MODEL 1
REMARK minimizedAffinity -2.7909255
REMARK minimizedRMSD -1
REMARK  0 active torsions:
REMARK  status: ('A' for Active; 'I' for Inactive)
ROOT
ATOM      1  C1  BNZ d   1       5.179  -2.218   5.019  0.00  0.00     0.000 A 
ATOM      2  C2  BNZ d   1       4.618  -2.994   5.998  0.00  0.00     0.000 A 
ATOM      3  C3  BNZ d   1       4.762  -4.353   5.983  0.00  0.00     0.000 A 
ATOM      4  C4  BNZ d   1       5.431  -4.937   4.968  0.00  0.00     0.000 A 
ATOM      5  C5  BNZ d   1       5.995  -4.170   3.969  0.00  0.00     0.000 A 
ATOM      6  C6  BNZ d   1       5.882  -2.799   4.009  0.00  0.00     0.000 A 
ENDROOT
TORSDOF 0
ENDMDL
