MODEL 1
REMARK minimizedAffinity -2.69191313
REMARK minimizedRMSD -1
REMARK  0 active torsions:
REMARK  status: ('A' for Active; 'I' for Inactive)
ROOT
ATOM      1  C1  BNZ d   1       4.235  -4.646   4.775  0.00  0.00     0.000 A 
ATOM      2  C2  BNZ d   1       4.756  -3.410   4.501  0.00  0.00     0.000 A 
ATOM      3  C3  BNZ d   1       5.619  -3.230   3.457  0.00  0.00     0.000 A 
ATOM      4  C4  BNZ d   1       5.991  -4.292   2.714  0.00  0.00     0.000 A 
ATOM      5  C5  BNZ d   1       5.482  -5.546   2.983  0.00  0.00     0.000 A 
ATOM      6  C6  BNZ d   1       4.583  -5.717   4.011  0.00  0.00     0.000 A 
ENDROOT
TORSDOF 0
ENDMDL
