MODEL 1
REMARK minimizedAffinity -3.08824134
REMARK minimizedRMSD -1
REMARK  0 active torsions:
REMARK  status: ('A' for Active; 'I' for Inactive)
ROOT
ATOM      1  C1  BNZ d   1       5.626  -2.208   4.568  0.00  0.00     0.000 A 
ATOM      2  C2  BNZ d   1       5.251  -3.214   5.418  0.00  0.00     0.000 A 
ATOM      3  C3  BNZ d   1       5.254  -4.517   5.005  0.00  0.00     0.000 A 
ATOM      4  C4  BNZ d   1       5.594  -4.808   3.733  0.00  0.00     0.000 A 
ATOM      5  C5  BNZ d   1       5.966  -3.804   2.861  0.00  0.00     0.000 A 
ATOM      6  C6  BNZ d   1       5.999  -2.497   3.292  0.00  0.00     0.000 A 
ENDROOT
TORSDOF 0
ENDMDL
