MODEL 1
REMARK minimizedAffinity 1.75442886
REMARK minimizedRMSD -1
REMARK  0 active torsions:
REMARK  status: ('A' for Active; 'I' for Inactive)
ROOT
ATOM      1  C1  BNZ d   1       6.000  -3.012   3.367  0.00  0.00     0.000 A 
ATOM      2  C2  BNZ d   1       5.942  -3.794   4.489  0.00  0.00     0.000 A 
ATOM      3  C3  BNZ d   1       4.802  -3.856   5.241  0.00  0.00     0.000 A 
ATOM      4  C4  BNZ d   1       3.737  -3.105   4.893  0.00  0.00     0.000 A 
ATOM      5  C5  BNZ d   1       3.783  -2.304   3.770  0.00  0.00     0.000 A 
ATOM      6  C6  BNZ d   1       4.919  -2.274   2.993  0.00  0.00     0.000 A 
ENDROOT
TORSDOF 0
ENDMDL
