MODEL 1
REMARK minimizedAffinity -2.6264751
REMARK minimizedRMSD -1
REMARK  0 active torsions:
REMARK  status: ('A' for Active; 'I' for Inactive)
ROOT
ATOM      1  C1  BNZ d   1       5.669  -2.366   4.924  0.00  0.00     0.000 A 
ATOM      2  C2  BNZ d   1       5.998  -3.144   3.847  0.00  0.00     0.000 A 
ATOM      3  C3  BNZ d   1       5.693  -4.477   3.826  0.00  0.00     0.000 A 
ATOM      4  C4  BNZ d   1       5.097  -5.037   4.898  0.00  0.00     0.000 A 
ATOM      5  C5  BNZ d   1       4.767  -4.267   5.996  0.00  0.00     0.000 A 
ATOM      6  C6  BNZ d   1       5.040  -2.919   5.997  0.00  0.00     0.000 A 
ENDROOT
TORSDOF 0
ENDMDL
