MODEL 1
REMARK minimizedAffinity -3.03360653
REMARK minimizedRMSD -1
REMARK  0 active torsions:
REMARK  status: ('A' for Active; 'I' for Inactive)
ROOT
ATOM      1  C1  BNZ d   1       5.254  -4.154  -3.466  0.00  0.00     0.000 A 
ATOM      2  C2  BNZ d   1       5.254  -3.382  -2.336  0.00  0.00     0.000 A 
ATOM      3  C3  BNZ d   1       5.647  -3.901  -1.134  0.00  0.00     0.000 A 
ATOM      4  C4  BNZ d   1       6.000  -5.200  -1.056  0.00  0.00     0.000 A 
ATOM      5  C5  BNZ d   1       5.996  -5.994  -2.185  0.00  0.00     0.000 A 
ATOM      6  C6  BNZ d   1       5.638  -5.458  -3.401  0.00  0.00     0.000 A 
ENDROOT
TORSDOF 0
ENDMDL
