MODEL 1
REMARK minimizedAffinity -1.42342508
REMARK minimizedRMSD -1
REMARK  0 active torsions:
REMARK  status: ('A' for Active; 'I' for Inactive)
ROOT
ATOM      1  C1  BNZ d   1       5.999  -2.786   3.646  0.00  0.00     0.000 A 
ATOM      2  C2  BNZ d   1       5.999  -2.032   4.789  0.00  0.00     0.000 A 
ATOM      3  C3  BNZ d   1       5.547  -2.552   5.970  0.00  0.00     0.000 A 
ATOM      4  C4  BNZ d   1       5.059  -3.809   5.998  0.00  0.00     0.000 A 
ATOM      5  C5  BNZ d   1       5.043  -4.578   4.851  0.00  0.00     0.000 A 
ATOM      6  C6  BNZ d   1       5.535  -4.065   3.673  0.00  0.00     0.000 A 
ENDROOT
TORSDOF 0
ENDMDL
