MODEL 1
REMARK minimizedAffinity 4.91740799
REMARK minimizedRMSD -1
REMARK  1 active torsions:
REMARK  status: ('A' for Active; 'I' for Inactive)
REMARK    1  A    between atoms: C1_2  and  C2_3 
ROOT
ATOM      1  C2  UNL d   1       1.981  -1.956  -2.924  0.00  0.00    -0.081 A 
ATOM      2  C3  UNL d   1       0.849  -1.821  -2.112  0.00  0.00     0.006 A 
ATOM      3  C4  UNL d   1      -0.320  -2.529  -2.403  0.00  0.00     0.002 A 
ATOM      4  C5  UNL d   1      -0.373  -3.389  -3.505  0.00  0.00    -0.080 A 
ATOM      5  C6  UNL d   1      -1.611  -4.179  -3.810  0.00  0.00     0.076 C 
ATOM      6  C7  UNL d   1       0.753  -3.511  -4.326  0.00  0.00     0.002 A 
ATOM      7  C8  UNL d   1       1.921  -2.803  -4.037  0.00  0.00     0.006 A 
ENDROOT
BRANCH   1   8
ATOM      8  C1  UNL d   1       3.263  -1.243  -2.576  0.00  0.00     0.054 C 
ATOM      9  C   UNL d   1       3.866  -1.787  -1.289  0.00  0.00     0.018 C 
ENDBRANCH   1   8
TORSDOF 1
ENDMDL
