MODEL 1
REMARK minimizedAffinity 9.41378021
REMARK minimizedRMSD -1
REMARK  1 active torsions:
REMARK  status: ('A' for Active; 'I' for Inactive)
REMARK    1  A    between atoms: C1_2  and  C2_3 
ROOT
ATOM      1  C2  UNL d   1       3.894  -4.210   5.348  0.00  0.00    -0.081 A 
ATOM      2  C3  UNL d   1       4.355  -3.053   5.987  0.00  0.00     0.006 A 
ATOM      3  C4  UNL d   1       4.143  -1.796   5.415  0.00  0.00     0.002 A 
ATOM      4  C5  UNL d   1       3.460  -1.674   4.201  0.00  0.00    -0.080 A 
ATOM      5  C6  UNL d   1       3.199  -0.329   3.592  0.00  0.00     0.076 C 
ATOM      6  C7  UNL d   1       3.014  -2.832   3.554  0.00  0.00     0.002 A 
ATOM      7  C8  UNL d   1       3.226  -4.089   4.124  0.00  0.00     0.006 A 
ENDROOT
BRANCH   1   8
ATOM      8  C1  UNL d   1       4.064  -5.562   5.993  0.00  0.00     0.054 C 
ATOM      9  C   UNL d   1       5.524  -5.991   6.000  0.00  0.00     0.018 C 
ENDBRANCH   1   8
TORSDOF 1
ENDMDL
