MODEL 1
REMARK minimizedAffinity 3.83548045
REMARK minimizedRMSD -1
REMARK  1 active torsions:
REMARK  status: ('A' for Active; 'I' for Inactive)
REMARK    1  A    between atoms: C1_2  and  C2_3 
ROOT
ATOM      1  C2  UNL d   1       5.543  -2.350   1.873  0.00  0.00    -0.081 A 
ATOM      2  C3  UNL d   1       5.997  -3.218   2.874  0.00  0.00     0.006 A 
ATOM      3  C4  UNL d   1       5.668  -2.989   4.212  0.00  0.00     0.002 A 
ATOM      4  C5  UNL d   1       4.873  -1.894   4.571  0.00  0.00    -0.080 A 
ATOM      5  C6  UNL d   1       4.487  -1.654   6.000  0.00  0.00     0.076 C 
ATOM      6  C7  UNL d   1       4.434  -1.018   3.572  0.00  0.00     0.002 A 
ATOM      7  C8  UNL d   1       4.764  -1.246   2.234  0.00  0.00     0.006 A 
ENDROOT
BRANCH   1   8
ATOM      8  C1  UNL d   1       5.842  -2.631   0.423  0.00  0.00     0.054 C 
ATOM      9  C   UNL d   1       4.669  -2.248  -0.469  0.00  0.00     0.018 C 
ENDBRANCH   1   8
TORSDOF 1
ENDMDL
