MODEL 1
REMARK minimizedAffinity 2.14606237
REMARK minimizedRMSD -1
REMARK  1 active torsions:
REMARK  status: ('A' for Active; 'I' for Inactive)
REMARK    1  A    between atoms: C1_2  and  C2_3 
ROOT
ATOM      1  C2  UNL d   1       5.234  -4.135   5.997  0.00  0.00    -0.081 A 
ATOM      2  C3  UNL d   1       3.838  -4.034   5.999  0.00  0.00     0.006 A 
ATOM      3  C4  UNL d   1       3.219  -2.781   5.990  0.00  0.00     0.002 A 
ATOM      4  C5  UNL d   1       3.985  -1.611   5.970  0.00  0.00    -0.080 A 
ATOM      5  C6  UNL d   1       3.333  -0.261   5.929  0.00  0.00     0.076 C 
ATOM      6  C7  UNL d   1       5.380  -1.712   5.986  0.00  0.00     0.002 A 
ATOM      7  C8  UNL d   1       5.999  -2.964   5.996  0.00  0.00     0.006 A 
ENDROOT
BRANCH   1   8
ATOM      8  C1  UNL d   1       5.904  -5.484   5.942  0.00  0.00     0.054 C 
ATOM      9  C   UNL d   1       5.998  -5.998   4.512  0.00  0.00     0.018 C 
ENDBRANCH   1   8
TORSDOF 1
ENDMDL
