MODEL 1
REMARK minimizedAffinity 6.75913286
REMARK minimizedRMSD -1
REMARK  1 active torsions:
REMARK  status: ('A' for Active; 'I' for Inactive)
REMARK    1  A    between atoms: C1_2  and  C2_3 
ROOT
ATOM      1  C2  UNL d   1       5.372   5.229  -2.164  0.00  0.00    -0.081 A 
ATOM      2  C3  UNL d   1       5.831   3.945  -2.482  0.00  0.00     0.006 A 
ATOM      3  C4  UNL d   1       5.513   3.364  -3.712  0.00  0.00     0.002 A 
ATOM      4  C5  UNL d   1       4.738   4.059  -4.646  0.00  0.00    -0.080 A 
ATOM      5  C6  UNL d   1       4.415   3.459  -5.982  0.00  0.00     0.076 C 
ATOM      6  C7  UNL d   1       4.264   5.335  -4.321  0.00  0.00     0.002 A 
ATOM      7  C8  UNL d   1       4.581   5.916  -3.091  0.00  0.00     0.006 A 
ENDROOT
BRANCH   1   8
ATOM      8  C1  UNL d   1       5.767   5.884  -0.865  0.00  0.00     0.054 C 
ATOM      9  C   UNL d   1       5.947   4.854   0.242  0.00  0.00     0.018 C 
ENDBRANCH   1   8
TORSDOF 1
ENDMDL
