MODEL 1
REMARK minimizedAffinity 3.81959724
REMARK minimizedRMSD -1
REMARK  1 active torsions:
REMARK  status: ('A' for Active; 'I' for Inactive)
REMARK    1  A    between atoms: C1_2  and  C2_3 
ROOT
ATOM      1  C2  UNL d   1      -0.556  -4.665  -3.683  0.00  0.00    -0.081 A 
ATOM      2  C3  UNL d   1      -0.454  -3.916  -4.861  0.00  0.00     0.006 A 
ATOM      3  C4  UNL d   1       0.272  -2.723  -4.881  0.00  0.00     0.002 A 
ATOM      4  C5  UNL d   1       0.914  -2.263  -3.727  0.00  0.00    -0.080 A 
ATOM      5  C6  UNL d   1       1.722  -1.000  -3.742  0.00  0.00     0.076 C 
ATOM      6  C7  UNL d   1       0.798  -3.003  -2.545  0.00  0.00     0.002 A 
ATOM      7  C8  UNL d   1       0.071  -4.195  -2.524  0.00  0.00     0.006 A 
ENDROOT
BRANCH   1   8
ATOM      8  C1  UNL d   1      -1.285  -5.985  -3.674  0.00  0.00     0.054 C 
ATOM      9  C   UNL d   1      -2.415  -6.000  -4.693  0.00  0.00     0.018 C 
ENDBRANCH   1   8
TORSDOF 1
ENDMDL
