MODEL 1
REMARK minimizedAffinity 0.102826215
REMARK minimizedRMSD -1
REMARK  1 active torsions:
REMARK  status: ('A' for Active; 'I' for Inactive)
REMARK    1  A    between atoms: C1_2  and  C2_3 
ROOT
ATOM      1  C2  UNL d   1       5.243  -1.986   3.579  0.00  0.00    -0.081 A 
ATOM      2  C3  UNL d   1       4.356  -1.138   2.904  0.00  0.00     0.006 A 
ATOM      3  C4  UNL d   1       4.220  -1.214   1.516  0.00  0.00     0.002 A 
ATOM      4  C5  UNL d   1       4.963  -2.144   0.780  0.00  0.00    -0.080 A 
ATOM      5  C6  UNL d   1       4.805  -2.256  -0.707  0.00  0.00     0.076 C 
ATOM      6  C7  UNL d   1       5.863  -2.979   1.452  0.00  0.00     0.002 A 
ATOM      7  C8  UNL d   1       5.999  -2.903   2.840  0.00  0.00     0.006 A 
ENDROOT
BRANCH   1   8
ATOM      8  C1  UNL d   1       5.344  -1.951   5.082  0.00  0.00     0.054 C 
ATOM      9  C   UNL d   1       4.211  -1.138   5.694  0.00  0.00     0.018 C 
ENDBRANCH   1   8
TORSDOF 1
ENDMDL
