MODEL 1
REMARK minimizedAffinity 7.46421671
REMARK minimizedRMSD -1
REMARK  1 active torsions:
REMARK  status: ('A' for Active; 'I' for Inactive)
REMARK    1  A    between atoms: C1_2  and  C2_3 
ROOT
ATOM      1  C2  UNL d   1      -0.372  -2.601  -3.394  0.00  0.00    -0.081 A 
ATOM      2  C3  UNL d   1       0.789  -3.113  -2.802  0.00  0.00     0.006 A 
ATOM      3  C4  UNL d   1       0.849  -3.316  -1.421  0.00  0.00     0.002 A 
ATOM      4  C5  UNL d   1      -0.252  -3.018  -0.611  0.00  0.00    -0.080 A 
ATOM      5  C6  UNL d   1      -0.210  -3.260   0.869  0.00  0.00     0.076 C 
ATOM      6  C7  UNL d   1      -1.406  -2.490  -1.200  0.00  0.00     0.002 A 
ATOM      7  C8  UNL d   1      -1.467  -2.286  -2.580  0.00  0.00     0.006 A 
ENDROOT
BRANCH   1   8
ATOM      8  C1  UNL d   1      -0.464  -2.442  -4.890  0.00  0.00     0.054 C 
ATOM      9  C   UNL d   1      -0.706  -3.779  -5.575  0.00  0.00     0.018 C 
ENDBRANCH   1   8
TORSDOF 1
ENDMDL
