MODEL 1
REMARK minimizedAffinity 5.53390408
REMARK minimizedRMSD -1
REMARK  1 active torsions:
REMARK  status: ('A' for Active; 'I' for Inactive)
REMARK    1  A    between atoms: C1_2  and  C2_3 
ROOT
ATOM      1  C2  UNL d   1      -1.296  -2.630  -0.830  0.00  0.00    -0.081 A 
ATOM      2  C3  UNL d   1      -1.407  -3.250  -2.080  0.00  0.00     0.006 A 
ATOM      3  C4  UNL d   1      -0.450  -3.021  -3.072  0.00  0.00     0.002 A 
ATOM      4  C5  UNL d   1       0.638  -2.175  -2.827  0.00  0.00    -0.080 A 
ATOM      5  C6  UNL d   1       1.688  -1.945  -3.872  0.00  0.00     0.076 C 
ATOM      6  C7  UNL d   1       0.739  -1.542  -1.583  0.00  0.00     0.002 A 
ATOM      7  C8  UNL d   1      -0.218  -1.770  -0.592  0.00  0.00     0.006 A 
ENDROOT
BRANCH   1   8
ATOM      8  C1  UNL d   1      -2.292  -2.925   0.263  0.00  0.00     0.054 C 
ATOM      9  C   UNL d   1      -1.658  -2.790   1.640  0.00  0.00     0.018 C 
ENDBRANCH   1   8
TORSDOF 1
ENDMDL
