MODEL 1
REMARK minimizedAffinity 1.57697797
REMARK minimizedRMSD -1
REMARK  1 active torsions:
REMARK  status: ('A' for Active; 'I' for Inactive)
REMARK    1  A    between atoms: C1_2  and  C2_3 
ROOT
ATOM      1  C2  UNL d   1       0.034  -2.188  -1.880  0.00  0.00    -0.081 A 
ATOM      2  C3  UNL d   1       0.045  -1.666  -0.581  0.00  0.00     0.006 A 
ATOM      3  C4  UNL d   1      -1.043  -1.866   0.272  0.00  0.00     0.002 A 
ATOM      4  C5  UNL d   1      -2.156  -2.597  -0.157  0.00  0.00    -0.080 A 
ATOM      5  C6  UNL d   1      -3.318  -2.845   0.759  0.00  0.00     0.076 C 
ATOM      6  C7  UNL d   1      -2.175  -3.104  -1.461  0.00  0.00     0.002 A 
ATOM      7  C8  UNL d   1      -1.088  -2.903  -2.314  0.00  0.00     0.006 A 
ENDROOT
BRANCH   1   8
ATOM      8  C1  UNL d   1       1.232  -2.029  -2.780  0.00  0.00     0.054 C 
ATOM      9  C   UNL d   1       1.500  -3.299  -3.574  0.00  0.00     0.018 C 
ENDBRANCH   1   8
TORSDOF 1
ENDMDL
