MODEL 1
REMARK minimizedAffinity 2.88690853
REMARK minimizedRMSD -1
REMARK  1 active torsions:
REMARK  status: ('A' for Active; 'I' for Inactive)
REMARK    1  A    between atoms: C1_2  and  C2_3 
ROOT
ATOM      1  C2  UNL d   1       4.036   5.285  -2.139  0.00  0.00    -0.081 A 
ATOM      2  C3  UNL d   1       3.316   4.899  -3.276  0.00  0.00     0.006 A 
ATOM      3  C4  UNL d   1       3.934   4.871  -4.529  0.00  0.00     0.002 A 
ATOM      4  C5  UNL d   1       5.282   5.218  -4.664  0.00  0.00    -0.080 A 
ATOM      5  C6  UNL d   1       5.965   5.162  -5.998  0.00  0.00     0.076 C 
ATOM      6  C7  UNL d   1       5.997   5.620  -3.530  0.00  0.00     0.002 A 
ATOM      7  C8  UNL d   1       5.380   5.650  -2.278  0.00  0.00     0.006 A 
ENDROOT
BRANCH   1   8
ATOM      8  C1  UNL d   1       3.391   5.255  -0.777  0.00  0.00     0.054 C 
ATOM      9  C   UNL d   1       2.074   4.492  -0.805  0.00  0.00     0.018 C 
ENDBRANCH   1   8
TORSDOF 1
ENDMDL
