MODEL 1
REMARK minimizedAffinity 2.30913925
REMARK minimizedRMSD -1
REMARK  1 active torsions:
REMARK  status: ('A' for Active; 'I' for Inactive)
REMARK    1  A    between atoms: C1_2  and  C2_3 
ROOT
ATOM      1  C2  UNL d   1       5.294  -1.820   2.148  0.00  0.00    -0.081 A 
ATOM      2  C3  UNL d   1       6.000  -1.453   3.300  0.00  0.00     0.006 A 
ATOM      3  C4  UNL d   1       5.369  -1.451   4.547  0.00  0.00     0.002 A 
ATOM      4  C5  UNL d   1       4.026  -1.825   4.663  0.00  0.00    -0.080 A 
ATOM      5  C6  UNL d   1       3.345  -1.856   5.999  0.00  0.00     0.076 C 
ATOM      6  C7  UNL d   1       3.316  -2.175   3.509  0.00  0.00     0.002 A 
ATOM      7  C8  UNL d   1       3.946  -2.176   2.263  0.00  0.00     0.006 A 
ENDROOT
BRANCH   1   8
ATOM      8  C1  UNL d   1       5.989  -1.885   0.812  0.00  0.00     0.054 C 
ATOM      9  C   UNL d   1       5.030  -2.311  -0.290  0.00  0.00     0.018 C 
ENDBRANCH   1   8
TORSDOF 1
ENDMDL
