MODEL 1
REMARK minimizedAffinity 10.9732533
REMARK minimizedRMSD -1
REMARK  0 active torsions:
REMARK  status: ('A' for Active; 'I' for Inactive)
ROOT
ATOM      1  C1  DEN d   1      -2.640  -0.195   2.238  0.00  0.00     0.130 A 
ATOM      2  C2  DEN d   1      -3.801  -0.151   1.353  0.00  0.00    -0.031 A 
ATOM      3  C3  DEN d   1      -3.318  -0.266  -0.038  0.00  0.00     0.027 A 
ATOM      4  C4  DEN d   1      -0.900  -0.512  -0.902  0.00  0.00     0.027 A 
ATOM      5  C5  DEN d   1       0.423  -0.587  -0.527  0.00  0.00    -0.003 A 
ATOM      6  C6  DEN d   1       0.818  -0.502   0.781  0.00  0.00     0.001 A 
ATOM      7  C7  DEN d   1      -0.125  -0.383   1.768  0.00  0.00     0.017 A 
ATOM      8  C8  DEN d   1      -1.461  -0.300   1.398  0.00  0.00    -0.094 A 
ATOM      9  C9  DEN d   1      -1.841  -0.400   0.071  0.00  0.00    -0.072 A 
ENDROOT
TORSDOF 0
ENDMDL
