MODEL 1
REMARK minimizedAffinity 9.69196987
REMARK minimizedRMSD -1
REMARK  0 active torsions:
REMARK  status: ('A' for Active; 'I' for Inactive)
ROOT
ATOM      1  C1  DEN d   1       2.394  -3.777  -2.201  0.00  0.00     0.130 A 
ATOM      2  C2  DEN d   1       3.728  -3.246  -1.937  0.00  0.00    -0.031 A 
ATOM      3  C3  DEN d   1       3.575  -1.950  -1.247  0.00  0.00     0.027 A 
ATOM      4  C4  DEN d   1       1.413  -0.721  -0.562  0.00  0.00     0.027 A 
ATOM      5  C5  DEN d   1       0.037  -0.774  -0.585  0.00  0.00    -0.003 A 
ATOM      6  C6  DEN d   1      -0.645  -1.806  -1.173  0.00  0.00     0.001 A 
ATOM      7  C7  DEN d   1       0.049  -2.851  -1.723  0.00  0.00     0.017 A 
ATOM      8  C8  DEN d   1       1.437  -2.802  -1.711  0.00  0.00    -0.094 A 
ATOM      9  C9  DEN d   1       2.108  -1.755  -1.101  0.00  0.00    -0.072 A 
ENDROOT
TORSDOF 0
ENDMDL
