MODEL 1
REMARK minimizedAffinity 20.6869526
REMARK minimizedRMSD -1
REMARK  0 active torsions:
REMARK  status: ('A' for Active; 'I' for Inactive)
ROOT
ATOM      1  C1  DEN d   1       5.041   3.371   3.633  0.00  0.00     0.130 A 
ATOM      2  C2  DEN d   1       5.955   4.467   3.321  0.00  0.00    -0.031 A 
ATOM      3  C3  DEN d   1       5.437   5.691   3.964  0.00  0.00     0.027 A 
ATOM      4  C4  DEN d   1       3.322   5.993   5.409  0.00  0.00     0.027 A 
ATOM      5  C5  DEN d   1       2.224   5.353   5.940  0.00  0.00    -0.003 A 
ATOM      6  C6  DEN d   1       1.973   4.026   5.714  0.00  0.00     0.001 A 
ATOM      7  C7  DEN d   1       2.855   3.285   4.973  0.00  0.00     0.017 A 
ATOM      8  C8  DEN d   1       3.960   3.925   4.427  0.00  0.00    -0.094 A 
ATOM      9  C9  DEN d   1       4.203   5.265   4.678  0.00  0.00    -0.072 A 
ENDROOT
TORSDOF 0
ENDMDL
