MODEL 1
REMARK minimizedAffinity 8.56242657
REMARK minimizedRMSD -1
REMARK  0 active torsions:
REMARK  status: ('A' for Active; 'I' for Inactive)
ROOT
ATOM      1  C1  DEN d   1       1.537  -3.765   4.396  0.00  0.00     0.130 A 
ATOM      2  C2  DEN d   1       2.475  -4.519   5.224  0.00  0.00    -0.031 A 
ATOM      3  C3  DEN d   1       1.706  -5.522   5.988  0.00  0.00     0.027 A 
ATOM      4  C4  DEN d   1      -0.832  -5.982   5.965  0.00  0.00     0.027 A 
ATOM      5  C5  DEN d   1      -2.039  -5.590   5.430  0.00  0.00    -0.003 A 
ATOM      6  C6  DEN d   1      -2.142  -4.549   4.545  0.00  0.00     0.001 A 
ATOM      7  C7  DEN d   1      -1.012  -3.893   4.135  0.00  0.00     0.017 A 
ATOM      8  C8  DEN d   1       0.207  -4.277   4.676  0.00  0.00    -0.094 A 
ATOM      9  C9  DEN d   1       0.292  -5.339   5.560  0.00  0.00    -0.072 A 
ENDROOT
TORSDOF 0
ENDMDL
