MODEL 1
REMARK minimizedAffinity 7.64175701
REMARK minimizedRMSD -1
REMARK  0 active torsions:
REMARK  status: ('A' for Active; 'I' for Inactive)
ROOT
ATOM      1  C1  DEN d   1       1.785  -0.202   0.487  0.00  0.00     0.130 A 
ATOM      2  C2  DEN d   1       2.387  -1.531   0.408  0.00  0.00    -0.031 A 
ATOM      3  C3  DEN d   1       1.555  -2.356  -0.490  0.00  0.00     0.027 A 
ATOM      4  C4  DEN d   1      -0.593  -1.709  -1.764  0.00  0.00     0.027 A 
ATOM      5  C5  DEN d   1      -1.494  -0.695  -2.001  0.00  0.00    -0.003 A 
ATOM      6  C6  DEN d   1      -1.386   0.533  -1.405  0.00  0.00     0.001 A 
ATOM      7  C7  DEN d   1      -0.328   0.794  -0.575  0.00  0.00     0.017 A 
ATOM      8  C8  DEN d   1       0.581  -0.226  -0.325  0.00  0.00    -0.094 A 
ATOM      9  C9  DEN d   1       0.462  -1.457  -0.947  0.00  0.00    -0.072 A 
ENDROOT
TORSDOF 0
ENDMDL
