MODEL 1
REMARK minimizedAffinity 15.0351906
REMARK minimizedRMSD -1
REMARK  0 active torsions:
REMARK  status: ('A' for Active; 'I' for Inactive)
ROOT
ATOM      1  C1  DEN d   1       1.144  -3.575  -2.158  0.00  0.00     0.130 A 
ATOM      2  C2  DEN d   1       2.600  -3.463  -2.168  0.00  0.00    -0.031 A 
ATOM      3  C3  DEN d   1       2.970  -2.260  -1.396  0.00  0.00     0.027 A 
ATOM      4  C4  DEN d   1       1.439  -0.572  -0.189  0.00  0.00     0.027 A 
ATOM      5  C5  DEN d   1       0.131  -0.243   0.090  0.00  0.00    -0.003 A 
ATOM      6  C6  DEN d   1      -0.924  -0.976  -0.385  0.00  0.00     0.001 A 
ATOM      7  C7  DEN d   1      -0.687  -2.103  -1.128  0.00  0.00     0.017 A 
ATOM      8  C8  DEN d   1       0.629  -2.437  -1.420  0.00  0.00    -0.094 A 
ATOM      9  C9  DEN d   1       1.682  -1.689  -0.920  0.00  0.00    -0.072 A 
ENDROOT
TORSDOF 0
ENDMDL
