MODEL 1
REMARK minimizedAffinity -1.49633348
REMARK minimizedRMSD -1
REMARK  1 active torsions:
REMARK  status: ('A' for Active; 'I' for Inactive)
REMARK    1  A    between atoms: C1_2  and  C2_3 
ROOT
ATOM      1  C2  UNL d   1       1.852   0.071   1.977  0.00  0.00    -0.076 A 
ATOM      2  C3  UNL d   1       1.136  -0.540   0.932  0.00  0.00     0.004 A 
ATOM      3  C4  UNL d   1       0.395   0.221   0.030  0.00  0.00    -0.003 A 
ATOM      4  C5  UNL d   1       0.357   1.606   0.157  0.00  0.00     0.000 A 
ATOM      5  C6  UNL d   1       1.075   2.229   1.177  0.00  0.00     0.000 A 
ATOM      6  C7  UNL d   1       1.841   1.478   2.085  0.00  0.00    -0.073 A 
ATOM      7  C8  UNL d   1       2.591   2.202   3.170  0.00  0.00     0.078 C 
ENDROOT
BRANCH   1   8
ATOM      8  C1  UNL d   1       2.616  -0.808   2.941  0.00  0.00     0.053 C 
ATOM      9  C   UNL d   1       1.766  -1.939   3.497  0.00  0.00     0.018 C 
ENDBRANCH   1   8
TORSDOF 1
ENDMDL
