MODEL 1
REMARK minimizedAffinity -5.68954754
REMARK minimizedRMSD -1
REMARK  1 active torsions:
REMARK  status: ('A' for Active; 'I' for Inactive)
REMARK    1  A    between atoms: C1_2  and  C2_3 
ROOT
ATOM      1  C2  UNL d   1       1.801   1.170   1.753  0.00  0.00    -0.076 A 
ATOM      2  C3  UNL d   1       0.616   1.761   1.281  0.00  0.00     0.004 A 
ATOM      3  C4  UNL d   1      -0.091   1.203   0.218  0.00  0.00    -0.003 A 
ATOM      4  C5  UNL d   1       0.374   0.042  -0.391  0.00  0.00     0.000 A 
ATOM      5  C6  UNL d   1       1.538  -0.568   0.075  0.00  0.00     0.000 A 
ATOM      6  C7  UNL d   1       2.255  -0.026   1.157  0.00  0.00    -0.073 A 
ATOM      7  C8  UNL d   1       3.507  -0.723   1.614  0.00  0.00     0.078 C 
ENDROOT
BRANCH   1   8
ATOM      8  C1  UNL d   1       2.540   1.836   2.891  0.00  0.00     0.053 C 
ATOM      9  C   UNL d   1       2.448   1.045   4.187  0.00  0.00     0.018 C 
ENDBRANCH   1   8
TORSDOF 1
ENDMDL
