MODEL 1
REMARK minimizedAffinity -5.0846324
REMARK minimizedRMSD -1
REMARK  1 active torsions:
REMARK  status: ('A' for Active; 'I' for Inactive)
REMARK    1  A    between atoms: C1_2  and  C2_3 
ROOT
ATOM      1  C2  UNL d   1       1.119  -0.805   0.798  0.00  0.00    -0.076 A 
ATOM      2  C3  UNL d   1       1.968   0.292   0.573  0.00  0.00     0.004 A 
ATOM      3  C4  UNL d   1       3.216   0.372   1.189  0.00  0.00    -0.003 A 
ATOM      4  C5  UNL d   1       3.634  -0.645   2.040  0.00  0.00     0.000 A 
ATOM      5  C6  UNL d   1       2.812  -1.749   2.261  0.00  0.00     0.000 A 
ATOM      6  C7  UNL d   1       1.558  -1.853   1.635  0.00  0.00    -0.073 A 
ATOM      7  C8  UNL d   1       0.709  -3.063   1.914  0.00  0.00     0.078 C 
ENDROOT
BRANCH   1   8
ATOM      8  C1  UNL d   1      -0.234  -0.823   0.123  0.00  0.00     0.053 C 
ATOM      9  C   UNL d   1      -0.763   0.574  -0.161  0.00  0.00     0.018 C 
ENDBRANCH   1   8
TORSDOF 1
ENDMDL
