MODEL 1
REMARK minimizedAffinity -3.91584659
REMARK minimizedRMSD -1
REMARK  1 active torsions:
REMARK  status: ('A' for Active; 'I' for Inactive)
REMARK    1  A    between atoms: C1_2  and  C2_3 
ROOT
ATOM      1  C2  UNL d   1       0.929  -0.130   1.074  0.00  0.00    -0.076 A 
ATOM      2  C3  UNL d   1       2.262   0.271   1.272  0.00  0.00     0.004 A 
ATOM      3  C4  UNL d   1       2.719   1.500   0.798  0.00  0.00    -0.003 A 
ATOM      4  C5  UNL d   1       1.851   2.348   0.119  0.00  0.00     0.000 A 
ATOM      5  C6  UNL d   1       0.521   1.974  -0.071  0.00  0.00     0.000 A 
ATOM      6  C7  UNL d   1       0.039   0.746   0.415  0.00  0.00    -0.073 A 
ATOM      7  C8  UNL d   1      -1.403   0.391   0.177  0.00  0.00     0.078 C 
ENDROOT
BRANCH   1   8
ATOM      8  C1  UNL d   1       0.497  -1.485   1.586  0.00  0.00     0.053 C 
ATOM      9  C   UNL d   1       1.396  -2.001   2.699  0.00  0.00     0.018 C 
ENDBRANCH   1   8
TORSDOF 1
ENDMDL
