MODEL 1
REMARK minimizedAffinity -0.806963503
REMARK minimizedRMSD -1
REMARK  1 active torsions:
REMARK  status: ('A' for Active; 'I' for Inactive)
REMARK    1  A    between atoms: C1_2  and  C2_3 
ROOT
ATOM      1  C2  UNL d   1       2.011   0.390   2.134  0.00  0.00    -0.076 A 
ATOM      2  C3  UNL d   1       1.209  -0.347   1.244  0.00  0.00     0.004 A 
ATOM      3  C4  UNL d   1       0.492   0.287   0.232  0.00  0.00    -0.003 A 
ATOM      4  C5  UNL d   1       0.564   1.669   0.091  0.00  0.00     0.000 A 
ATOM      5  C6  UNL d   1       1.369   2.414   0.953  0.00  0.00     0.000 A 
ATOM      6  C7  UNL d   1       2.111   1.788   1.969  0.00  0.00    -0.073 A 
ATOM      7  C8  UNL d   1       2.957   2.641   2.875  0.00  0.00     0.078 C 
ENDROOT
BRANCH   1   8
ATOM      8  C1  UNL d   1       2.745  -0.349   3.229  0.00  0.00     0.053 C 
ATOM      9  C   UNL d   1       1.868  -1.378   3.927  0.00  0.00     0.018 C 
ENDBRANCH   1   8
TORSDOF 1
ENDMDL
