MODEL 1
REMARK minimizedAffinity -0.567303658
REMARK minimizedRMSD -1
REMARK  1 active torsions:
REMARK  status: ('A' for Active; 'I' for Inactive)
REMARK    1  A    between atoms: C1_2  and  C2_3 
ROOT
ATOM      1  C2  UNL d   1      -0.267   1.431   0.627  0.00  0.00    -0.076 A 
ATOM      2  C3  UNL d   1       0.046   2.795   0.760  0.00  0.00     0.004 A 
ATOM      3  C4  UNL d   1       1.218   3.204   1.393  0.00  0.00    -0.003 A 
ATOM      4  C5  UNL d   1       2.098   2.256   1.902  0.00  0.00     0.000 A 
ATOM      5  C6  UNL d   1       1.813   0.898   1.764  0.00  0.00     0.000 A 
ATOM      6  C7  UNL d   1       0.643   0.468   1.114  0.00  0.00    -0.073 A 
ATOM      7  C8  UNL d   1       0.382  -1.009   0.997  0.00  0.00     0.078 C 
ENDROOT
BRANCH   1   8
ATOM      8  C1  UNL d   1      -1.566   1.048  -0.045  0.00  0.00     0.053 C 
ATOM      9  C   UNL d   1      -2.723   0.952   0.936  0.00  0.00     0.018 C 
ENDBRANCH   1   8
TORSDOF 1
ENDMDL
