MODEL 1
REMARK minimizedAffinity -3.6340301
REMARK minimizedRMSD -1
REMARK  0 active torsions:
REMARK  status: ('A' for Active; 'I' for Inactive)
ROOT
ATOM      1  N1  IND d   1       0.384   1.119   2.579  0.00  0.00    -0.196 N 
ATOM      2  C2  IND d   1      -0.887   1.619   2.639  0.00  0.00     0.054 A 
ATOM      3  C3  IND d   1      -1.619   1.167   1.596  0.00  0.00    -0.031 A 
ATOM      4  C4  IND d   1      -0.965  -0.483  -0.269  0.00  0.00     0.051 A 
ATOM      5  C5  IND d   1       0.100  -1.181  -0.765  0.00  0.00    -0.031 A 
ATOM      6  C6  IND d   1       1.338  -1.150  -0.157  0.00  0.00     0.015 A 
ATOM      7  C7  IND d   1       1.556  -0.425   0.980  0.00  0.00    -0.016 A 
ATOM      8  C8  IND d   1       0.479   0.291   1.482  0.00  0.00    -0.047 A 
ATOM      9  C9  IND d   1      -0.770   0.297   0.846  0.00  0.00    -0.096 A 
ATOM     10  HN1 IND d   1       1.018   1.292   3.134  0.00  0.00     0.298 HD
ENDROOT
TORSDOF 0
ENDMDL
