MODEL 1
REMARK minimizedAffinity 8.94826984
REMARK minimizedRMSD -1
REMARK  0 active torsions:
REMARK  status: ('A' for Active; 'I' for Inactive)
ROOT
ATOM      1  N1  IND d   1      -3.587  -1.550   2.435  0.00  0.00    -0.196 N 
ATOM      2  C2  IND d   1      -3.732  -1.640   3.792  0.00  0.00     0.054 A 
ATOM      3  C3  IND d   1      -2.783  -0.906   4.415  0.00  0.00    -0.031 A 
ATOM      4  C4  IND d   1      -0.956   0.602   3.408  0.00  0.00     0.051 A 
ATOM      5  C5  IND d   1      -0.405   0.976   2.214  0.00  0.00    -0.031 A 
ATOM      6  C6  IND d   1      -0.899   0.521   1.009  0.00  0.00     0.015 A 
ATOM      7  C7  IND d   1      -1.974  -0.321   0.952  0.00  0.00    -0.016 A 
ATOM      8  C8  IND d   1      -2.531  -0.709   2.162  0.00  0.00    -0.047 A 
ATOM      9  C9  IND d   1      -2.008  -0.284   3.390  0.00  0.00    -0.096 A 
ATOM     10  HN1 IND d   1      -4.074  -1.951   1.851  0.00  0.00     0.298 HD
ENDROOT
TORSDOF 0
ENDMDL
