MODEL 1
REMARK minimizedAffinity 11.3291454
REMARK minimizedRMSD -1
REMARK  0 active torsions:
REMARK  status: ('A' for Active; 'I' for Inactive)
ROOT
ATOM      1  N1  IND d   1      -2.752   1.323   1.408  0.00  0.00    -0.196 N 
ATOM      2  C2  IND d   1      -3.409   0.126   1.333  0.00  0.00     0.054 A 
ATOM      3  C3  IND d   1      -2.761  -0.812   2.060  0.00  0.00    -0.031 A 
ATOM      4  C4  IND d   1      -0.664  -0.578   3.535  0.00  0.00     0.051 A 
ATOM      5  C5  IND d   1       0.309   0.313   3.891  0.00  0.00    -0.031 A 
ATOM      6  C6  IND d   1       0.310   1.614   3.430  0.00  0.00     0.015 A 
ATOM      7  C7  IND d   1      -0.673   2.077   2.602  0.00  0.00    -0.016 A 
ATOM      8  C8  IND d   1      -1.659   1.172   2.233  0.00  0.00    -0.047 A 
ATOM      9  C9  IND d   1      -1.641  -0.161   2.663  0.00  0.00    -0.096 A 
ATOM     10  HN1 IND d   1      -2.983   2.048   1.008  0.00  0.00     0.298 HD
ENDROOT
TORSDOF 0
ENDMDL
