MODEL 1
REMARK minimizedAffinity 8.75792027
REMARK minimizedRMSD -1
REMARK  0 active torsions:
REMARK  status: ('A' for Active; 'I' for Inactive)
ROOT
ATOM      1  N1  IND d   1       0.832   0.008  -6.000  0.00  0.00    -0.196 N 
ATOM      2  C2  IND d   1      -0.359  -0.402  -5.469  0.00  0.00     0.054 A 
ATOM      3  C3  IND d   1      -0.307  -0.371  -4.118  0.00  0.00    -0.031 A 
ATOM      4  C4  IND d   1       1.595   0.416  -2.572  0.00  0.00     0.051 A 
ATOM      5  C5  IND d   1       2.892   0.846  -2.593  0.00  0.00    -0.031 A 
ATOM      6  C6  IND d   1       3.582   1.024  -3.774  0.00  0.00     0.015 A 
ATOM      7  C7  IND d   1       2.994   0.789  -4.985  0.00  0.00    -0.016 A 
ATOM      8  C8  IND d   1       1.679   0.347  -4.968  0.00  0.00    -0.047 A 
ATOM      9  C9  IND d   1       0.987   0.123  -3.770  0.00  0.00    -0.096 A 
ATOM     10  HN1 IND d   1       1.021   0.048  -6.838  0.00  0.00     0.298 HD
ENDROOT
TORSDOF 0
ENDMDL
