MODEL 1
REMARK minimizedAffinity 1.58729362
REMARK minimizedRMSD -1
REMARK  0 active torsions:
REMARK  status: ('A' for Active; 'I' for Inactive)
ROOT
ATOM      1  N1  IND d   1       2.966  -1.758  -1.137  0.00  0.00    -0.196 N 
ATOM      2  C2  IND d   1       1.784  -2.276  -0.686  0.00  0.00     0.054 A 
ATOM      3  C3  IND d   1       0.757  -1.833  -1.444  0.00  0.00    -0.031 A 
ATOM      4  C4  IND d   1       0.796  -0.332  -3.536  0.00  0.00     0.051 A 
ATOM      5  C5  IND d   1       1.639   0.416  -4.309  0.00  0.00    -0.031 A 
ATOM      6  C6  IND d   1       2.995   0.477  -4.060  0.00  0.00     0.015 A 
ATOM      7  C7  IND d   1       3.563  -0.220  -3.032  0.00  0.00    -0.016 A 
ATOM      8  C8  IND d   1       2.709  -0.976  -2.241  0.00  0.00    -0.047 A 
ATOM      9  C9  IND d   1       1.327  -1.008  -2.462  0.00  0.00    -0.096 A 
ATOM     10  HN1 IND d   1       3.740  -1.898  -0.789  0.00  0.00     0.298 HD
ENDROOT
TORSDOF 0
ENDMDL
