MODEL 1
REMARK minimizedAffinity 10.1327753
REMARK minimizedRMSD -1
REMARK  0 active torsions:
REMARK  status: ('A' for Active; 'I' for Inactive)
ROOT
ATOM      1  N1  IND d   1      -0.100  -0.877  -2.946  0.00  0.00    -0.196 N 
ATOM      2  C2  IND d   1      -0.456  -1.225  -4.219  0.00  0.00     0.054 A 
ATOM      3  C3  IND d   1       0.320  -0.579  -5.118  0.00  0.00    -0.031 A 
ATOM      4  C4  IND d   1       2.300   1.017  -4.721  0.00  0.00     0.051 A 
ATOM      5  C5  IND d   1       2.978   1.666  -3.727  0.00  0.00    -0.031 A 
ATOM      6  C6  IND d   1       2.660   1.495  -2.395  0.00  0.00     0.015 A 
ATOM      7  C7  IND d   1       1.655   0.656  -2.005  0.00  0.00    -0.016 A 
ATOM      8  C8  IND d   1       0.960   0.001  -3.012  0.00  0.00    -0.047 A 
ATOM      9  C9  IND d   1       1.250   0.203  -4.367  0.00  0.00    -0.096 A 
ATOM     10  HN1 IND d   1      -0.475  -1.158  -2.225  0.00  0.00     0.298 HD
ENDROOT
TORSDOF 0
ENDMDL
