MODEL 1
REMARK minimizedAffinity 12.823967
REMARK minimizedRMSD -1
REMARK  0 active torsions:
REMARK  status: ('A' for Active; 'I' for Inactive)
ROOT
ATOM      1  N1  IND d   1       1.148  -0.836   1.506  0.00  0.00    -0.196 N 
ATOM      2  C2  IND d   1       2.336  -0.162   1.464  0.00  0.00     0.054 A 
ATOM      3  C3  IND d   1       2.155   1.132   1.810  0.00  0.00    -0.031 A 
ATOM      4  C4  IND d   1       0.013   2.335   2.580  0.00  0.00     0.051 A 
ATOM      5  C5  IND d   1      -1.330   2.144   2.743  0.00  0.00    -0.031 A 
ATOM      6  C6  IND d   1      -1.928   0.925   2.500  0.00  0.00     0.015 A 
ATOM      7  C7  IND d   1      -1.199  -0.157   2.094  0.00  0.00    -0.016 A 
ATOM      8  C8  IND d   1       0.164   0.035   1.920  0.00  0.00    -0.047 A 
ATOM      9  C9  IND d   1       0.770   1.281   2.124  0.00  0.00    -0.096 A 
ATOM     10  HN1 IND d   1       1.034  -1.665   1.308  0.00  0.00     0.298 HD
ENDROOT
TORSDOF 0
ENDMDL
