MODEL 1
REMARK minimizedAffinity 4.27048779
REMARK minimizedRMSD -1
REMARK  0 active torsions:
REMARK  status: ('A' for Active; 'I' for Inactive)
ROOT
ATOM      1  N1  IND d   1       0.704  -1.121   0.269  0.00  0.00    -0.196 N 
ATOM      2  C2  IND d   1       2.010  -0.820   0.538  0.00  0.00     0.054 A 
ATOM      3  C3  IND d   1       2.087   0.091   1.535  0.00  0.00    -0.031 A 
ATOM      4  C4  IND d   1       0.202   1.147   2.934  0.00  0.00     0.051 A 
ATOM      5  C5  IND d   1      -1.160   1.210   3.034  0.00  0.00    -0.031 A 
ATOM      6  C6  IND d   1      -1.986   0.482   2.202  0.00  0.00     0.015 A 
ATOM      7  C7  IND d   1      -1.480  -0.348   1.243  0.00  0.00    -0.016 A 
ATOM      8  C8  IND d   1      -0.098  -0.409   1.134  0.00  0.00    -0.047 A 
ATOM      9  C9  IND d   1       0.746   0.359   1.947  0.00  0.00    -0.096 A 
ATOM     10  HN1 IND d   1       0.429  -1.664  -0.339  0.00  0.00     0.298 HD
ENDROOT
TORSDOF 0
ENDMDL
