MODEL 1
REMARK minimizedAffinity 6.44252682
REMARK minimizedRMSD -1
REMARK  0 active torsions:
REMARK  status: ('A' for Active; 'I' for Inactive)
ROOT
ATOM      1  N1  IND d   1       0.306   0.235  -5.901  0.00  0.00    -0.196 N 
ATOM      2  C2  IND d   1      -0.715  -0.563  -5.465  0.00  0.00     0.054 A 
ATOM      3  C3  IND d   1      -0.585  -0.812  -4.142  0.00  0.00    -0.031 A 
ATOM      4  C4  IND d   1       1.169   0.071  -2.477  0.00  0.00     0.051 A 
ATOM      5  C5  IND d   1       2.321   0.803  -2.413  0.00  0.00    -0.031 A 
ATOM      6  C6  IND d   1       2.870   1.397  -3.531  0.00  0.00     0.015 A 
ATOM      7  C7  IND d   1       2.279   1.291  -4.757  0.00  0.00    -0.016 A 
ATOM      8  C8  IND d   1       1.112   0.542  -4.827  0.00  0.00    -0.047 A 
ATOM      9  C9  IND d   1       0.573  -0.099  -3.704  0.00  0.00    -0.096 A 
ATOM     10  HN1 IND d   1       0.425   0.500  -6.711  0.00  0.00     0.298 HD
ENDROOT
TORSDOF 0
ENDMDL
