MODEL 1
REMARK minimizedAffinity 3.05610895
REMARK minimizedRMSD -1
REMARK  0 active torsions:
REMARK  status: ('A' for Active; 'I' for Inactive)
ROOT
ATOM      1  N1  IND d   1       0.426  -1.374  -1.126  0.00  0.00    -0.196 N 
ATOM      2  C2  IND d   1       1.333  -1.335  -0.104  0.00  0.00     0.054 A 
ATOM      3  C3  IND d   1       2.420  -0.618  -0.467  0.00  0.00    -0.031 A 
ATOM      4  C4  IND d   1       2.879   0.665  -2.651  0.00  0.00     0.051 A 
ATOM      5  C5  IND d   1       2.361   0.894  -3.895  0.00  0.00    -0.031 A 
ATOM      6  C6  IND d   1       1.145   0.371  -4.286  0.00  0.00     0.015 A 
ATOM      7  C7  IND d   1       0.394  -0.395  -3.440  0.00  0.00    -0.016 A 
ATOM      8  C8  IND d   1       0.921  -0.636  -2.179  0.00  0.00    -0.047 A 
ATOM      9  C9  IND d   1       2.173  -0.143  -1.791  0.00  0.00    -0.096 A 
ATOM     10  HN1 IND d   1      -0.326  -1.790  -1.113  0.00  0.00     0.298 HD
ENDROOT
TORSDOF 0
ENDMDL
