MODEL 1
REMARK minimizedAffinity 8.33380508
REMARK minimizedRMSD -1
REMARK  0 active torsions:
REMARK  status: ('A' for Active; 'I' for Inactive)
ROOT
ATOM      1  N1  IND d   1       0.449  -1.838  -1.723  0.00  0.00    -0.196 N 
ATOM      2  C2  IND d   1       1.244  -1.745  -0.615  0.00  0.00     0.054 A 
ATOM      3  C3  IND d   1       2.189  -0.795  -0.792  0.00  0.00    -0.031 A 
ATOM      4  C4  IND d   1       2.554   0.798  -2.781  0.00  0.00     0.051 A 
ATOM      5  C5  IND d   1       2.103   1.067  -4.043  0.00  0.00    -0.031 A 
ATOM      6  C6  IND d   1       1.054   0.369  -4.606  0.00  0.00     0.015 A 
ATOM      7  C7  IND d   1       0.408  -0.621  -3.921  0.00  0.00    -0.016 A 
ATOM      8  C8  IND d   1       0.868  -0.901  -2.643  0.00  0.00    -0.047 A 
ATOM      9  C9  IND d   1       1.959  -0.225  -2.082  0.00  0.00    -0.096 A 
ATOM     10  HN1 IND d   1      -0.202  -2.389  -1.829  0.00  0.00     0.298 HD
ENDROOT
TORSDOF 0
ENDMDL
