MODEL 1
REMARK minimizedAffinity 7.0966568
REMARK minimizedRMSD -1
REMARK  0 active torsions:
REMARK  status: ('A' for Active; 'I' for Inactive)
ROOT
ATOM      1  N1  IND d   1       1.062  -0.989   0.992  0.00  0.00    -0.196 N 
ATOM      2  C2  IND d   1       2.301  -0.410   1.003  0.00  0.00     0.054 A 
ATOM      3  C3  IND d   1       2.272   0.750   1.696  0.00  0.00    -0.031 A 
ATOM      4  C4  IND d   1       0.327   1.838   2.984  0.00  0.00     0.051 A 
ATOM      5  C5  IND d   1      -1.010   1.701   3.234  0.00  0.00    -0.031 A 
ATOM      6  C6  IND d   1      -1.738   0.637   2.742  0.00  0.00     0.015 A 
ATOM      7  C7  IND d   1      -1.152  -0.340   1.988  0.00  0.00    -0.016 A 
ATOM      8  C8  IND d   1       0.204  -0.200   1.726  0.00  0.00    -0.047 A 
ATOM      9  C9  IND d   1       0.939   0.900   2.186  0.00  0.00    -0.096 A 
ATOM     10  HN1 IND d   1       0.854  -1.722   0.594  0.00  0.00     0.298 HD
ENDROOT
TORSDOF 0
ENDMDL
