MODEL 1
REMARK minimizedAffinity -3.21138263
REMARK minimizedRMSD -1
REMARK  0 active torsions:
REMARK  status: ('A' for Active; 'I' for Inactive)
ROOT
ATOM      1  O1  BZF d   1       0.675   2.692  -0.454  0.00  0.00    -0.204 OA
ATOM      2  C2  BZF d   1       0.241   3.736   0.340  0.00  0.00     0.174 A 
ATOM      3  C3  BZF d   1      -0.337   3.271   1.467  0.00  0.00    -0.012 A 
ATOM      4  C3A BZF d   1      -0.176   1.850   1.414  0.00  0.00    -0.107 A 
ATOM      5  C4  BZF d   1      -0.529   0.834   2.255  0.00  0.00     0.055 A 
ATOM      6  C5  BZF d   1      -0.292  -0.449   1.876  0.00  0.00    -0.016 A 
ATOM      7  C6  BZF d   1       0.289  -0.752   0.662  0.00  0.00     0.022 A 
ATOM      8  C7  BZF d   1       0.661   0.222  -0.203  0.00  0.00     0.029 A 
ATOM      9  C7A BZF d   1       0.453   1.521   0.191  0.00  0.00     0.058 A 
ENDROOT
TORSDOF 0
ENDMDL
