MODEL 1
REMARK minimizedAffinity -2.68150067
REMARK minimizedRMSD -1
REMARK  0 active torsions:
REMARK  status: ('A' for Active; 'I' for Inactive)
ROOT
ATOM      1  O1  BZF d   1       1.389  -1.186  -2.219  0.00  0.00    -0.204 OA
ATOM      2  C2  BZF d   1       1.047  -2.465  -2.612  0.00  0.00     0.174 A 
ATOM      3  C3  BZF d   1       0.155  -3.006  -1.758  0.00  0.00    -0.012 A 
ATOM      4  C3A BZF d   1      -0.144  -1.968  -0.819  0.00  0.00    -0.107 A 
ATOM      5  C4  BZF d   1      -0.975  -1.891   0.262  0.00  0.00     0.055 A 
ATOM      6  C5  BZF d   1      -0.981  -0.757   1.011  0.00  0.00    -0.016 A 
ATOM      7  C6  BZF d   1      -0.166   0.315   0.711  0.00  0.00     0.022 A 
ATOM      8  C7  BZF d   1       0.671   0.287  -0.355  0.00  0.00     0.029 A 
ATOM      9  C7A BZF d   1       0.655  -0.844  -1.133  0.00  0.00     0.058 A 
ENDROOT
TORSDOF 0
ENDMDL
