MODEL 1
REMARK minimizedAffinity -2.92443419
REMARK minimizedRMSD -1
REMARK  0 active torsions:
REMARK  status: ('A' for Active; 'I' for Inactive)
ROOT
ATOM      1  O1  BZF d   1       0.036   2.866  -0.815  0.00  0.00    -0.204 OA
ATOM      2  C2  BZF d   1      -0.274   3.965  -0.038  0.00  0.00     0.174 A 
ATOM      3  C3  BZF d   1      -0.818   3.584   1.135  0.00  0.00    -0.012 A 
ATOM      4  C3A BZF d   1      -0.765   2.154   1.127  0.00  0.00    -0.107 A 
ATOM      5  C4  BZF d   1      -1.142   1.195   2.024  0.00  0.00     0.055 A 
ATOM      6  C5  BZF d   1      -1.023  -0.114   1.681  0.00  0.00    -0.016 A 
ATOM      7  C6  BZF d   1      -0.536  -0.500   0.449  0.00  0.00     0.022 A 
ATOM      8  C7  BZF d   1      -0.144   0.414  -0.472  0.00  0.00     0.029 A 
ATOM      9  C7A BZF d   1      -0.233   1.738  -0.115  0.00  0.00     0.058 A 
ENDROOT
TORSDOF 0
ENDMDL
