MODEL 1
REMARK minimizedAffinity -2.74719357
REMARK minimizedRMSD -1
REMARK  0 active torsions:
REMARK  status: ('A' for Active; 'I' for Inactive)
ROOT
ATOM      1  O1  BZF d   1       0.684   2.259  -0.837  0.00  0.00    -0.204 OA
ATOM      2  C2  BZF d   1       0.247   3.484  -0.370  0.00  0.00     0.174 A 
ATOM      3  C3  BZF d   1      -0.517   3.331   0.731  0.00  0.00    -0.012 A 
ATOM      4  C3A BZF d   1      -0.484   1.930   1.021  0.00  0.00    -0.107 A 
ATOM      5  C4  BZF d   1      -1.038   1.161   2.003  0.00  0.00     0.055 A 
ATOM      6  C5  BZF d   1      -0.874  -0.188   1.959  0.00  0.00    -0.016 A 
ATOM      7  C6  BZF d   1      -0.166  -0.800   0.945  0.00  0.00     0.022 A 
ATOM      8  C7  BZF d   1       0.407  -0.078  -0.049  0.00  0.00     0.029 A 
ATOM      9  C7A BZF d   1       0.270   1.287   0.011  0.00  0.00     0.058 A 
ENDROOT
TORSDOF 0
ENDMDL
