MODEL 1
REMARK minimizedAffinity 0.246377245
REMARK minimizedRMSD -1
REMARK  0 active torsions:
REMARK  status: ('A' for Active; 'I' for Inactive)
ROOT
ATOM      1  O1  BZF d   1       1.347  -0.247  -0.646  0.00  0.00    -0.204 OA
ATOM      2  C2  BZF d   1       1.008   0.869  -1.385  0.00  0.00     0.174 A 
ATOM      3  C3  BZF d   1       0.190   1.679  -0.682  0.00  0.00    -0.012 A 
ATOM      4  C3A BZF d   1       0.080   1.073   0.609  0.00  0.00    -0.107 A 
ATOM      5  C4  BZF d   1      -0.583   1.414   1.753  0.00  0.00     0.055 A 
ATOM      6  C5  BZF d   1      -0.543   0.569   2.817  0.00  0.00    -0.016 A 
ATOM      7  C6  BZF d   1       0.144  -0.626   2.770  0.00  0.00     0.022 A 
ATOM      8  C7  BZF d   1       0.821  -1.006   1.658  0.00  0.00     0.029 A 
ATOM      9  C7A BZF d   1       0.810  -0.138   0.593  0.00  0.00     0.058 A 
ENDROOT
TORSDOF 0
ENDMDL
