MODEL 1
REMARK minimizedAffinity 2.26383328
REMARK minimizedRMSD -1
REMARK  0 active torsions:
REMARK  status: ('A' for Active; 'I' for Inactive)
ROOT
ATOM      1  O1  BZF d   1      -1.567   0.833   2.652  0.00  0.00    -0.204 OA
ATOM      2  C2  BZF d   1      -1.860   2.000   1.974  0.00  0.00     0.174 A 
ATOM      3  C3  BZF d   1      -1.201   2.049   0.798  0.00  0.00    -0.012 A 
ATOM      4  C3A BZF d   1      -0.521   0.794   0.696  0.00  0.00    -0.107 A 
ATOM      5  C4  BZF d   1       0.288   0.239  -0.254  0.00  0.00     0.055 A 
ATOM      6  C5  BZF d   1       0.851  -0.975  -0.015  0.00  0.00    -0.016 A 
ATOM      7  C6  BZF d   1       0.631  -1.658   1.163  0.00  0.00     0.022 A 
ATOM      8  C7  BZF d   1      -0.168  -1.150   2.133  0.00  0.00     0.029 A 
ATOM      9  C7A BZF d   1      -0.764   0.061   1.881  0.00  0.00     0.058 A 
ENDROOT
TORSDOF 0
ENDMDL
