MODEL 1
REMARK minimizedAffinity -4.3653245
REMARK minimizedRMSD -1
REMARK  0 active torsions:
REMARK  status: ('A' for Active; 'I' for Inactive)
ROOT
ATOM      1  O1  BZF d   1       0.369   0.718  -0.652  0.00  0.00    -0.204 OA
ATOM      2  C2  BZF d   1       0.151  -0.555  -0.163  0.00  0.00     0.174 A 
ATOM      3  C3  BZF d   1      -0.569  -0.513   0.977  0.00  0.00    -0.012 A 
ATOM      4  C3A BZF d   1      -0.895   0.868   1.164  0.00  0.00    -0.107 A 
ATOM      5  C4  BZF d   1      -1.609   1.543   2.113  0.00  0.00     0.055 A 
ATOM      6  C5  BZF d   1      -1.678   2.899   2.046  0.00  0.00    -0.016 A 
ATOM      7  C6  BZF d   1      -1.042   3.610   1.050  0.00  0.00     0.022 A 
ATOM      8  C7  BZF d   1      -0.326   2.984   0.084  0.00  0.00     0.029 A 
ATOM      9  C7A BZF d   1      -0.282   1.612   0.130  0.00  0.00     0.058 A 
ENDROOT
TORSDOF 0
ENDMDL
