MODEL 1
REMARK minimizedAffinity -4.64928055
REMARK minimizedRMSD -1
REMARK  0 active torsions:
REMARK  status: ('A' for Active; 'I' for Inactive)
ROOT
ATOM      1  O1  BZF d   1       0.945   0.981  -1.314  0.00  0.00    -0.204 OA
ATOM      2  C2  BZF d   1       0.770  -0.341  -0.952  0.00  0.00     0.174 A 
ATOM      3  C3  BZF d   1      -0.071  -0.442   0.097  0.00  0.00    -0.012 A 
ATOM      4  C3A BZF d   1      -0.516   0.894   0.353  0.00  0.00    -0.107 A 
ATOM      5  C4  BZF d   1      -1.376   1.439   1.263  0.00  0.00     0.055 A 
ATOM      6  C5  BZF d   1      -1.537   2.788   1.294  0.00  0.00    -0.016 A 
ATOM      7  C6  BZF d   1      -0.851   3.621   0.434  0.00  0.00     0.022 A 
ATOM      8  C7  BZF d   1       0.009   3.126  -0.489  0.00  0.00     0.029 A 
ATOM      9  C7A BZF d   1       0.149   1.761  -0.545  0.00  0.00     0.058 A 
ENDROOT
TORSDOF 0
ENDMDL
