MODEL 1
REMARK minimizedAffinity -3.65276575
REMARK minimizedRMSD -1
REMARK  0 active torsions:
REMARK  status: ('A' for Active; 'I' for Inactive)
ROOT
ATOM      1  O1  BZF d   1       0.550   0.909  -0.914  0.00  0.00    -0.204 OA
ATOM      2  C2  BZF d   1       0.333  -0.372  -0.445  0.00  0.00     0.174 A 
ATOM      3  C3  BZF d   1      -0.251  -0.344   0.770  0.00  0.00    -0.012 A 
ATOM      4  C3A BZF d   1      -0.493   1.040   1.039  0.00  0.00    -0.107 A 
ATOM      5  C4  BZF d   1      -1.065   1.708   2.084  0.00  0.00     0.055 A 
ATOM      6  C5  BZF d   1      -1.082   3.066   2.071  0.00  0.00    -0.016 A 
ATOM      7  C6  BZF d   1      -0.532   3.789   1.032  0.00  0.00     0.022 A 
ATOM      8  C7  BZF d   1       0.042   3.171  -0.029  0.00  0.00     0.029 A 
ATOM      9  C7A BZF d   1       0.031   1.798  -0.034  0.00  0.00     0.058 A 
ENDROOT
TORSDOF 0
ENDMDL
