MODEL 1
REMARK minimizedAffinity -4.28354359
REMARK minimizedRMSD -1
REMARK  0 active torsions:
REMARK  status: ('A' for Active; 'I' for Inactive)
ROOT
ATOM      1  O1  BZF d   1       0.571   0.438  -0.898  0.00  0.00    -0.204 OA
ATOM      2  C2  BZF d   1       0.283  -0.733  -0.225  0.00  0.00     0.174 A 
ATOM      3  C3  BZF d   1      -0.465  -0.485   0.869  0.00  0.00    -0.012 A 
ATOM      4  C3A BZF d   1      -0.735   0.920   0.829  0.00  0.00    -0.107 A 
ATOM      5  C4  BZF d   1      -1.445   1.762   1.636  0.00  0.00     0.055 A 
ATOM      6  C5  BZF d   1      -1.451   3.093   1.359  0.00  0.00    -0.016 A 
ATOM      7  C6  BZF d   1      -0.757   3.614   0.287  0.00  0.00     0.022 A 
ATOM      8  C7  BZF d   1      -0.044   2.817  -0.545  0.00  0.00     0.029 A 
ATOM      9  C7A BZF d   1      -0.062   1.468  -0.286  0.00  0.00     0.058 A 
ENDROOT
TORSDOF 0
ENDMDL
