MODEL 1
REMARK minimizedAffinity -4.63011646
REMARK minimizedRMSD -1
REMARK  0 active torsions:
REMARK  status: ('A' for Active; 'I' for Inactive)
ROOT
ATOM      1  O1  BZF d   1       0.428   0.069  -0.113  0.00  0.00    -0.204 OA
ATOM      2  C2  BZF d   1       0.169  -0.996   0.727  0.00  0.00     0.174 A 
ATOM      3  C3  BZF d   1      -0.650  -0.625   1.732  0.00  0.00    -0.012 A 
ATOM      4  C3A BZF d   1      -0.994   0.736   1.454  0.00  0.00    -0.107 A 
ATOM      5  C4  BZF d   1      -1.790   1.651   2.082  0.00  0.00     0.055 A 
ATOM      6  C5  BZF d   1      -1.854   2.917   1.593  0.00  0.00    -0.016 A 
ATOM      7  C6  BZF d   1      -1.133   3.304   0.483  0.00  0.00     0.022 A 
ATOM      8  C7  BZF d   1      -0.333   2.431  -0.177  0.00  0.00     0.029 A 
ATOM      9  C7A BZF d   1      -0.292   1.142   0.295  0.00  0.00     0.058 A 
ENDROOT
TORSDOF 0
ENDMDL
