MODEL 1
REMARK minimizedAffinity -0.904271126
REMARK minimizedRMSD -1
REMARK  0 active torsions:
REMARK  status: ('A' for Active; 'I' for Inactive)
ROOT
ATOM      1  O1  BZF d   1       0.929   0.290  -0.651  0.00  0.00    -0.204 OA
ATOM      2  C2  BZF d   1       0.491  -0.672   0.238  0.00  0.00     0.174 A 
ATOM      3  C3  BZF d   1      -0.057  -0.101   1.330  0.00  0.00    -0.012 A 
ATOM      4  C3A BZF d   1      -0.038   1.306   1.068  0.00  0.00    -0.107 A 
ATOM      5  C4  BZF d   1      -0.460   2.397   1.772  0.00  0.00     0.055 A 
ATOM      6  C5  BZF d   1      -0.229   3.638   1.267  0.00  0.00    -0.016 A 
ATOM      7  C6  BZF d   1       0.424   3.823   0.067  0.00  0.00     0.022 A 
ATOM      8  C7  BZF d   1       0.857   2.771  -0.670  0.00  0.00     0.029 A 
ATOM      9  C7A BZF d   1       0.596   1.515  -0.178  0.00  0.00     0.058 A 
ENDROOT
TORSDOF 0
ENDMDL
