MODEL 1
REMARK minimizedAffinity -2.75058866
REMARK minimizedRMSD -1
REMARK  0 active torsions:
REMARK  status: ('A' for Active; 'I' for Inactive)
ROOT
ATOM      1  O1  BZF d   1      -0.863   0.698   2.053  0.00  0.00    -0.204 OA
ATOM      2  C2  BZF d   1      -0.341  -0.357   1.330  0.00  0.00     0.174 A 
ATOM      3  C3  BZF d   1       0.142   0.067   0.144  0.00  0.00    -0.012 A 
ATOM      4  C3A BZF d   1      -0.009   1.490   0.164  0.00  0.00    -0.107 A 
ATOM      5  C4  BZF d   1       0.301   2.479  -0.725  0.00  0.00     0.055 A 
ATOM      6  C5  BZF d   1      -0.043   3.761  -0.433  0.00  0.00    -0.016 A 
ATOM      7  C6  BZF d   1      -0.703   4.088   0.733  0.00  0.00     0.022 A 
ATOM      8  C7  BZF d   1      -1.028   3.142   1.648  0.00  0.00     0.029 A 
ATOM      9  C7A BZF d   1      -0.652   1.850   1.371  0.00  0.00     0.058 A 
ENDROOT
TORSDOF 0
ENDMDL
