MODEL 1
REMARK minimizedAffinity -2.10397124
REMARK minimizedRMSD -1
REMARK  0 active torsions:
REMARK  status: ('A' for Active; 'I' for Inactive)
ROOT
ATOM      1  O1  BZF d   1      -0.895   0.070   2.068  0.00  0.00    -0.204 OA
ATOM      2  C2  BZF d   1      -0.348  -1.055   1.482  0.00  0.00     0.174 A 
ATOM      3  C3  BZF d   1       0.399  -0.722   0.410  0.00  0.00    -0.012 A 
ATOM      4  C3A BZF d   1       0.388   0.708   0.374  0.00  0.00    -0.107 A 
ATOM      5  C4  BZF d   1       0.964   1.631  -0.452  0.00  0.00     0.055 A 
ATOM      6  C5  BZF d   1       0.697   2.949  -0.258  0.00  0.00    -0.016 A 
ATOM      7  C6  BZF d   1      -0.144   3.379   0.747  0.00  0.00     0.022 A 
ATOM      8  C7  BZF d   1      -0.735   2.502   1.595  0.00  0.00     0.029 A 
ATOM      9  C7A BZF d   1      -0.441   1.171   1.422  0.00  0.00     0.058 A 
ENDROOT
TORSDOF 0
ENDMDL
