MODEL 1
REMARK minimizedAffinity -4.90344667
REMARK minimizedRMSD -1
REMARK  0 active torsions:
REMARK  status: ('A' for Active; 'I' for Inactive)
ROOT
ATOM      1  O1  BZF d   1       1.324  -5.930  -0.758  0.00  0.00    -0.204 OA
ATOM      2  C2  BZF d   1       2.248  -5.779   0.259  0.00  0.00     0.174 A 
ATOM      3  C3  BZF d   1       2.712  -4.513   0.299  0.00  0.00    -0.012 A 
ATOM      4  C3A BZF d   1       1.967  -3.807  -0.698  0.00  0.00    -0.107 A 
ATOM      5  C4  BZF d   1       1.962  -2.510  -1.124  0.00  0.00     0.055 A 
ATOM      6  C5  BZF d   1       1.167  -2.160  -2.168  0.00  0.00    -0.016 A 
ATOM      7  C6  BZF d   1       0.369  -3.082  -2.814  0.00  0.00     0.022 A 
ATOM      8  C7  BZF d   1       0.336  -4.380  -2.425  0.00  0.00     0.029 A 
ATOM      9  C7A BZF d   1       1.114  -4.729  -1.348  0.00  0.00     0.058 A 
ENDROOT
TORSDOF 0
ENDMDL
