MODEL 1
REMARK minimizedAffinity -4.33624601
REMARK minimizedRMSD -1
REMARK  0 active torsions:
REMARK  status: ('A' for Active; 'I' for Inactive)
ROOT
ATOM      1  O1  BZF d   1       0.794   0.267  -0.949  0.00  0.00    -0.204 OA
ATOM      2  C2  BZF d   1       0.472  -1.053  -0.699  0.00  0.00     0.174 A 
ATOM      3  C3  BZF d   1      -0.330  -1.154   0.380  0.00  0.00    -0.012 A 
ATOM      4  C3A BZF d   1      -0.596   0.194   0.779  0.00  0.00    -0.107 A 
ATOM      5  C4  BZF d   1      -1.343   0.748   1.780  0.00  0.00     0.055 A 
ATOM      6  C5  BZF d   1      -1.334   2.097   1.941  0.00  0.00    -0.016 A 
ATOM      7  C6  BZF d   1      -0.587   2.921   1.126  0.00  0.00     0.022 A 
ATOM      8  C7  BZF d   1       0.165   2.419   0.117  0.00  0.00     0.029 A 
ATOM      9  C7A BZF d   1       0.133   1.059  -0.070  0.00  0.00     0.058 A 
ENDROOT
TORSDOF 0
ENDMDL
