MODEL 1
REMARK minimizedAffinity 3.24223113
REMARK minimizedRMSD -1
REMARK  0 active torsions:
REMARK  status: ('A' for Active; 'I' for Inactive)
ROOT
ATOM      1  C   UNL d   1       2.211   1.251   0.166  0.00  0.00     0.078 C 
ATOM      2  C1  UNL d   1       2.182   0.213   1.248  0.00  0.00    -0.077 A 
ATOM      3  C2  UNL d   1       1.428  -0.958   1.104  0.00  0.00    -0.001 A 
ATOM      4  C3  UNL d   1       1.402  -1.911   2.124  0.00  0.00     0.003 A 
ATOM      5  C4  UNL d   1       2.129  -1.702   3.295  0.00  0.00    -0.005 A 
ATOM      6  C5  UNL d   1       2.881  -0.539   3.447  0.00  0.00     0.003 A 
ATOM      7  C6  UNL d   1       2.907   0.415   2.429  0.00  0.00    -0.001 A 
ENDROOT
TORSDOF 0
ENDMDL
