MODEL 1
REMARK minimizedAffinity 5.12312746
REMARK minimizedRMSD -1
REMARK  0 active torsions:
REMARK  status: ('A' for Active; 'I' for Inactive)
ROOT
ATOM      1  C   UNL d   1       2.215  -1.494   3.024  0.00  0.00     0.078 C 
ATOM      2  C1  UNL d   1       3.359  -2.286   3.583  0.00  0.00    -0.077 A 
ATOM      3  C2  UNL d   1       4.661  -2.111   3.099  0.00  0.00    -0.001 A 
ATOM      4  C3  UNL d   1       5.715  -2.862   3.622  0.00  0.00     0.003 A 
ATOM      5  C4  UNL d   1       5.478  -3.794   4.631  0.00  0.00    -0.005 A 
ATOM      6  C5  UNL d   1       4.185  -3.976   5.117  0.00  0.00     0.003 A 
ATOM      7  C6  UNL d   1       3.129  -3.226   4.595  0.00  0.00    -0.001 A 
ENDROOT
TORSDOF 0
ENDMDL
