MODEL 1
REMARK minimizedAffinity 7.50113773
REMARK minimizedRMSD -1
REMARK  0 active torsions:
REMARK  status: ('A' for Active; 'I' for Inactive)
ROOT
ATOM      1  C   UNL d   1      -3.911   2.619  -1.389  0.00  0.00     0.078 C 
ATOM      2  C1  UNL d   1      -4.305   2.743  -2.831  0.00  0.00    -0.077 A 
ATOM      3  C2  UNL d   1      -5.644   2.921  -3.200  0.00  0.00    -0.001 A 
ATOM      4  C3  UNL d   1      -5.997   3.026  -4.546  0.00  0.00     0.003 A 
ATOM      5  C4  UNL d   1      -5.017   2.953  -5.534  0.00  0.00    -0.005 A 
ATOM      6  C5  UNL d   1      -3.683   2.774  -5.177  0.00  0.00     0.003 A 
ATOM      7  C6  UNL d   1      -3.327   2.669  -3.831  0.00  0.00    -0.001 A 
ENDROOT
TORSDOF 0
ENDMDL
