MODEL 1
REMARK minimizedAffinity 2.26433992
REMARK minimizedRMSD -1
REMARK  0 active torsions:
REMARK  status: ('A' for Active; 'I' for Inactive)
ROOT
ATOM      1  C   UNL d   1       2.493   1.387   0.610  0.00  0.00     0.078 C 
ATOM      2  C1  UNL d   1       2.037   0.114   1.257  0.00  0.00    -0.077 A 
ATOM      3  C2  UNL d   1       2.711  -0.414   2.365  0.00  0.00    -0.001 A 
ATOM      4  C3  UNL d   1       2.281  -1.606   2.951  0.00  0.00     0.003 A 
ATOM      5  C4  UNL d   1       1.176  -2.280   2.435  0.00  0.00    -0.005 A 
ATOM      6  C5  UNL d   1       0.501  -1.764   1.331  0.00  0.00     0.003 A 
ATOM      7  C6  UNL d   1       0.929  -0.573   0.744  0.00  0.00    -0.001 A 
ENDROOT
TORSDOF 0
ENDMDL
