MODEL 1
REMARK minimizedAffinity -0.325800151
REMARK minimizedRMSD -1
REMARK  0 active torsions:
REMARK  status: ('A' for Active; 'I' for Inactive)
ROOT
ATOM      1  C   UNL d   1       3.439   0.771   1.950  0.00  0.00     0.078 C 
ATOM      2  C1  UNL d   1       2.763  -0.536   2.236  0.00  0.00    -0.077 A 
ATOM      3  C2  UNL d   1       3.034  -1.245   3.414  0.00  0.00    -0.001 A 
ATOM      4  C3  UNL d   1       2.405  -2.466   3.663  0.00  0.00     0.003 A 
ATOM      5  C4  UNL d   1       1.503  -2.990   2.739  0.00  0.00    -0.005 A 
ATOM      6  C5  UNL d   1       1.229  -2.293   1.564  0.00  0.00     0.003 A 
ATOM      7  C6  UNL d   1       1.857  -1.072   1.313  0.00  0.00    -0.001 A 
ENDROOT
TORSDOF 0
ENDMDL
