MODEL 1
REMARK minimizedAffinity 3.61272979
REMARK minimizedRMSD -1
REMARK  0 active torsions:
REMARK  status: ('A' for Active; 'I' for Inactive)
ROOT
ATOM      1  C   UNL d   1       2.575   4.468  -1.150  0.00  0.00     0.078 C 
ATOM      2  C1  UNL d   1       3.761   5.006  -1.894  0.00  0.00    -0.077 A 
ATOM      3  C2  UNL d   1       3.795   5.005  -3.294  0.00  0.00    -0.001 A 
ATOM      4  C3  UNL d   1       4.909   5.500  -3.974  0.00  0.00     0.003 A 
ATOM      5  C4  UNL d   1       5.999   5.997  -3.262  0.00  0.00    -0.005 A 
ATOM      6  C5  UNL d   1       5.975   6.000  -1.869  0.00  0.00     0.003 A 
ATOM      7  C6  UNL d   1       4.862   5.506  -1.187  0.00  0.00    -0.001 A 
ENDROOT
TORSDOF 0
ENDMDL
