MODEL 1
REMARK minimizedAffinity 1.30008316
REMARK minimizedRMSD -1
REMARK  0 active torsions:
REMARK  status: ('A' for Active; 'I' for Inactive)
ROOT
ATOM      1  C   UNL d   1       1.892  -2.252   2.995  0.00  0.00     0.078 C 
ATOM      2  C1  UNL d   1       2.291  -0.847   2.656  0.00  0.00    -0.077 A 
ATOM      3  C2  UNL d   1       2.142   0.189   3.587  0.00  0.00    -0.001 A 
ATOM      4  C3  UNL d   1       2.509   1.494   3.254  0.00  0.00     0.003 A 
ATOM      5  C4  UNL d   1       3.025   1.776   1.991  0.00  0.00    -0.005 A 
ATOM      6  C5  UNL d   1       3.175   0.752   1.058  0.00  0.00     0.003 A 
ATOM      7  C6  UNL d   1       2.809  -0.554   1.389  0.00  0.00    -0.001 A 
ENDROOT
TORSDOF 0
ENDMDL
