MODEL 1
REMARK minimizedAffinity 6.11290693
REMARK minimizedRMSD -1
REMARK  0 active torsions:
REMARK  status: ('A' for Active; 'I' for Inactive)
ROOT
ATOM      1  C   UNL d   1      -2.147  -0.650  -0.227  0.00  0.00     0.078 C 
ATOM      2  C1  UNL d   1      -0.940  -1.471  -0.573  0.00  0.00    -0.077 A 
ATOM      3  C2  UNL d   1      -0.794  -2.038  -1.845  0.00  0.00    -0.001 A 
ATOM      4  C3  UNL d   1       0.329  -2.808  -2.150  0.00  0.00     0.003 A 
ATOM      5  C4  UNL d   1       1.315  -3.019  -1.188  0.00  0.00    -0.005 A 
ATOM      6  C5  UNL d   1       1.178  -2.460   0.081  0.00  0.00     0.003 A 
ATOM      7  C6  UNL d   1       0.055  -1.690   0.388  0.00  0.00    -0.001 A 
ENDROOT
TORSDOF 0
ENDMDL
