MODEL 1
REMARK minimizedAffinity 1.61040616
REMARK minimizedRMSD -1
REMARK  0 active torsions:
REMARK  status: ('A' for Active; 'I' for Inactive)
ROOT
ATOM      1  C   UNL d   1       1.075  -1.202   2.054  0.00  0.00     0.078 C 
ATOM      2  C1  UNL d   1       1.711  -0.050   1.334  0.00  0.00    -0.077 A 
ATOM      3  C2  UNL d   1       2.732  -0.259   0.400  0.00  0.00    -0.001 A 
ATOM      4  C3  UNL d   1       3.322   0.823  -0.255  0.00  0.00     0.003 A 
ATOM      5  C4  UNL d   1       2.897   2.122   0.018  0.00  0.00    -0.005 A 
ATOM      6  C5  UNL d   1       1.882   2.340   0.948  0.00  0.00     0.003 A 
ATOM      7  C6  UNL d   1       1.292   1.259   1.604  0.00  0.00    -0.001 A 
ENDROOT
TORSDOF 0
ENDMDL
