MODEL 1
REMARK minimizedAffinity 3.17831182
REMARK minimizedRMSD -1
REMARK  0 active torsions:
REMARK  status: ('A' for Active; 'I' for Inactive)
ROOT
ATOM      1  C   UNL d   1      -0.187  -1.209   0.002  0.00  0.00     0.078 C 
ATOM      2  C1  UNL d   1       0.667  -1.142   1.233  0.00  0.00    -0.077 A 
ATOM      3  C2  UNL d   1       0.751  -2.229   2.112  0.00  0.00    -0.001 A 
ATOM      4  C3  UNL d   1       1.542  -2.150   3.259  0.00  0.00     0.003 A 
ATOM      5  C4  UNL d   1       2.253  -0.985   3.539  0.00  0.00    -0.005 A 
ATOM      6  C5  UNL d   1       2.174   0.103   2.672  0.00  0.00     0.003 A 
ATOM      7  C6  UNL d   1       1.383   0.025   1.525  0.00  0.00    -0.001 A 
ENDROOT
TORSDOF 0
ENDMDL
