MODEL 1
REMARK minimizedAffinity 3.10865235
REMARK minimizedRMSD -1
REMARK  0 active torsions:
REMARK  status: ('A' for Active; 'I' for Inactive)
ROOT
ATOM      1  C   UNL d   1       2.670   1.475   0.679  0.00  0.00     0.078 C 
ATOM      2  C1  UNL d   1       2.134   2.674  -0.044  0.00  0.00    -0.077 A 
ATOM      3  C2  UNL d   1       0.839   3.145   0.204  0.00  0.00    -0.001 A 
ATOM      4  C3  UNL d   1       0.349   4.257  -0.483  0.00  0.00     0.003 A 
ATOM      5  C4  UNL d   1       1.146   4.905  -1.424  0.00  0.00    -0.005 A 
ATOM      6  C5  UNL d   1       2.435   4.442  -1.679  0.00  0.00     0.003 A 
ATOM      7  C6  UNL d   1       2.927   3.331  -0.992  0.00  0.00    -0.001 A 
ENDROOT
TORSDOF 0
ENDMDL
