MODEL 1
REMARK minimizedAffinity 1.69004571
REMARK minimizedRMSD -1
REMARK  0 active torsions:
REMARK  status: ('A' for Active; 'I' for Inactive)
ROOT
ATOM      1  C   UNL d   1       2.956   1.445   0.774  0.00  0.00     0.078 C 
ATOM      2  C1  UNL d   1       2.371   0.268   1.495  0.00  0.00    -0.077 A 
ATOM      3  C2  UNL d   1       2.745  -0.031   2.811  0.00  0.00    -0.001 A 
ATOM      4  C3  UNL d   1       2.199  -1.135   3.467  0.00  0.00     0.003 A 
ATOM      5  C4  UNL d   1       1.278  -1.952   2.814  0.00  0.00    -0.005 A 
ATOM      6  C5  UNL d   1       0.902  -1.665   1.503  0.00  0.00     0.003 A 
ATOM      7  C6  UNL d   1       1.446  -0.560   0.846  0.00  0.00    -0.001 A 
ENDROOT
TORSDOF 0
ENDMDL
