MODEL 1
REMARK minimizedAffinity 20.1385441
REMARK minimizedRMSD -1
REMARK  0 active torsions:
REMARK  status: ('A' for Active; 'I' for Inactive)
ROOT
ATOM      1  C4' PXY d   1      -0.772  -3.443  -2.206  0.00  0.00     0.077 C 
ATOM      2  C1' PXY d   1       3.205   0.375  -0.468  0.00  0.00     0.077 C 
ATOM      3  C1  PXY d   1       2.161  -0.631  -0.912  0.00  0.00    -0.082 A 
ATOM      4  C2  PXY d   1       2.111  -1.005  -2.180  0.00  0.00     0.003 A 
ATOM      5  C3  PXY d   1       1.153  -1.890  -2.604  0.00  0.00     0.003 A 
ATOM      6  C4  PXY d   1       0.271  -2.437  -1.712  0.00  0.00    -0.082 A 
ATOM      7  C5  PXY d   1       0.322  -2.068  -0.414  0.00  0.00     0.003 A 
ATOM      8  C6  PXY d   1       1.276  -1.138  -0.011  0.00  0.00     0.003 A 
ENDROOT
TORSDOF 0
ENDMDL
