MODEL 1
REMARK minimizedAffinity 12.6141033
REMARK minimizedRMSD -1
REMARK  0 active torsions:
REMARK  status: ('A' for Active; 'I' for Inactive)
ROOT
ATOM      1  C4' PXY d   1       3.983   1.384  -0.919  0.00  0.00     0.077 C 
ATOM      2  C1' PXY d   1       0.671  -3.311  -1.557  0.00  0.00     0.077 C 
ATOM      3  C1  PXY d   1       1.545  -2.084  -1.378  0.00  0.00    -0.082 A 
ATOM      4  C2  PXY d   1       1.189  -0.941  -1.941  0.00  0.00     0.003 A 
ATOM      5  C3  PXY d   1       1.984   0.170  -1.817  0.00  0.00     0.003 A 
ATOM      6  C4  PXY d   1       3.127   0.123  -1.064  0.00  0.00    -0.082 A 
ATOM      7  C5  PXY d   1       3.491  -1.038  -0.478  0.00  0.00     0.003 A 
ATOM      8  C6  PXY d   1       2.692  -2.164  -0.651  0.00  0.00     0.003 A 
ENDROOT
TORSDOF 0
ENDMDL
