MODEL 1
REMARK minimizedAffinity 15.7227488
REMARK minimizedRMSD -1
REMARK  0 active torsions:
REMARK  status: ('A' for Active; 'I' for Inactive)
ROOT
ATOM      1  C4' PXY d   1      -6.000   5.222  -6.000  0.00  0.00     0.077 C 
ATOM      2  C1' PXY d   1      -0.999   2.397  -5.346  0.00  0.00     0.077 C 
ATOM      3  C1  PXY d   1      -2.304   3.149  -5.515  0.00  0.00    -0.082 A 
ATOM      4  C2  PXY d   1      -3.452   2.514  -5.340  0.00  0.00     0.003 A 
ATOM      5  C3  PXY d   1      -4.642   3.171  -5.520  0.00  0.00     0.003 A 
ATOM      6  C4  PXY d   1      -4.657   4.505  -5.830  0.00  0.00    -0.082 A 
ATOM      7  C5  PXY d   1      -3.491   5.162  -5.999  0.00  0.00     0.003 A 
ATOM      8  C6  PXY d   1      -2.294   4.467  -5.852  0.00  0.00     0.003 A 
ENDROOT
TORSDOF 0
ENDMDL
