MODEL 1
REMARK minimizedAffinity 15.6147223
REMARK minimizedRMSD -1
REMARK  0 active torsions:
REMARK  status: ('A' for Active; 'I' for Inactive)
ROOT
ATOM      1  C4' PXY d   1      -1.846   2.306   6.000  0.00  0.00     0.077 C 
ATOM      2  C1' PXY d   1      -5.132  -0.918   2.503  0.00  0.00     0.077 C 
ATOM      3  C1  PXY d   1      -4.264  -0.067   3.410  0.00  0.00    -0.082 A 
ATOM      4  C2  PXY d   1      -4.011  -0.473   4.643  0.00  0.00     0.003 A 
ATOM      5  C3  PXY d   1      -3.255   0.299   5.487  0.00  0.00     0.003 A 
ATOM      6  C4  PXY d   1      -2.709   1.475   5.047  0.00  0.00    -0.082 A 
ATOM      7  C5  PXY d   1      -2.954   1.892   3.786  0.00  0.00     0.003 A 
ATOM      8  C6  PXY d   1      -3.758   1.113   2.959  0.00  0.00     0.003 A 
ENDROOT
TORSDOF 0
ENDMDL
