MODEL 1
REMARK minimizedAffinity 10.501647
REMARK minimizedRMSD -1
REMARK  0 active torsions:
REMARK  status: ('A' for Active; 'I' for Inactive)
ROOT
ATOM      1  C4' PXY d   1       2.804   0.207  -0.473  0.00  0.00     0.077 C 
ATOM      2  C1' PXY d   1      -0.897  -3.963  -1.999  0.00  0.00     0.077 C 
ATOM      3  C1  PXY d   1       0.075  -2.866  -1.611  0.00  0.00    -0.082 A 
ATOM      4  C2  PXY d   1       0.738  -2.953  -0.470  0.00  0.00     0.003 A 
ATOM      5  C3  PXY d   1       1.597  -1.955  -0.089  0.00  0.00     0.003 A 
ATOM      6  C4  PXY d   1       1.819  -0.881  -0.909  0.00  0.00    -0.082 A 
ATOM      7  C5  PXY d   1       1.154  -0.790  -2.080  0.00  0.00     0.003 A 
ATOM      8  C6  PXY d   1       0.256  -1.794  -2.430  0.00  0.00     0.003 A 
ENDROOT
TORSDOF 0
ENDMDL
