MODEL 1
REMARK minimizedAffinity 17.2873135
REMARK minimizedRMSD -1
REMARK  0 active torsions:
REMARK  status: ('A' for Active; 'I' for Inactive)
ROOT
ATOM      1  C4' PXY d   1       1.613  -1.089  -1.124  0.00  0.00     0.077 C 
ATOM      2  C1' PXY d   1      -3.507  -3.322  -2.614  0.00  0.00     0.077 C 
ATOM      3  C1  PXY d   1      -2.163  -2.745  -2.214  0.00  0.00    -0.082 A 
ATOM      4  C2  PXY d   1      -1.875  -1.489  -2.513  0.00  0.00     0.003 A 
ATOM      5  C3  PXY d   1      -0.652  -0.961  -2.187  0.00  0.00     0.003 A 
ATOM      6  C4  PXY d   1       0.265  -1.711  -1.500  0.00  0.00    -0.082 A 
ATOM      7  C5  PXY d   1      -0.026  -2.990  -1.181  0.00  0.00     0.003 A 
ATOM      8  C6  PXY d   1      -1.257  -3.519  -1.558  0.00  0.00     0.003 A 
ENDROOT
TORSDOF 0
ENDMDL
