MODEL 1
REMARK minimizedAffinity 4.41361856
REMARK minimizedRMSD -1
REMARK  0 active torsions:
REMARK  status: ('A' for Active; 'I' for Inactive)
ROOT
ATOM      1  C4' PXY d   1      -5.554   3.320   5.985  0.00  0.00     0.077 C 
ATOM      2  C1' PXY d   1      -4.294  -1.622   3.265  0.00  0.00     0.077 C 
ATOM      3  C1  PXY d   1      -4.612  -0.322   3.976  0.00  0.00    -0.082 A 
ATOM      4  C2  PXY d   1      -5.573  -0.292   4.885  0.00  0.00     0.003 A 
ATOM      5  C3  PXY d   1      -5.896   0.883   5.514  0.00  0.00     0.003 A 
ATOM      6  C4  PXY d   1      -5.192   2.027   5.249  0.00  0.00    -0.082 A 
ATOM      7  C5  PXY d   1      -4.203   2.002   4.331  0.00  0.00     0.003 A 
ATOM      8  C6  PXY d   1      -3.918   0.809   3.673  0.00  0.00     0.003 A 
ENDROOT
TORSDOF 0
ENDMDL
