MODEL 1
REMARK minimizedAffinity 12.6039677
REMARK minimizedRMSD -1
REMARK  0 active torsions:
REMARK  status: ('A' for Active; 'I' for Inactive)
ROOT
ATOM      1  C4' PXY d   1       3.467   1.505  -0.321  0.00  0.00     0.077 C 
ATOM      2  C1' PXY d   1       2.099  -3.789  -2.197  0.00  0.00     0.077 C 
ATOM      3  C1  PXY d   1       2.451  -2.395  -1.715  0.00  0.00    -0.082 A 
ATOM      4  C2  PXY d   1       3.553  -2.207  -1.007  0.00  0.00     0.003 A 
ATOM      5  C3  PXY d   1       3.869  -0.959  -0.536  0.00  0.00     0.003 A 
ATOM      6  C4  PXY d   1       3.077   0.117  -0.837  0.00  0.00    -0.082 A 
ATOM      7  C5  PXY d   1       1.957  -0.066  -1.567  0.00  0.00     0.003 A 
ATOM      8  C6  PXY d   1       1.632  -1.347  -2.001  0.00  0.00     0.003 A 
ENDROOT
TORSDOF 0
ENDMDL
