MODEL 1
REMARK minimizedAffinity 16.7811012
REMARK minimizedRMSD -1
REMARK  0 active torsions:
REMARK  status: ('A' for Active; 'I' for Inactive)
ROOT
ATOM      1  C4' PXY d   1       5.579  -2.026   0.406  0.00  0.00     0.077 C 
ATOM      2  C1' PXY d   1       2.761   2.546  -1.733  0.00  0.00     0.077 C 
ATOM      3  C1  PXY d   1       3.512   1.353  -1.174  0.00  0.00    -0.082 A 
ATOM      4  C2  PXY d   1       2.948   0.156  -1.198  0.00  0.00     0.003 A 
ATOM      5  C3  PXY d   1       3.599  -0.928  -0.668  0.00  0.00     0.003 A 
ATOM      6  C4  PXY d   1       4.862  -0.795  -0.156  0.00  0.00    -0.082 A 
ATOM      7  C5  PXY d   1       5.448   0.421  -0.138  0.00  0.00     0.003 A 
ATOM      8  C6  PXY d   1       4.754   1.516  -0.643  0.00  0.00     0.003 A 
ENDROOT
TORSDOF 0
ENDMDL
