MODEL 1
REMARK minimizedAffinity 4.30506659
REMARK minimizedRMSD -1
REMARK  0 active torsions:
REMARK  status: ('A' for Active; 'I' for Inactive)
ROOT
ATOM      1  C4' PXY d   1      -2.448  -6.000  -2.350  0.00  0.00     0.077 C 
ATOM      2  C1' PXY d   1      -5.962  -3.216  -6.000  0.00  0.00     0.077 C 
ATOM      3  C1  PXY d   1      -5.049  -3.957  -5.043  0.00  0.00    -0.082 A 
ATOM      4  C2  PXY d   1      -4.226  -3.273  -4.263  0.00  0.00     0.003 A 
ATOM      5  C3  PXY d   1      -3.370  -3.928  -3.415  0.00  0.00     0.003 A 
ATOM      6  C4  PXY d   1      -3.395  -5.294  -3.324  0.00  0.00    -0.082 A 
ATOM      7  C5  PXY d   1      -4.239  -5.998  -4.108  0.00  0.00     0.003 A 
ATOM      8  C6  PXY d   1      -5.070  -5.316  -4.993  0.00  0.00     0.003 A 
ENDROOT
TORSDOF 0
ENDMDL
