MODEL 1
REMARK minimizedAffinity 10.0340691
REMARK minimizedRMSD -1
REMARK  0 active torsions:
REMARK  status: ('A' for Active; 'I' for Inactive)
ROOT
ATOM      1  C4' PXY d   1       1.653   0.760   5.653  0.00  0.00     0.077 C 
ATOM      2  C1' PXY d   1      -2.884   1.023   2.081  0.00  0.00     0.077 C 
ATOM      3  C1  PXY d   1      -1.690   0.943   3.012  0.00  0.00    -0.082 A 
ATOM      4  C2  PXY d   1      -1.732   1.557   4.184  0.00  0.00     0.003 A 
ATOM      5  C3  PXY d   1      -0.649   1.522   5.024  0.00  0.00     0.003 A 
ATOM      6  C4  PXY d   1       0.468   0.806   4.685  0.00  0.00    -0.082 A 
ATOM      7  C5  PXY d   1       0.514   0.168   3.496  0.00  0.00     0.003 A 
ATOM      8  C6  PXY d   1      -0.580   0.251   2.640  0.00  0.00     0.003 A 
ENDROOT
TORSDOF 0
ENDMDL
