MODEL 1
REMARK minimizedAffinity -0.10118635
REMARK minimizedRMSD -1
REMARK  0 active torsions:
REMARK  status: ('A' for Active; 'I' for Inactive)
ROOT
ATOM      1  C4' PXY d   1       3.758  -6.000  -1.495  0.00  0.00     0.077 C 
ATOM      2  C1' PXY d   1       1.656  -0.615  -1.461  0.00  0.00     0.077 C 
ATOM      3  C1  PXY d   1       2.195  -2.032  -1.470  0.00  0.00    -0.082 A 
ATOM      4  C2  PXY d   1       3.411  -2.272  -1.006  0.00  0.00     0.003 A 
ATOM      5  C3  PXY d   1       3.926  -3.543  -1.036  0.00  0.00     0.003 A 
ATOM      6  C4  PXY d   1       3.169  -4.586  -1.497  0.00  0.00    -0.082 A 
ATOM      7  C5  PXY d   1       1.924  -4.351  -1.962  0.00  0.00     0.003 A 
ATOM      8  C6  PXY d   1       1.435  -3.048  -1.961  0.00  0.00     0.003 A 
ENDROOT
TORSDOF 0
ENDMDL
