MODEL 1
REMARK minimizedAffinity 12.7973576
REMARK minimizedRMSD -1
REMARK  0 active torsions:
REMARK  status: ('A' for Active; 'I' for Inactive)
ROOT
ATOM      1  C4' PXY d   1       1.456   1.390   2.104  0.00  0.00     0.077 C 
ATOM      2  C1' PXY d   1       1.056   5.665  -1.765  0.00  0.00     0.077 C 
ATOM      3  C1  PXY d   1       1.162   4.535  -0.760  0.00  0.00    -0.082 A 
ATOM      4  C2  PXY d   1       0.643   4.683   0.448  0.00  0.00     0.003 A 
ATOM      5  C3  PXY d   1       0.758   3.684   1.380  0.00  0.00     0.003 A 
ATOM      6  C4  PXY d   1       1.364   2.500   1.055  0.00  0.00    -0.082 A 
ATOM      7  C5  PXY d   1       1.887   2.338  -0.179  0.00  0.00     0.003 A 
ATOM      8  C6  PXY d   1       1.797   3.380  -1.097  0.00  0.00     0.003 A 
ENDROOT
TORSDOF 0
ENDMDL
