MODEL 1
REMARK minimizedAffinity 9.90952969
REMARK minimizedRMSD -1
REMARK  0 active torsions:
REMARK  status: ('A' for Active; 'I' for Inactive)
ROOT
ATOM      1  C4' PXY d   1      -1.925   0.309  -3.948  0.00  0.00     0.077 C 
ATOM      2  C1' PXY d   1      -2.057  -5.279  -2.477  0.00  0.00     0.077 C 
ATOM      3  C1  PXY d   1      -2.016  -3.811  -2.851  0.00  0.00    -0.082 A 
ATOM      4  C2  PXY d   1      -2.891  -3.333  -3.722  0.00  0.00     0.003 A 
ATOM      5  C3  PXY d   1      -2.848  -2.015  -4.096  0.00  0.00     0.003 A 
ATOM      6  C4  PXY d   1      -1.934  -1.164  -3.533  0.00  0.00    -0.082 A 
ATOM      7  C5  PXY d   1      -1.046  -1.642  -2.636  0.00  0.00     0.003 A 
ATOM      8  C6  PXY d   1      -1.080  -2.992  -2.300  0.00  0.00     0.003 A 
ENDROOT
TORSDOF 0
ENDMDL
