MODEL 1
REMARK minimizedAffinity 19.6069164
REMARK minimizedRMSD -1
REMARK  0 active torsions:
REMARK  status: ('A' for Active; 'I' for Inactive)
ROOT
ATOM      1  C4' PXY d   1       1.101  -1.149  -0.983  0.00  0.00     0.077 C 
ATOM      2  C1' PXY d   1      -3.568  -3.109  -3.771  0.00  0.00     0.077 C 
ATOM      3  C1  PXY d   1      -2.341  -2.607  -3.036  0.00  0.00    -0.082 A 
ATOM      4  C2  PXY d   1      -2.283  -1.345  -2.645  0.00  0.00     0.003 A 
ATOM      5  C3  PXY d   1      -1.168  -0.866  -2.007  0.00  0.00     0.003 A 
ATOM      6  C4  PXY d   1      -0.122  -1.702  -1.720  0.00  0.00    -0.082 A 
ATOM      7  C5  PXY d   1      -0.177  -2.994  -2.106  0.00  0.00     0.003 A 
ATOM      8  C6  PXY d   1      -1.301  -3.450  -2.789  0.00  0.00     0.003 A 
ENDROOT
TORSDOF 0
ENDMDL
