MODEL 1
REMARK minimizedAffinity 9.50183582
REMARK minimizedRMSD -1
REMARK  0 active torsions:
REMARK  status: ('A' for Active; 'I' for Inactive)
ROOT
ATOM      1  C4' PXY d   1      -4.913   2.087   3.805  0.00  0.00     0.077 C 
ATOM      2  C1' PXY d   1      -0.260  -1.004   2.318  0.00  0.00     0.077 C 
ATOM      3  C1  PXY d   1      -1.488  -0.203   2.703  0.00  0.00    -0.082 A 
ATOM      4  C2  PXY d   1      -1.396   1.110   2.840  0.00  0.00     0.003 A 
ATOM      5  C3  PXY d   1      -2.489   1.846   3.219  0.00  0.00     0.003 A 
ATOM      6  C4  PXY d   1      -3.701   1.239   3.408  0.00  0.00    -0.082 A 
ATOM      7  C5  PXY d   1      -3.806  -0.099   3.259  0.00  0.00     0.003 A 
ATOM      8  C6  PXY d   1      -2.675  -0.833   2.915  0.00  0.00     0.003 A 
ENDROOT
TORSDOF 0
ENDMDL
