MODEL 1
REMARK minimizedAffinity 15.0345297
REMARK minimizedRMSD -1
REMARK  0 active torsions:
REMARK  status: ('A' for Active; 'I' for Inactive)
ROOT
ATOM      1  C4' PXY d   1      -2.681   3.958  -5.997  0.00  0.00     0.077 C 
ATOM      2  C1' PXY d   1      -1.954  -0.718  -2.677  0.00  0.00     0.077 C 
ATOM      3  C1  PXY d   1      -2.143   0.500  -3.558  0.00  0.00    -0.082 A 
ATOM      4  C2  PXY d   1      -1.911   1.706  -3.065  0.00  0.00     0.003 A 
ATOM      5  C3  PXY d   1      -2.107   2.821  -3.839  0.00  0.00     0.003 A 
ATOM      6  C4  PXY d   1      -2.494   2.698  -5.146  0.00  0.00    -0.082 A 
ATOM      7  C5  PXY d   1      -2.723   1.471  -5.660  0.00  0.00     0.003 A 
ATOM      8  C6  PXY d   1      -2.557   0.354  -4.846  0.00  0.00     0.003 A 
ENDROOT
TORSDOF 0
ENDMDL
