MODEL 1
REMARK minimizedAffinity 9.33655262
REMARK minimizedRMSD -1
REMARK  0 active torsions:
REMARK  status: ('A' for Active; 'I' for Inactive)
ROOT
ATOM      1  C4' PXY d   1       4.134  -3.249  -4.437  0.00  0.00     0.077 C 
ATOM      2  C1' PXY d   1       1.077  -1.059  -0.047  0.00  0.00     0.077 C 
ATOM      3  C1  PXY d   1       1.885  -1.641  -1.190  0.00  0.00    -0.082 A 
ATOM      4  C2  PXY d   1       2.086  -0.922  -2.282  0.00  0.00     0.003 A 
ATOM      5  C3  PXY d   1       2.787  -1.445  -3.338  0.00  0.00     0.003 A 
ATOM      6  C4  PXY d   1       3.333  -2.698  -3.254  0.00  0.00    -0.082 A 
ATOM      7  C5  PXY d   1       3.141  -3.434  -2.139  0.00  0.00     0.003 A 
ATOM      8  C6  PXY d   1       2.392  -2.900  -1.095  0.00  0.00     0.003 A 
ENDROOT
TORSDOF 0
ENDMDL
