MODEL 1
REMARK minimizedAffinity 7.19906759
REMARK minimizedRMSD -1
REMARK  0 active torsions:
REMARK  status: ('A' for Active; 'I' for Inactive)
ROOT
ATOM      1  C4' PXY d   1      -5.179  -0.544   2.653  0.00  0.00     0.077 C 
ATOM      2  C1' PXY d   1      -0.982   3.233   3.893  0.00  0.00     0.077 C 
ATOM      3  C1  PXY d   1      -2.089   2.247   3.579  0.00  0.00    -0.082 A 
ATOM      4  C2  PXY d   1      -1.825   1.181   2.841  0.00  0.00     0.003 A 
ATOM      5  C3  PXY d   1      -2.822   0.295   2.520  0.00  0.00     0.003 A 
ATOM      6  C4  PXY d   1      -4.090   0.474   3.004  0.00  0.00    -0.082 A 
ATOM      7  C5  PXY d   1      -4.365   1.554   3.767  0.00  0.00     0.003 A 
ATOM      8  C6  PXY d   1      -3.349   2.463   4.046  0.00  0.00     0.003 A 
ENDROOT
TORSDOF 0
ENDMDL
