MODEL 1
REMARK minimizedAffinity -2.61664891
REMARK minimizedRMSD -1
REMARK  0 active torsions:
REMARK  status: ('A' for Active; 'I' for Inactive)
ROOT
ATOM      1  C4' PXY d   1       1.695  -0.939  -4.444  0.00  0.00     0.077 C 
ATOM      2  C1' PXY d   1       0.561   1.561   0.643  0.00  0.00     0.077 C 
ATOM      3  C1  PXY d   1       0.862   0.894  -0.685  0.00  0.00    -0.082 A 
ATOM      4  C2  PXY d   1       1.164   1.638  -1.737  0.00  0.00     0.003 A 
ATOM      5  C3  PXY d   1       1.407   1.053  -2.953  0.00  0.00     0.003 A 
ATOM      6  C4  PXY d   1       1.393  -0.310  -3.081  0.00  0.00    -0.082 A 
ATOM      7  C5  PXY d   1       1.097  -1.076  -2.010  0.00  0.00     0.003 A 
ATOM      8  C6  PXY d   1       0.812  -0.461  -0.795  0.00  0.00     0.003 A 
ENDROOT
TORSDOF 0
ENDMDL
