MODEL 1
REMARK minimizedAffinity 1.94594657
REMARK minimizedRMSD -1
REMARK  0 active torsions:
REMARK  status: ('A' for Active; 'I' for Inactive)
ROOT
ATOM      1  C   UNL d   1      -0.629  -0.662   3.278  0.00  0.00     0.077 C 
ATOM      2  C1  UNL d   1      -1.602  -0.362   2.177  0.00  0.00    -0.074 A 
ATOM      3  C2  UNL d   1      -2.410   0.779   2.224  0.00  0.00    -0.005 A 
ATOM      4  C3  UNL d   1      -3.304   1.050   1.189  0.00  0.00     0.006 A 
ATOM      5  C4  UNL d   1      -3.400   0.185   0.098  0.00  0.00    -0.005 A 
ATOM      6  C5  UNL d   1      -2.600  -0.960   0.034  0.00  0.00    -0.074 A 
ATOM      7  C6  UNL d   1      -2.683  -1.896  -1.136  0.00  0.00     0.077 C 
ATOM      8  C7  UNL d   1      -1.699  -1.222   1.075  0.00  0.00    -0.001 A 
ENDROOT
TORSDOF 0
ENDMDL
