MODEL 1
REMARK minimizedAffinity -0.312443882
REMARK minimizedRMSD -1
REMARK  0 active torsions:
REMARK  status: ('A' for Active; 'I' for Inactive)
ROOT
ATOM      1  C   UNL d   1       0.300  -4.600  -5.818  0.00  0.00     0.077 C 
ATOM      2  C1  UNL d   1      -0.001  -3.365  -5.024  0.00  0.00    -0.074 A 
ATOM      3  C2  UNL d   1      -0.203  -3.430  -3.642  0.00  0.00    -0.005 A 
ATOM      4  C3  UNL d   1      -0.473  -2.271  -2.914  0.00  0.00     0.006 A 
ATOM      5  C4  UNL d   1      -0.545  -1.037  -3.561  0.00  0.00    -0.005 A 
ATOM      6  C5  UNL d   1      -0.345  -0.951  -4.943  0.00  0.00    -0.074 A 
ATOM      7  C6  UNL d   1      -0.408   0.369  -5.652  0.00  0.00     0.077 C 
ATOM      8  C7  UNL d   1      -0.067  -2.120  -5.665  0.00  0.00    -0.001 A 
ENDROOT
TORSDOF 0
ENDMDL
