MODEL 1
REMARK minimizedAffinity 8.35978031
REMARK minimizedRMSD -1
REMARK  0 active torsions:
REMARK  status: ('A' for Active; 'I' for Inactive)
ROOT
ATOM      1  C   UNL d   1      -1.434  -1.131  -5.434  0.00  0.00     0.077 C 
ATOM      2  C1  UNL d   1       0.019  -1.124  -5.062  0.00  0.00    -0.074 A 
ATOM      3  C2  UNL d   1       0.950  -0.401  -5.815  0.00  0.00    -0.005 A 
ATOM      4  C3  UNL d   1       2.296  -0.396  -5.451  0.00  0.00     0.006 A 
ATOM      5  C4  UNL d   1       2.725  -1.113  -4.333  0.00  0.00    -0.005 A 
ATOM      6  C5  UNL d   1       1.808  -1.841  -3.567  0.00  0.00    -0.074 A 
ATOM      7  C6  UNL d   1       2.250  -2.608  -2.357  0.00  0.00     0.077 C 
ATOM      8  C7  UNL d   1       0.456  -1.835  -3.935  0.00  0.00    -0.001 A 
ENDROOT
TORSDOF 0
ENDMDL
