MODEL 1
REMARK minimizedAffinity -1.87396884
REMARK minimizedRMSD -1
REMARK  0 active torsions:
REMARK  status: ('A' for Active; 'I' for Inactive)
ROOT
ATOM      1  C   UNL d   1       4.035  -0.396  -5.912  0.00  0.00     0.077 C 
ATOM      2  C1  UNL d   1       2.703  -0.821  -5.368  0.00  0.00    -0.074 A 
ATOM      3  C2  UNL d   1       1.514  -0.324  -5.909  0.00  0.00    -0.005 A 
ATOM      4  C3  UNL d   1       0.283  -0.736  -5.400  0.00  0.00     0.006 A 
ATOM      5  C4  UNL d   1       0.229  -1.648  -4.345  0.00  0.00    -0.005 A 
ATOM      6  C5  UNL d   1       1.408  -2.157  -3.792  0.00  0.00    -0.074 A 
ATOM      7  C6  UNL d   1       1.368  -3.146  -2.665  0.00  0.00     0.077 C 
ATOM      8  C7  UNL d   1       2.641  -1.744  -4.314  0.00  0.00    -0.001 A 
ENDROOT
TORSDOF 0
ENDMDL
