MODEL 1
REMARK minimizedAffinity -0.425802529
REMARK minimizedRMSD -1
REMARK  0 active torsions:
REMARK  status: ('A' for Active; 'I' for Inactive)
ROOT
ATOM      1  C   UNL d   1       1.545   1.228   1.715  0.00  0.00     0.077 C 
ATOM      2  C1  UNL d   1       0.629   0.089   2.051  0.00  0.00    -0.074 A 
ATOM      3  C2  UNL d   1       1.140  -1.147   2.462  0.00  0.00    -0.005 A 
ATOM      4  C3  UNL d   1       0.276  -2.194   2.780  0.00  0.00     0.006 A 
ATOM      5  C4  UNL d   1      -1.105  -2.018   2.690  0.00  0.00    -0.005 A 
ATOM      6  C5  UNL d   1      -1.635  -0.790   2.281  0.00  0.00    -0.074 A 
ATOM      7  C6  UNL d   1      -3.117  -0.580   2.188  0.00  0.00     0.077 C 
ATOM      8  C7  UNL d   1      -0.760   0.260   1.970  0.00  0.00    -0.001 A 
ENDROOT
TORSDOF 0
ENDMDL
