MODEL 1
REMARK minimizedAffinity 6.1513567
REMARK minimizedRMSD -1
REMARK  0 active torsions:
REMARK  status: ('A' for Active; 'I' for Inactive)
ROOT
ATOM      1  C   UNL d   1      -0.450   1.383   1.609  0.00  0.00     0.077 C 
ATOM      2  C1  UNL d   1      -0.084  -0.006   2.043  0.00  0.00    -0.074 A 
ATOM      3  C2  UNL d   1      -0.889  -1.099   1.707  0.00  0.00    -0.005 A 
ATOM      4  C3  UNL d   1      -0.530  -2.386   2.110  0.00  0.00     0.006 A 
ATOM      5  C4  UNL d   1       0.634  -2.591   2.852  0.00  0.00    -0.005 A 
ATOM      6  C5  UNL d   1       1.451  -1.510   3.196  0.00  0.00    -0.074 A 
ATOM      7  C6  UNL d   1       2.710  -1.715   3.984  0.00  0.00     0.077 C 
ATOM      8  C7  UNL d   1       1.088  -0.221   2.782  0.00  0.00    -0.001 A 
ENDROOT
TORSDOF 0
ENDMDL
