MODEL 1
REMARK minimizedAffinity 3.43513083
REMARK minimizedRMSD -1
REMARK  0 active torsions:
REMARK  status: ('A' for Active; 'I' for Inactive)
ROOT
ATOM      1  C   UNL d   1       1.785  -0.762   6.000  0.00  0.00     0.077 C 
ATOM      2  C1  UNL d   1       1.389  -1.062   4.585  0.00  0.00    -0.074 A 
ATOM      3  C2  UNL d   1       2.347  -1.118   3.567  0.00  0.00    -0.005 A 
ATOM      4  C3  UNL d   1       1.965  -1.408   2.257  0.00  0.00     0.006 A 
ATOM      5  C4  UNL d   1       0.624  -1.643   1.952  0.00  0.00    -0.005 A 
ATOM      6  C5  UNL d   1      -0.347  -1.592   2.956  0.00  0.00    -0.074 A 
ATOM      7  C6  UNL d   1      -1.792  -1.852   2.647  0.00  0.00     0.077 C 
ATOM      8  C7  UNL d   1       0.045  -1.307   4.271  0.00  0.00    -0.001 A 
ENDROOT
TORSDOF 0
ENDMDL
