MODEL 1
REMARK minimizedAffinity 2.53327012
REMARK minimizedRMSD -1
REMARK  0 active torsions:
REMARK  status: ('A' for Active; 'I' for Inactive)
ROOT
ATOM      1  C   UNL d   1      -1.821  -0.999   2.056  0.00  0.00     0.077 C 
ATOM      2  C1  UNL d   1      -0.443  -1.212   2.608  0.00  0.00    -0.074 A 
ATOM      3  C2  UNL d   1       0.628  -1.526   1.765  0.00  0.00    -0.005 A 
ATOM      4  C3  UNL d   1       1.906  -1.711   2.292  0.00  0.00     0.006 A 
ATOM      5  C4  UNL d   1       2.126  -1.585   3.664  0.00  0.00    -0.005 A 
ATOM      6  C5  UNL d   1       1.068  -1.270   4.522  0.00  0.00    -0.074 A 
ATOM      7  C6  UNL d   1       1.288  -1.120   5.998  0.00  0.00     0.077 C 
ATOM      8  C7  UNL d   1      -0.213  -1.078   3.984  0.00  0.00    -0.001 A 
ENDROOT
TORSDOF 0
ENDMDL
