MODEL 1
REMARK minimizedAffinity -0.271143287
REMARK minimizedRMSD -1
REMARK  0 active torsions:
REMARK  status: ('A' for Active; 'I' for Inactive)
ROOT
ATOM      1  C   UNL d   1       1.843  -1.516   3.716  0.00  0.00     0.077 C 
ATOM      2  C1  UNL d   1       0.643  -0.999   2.979  0.00  0.00    -0.074 A 
ATOM      3  C2  UNL d   1       0.758   0.060   2.072  0.00  0.00    -0.005 A 
ATOM      4  C3  UNL d   1      -0.365   0.523   1.387  0.00  0.00     0.006 A 
ATOM      5  C4  UNL d   1      -1.611  -0.067   1.600  0.00  0.00    -0.005 A 
ATOM      6  C5  UNL d   1      -1.745  -1.127   2.501  0.00  0.00    -0.074 A 
ATOM      7  C6  UNL d   1      -3.076  -1.779   2.734  0.00  0.00     0.077 C 
ATOM      8  C7  UNL d   1      -0.611  -1.592   3.181  0.00  0.00    -0.001 A 
ENDROOT
TORSDOF 0
ENDMDL
