MODEL 1
REMARK minimizedAffinity 7.79000282
REMARK minimizedRMSD -1
REMARK  0 active torsions:
REMARK  status: ('A' for Active; 'I' for Inactive)
ROOT
ATOM      1  C   UNL d   1       2.214  -0.020  -5.612  0.00  0.00     0.077 C 
ATOM      2  C1  UNL d   1       0.864  -0.541  -5.218  0.00  0.00    -0.074 A 
ATOM      3  C2  UNL d   1       0.739  -1.662  -4.391  0.00  0.00    -0.005 A 
ATOM      4  C3  UNL d   1      -0.523  -2.129  -4.025  0.00  0.00     0.006 A 
ATOM      5  C4  UNL d   1      -1.672  -1.482  -4.482  0.00  0.00    -0.005 A 
ATOM      6  C5  UNL d   1      -1.567  -0.359  -5.310  0.00  0.00    -0.074 A 
ATOM      7  C6  UNL d   1      -2.791   0.354  -5.802  0.00  0.00     0.077 C 
ATOM      8  C7  UNL d   1      -0.295   0.108  -5.667  0.00  0.00    -0.001 A 
ENDROOT
TORSDOF 0
ENDMDL
