MODEL 1
REMARK minimizedAffinity -1.73848343
REMARK minimizedRMSD -1
REMARK  0 active torsions:
REMARK  status: ('A' for Active; 'I' for Inactive)
ROOT
ATOM      1  C   UNL d   1      -4.120  -0.914  -0.936  0.00  0.00     0.077 C 
ATOM      2  C1  UNL d   1      -2.842  -0.840  -0.155  0.00  0.00    -0.074 A 
ATOM      3  C2  UNL d   1      -1.662  -1.400  -0.654  0.00  0.00    -0.005 A 
ATOM      4  C3  UNL d   1      -0.478  -1.315   0.080  0.00  0.00     0.006 A 
ATOM      5  C4  UNL d   1      -0.463  -0.671   1.318  0.00  0.00    -0.005 A 
ATOM      6  C5  UNL d   1      -1.634  -0.105   1.833  0.00  0.00    -0.074 A 
ATOM      7  C6  UNL d   1      -1.633   0.599   3.157  0.00  0.00     0.077 C 
ATOM      8  C7  UNL d   1      -2.817  -0.188   1.086  0.00  0.00    -0.001 A 
ENDROOT
TORSDOF 0
ENDMDL
