MODEL 1
REMARK minimizedAffinity -2.41414022
REMARK minimizedRMSD -1
REMARK  0 active torsions:
REMARK  status: ('A' for Active; 'I' for Inactive)
ROOT
ATOM      1  C   UNL d   1      -1.105   0.909   3.778  0.00  0.00     0.077 C 
ATOM      2  C1  UNL d   1      -1.552   0.272   2.496  0.00  0.00    -0.074 A 
ATOM      3  C2  UNL d   1      -0.764  -0.691   1.858  0.00  0.00    -0.005 A 
ATOM      4  C3  UNL d   1      -1.197  -1.281   0.671  0.00  0.00     0.006 A 
ATOM      5  C4  UNL d   1      -2.421  -0.915   0.110  0.00  0.00    -0.005 A 
ATOM      6  C5  UNL d   1      -3.224   0.046   0.734  0.00  0.00    -0.074 A 
ATOM      7  C6  UNL d   1      -4.547   0.444   0.150  0.00  0.00     0.077 C 
ATOM      8  C7  UNL d   1      -2.785   0.629   1.930  0.00  0.00    -0.001 A 
ENDROOT
TORSDOF 0
ENDMDL
