MODEL 1
REMARK minimizedAffinity 2.62073493
REMARK minimizedRMSD -1
REMARK  1 active torsions:
REMARK  status: ('A' for Active; 'I' for Inactive)
REMARK    1  A    between atoms: C1_2  and  C2_3 
ROOT
ATOM      1  C2  UNL d   1       0.380   2.722   1.755  0.00  0.00    -0.077 A 
ATOM      2  C3  UNL d   1       0.676   1.354   1.827  0.00  0.00     0.002 A 
ATOM      3  C4  UNL d   1       0.145   0.466   0.890  0.00  0.00     0.002 A 
ATOM      4  C5  UNL d   1      -0.682   0.936  -0.128  0.00  0.00    -0.004 A 
ATOM      5  C6  UNL d   1      -0.984   2.295  -0.207  0.00  0.00     0.002 A 
ATOM      6  C7  UNL d   1      -0.455   3.184   0.729  0.00  0.00     0.002 A 
ENDROOT
BRANCH   1   7
ATOM      7  C1  UNL d   1       0.991   3.689   2.735  0.00  0.00     0.055 C 
ATOM      8  C   UNL d   1       1.665   2.958   3.887  0.00  0.00     0.019 C 
ENDBRANCH   1   7
TORSDOF 1
ENDMDL
