MODEL 1
REMARK minimizedAffinity 0.19838123
REMARK minimizedRMSD -1
REMARK  1 active torsions:
REMARK  status: ('A' for Active; 'I' for Inactive)
REMARK    1  A    between atoms: C1_2  and  C2_3 
ROOT
ATOM      1  C2  UNL d   1      -4.014   3.008  -4.476  0.00  0.00    -0.077 A 
ATOM      2  C3  UNL d   1      -3.305   1.972  -3.853  0.00  0.00     0.002 A 
ATOM      3  C4  UNL d   1      -1.915   2.034  -3.743  0.00  0.00     0.002 A 
ATOM      4  C5  UNL d   1      -1.223   3.132  -4.249  0.00  0.00    -0.004 A 
ATOM      5  C6  UNL d   1      -1.919   4.168  -4.872  0.00  0.00     0.002 A 
ATOM      6  C7  UNL d   1      -3.308   4.106  -4.984  0.00  0.00     0.002 A 
ENDROOT
BRANCH   1   7
ATOM      7  C1  UNL d   1      -5.518   2.966  -4.552  0.00  0.00     0.055 C 
ATOM      8  C   UNL d   1      -5.999   2.958  -5.996  0.00  0.00     0.019 C 
ENDBRANCH   1   7
TORSDOF 1
ENDMDL
