MODEL 1
REMARK minimizedAffinity 4.01177692
REMARK minimizedRMSD -1
REMARK  1 active torsions:
REMARK  status: ('A' for Active; 'I' for Inactive)
REMARK    1  A    between atoms: C1_2  and  C2_3 
ROOT
ATOM      1  C2  UNL d   1      -4.102   2.834  -4.005  0.00  0.00    -0.077 A 
ATOM      2  C3  UNL d   1      -4.623   1.539  -4.134  0.00  0.00     0.002 A 
ATOM      3  C4  UNL d   1      -5.567   1.252  -5.123  0.00  0.00     0.002 A 
ATOM      4  C5  UNL d   1      -5.994   2.255  -5.991  0.00  0.00    -0.004 A 
ATOM      5  C6  UNL d   1      -5.484   3.546  -5.869  0.00  0.00     0.002 A 
ATOM      6  C7  UNL d   1      -4.541   3.834  -4.881  0.00  0.00     0.002 A 
ENDROOT
BRANCH   1   7
ATOM      7  C1  UNL d   1      -3.047   3.133  -2.972  0.00  0.00     0.055 C 
ATOM      8  C   UNL d   1      -2.644   1.877  -2.213  0.00  0.00     0.019 C 
ENDBRANCH   1   7
TORSDOF 1
ENDMDL
