MODEL 1
REMARK minimizedAffinity 2.18450499
REMARK minimizedRMSD -1
REMARK  1 active torsions:
REMARK  status: ('A' for Active; 'I' for Inactive)
REMARK    1  A    between atoms: C1_2  and  C2_3 
ROOT
ATOM      1  C2  UNL d   1       0.042   2.245   1.208  0.00  0.00    -0.077 A 
ATOM      2  C3  UNL d   1      -0.318   2.412  -0.137  0.00  0.00     0.002 A 
ATOM      3  C4  UNL d   1      -0.531   1.300  -0.954  0.00  0.00     0.002 A 
ATOM      4  C5  UNL d   1      -0.390   0.014  -0.435  0.00  0.00    -0.004 A 
ATOM      5  C6  UNL d   1      -0.031  -0.162   0.900  0.00  0.00     0.002 A 
ATOM      6  C7  UNL d   1       0.183   0.948   1.719  0.00  0.00     0.002 A 
ENDROOT
BRANCH   1   7
ATOM      7  C1  UNL d   1       0.223   3.442   2.104  0.00  0.00     0.055 C 
ATOM      8  C   UNL d   1       0.881   4.595   1.360  0.00  0.00     0.019 C 
ENDBRANCH   1   7
TORSDOF 1
ENDMDL
