MODEL 1
REMARK minimizedAffinity 3.22026277
REMARK minimizedRMSD -1
REMARK  1 active torsions:
REMARK  status: ('A' for Active; 'I' for Inactive)
REMARK    1  A    between atoms: C1_2  and  C2_3 
ROOT
ATOM      1  C2  UNL d   1       0.182   1.488  -0.795  0.00  0.00    -0.077 A 
ATOM      2  C3  UNL d   1       0.674   0.312  -0.211  0.00  0.00     0.002 A 
ATOM      3  C4  UNL d   1       0.930   0.259   1.161  0.00  0.00     0.002 A 
ATOM      4  C5  UNL d   1       0.692   1.376   1.960  0.00  0.00    -0.004 A 
ATOM      5  C6  UNL d   1       0.204   2.550   1.388  0.00  0.00     0.002 A 
ATOM      6  C7  UNL d   1      -0.051   2.605   0.017  0.00  0.00     0.002 A 
ENDROOT
BRANCH   1   7
ATOM      7  C1  UNL d   1      -0.142   1.532  -2.266  0.00  0.00     0.055 C 
ATOM      8  C   UNL d   1       1.053   1.108  -3.108  0.00  0.00     0.019 C 
ENDBRANCH   1   7
TORSDOF 1
ENDMDL
