MODEL 1
REMARK minimizedAffinity 7.13218641
REMARK minimizedRMSD -1
REMARK  1 active torsions:
REMARK  status: ('A' for Active; 'I' for Inactive)
REMARK    1  A    between atoms: C1_2  and  C2_3 
ROOT
ATOM      1  C2  UNL d   1       0.128   2.226   1.063  0.00  0.00    -0.077 A 
ATOM      2  C3  UNL d   1       0.700   1.047   1.560  0.00  0.00     0.002 A 
ATOM      3  C4  UNL d   1       0.584  -0.149   0.848  0.00  0.00     0.002 A 
ATOM      4  C5  UNL d   1      -0.100  -0.176  -0.365  0.00  0.00    -0.004 A 
ATOM      5  C6  UNL d   1      -0.675   0.991  -0.867  0.00  0.00     0.002 A 
ATOM      6  C7  UNL d   1      -0.560   2.187  -0.156  0.00  0.00     0.002 A 
ENDROOT
BRANCH   1   7
ATOM      7  C1  UNL d   1       0.295   3.527   1.805  0.00  0.00     0.055 C 
ATOM      8  C   UNL d   1       1.144   3.347   3.054  0.00  0.00     0.019 C 
ENDBRANCH   1   7
TORSDOF 1
ENDMDL
