MODEL 1
REMARK minimizedAffinity 1.77459109
REMARK minimizedRMSD -1
REMARK  1 active torsions:
REMARK  status: ('A' for Active; 'I' for Inactive)
REMARK    1  A    between atoms: C1_2  and  C2_3 
ROOT
ATOM      1  C2  UNL d   1      -4.846   1.675  -5.100  0.00  0.00    -0.077 A 
ATOM      2  C3  UNL d   1      -5.996   2.349  -5.534  0.00  0.00     0.002 A 
ATOM      3  C4  UNL d   1      -5.916   3.671  -5.976  0.00  0.00     0.002 A 
ATOM      4  C5  UNL d   1      -4.687   4.328  -5.992  0.00  0.00    -0.004 A 
ATOM      5  C6  UNL d   1      -3.538   3.667  -5.560  0.00  0.00     0.002 A 
ATOM      6  C7  UNL d   1      -3.617   2.346  -5.117  0.00  0.00     0.002 A 
ENDROOT
BRANCH   1   7
ATOM      7  C1  UNL d   1      -4.923   0.233  -4.669  0.00  0.00     0.055 C 
ATOM      8  C   UNL d   1      -5.692   0.085  -3.364  0.00  0.00     0.019 C 
ENDBRANCH   1   7
TORSDOF 1
ENDMDL
