MODEL 1
REMARK minimizedAffinity 6.23149252
REMARK minimizedRMSD -1
REMARK  1 active torsions:
REMARK  status: ('A' for Active; 'I' for Inactive)
REMARK    1  A    between atoms: C1_2  and  C2_3 
ROOT
ATOM      1  C2  UNL d   1      -5.345   0.554  -4.247  0.00  0.00    -0.077 A 
ATOM      2  C3  UNL d   1      -4.644   1.579  -3.597  0.00  0.00     0.002 A 
ATOM      3  C4  UNL d   1      -4.598   2.862  -4.146  0.00  0.00     0.002 A 
ATOM      4  C5  UNL d   1      -5.256   3.133  -5.345  0.00  0.00    -0.004 A 
ATOM      5  C6  UNL d   1      -5.954   2.120  -6.000  0.00  0.00     0.002 A 
ATOM      6  C7  UNL d   1      -6.000   0.836  -5.453  0.00  0.00     0.002 A 
ENDROOT
BRANCH   1   7
ATOM      7  C1  UNL d   1      -5.437  -0.818  -3.632  0.00  0.00     0.055 C 
ATOM      8  C   UNL d   1      -5.999  -0.754  -2.219  0.00  0.00     0.019 C 
ENDBRANCH   1   7
TORSDOF 1
ENDMDL
