MODEL 1
REMARK minimizedAffinity -0.361417562
REMARK minimizedRMSD -1
REMARK  1 active torsions:
REMARK  status: ('A' for Active; 'I' for Inactive)
REMARK    1  A    between atoms: C1_2  and  C2_3 
ROOT
ATOM      1  C2  UNL d   1      -3.592   3.703  -5.525  0.00  0.00    -0.077 A 
ATOM      2  C3  UNL d   1      -4.812   4.203  -6.000  0.00  0.00     0.002 A 
ATOM      3  C4  UNL d   1      -5.998   3.500  -5.777  0.00  0.00     0.002 A 
ATOM      4  C5  UNL d   1      -5.976   2.297  -5.076  0.00  0.00    -0.004 A 
ATOM      5  C6  UNL d   1      -4.767   1.790  -4.601  0.00  0.00     0.002 A 
ATOM      6  C7  UNL d   1      -3.580   2.490  -4.824  0.00  0.00     0.002 A 
ENDROOT
BRANCH   1   7
ATOM      7  C1  UNL d   1      -2.319   4.483  -5.721  0.00  0.00     0.055 C 
ATOM      8  C   UNL d   1      -1.499   4.537  -4.440  0.00  0.00     0.019 C 
ENDBRANCH   1   7
TORSDOF 1
ENDMDL
