MODEL 1
REMARK minimizedAffinity 5.85875988
REMARK minimizedRMSD -1
REMARK  1 active torsions:
REMARK  status: ('A' for Active; 'I' for Inactive)
REMARK    1  A    between atoms: C1_2  and  C2_3 
ROOT
ATOM      1  C2  UNL d   1       1.136  -0.254   0.256  0.00  0.00    -0.077 A 
ATOM      2  C3  UNL d   1       1.262   0.679  -0.782  0.00  0.00     0.002 A 
ATOM      3  C4  UNL d   1       0.746   1.968  -0.639  0.00  0.00     0.002 A 
ATOM      4  C5  UNL d   1       0.105   2.337   0.541  0.00  0.00    -0.004 A 
ATOM      5  C6  UNL d   1      -0.026   1.416   1.580  0.00  0.00     0.002 A 
ATOM      6  C7  UNL d   1       0.487   0.126   1.438  0.00  0.00     0.002 A 
ENDROOT
BRANCH   1   7
ATOM      7  C1  UNL d   1       1.735  -1.630   0.123  0.00  0.00     0.055 C 
ATOM      8  C   UNL d   1       0.720  -2.626  -0.419  0.00  0.00     0.019 C 
ENDBRANCH   1   7
TORSDOF 1
ENDMDL
