MODEL 1
REMARK minimizedAffinity -3.14724445
REMARK minimizedRMSD -1
REMARK  2 active torsions:
REMARK  status: ('A' for Active; 'I' for Inactive)
REMARK    1  A    between atoms: C2'_3  and  C1'_4 
REMARK    2  A    between atoms: C1'_4  and  C1_5 
ROOT
ATOM      1  C1  I4B d   1       0.950   0.153   0.634  0.00  0.00    -0.075 A 
ATOM      2  C2  I4B d   1       1.755  -0.920   0.341  0.00  0.00     0.003 A 
ATOM      3  C3  I4B d   1       1.303  -1.929  -0.545  0.00  0.00     0.002 A 
ATOM      4  C4  I4B d   1       0.030  -1.851  -1.071  0.00  0.00    -0.004 A 
ATOM      5  C5  I4B d   1      -0.775  -0.751  -0.791  0.00  0.00     0.002 A 
ATOM      6  C6  I4B d   1      -0.308   0.264   0.057  0.00  0.00     0.003 A 
ENDROOT
BRANCH   1   7
ATOM      7  C1' I4B d   1       1.446   1.183   1.599  0.00  0.00     0.060 C 
BRANCH   7   8
ATOM      8  C2' I4B d   1       2.179   2.248   0.809  0.00  0.00    -0.013 C 
ATOM      9  C4' I4B d   1       1.236   3.322   0.336  0.00  0.00     0.013 C 
ATOM     10  C3' I4B d   1       3.253   2.818   1.687  0.00  0.00     0.013 C 
ENDBRANCH   7   8
ENDBRANCH   1   7
TORSDOF 2
ENDMDL
