MODEL 1
REMARK minimizedAffinity -3.60199523
REMARK minimizedRMSD -1
REMARK  1 active torsions:
REMARK  status: ('A' for Active; 'I' for Inactive)
REMARK    1  A    between atoms: C1_2  and  C2_3 
ROOT
ATOM      1  C2  UNL d   1      -0.009   0.057  -1.369  0.00  0.00    -0.081 A 
ATOM      2  C3  UNL d   1      -0.828   0.274  -0.255  0.00  0.00     0.006 A 
ATOM      3  C4  UNL d   1      -0.329   0.094   1.037  0.00  0.00     0.002 A 
ATOM      4  C5  UNL d   1       0.999  -0.298   1.237  0.00  0.00    -0.080 A 
ATOM      5  C6  UNL d   1       1.556  -0.465   2.619  0.00  0.00     0.076 C 
ATOM      6  C7  UNL d   1       1.813  -0.532   0.123  0.00  0.00     0.002 A 
ATOM      7  C8  UNL d   1       1.314  -0.353  -1.169  0.00  0.00     0.006 A 
ENDROOT
BRANCH   1   8
ATOM      8  C1  UNL d   1      -0.525   0.313  -2.762  0.00  0.00     0.054 C 
ATOM      9  C   UNL d   1      -1.297   1.622  -2.834  0.00  0.00     0.018 C 
ENDBRANCH   1   8
TORSDOF 1
ENDMDL
