MODEL 1
REMARK minimizedAffinity 0.652097166
REMARK minimizedRMSD -1
REMARK  1 active torsions:
REMARK  status: ('A' for Active; 'I' for Inactive)
REMARK    1  A    between atoms: C1_2  and  C2_3 
ROOT
ATOM      1  C2  UNL d   1      -0.514   1.648  -1.018  0.00  0.00    -0.081 A 
ATOM      2  C3  UNL d   1      -1.195   1.984   0.159  0.00  0.00     0.006 A 
ATOM      3  C4  UNL d   1      -1.176   1.122   1.258  0.00  0.00     0.002 A 
ATOM      4  C5  UNL d   1      -0.471  -0.085   1.202  0.00  0.00    -0.080 A 
ATOM      5  C6  UNL d   1      -0.418  -1.004   2.385  0.00  0.00     0.076 C 
ATOM      6  C7  UNL d   1       0.194  -0.428   0.020  0.00  0.00     0.002 A 
ATOM      7  C8  UNL d   1       0.175   0.432  -1.079  0.00  0.00     0.006 A 
ENDROOT
BRANCH   1   8
ATOM      8  C1  UNL d   1      -0.479   2.605  -2.183  0.00  0.00     0.054 C 
ATOM      9  C   UNL d   1      -1.831   3.270  -2.393  0.00  0.00     0.018 C 
ENDBRANCH   1   8
TORSDOF 1
ENDMDL
