MODEL 1
REMARK minimizedAffinity 0.903319836
REMARK minimizedRMSD -1
REMARK  1 active torsions:
REMARK  status: ('A' for Active; 'I' for Inactive)
REMARK    1  A    between atoms: C1_2  and  C2_3 
ROOT
ATOM      1  C2  UNL d   1       0.400   3.290  -1.518  0.00  0.00    -0.081 A 
ATOM      2  C3  UNL d   1       0.216   2.329  -2.519  0.00  0.00     0.006 A 
ATOM      3  C4  UNL d   1       0.566   2.608  -3.842  0.00  0.00     0.002 A 
ATOM      4  C5  UNL d   1       1.113   3.849  -4.185  0.00  0.00    -0.080 A 
ATOM      5  C6  UNL d   1       1.522   4.151  -5.596  0.00  0.00     0.076 C 
ATOM      6  C7  UNL d   1       1.281   4.816  -3.188  0.00  0.00     0.002 A 
ATOM      7  C8  UNL d   1       0.931   4.538  -1.865  0.00  0.00     0.006 A 
ENDROOT
BRANCH   1   8
ATOM      8  C1  UNL d   1       0.084   2.969  -0.079  0.00  0.00     0.054 C 
ATOM      9  C   UNL d   1       0.184   1.474   0.189  0.00  0.00     0.018 C 
ENDBRANCH   1   8
TORSDOF 1
ENDMDL
