MODEL 1
REMARK minimizedAffinity -4.71530819
REMARK minimizedRMSD -1
REMARK  1 active torsions:
REMARK  status: ('A' for Active; 'I' for Inactive)
REMARK    1  A    between atoms: C1_2  and  C2_3 
ROOT
ATOM      1  C2  UNL d   1      -0.550   1.143  -0.977  0.00  0.00    -0.081 A 
ATOM      2  C3  UNL d   1       0.345   0.070  -1.074  0.00  0.00     0.006 A 
ATOM      3  C4  UNL d   1       0.674  -0.682   0.057  0.00  0.00     0.002 A 
ATOM      4  C5  UNL d   1       0.109  -0.379   1.300  0.00  0.00    -0.080 A 
ATOM      5  C6  UNL d   1       0.431  -1.197   2.515  0.00  0.00     0.076 C 
ATOM      6  C7  UNL d   1      -0.771   0.704   1.401  0.00  0.00     0.002 A 
ATOM      7  C8  UNL d   1      -1.100   1.456   0.271  0.00  0.00     0.006 A 
ENDROOT
BRANCH   1   8
ATOM      8  C1  UNL d   1      -0.957   1.915  -2.205  0.00  0.00     0.054 C 
ATOM      9  C   UNL d   1      -0.350   3.311  -2.208  0.00  0.00     0.018 C 
ENDBRANCH   1   8
TORSDOF 1
ENDMDL
