MODEL 1
REMARK minimizedAffinity -1.24883759
REMARK minimizedRMSD -1
REMARK  1 active torsions:
REMARK  status: ('A' for Active; 'I' for Inactive)
REMARK    1  A    between atoms: C1_2  and  C2_3 
ROOT
ATOM      1  C2  UNL d   1       0.001   0.095  -0.853  0.00  0.00    -0.081 A 
ATOM      2  C3  UNL d   1       1.106  -0.764  -0.821  0.00  0.00     0.006 A 
ATOM      3  C4  UNL d   1       1.542  -1.313   0.388  0.00  0.00     0.002 A 
ATOM      4  C5  UNL d   1       0.876  -1.018   1.582  0.00  0.00    -0.080 A 
ATOM      5  C6  UNL d   1       1.316  -1.623   2.882  0.00  0.00     0.076 C 
ATOM      6  C7  UNL d   1      -0.217  -0.146   1.553  0.00  0.00     0.002 A 
ATOM      7  C8  UNL d   1      -0.653   0.403   0.345  0.00  0.00     0.006 A 
ENDROOT
BRANCH   1   8
ATOM      8  C1  UNL d   1      -0.511   0.636  -2.163  0.00  0.00     0.054 C 
ATOM      9  C   UNL d   1      -0.760   2.135  -2.083  0.00  0.00     0.018 C 
ENDBRANCH   1   8
TORSDOF 1
ENDMDL
