MODEL 1
REMARK minimizedAffinity -1.77678895
REMARK minimizedRMSD -1
REMARK  1 active torsions:
REMARK  status: ('A' for Active; 'I' for Inactive)
REMARK    1  A    between atoms: C1_2  and  C2_3 
ROOT
ATOM      1  C2  UNL d   1      -0.397   1.770  -1.994  0.00  0.00    -0.081 A 
ATOM      2  C3  UNL d   1      -0.194   2.261  -0.698  0.00  0.00     0.006 A 
ATOM      3  C4  UNL d   1       0.169   1.397   0.337  0.00  0.00     0.002 A 
ATOM      4  C5  UNL d   1       0.342   0.030   0.093  0.00  0.00    -0.080 A 
ATOM      5  C6  UNL d   1       0.761  -0.904   1.190  0.00  0.00     0.076 C 
ATOM      6  C7  UNL d   1       0.122  -0.463  -1.197  0.00  0.00     0.002 A 
ATOM      7  C8  UNL d   1      -0.241   0.400  -2.233  0.00  0.00     0.006 A 
ENDROOT
BRANCH   1   8
ATOM      8  C1  UNL d   1      -0.725   2.710  -3.127  0.00  0.00     0.054 C 
ATOM      9  C   UNL d   1      -2.229   2.832  -3.326  0.00  0.00     0.018 C 
ENDBRANCH   1   8
TORSDOF 1
ENDMDL
