MODEL 1
REMARK minimizedAffinity 7.1445322
REMARK minimizedRMSD -1
REMARK  1 active torsions:
REMARK  status: ('A' for Active; 'I' for Inactive)
REMARK    1  A    between atoms: C1_2  and  C2_3 
ROOT
ATOM      1  C2  UNL d   1       1.969  -1.383   1.563  0.00  0.00    -0.081 A 
ATOM      2  C3  UNL d   1       0.707  -1.324   0.958  0.00  0.00     0.006 A 
ATOM      3  C4  UNL d   1       0.543  -0.692  -0.277  0.00  0.00     0.002 A 
ATOM      4  C5  UNL d   1       1.638  -0.116  -0.931  0.00  0.00    -0.080 A 
ATOM      5  C6  UNL d   1       1.481   0.538  -2.271  0.00  0.00     0.076 C 
ATOM      6  C7  UNL d   1       2.895  -0.160  -0.318  0.00  0.00     0.002 A 
ATOM      7  C8  UNL d   1       3.059  -0.791   0.917  0.00  0.00     0.006 A 
ENDROOT
BRANCH   1   8
ATOM      8  C1  UNL d   1       2.161  -2.120   2.864  0.00  0.00     0.054 C 
ATOM      9  C   UNL d   1       1.413  -3.446   2.864  0.00  0.00     0.018 C 
ENDBRANCH   1   8
TORSDOF 1
ENDMDL
