MODEL 1
REMARK minimizedAffinity 4.55488396
REMARK minimizedRMSD -1
REMARK  0 active torsions:
REMARK  status: ('A' for Active; 'I' for Inactive)
ROOT
ATOM      1  C   UNL d   1       0.693   2.722   2.109  0.00  0.00     0.077 C 
ATOM      2  C1  UNL d   1       0.297   3.029   0.695  0.00  0.00    -0.074 A 
ATOM      3  C2  UNL d   1       0.661   4.237   0.092  0.00  0.00    -0.005 A 
ATOM      4  C3  UNL d   1       0.293   4.504  -1.226  0.00  0.00     0.006 A 
ATOM      5  C4  UNL d   1      -0.441   3.567  -1.955  0.00  0.00    -0.005 A 
ATOM      6  C5  UNL d   1      -0.813   2.353  -1.369  0.00  0.00    -0.074 A 
ATOM      7  C6  UNL d   1      -1.593   1.331  -2.141  0.00  0.00     0.077 C 
ATOM      8  C7  UNL d   1      -0.434   2.089  -0.046  0.00  0.00    -0.001 A 
ENDROOT
TORSDOF 0
ENDMDL
