MODEL 1
REMARK minimizedAffinity 7.80663443
REMARK minimizedRMSD -1
REMARK  0 active torsions:
REMARK  status: ('A' for Active; 'I' for Inactive)
ROOT
ATOM      1  C   UNL d   1       0.381  -0.670   3.428  0.00  0.00     0.077 C 
ATOM      2  C1  UNL d   1       0.573   0.598   2.651  0.00  0.00    -0.074 A 
ATOM      3  C2  UNL d   1       1.344   1.646   3.164  0.00  0.00    -0.005 A 
ATOM      4  C3  UNL d   1       1.522   2.816   2.426  0.00  0.00     0.006 A 
ATOM      5  C4  UNL d   1       0.931   2.950   1.169  0.00  0.00    -0.005 A 
ATOM      6  C5  UNL d   1       0.157   1.913   0.639  0.00  0.00    -0.074 A 
ATOM      7  C6  UNL d   1      -0.477   2.037  -0.714  0.00  0.00     0.077 C 
ATOM      8  C7  UNL d   1      -0.011   0.738   1.384  0.00  0.00    -0.001 A 
ENDROOT
TORSDOF 0
ENDMDL
