MODEL 1
REMARK minimizedAffinity 0.563376963
REMARK minimizedRMSD -1
REMARK  0 active torsions:
REMARK  status: ('A' for Active; 'I' for Inactive)
ROOT
ATOM      1  C   UNL d   1       1.362  -5.995  -1.489  0.00  0.00     0.077 C 
ATOM      2  C1  UNL d   1       2.579  -5.191  -1.840  0.00  0.00    -0.074 A 
ATOM      3  C2  UNL d   1       3.774  -5.818  -2.206  0.00  0.00    -0.005 A 
ATOM      4  C3  UNL d   1       4.895  -5.057  -2.539  0.00  0.00     0.006 A 
ATOM      5  C4  UNL d   1       4.832  -3.664  -2.509  0.00  0.00    -0.005 A 
ATOM      6  C5  UNL d   1       3.645  -3.019  -2.146  0.00  0.00    -0.074 A 
ATOM      7  C6  UNL d   1       3.557  -1.522  -2.119  0.00  0.00     0.077 C 
ATOM      8  C7  UNL d   1       2.521  -3.790  -1.820  0.00  0.00    -0.001 A 
ENDROOT
TORSDOF 0
ENDMDL
