MODEL 1
REMARK minimizedAffinity 1.82635474
REMARK minimizedRMSD -1
REMARK  0 active torsions:
REMARK  status: ('A' for Active; 'I' for Inactive)
ROOT
ATOM      1  C   UNL d   1       5.250  -6.000  -0.712  0.00  0.00     0.077 C 
ATOM      2  C1  UNL d   1       4.847  -5.149  -1.880  0.00  0.00    -0.074 A 
ATOM      3  C2  UNL d   1       4.812  -5.676  -3.175  0.00  0.00    -0.005 A 
ATOM      4  C3  UNL d   1       4.427  -4.876  -4.250  0.00  0.00     0.006 A 
ATOM      5  C4  UNL d   1       4.073  -3.542  -4.042  0.00  0.00    -0.005 A 
ATOM      6  C5  UNL d   1       4.101  -2.998  -2.754  0.00  0.00    -0.074 A 
ATOM      7  C6  UNL d   1       3.715  -1.569  -2.511  0.00  0.00     0.077 C 
ATOM      8  C7  UNL d   1       4.483  -3.810  -1.678  0.00  0.00    -0.001 A 
ENDROOT
TORSDOF 0
ENDMDL
