MODEL 1
REMARK minimizedAffinity 6.01520729
REMARK minimizedRMSD -1
REMARK  0 active torsions:
REMARK  status: ('A' for Active; 'I' for Inactive)
ROOT
ATOM      1  C   UNL d   1       2.583   2.488   3.620  0.00  0.00     0.077 C 
ATOM      2  C1  UNL d   1       1.309   2.591   2.834  0.00  0.00    -0.074 A 
ATOM      3  C2  UNL d   1       0.086   2.208   3.393  0.00  0.00    -0.005 A 
ATOM      4  C3  UNL d   1      -1.091   2.318   2.653  0.00  0.00     0.006 A 
ATOM      5  C4  UNL d   1      -1.057   2.812   1.349  0.00  0.00    -0.005 A 
ATOM      6  C5  UNL d   1       0.156   3.201   0.773  0.00  0.00    -0.074 A 
ATOM      7  C6  UNL d   1       0.209   3.744  -0.624  0.00  0.00     0.077 C 
ATOM      8  C7  UNL d   1       1.334   3.094   1.525  0.00  0.00    -0.001 A 
ENDROOT
TORSDOF 0
ENDMDL
