MODEL 1
REMARK minimizedAffinity -1.46375918
REMARK minimizedRMSD -1
REMARK  0 active torsions:
REMARK  status: ('A' for Active; 'I' for Inactive)
ROOT
ATOM      1  C   UNL d   1       5.631  -6.000  -0.647  0.00  0.00     0.077 C 
ATOM      2  C1  UNL d   1       5.067  -4.796  -1.342  0.00  0.00    -0.074 A 
ATOM      3  C2  UNL d   1       4.937  -4.764  -2.734  0.00  0.00    -0.005 A 
ATOM      4  C3  UNL d   1       4.401  -3.642  -3.365  0.00  0.00     0.006 A 
ATOM      5  C4  UNL d   1       3.990  -2.542  -2.611  0.00  0.00    -0.005 A 
ATOM      6  C5  UNL d   1       4.111  -2.556  -1.218  0.00  0.00    -0.074 A 
ATOM      7  C6  UNL d   1       3.664  -1.386  -0.393  0.00  0.00     0.077 C 
ATOM      8  C7  UNL d   1       4.644  -3.690  -0.591  0.00  0.00    -0.001 A 
ENDROOT
TORSDOF 0
ENDMDL
