MODEL 1
REMARK minimizedAffinity 4.86812401
REMARK minimizedRMSD -1
REMARK  0 active torsions:
REMARK  status: ('A' for Active; 'I' for Inactive)
ROOT
ATOM      1  C   UNL d   1       4.168  -2.104  -3.818  0.00  0.00     0.077 C 
ATOM      2  C1  UNL d   1       3.901  -2.759  -2.495  0.00  0.00    -0.074 A 
ATOM      3  C2  UNL d   1       4.245  -2.125  -1.297  0.00  0.00    -0.005 A 
ATOM      4  C3  UNL d   1       3.982  -2.743  -0.074  0.00  0.00     0.006 A 
ATOM      5  C4  UNL d   1       3.374  -3.998  -0.037  0.00  0.00    -0.005 A 
ATOM      6  C5  UNL d   1       3.023  -4.647  -1.225  0.00  0.00    -0.074 A 
ATOM      7  C6  UNL d   1       2.360  -5.992  -1.204  0.00  0.00     0.077 C 
ATOM      8  C7  UNL d   1       3.284  -4.017  -2.450  0.00  0.00    -0.001 A 
ENDROOT
TORSDOF 0
ENDMDL
