MODEL 1
REMARK minimizedAffinity 7.75236225
REMARK minimizedRMSD -1
REMARK  0 active torsions:
REMARK  status: ('A' for Active; 'I' for Inactive)
ROOT
ATOM      1  C   UNL d   1       4.180  -1.329  -0.330  0.00  0.00     0.077 C 
ATOM      2  C1  UNL d   1       3.799  -2.514  -1.166  0.00  0.00    -0.074 A 
ATOM      3  C2  UNL d   1       4.322  -2.684  -2.452  0.00  0.00    -0.005 A 
ATOM      4  C3  UNL d   1       3.966  -3.796  -3.215  0.00  0.00     0.006 A 
ATOM      5  C4  UNL d   1       3.085  -4.748  -2.700  0.00  0.00    -0.005 A 
ATOM      6  C5  UNL d   1       2.553  -4.596  -1.416  0.00  0.00    -0.074 A 
ATOM      7  C6  UNL d   1       1.613  -5.614  -0.844  0.00  0.00     0.077 C 
ATOM      8  C7  UNL d   1       2.921  -3.479  -0.653  0.00  0.00    -0.001 A 
ENDROOT
TORSDOF 0
ENDMDL
