MODEL 1
REMARK minimizedAffinity 3.28884268
REMARK minimizedRMSD -1
REMARK  0 active torsions:
REMARK  status: ('A' for Active; 'I' for Inactive)
ROOT
ATOM      1  C   UNL d   1       5.946  -5.302  -3.997  0.00  0.00     0.077 C 
ATOM      2  C1  UNL d   1       4.916  -4.380  -3.415  0.00  0.00    -0.074 A 
ATOM      3  C2  UNL d   1       5.007  -2.996  -3.595  0.00  0.00    -0.005 A 
ATOM      4  C3  UNL d   1       4.036  -2.151  -3.056  0.00  0.00     0.006 A 
ATOM      5  C4  UNL d   1       2.968  -2.681  -2.331  0.00  0.00    -0.005 A 
ATOM      6  C5  UNL d   1       2.861  -4.063  -2.141  0.00  0.00    -0.074 A 
ATOM      7  C6  UNL d   1       1.713  -4.649  -1.374  0.00  0.00     0.077 C 
ATOM      8  C7  UNL d   1       3.836  -4.905  -2.693  0.00  0.00    -0.001 A 
ENDROOT
TORSDOF 0
ENDMDL
