MODEL 1
REMARK minimizedAffinity -3.89820027
REMARK minimizedRMSD -1
REMARK  1 active torsions:
REMARK  status: ('A' for Active; 'I' for Inactive)
REMARK    1  A    between atoms: C1_2  and  C2_3 
ROOT
ATOM      1  C2  UNL d   1       0.385  -0.134  -0.116  0.00  0.00    -0.076 A 
ATOM      2  C3  UNL d   1       0.670   1.242  -0.145  0.00  0.00     0.004 A 
ATOM      3  C4  UNL d   1       1.347   1.812  -1.222  0.00  0.00    -0.003 A 
ATOM      4  C5  UNL d   1       1.749   1.015  -2.288  0.00  0.00     0.000 A 
ATOM      5  C6  UNL d   1       1.459  -0.349  -2.284  0.00  0.00     0.000 A 
ATOM      6  C7  UNL d   1       0.763  -0.936  -1.214  0.00  0.00    -0.073 A 
ATOM      7  C8  UNL d   1       0.483  -2.414  -1.258  0.00  0.00     0.078 C 
ENDROOT
BRANCH   1   8
ATOM      8  C1  UNL d   1      -0.327  -0.700   1.091  0.00  0.00     0.053 C 
ATOM      9  C   UNL d   1      -1.582   0.081   1.447  0.00  0.00     0.018 C 
ENDBRANCH   1   8
TORSDOF 1
ENDMDL
