MODEL 1
REMARK minimizedAffinity -2.60027647
REMARK minimizedRMSD -1
REMARK  1 active torsions:
REMARK  status: ('A' for Active; 'I' for Inactive)
REMARK    1  A    between atoms: C1_2  and  C2_3 
ROOT
ATOM      1  C2  UNL d   1      -1.464   0.589   1.169  0.00  0.00    -0.076 A 
ATOM      2  C3  UNL d   1      -0.251   1.233   0.868  0.00  0.00     0.004 A 
ATOM      3  C4  UNL d   1       0.626   0.706  -0.078  0.00  0.00    -0.003 A 
ATOM      4  C5  UNL d   1       0.305  -0.475  -0.738  0.00  0.00     0.000 A 
ATOM      5  C6  UNL d   1      -0.902  -1.118  -0.465  0.00  0.00     0.000 A 
ATOM      6  C7  UNL d   1      -1.805  -0.591   0.474  0.00  0.00    -0.073 A 
ATOM      7  C8  UNL d   1      -3.089  -1.330   0.734  0.00  0.00     0.078 C 
ENDROOT
BRANCH   1   8
ATOM      8  C1  UNL d   1      -2.363   1.194   2.224  0.00  0.00     0.053 C 
ATOM      9  C   UNL d   1      -3.403   2.133   1.633  0.00  0.00     0.018 C 
ENDBRANCH   1   8
TORSDOF 1
ENDMDL
