MODEL 1
REMARK minimizedAffinity -3.9173255
REMARK minimizedRMSD -1
REMARK  1 active torsions:
REMARK  status: ('A' for Active; 'I' for Inactive)
REMARK    1  A    between atoms: C1_2  and  C2_3 
ROOT
ATOM      1  C2  UNL d   1       0.487  -0.117   0.192  0.00  0.00    -0.076 A 
ATOM      2  C3  UNL d   1       0.033  -0.663  -1.021  0.00  0.00     0.004 A 
ATOM      3  C4  UNL d   1       0.585  -0.265  -2.237  0.00  0.00    -0.003 A 
ATOM      4  C5  UNL d   1       1.600   0.684  -2.260  0.00  0.00     0.000 A 
ATOM      5  C6  UNL d   1       2.076   1.223  -1.065  0.00  0.00     0.000 A 
ATOM      6  C7  UNL d   1       1.541   0.821   0.171  0.00  0.00    -0.073 A 
ATOM      7  C8  UNL d   1       2.087   1.439   1.429  0.00  0.00     0.078 C 
ENDROOT
BRANCH   1   8
ATOM      8  C1  UNL d   1      -0.168  -0.567   1.479  0.00  0.00     0.053 C 
ATOM      9  C   UNL d   1      -1.410   0.244   1.815  0.00  0.00     0.018 C 
ENDBRANCH   1   8
TORSDOF 1
ENDMDL
