MODEL 1
REMARK minimizedAffinity -3.17336035
REMARK minimizedRMSD -1
REMARK  1 active torsions:
REMARK  status: ('A' for Active; 'I' for Inactive)
REMARK    1  A    between atoms: C1_2  and  C2_3 
ROOT
ATOM      1  C2  UNL d   1       0.921  -0.288  -0.642  0.00  0.00    -0.076 A 
ATOM      2  C3  UNL d   1       1.470   0.617  -1.567  0.00  0.00     0.004 A 
ATOM      3  C4  UNL d   1       2.210   0.167  -2.659  0.00  0.00    -0.003 A 
ATOM      4  C5  UNL d   1       2.413  -1.196  -2.845  0.00  0.00     0.000 A 
ATOM      5  C6  UNL d   1       1.861  -2.109  -1.947  0.00  0.00     0.000 A 
ATOM      6  C7  UNL d   1       1.099  -1.673  -0.850  0.00  0.00    -0.073 A 
ATOM      7  C8  UNL d   1       0.532  -2.702   0.090  0.00  0.00     0.078 C 
ENDROOT
BRANCH   1   8
ATOM      8  C1  UNL d   1       0.151   0.259   0.538  0.00  0.00     0.053 C 
ATOM      9  C   UNL d   1       1.038   1.024   1.509  0.00  0.00     0.018 C 
ENDBRANCH   1   8
TORSDOF 1
ENDMDL
