MODEL 1
REMARK minimizedAffinity -6.13099384
REMARK minimizedRMSD -1
REMARK  1 active torsions:
REMARK  status: ('A' for Active; 'I' for Inactive)
REMARK    1  A    between atoms: C1_2  and  C2_3 
ROOT
ATOM      1  C2  UNL d   1       0.998  -0.599  -0.105  0.00  0.00    -0.076 A 
ATOM      2  C3  UNL d   1       0.957  -1.940  -0.525  0.00  0.00     0.004 A 
ATOM      3  C4  UNL d   1       1.543  -2.334  -1.726  0.00  0.00    -0.003 A 
ATOM      4  C5  UNL d   1       2.181  -1.394  -2.527  0.00  0.00     0.000 A 
ATOM      5  C6  UNL d   1       2.247  -0.062  -2.118  0.00  0.00     0.000 A 
ATOM      6  C7  UNL d   1       1.676   0.349  -0.902  0.00  0.00    -0.073 A 
ATOM      7  C8  UNL d   1       1.771   1.798  -0.512  0.00  0.00     0.078 C 
ENDROOT
BRANCH   1   8
ATOM      8  C1  UNL d   1       0.321  -0.226   1.194  0.00  0.00     0.053 C 
ATOM      9  C   UNL d   1      -1.166   0.042   1.021  0.00  0.00     0.018 C 
ENDBRANCH   1   8
TORSDOF 1
ENDMDL
