MODEL 1
REMARK minimizedAffinity -4.80474615
REMARK minimizedRMSD -1
REMARK  1 active torsions:
REMARK  status: ('A' for Active; 'I' for Inactive)
REMARK    1  A    between atoms: C1_2  and  C2_3 
ROOT
ATOM      1  C2  UNL d   1      -0.007  -0.190   0.140  0.00  0.00    -0.076 A 
ATOM      2  C3  UNL d   1       0.209   0.680  -0.943  0.00  0.00     0.004 A 
ATOM      3  C4  UNL d   1       0.679   0.203  -2.165  0.00  0.00    -0.003 A 
ATOM      4  C5  UNL d   1       0.940  -1.154  -2.325  0.00  0.00     0.000 A 
ATOM      5  C6  UNL d   1       0.714  -2.034  -1.267  0.00  0.00     0.000 A 
ATOM      6  C7  UNL d   1       0.225  -1.572  -0.034  0.00  0.00    -0.073 A 
ATOM      7  C8  UNL d   1       0.006  -2.565   1.074  0.00  0.00     0.078 C 
ENDROOT
BRANCH   1   8
ATOM      8  C1  UNL d   1      -0.492   0.389   1.450  0.00  0.00     0.053 C 
ATOM      9  C   UNL d   1      -2.008   0.500   1.512  0.00  0.00     0.018 C 
ENDBRANCH   1   8
TORSDOF 1
ENDMDL
