MODEL 1
REMARK minimizedAffinity -2.22212386
REMARK minimizedRMSD -1
REMARK  1 active torsions:
REMARK  status: ('A' for Active; 'I' for Inactive)
REMARK    1  A    between atoms: C1_2  and  C2_3 
ROOT
ATOM      1  C2  UNL d   1      -2.822   1.808   1.935  0.00  0.00    -0.076 A 
ATOM      2  C3  UNL d   1      -4.215   1.618   1.945  0.00  0.00     0.004 A 
ATOM      3  C4  UNL d   1      -4.781   0.437   1.467  0.00  0.00    -0.003 A 
ATOM      4  C5  UNL d   1      -3.963  -0.573   0.973  0.00  0.00     0.000 A 
ATOM      5  C6  UNL d   1      -2.579  -0.409   0.972  0.00  0.00     0.000 A 
ATOM      6  C7  UNL d   1      -1.991   0.769   1.465  0.00  0.00    -0.073 A 
ATOM      7  C8  UNL d   1      -0.492   0.896   1.435  0.00  0.00     0.078 C 
ENDROOT
BRANCH   1   8
ATOM      8  C1  UNL d   1      -2.267   3.121   2.441  0.00  0.00     0.053 C 
ATOM      9  C   UNL d   1      -3.036   3.656   3.639  0.00  0.00     0.018 C 
ENDBRANCH   1   8
TORSDOF 1
ENDMDL
