MODEL 1
REMARK minimizedAffinity -3.69809556
REMARK minimizedRMSD -1
REMARK  1 active torsions:
REMARK  status: ('A' for Active; 'I' for Inactive)
REMARK    1  A    between atoms: C1_2  and  C2_3 
ROOT
ATOM      1  C2  UNL d   1      -2.182   1.193   2.364  0.00  0.00    -0.076 A 
ATOM      2  C3  UNL d   1      -1.411   2.167   3.021  0.00  0.00     0.004 A 
ATOM      3  C4  UNL d   1      -1.980   3.365   3.449  0.00  0.00    -0.003 A 
ATOM      4  C5  UNL d   1      -3.331   3.608   3.226  0.00  0.00     0.000 A 
ATOM      5  C6  UNL d   1      -4.116   2.646   2.592  0.00  0.00     0.000 A 
ATOM      6  C7  UNL d   1      -3.560   1.426   2.169  0.00  0.00    -0.073 A 
ATOM      7  C8  UNL d   1      -4.451   0.426   1.485  0.00  0.00     0.078 C 
ENDROOT
BRANCH   1   8
ATOM      8  C1  UNL d   1      -1.503  -0.075   1.899  0.00  0.00     0.053 C 
ATOM      9  C   UNL d   1      -0.318   0.199   0.986  0.00  0.00     0.018 C 
ENDBRANCH   1   8
TORSDOF 1
ENDMDL
