MODEL 1
REMARK minimizedAffinity -0.968439341
REMARK minimizedRMSD -1
REMARK  1 active torsions:
REMARK  status: ('A' for Active; 'I' for Inactive)
REMARK    1  A    between atoms: C1_2  and  C2_3 
ROOT
ATOM      1  C2  UNL d   1      -0.037  -0.039   0.435  0.00  0.00    -0.076 A 
ATOM      2  C3  UNL d   1       0.370   1.291   0.227  0.00  0.00     0.004 A 
ATOM      3  C4  UNL d   1       1.328   1.605  -0.735  0.00  0.00    -0.003 A 
ATOM      4  C5  UNL d   1       1.896   0.596  -1.505  0.00  0.00     0.000 A 
ATOM      5  C6  UNL d   1       1.491  -0.726  -1.324  0.00  0.00     0.000 A 
ATOM      6  C7  UNL d   1       0.514  -1.059  -0.370  0.00  0.00    -0.073 A 
ATOM      7  C8  UNL d   1       0.120  -2.502  -0.213  0.00  0.00     0.078 C 
ENDROOT
BRANCH   1   8
ATOM      8  C1  UNL d   1      -1.061  -0.323   1.511  0.00  0.00     0.053 C 
ATOM      9  C   UNL d   1      -1.842   0.918   1.914  0.00  0.00     0.018 C 
ENDBRANCH   1   8
TORSDOF 1
ENDMDL
