MODEL 1
REMARK minimizedAffinity -5.04600286
REMARK minimizedRMSD -1
REMARK  1 active torsions:
REMARK  status: ('A' for Active; 'I' for Inactive)
REMARK    1  A    between atoms: C1_2  and  C2_3 
ROOT
ATOM      1  C2  UNL d   1      -0.219  -0.189  -0.615  0.00  0.00    -0.076 A 
ATOM      2  C3  UNL d   1      -0.817   1.064  -0.836  0.00  0.00     0.004 A 
ATOM      3  C4  UNL d   1      -1.578   1.680   0.157  0.00  0.00    -0.003 A 
ATOM      4  C5  UNL d   1      -1.751   1.054   1.386  0.00  0.00     0.000 A 
ATOM      5  C6  UNL d   1      -1.149  -0.181   1.628  0.00  0.00     0.000 A 
ATOM      6  C7  UNL d   1      -0.367  -0.808   0.644  0.00  0.00    -0.073 A 
ATOM      7  C8  UNL d   1       0.254  -2.142   0.957  0.00  0.00     0.078 C 
ENDROOT
BRANCH   1   8
ATOM      8  C1  UNL d   1       0.572  -0.822  -1.738  0.00  0.00     0.053 C 
ATOM      9  C   UNL d   1       1.019   0.193  -2.779  0.00  0.00     0.018 C 
ENDBRANCH   1   8
TORSDOF 1
ENDMDL
