MODEL 1
REMARK minimizedAffinity -5.28623581
REMARK minimizedRMSD -1
REMARK  1 active torsions:
REMARK  status: ('A' for Active; 'I' for Inactive)
REMARK    1  A    between atoms: C1_2  and  C2_3 
ROOT
ATOM      1  C2  UNL d   1       0.923  -0.257  -1.153  0.00  0.00    -0.076 A 
ATOM      2  C3  UNL d   1       1.104   0.834  -0.286  0.00  0.00     0.004 A 
ATOM      3  C4  UNL d   1       0.795   0.733   1.069  0.00  0.00    -0.003 A 
ATOM      4  C5  UNL d   1       0.300  -0.461   1.580  0.00  0.00     0.000 A 
ATOM      5  C6  UNL d   1       0.131  -1.560   0.738  0.00  0.00     0.000 A 
ATOM      6  C7  UNL d   1       0.453  -1.480  -0.628  0.00  0.00    -0.073 A 
ATOM      7  C8  UNL d   1       0.244  -2.694  -1.491  0.00  0.00     0.078 C 
ENDROOT
BRANCH   1   8
ATOM      8  C1  UNL d   1       1.249  -0.081  -2.619  0.00  0.00     0.053 C 
ATOM      9  C   UNL d   1       2.680   0.383  -2.845  0.00  0.00     0.018 C 
ENDBRANCH   1   8
TORSDOF 1
ENDMDL
