MODEL 1
REMARK minimizedAffinity -0.499224722
REMARK minimizedRMSD -1
REMARK  1 active torsions:
REMARK  status: ('A' for Active; 'I' for Inactive)
REMARK    1  A    between atoms: C1_2  and  C2_3 
ROOT
ATOM      1  C2  UNL d   1      -0.315   0.155   0.079  0.00  0.00    -0.076 A 
ATOM      2  C3  UNL d   1       0.038   1.436  -0.380  0.00  0.00     0.004 A 
ATOM      3  C4  UNL d   1       1.276   1.668  -0.976  0.00  0.00    -0.003 A 
ATOM      4  C5  UNL d   1       2.182   0.623  -1.123  0.00  0.00     0.000 A 
ATOM      5  C6  UNL d   1       1.841  -0.657  -0.689  0.00  0.00     0.000 A 
ATOM      6  C7  UNL d   1       0.591  -0.912  -0.101  0.00  0.00    -0.073 A 
ATOM      7  C8  UNL d   1       0.279  -2.311   0.355  0.00  0.00     0.078 C 
ENDROOT
BRANCH   1   8
ATOM      8  C1  UNL d   1      -1.661  -0.031   0.742  0.00  0.00     0.053 C 
ATOM      9  C   UNL d   1      -2.124   1.216   1.481  0.00  0.00     0.018 C 
ENDBRANCH   1   8
TORSDOF 1
ENDMDL
