MODEL 1
REMARK minimizedAffinity -4.02637672
REMARK minimizedRMSD -1
REMARK  1 active torsions:
REMARK  status: ('A' for Active; 'I' for Inactive)
REMARK    1  A    between atoms: C1_2  and  C2_3 
ROOT
ATOM      1  C2  UNL d   1       0.474   0.271   0.079  0.00  0.00    -0.076 A 
ATOM      2  C3  UNL d   1       0.801   1.588  -0.288  0.00  0.00     0.004 A 
ATOM      3  C4  UNL d   1       1.476   1.855  -1.477  0.00  0.00    -0.003 A 
ATOM      4  C5  UNL d   1       1.835   0.809  -2.320  0.00  0.00     0.000 A 
ATOM      5  C6  UNL d   1       1.503  -0.502  -1.981  0.00  0.00     0.000 A 
ATOM      6  C7  UNL d   1       0.808  -0.787  -0.793  0.00  0.00    -0.073 A 
ATOM      7  C8  UNL d   1       0.481  -2.220  -0.474  0.00  0.00     0.078 C 
ENDROOT
BRANCH   1   8
ATOM      8  C1  UNL d   1      -0.234   0.041   1.395  0.00  0.00     0.053 C 
ATOM      9  C   UNL d   1      -1.533   0.825   1.503  0.00  0.00     0.018 C 
ENDBRANCH   1   8
TORSDOF 1
ENDMDL
