MODEL 1
REMARK minimizedAffinity 0.742084861
REMARK minimizedRMSD -1
REMARK  0 active torsions:
REMARK  status: ('A' for Active; 'I' for Inactive)
ROOT
ATOM      1  C   UNL d   1      -4.783   4.992  -5.983  0.00  0.00     0.023 A 
ATOM      2  C1  UNL d   1      -4.406   3.649  -5.986  0.00  0.00     0.003 A 
ATOM      3  C2  UNL d   1      -3.054   3.302  -5.992  0.00  0.00     0.048 A 
ATOM      4  C3  UNL d   1      -2.083   4.302  -5.992  0.00  0.00     0.023 A 
ATOM      5  C4  UNL d   1      -2.455   5.648  -5.988  0.00  0.00     0.048 A 
ATOM      6  C5  UNL d   1      -3.808   5.990  -5.984  0.00  0.00     0.003 A 
ATOM      7  I   UNL d   1      -0.069   3.788  -5.999  0.00  0.00    -0.146 I 
ENDROOT
TORSDOF 0
ENDMDL
