MODEL 1
REMARK minimizedAffinity -1.07789028
REMARK minimizedRMSD -1
REMARK  0 active torsions:
REMARK  status: ('A' for Active; 'I' for Inactive)
ROOT
ATOM      1  C   UNL d   1       5.936   4.329  -5.986  0.00  0.00     0.023 A 
ATOM      2  C1  UNL d   1       5.281   5.561  -5.992  0.00  0.00     0.003 A 
ATOM      3  C2  UNL d   1       3.886   5.611  -5.997  0.00  0.00     0.048 A 
ATOM      4  C3  UNL d   1       3.151   4.426  -5.993  0.00  0.00     0.023 A 
ATOM      5  C4  UNL d   1       3.802   3.191  -5.986  0.00  0.00     0.048 A 
ATOM      6  C5  UNL d   1       5.197   3.146  -5.983  0.00  0.00     0.003 A 
ATOM      7  I   UNL d   1       1.074   4.498  -6.000  0.00  0.00    -0.146 I 
ENDROOT
TORSDOF 0
ENDMDL
