MODEL 1
REMARK minimizedAffinity -0.0954579264
REMARK minimizedRMSD -1
REMARK  0 active torsions:
REMARK  status: ('A' for Active; 'I' for Inactive)
ROOT
ATOM      1  C   UNL d   1       3.987   4.630  -6.000  0.00  0.00     0.023 A 
ATOM      2  C1  UNL d   1       3.169   5.761  -5.999  0.00  0.00     0.003 A 
ATOM      3  C2  UNL d   1       1.780   5.620  -6.000  0.00  0.00     0.048 A 
ATOM      4  C3  UNL d   1       1.215   4.345  -5.999  0.00  0.00     0.023 A 
ATOM      5  C4  UNL d   1       2.028   3.211  -5.998  0.00  0.00     0.048 A 
ATOM      6  C5  UNL d   1       3.417   3.357  -5.999  0.00  0.00     0.003 A 
ATOM      7  I   UNL d   1      -0.853   4.133  -5.999  0.00  0.00    -0.146 I 
ENDROOT
TORSDOF 0
ENDMDL
