MODEL 1
REMARK minimizedAffinity 6.95456028
REMARK minimizedRMSD -1
REMARK  0 active torsions:
REMARK  status: ('A' for Active; 'I' for Inactive)
ROOT
ATOM      1  C   UNL d   1      -3.171   3.570  -5.977  0.00  0.00     0.023 A 
ATOM      2  C1  UNL d   1      -2.020   2.782  -5.961  0.00  0.00     0.003 A 
ATOM      3  C2  UNL d   1      -0.760   3.383  -5.966  0.00  0.00     0.048 A 
ATOM      4  C3  UNL d   1      -0.658   4.774  -5.984  0.00  0.00     0.023 A 
ATOM      5  C4  UNL d   1      -1.806   5.567  -5.998  0.00  0.00     0.048 A 
ATOM      6  C5  UNL d   1      -3.064   4.961  -5.995  0.00  0.00     0.003 A 
ATOM      7  I   UNL d   1       1.217   5.671  -5.989  0.00  0.00    -0.146 I 
ENDROOT
TORSDOF 0
ENDMDL
