MODEL 1
REMARK minimizedAffinity 0.97395283
REMARK minimizedRMSD -1
REMARK  0 active torsions:
REMARK  status: ('A' for Active; 'I' for Inactive)
ROOT
ATOM      1  C   UNL d   1      -0.578   4.158  -5.990  0.00  0.00     0.023 A 
ATOM      2  C1  UNL d   1      -0.053   5.451  -5.991  0.00  0.00     0.003 A 
ATOM      3  C2  UNL d   1       1.329   5.645  -5.993  0.00  0.00     0.048 A 
ATOM      4  C3  UNL d   1       2.182   4.542  -5.996  0.00  0.00     0.023 A 
ATOM      5  C4  UNL d   1       1.662   3.246  -5.996  0.00  0.00     0.048 A 
ATOM      6  C5  UNL d   1       0.279   3.057  -5.992  0.00  0.00     0.003 A 
ATOM      7  I   UNL d   1       4.241   4.828  -6.000  0.00  0.00    -0.146 I 
ENDROOT
TORSDOF 0
ENDMDL
