MODEL 1
REMARK minimizedAffinity 2.93450832
REMARK minimizedRMSD -1
REMARK  0 active torsions:
REMARK  status: ('A' for Active; 'I' for Inactive)
ROOT
ATOM      1  C   UNL d   1      -3.154   5.835  -5.100  0.00  0.00     0.023 A 
ATOM      2  C1  UNL d   1      -3.583   4.562  -4.725  0.00  0.00     0.003 A 
ATOM      3  C2  UNL d   1      -2.779   3.449  -4.978  0.00  0.00     0.048 A 
ATOM      4  C3  UNL d   1      -1.545   3.617  -5.606  0.00  0.00     0.023 A 
ATOM      5  C4  UNL d   1      -1.111   4.889  -5.983  0.00  0.00     0.048 A 
ATOM      6  C5  UNL d   1      -1.919   5.998  -5.728  0.00  0.00     0.003 A 
ATOM      7  I   UNL d   1      -0.346   1.962  -5.985  0.00  0.00    -0.146 I 
ENDROOT
TORSDOF 0
ENDMDL
