MODEL 1
REMARK minimizedAffinity 1.60177529
REMARK minimizedRMSD -1
REMARK  0 active torsions:
REMARK  status: ('A' for Active; 'I' for Inactive)
ROOT
ATOM      1  C   UNL d   1       1.106   4.465  -5.993  0.00  0.00     0.023 A 
ATOM      2  C1  UNL d   1       0.631   3.153  -5.996  0.00  0.00     0.003 A 
ATOM      3  C2  UNL d   1      -0.744   2.907  -5.998  0.00  0.00     0.048 A 
ATOM      4  C3  UNL d   1      -1.638   3.978  -5.997  0.00  0.00     0.023 A 
ATOM      5  C4  UNL d   1      -1.167   5.292  -5.994  0.00  0.00     0.048 A 
ATOM      6  C5  UNL d   1       0.208   5.533  -5.992  0.00  0.00     0.003 A 
ATOM      7  I   UNL d   1      -3.684   3.614  -5.999  0.00  0.00    -0.146 I 
ENDROOT
TORSDOF 0
ENDMDL
