MODEL 1
REMARK minimizedAffinity 2.57624269
REMARK minimizedRMSD -1
REMARK  0 active torsions:
REMARK  status: ('A' for Active; 'I' for Inactive)
ROOT
ATOM      1  C   UNL d   1      -1.201   3.178  -5.888  0.00  0.00     0.023 A 
ATOM      2  C1  UNL d   1       0.037   2.538  -5.954  0.00  0.00     0.003 A 
ATOM      3  C2  UNL d   1       1.213   3.291  -5.982  0.00  0.00     0.048 A 
ATOM      4  C3  UNL d   1       1.144   4.683  -5.943  0.00  0.00     0.023 A 
ATOM      5  C4  UNL d   1      -0.093   5.328  -5.877  0.00  0.00     0.048 A 
ATOM      6  C5  UNL d   1      -1.266   4.571  -5.850  0.00  0.00     0.003 A 
ATOM      7  I   UNL d   1       2.892   5.806  -5.985  0.00  0.00    -0.146 I 
ENDROOT
TORSDOF 0
ENDMDL
