MODEL 1
REMARK minimizedAffinity -1.3164475
REMARK minimizedRMSD -1
REMARK  0 active torsions:
REMARK  status: ('A' for Active; 'I' for Inactive)
ROOT
ATOM      1  C   UNL d   1      -4.029   4.636  -5.991  0.00  0.00     0.023 A 
ATOM      2  C1  UNL d   1      -3.273   3.464  -5.987  0.00  0.00     0.003 A 
ATOM      3  C2  UNL d   1      -1.878   3.531  -5.990  0.00  0.00     0.048 A 
ATOM      4  C3  UNL d   1      -1.246   4.774  -5.996  0.00  0.00     0.023 A 
ATOM      5  C4  UNL d   1      -1.999   5.950  -5.998  0.00  0.00     0.048 A 
ATOM      6  C5  UNL d   1      -3.393   5.877  -5.996  0.00  0.00     0.003 A 
ATOM      7  I   UNL d   1       0.830   4.878  -6.000  0.00  0.00    -0.146 I 
ENDROOT
TORSDOF 0
ENDMDL
