MODEL 1
REMARK minimizedAffinity -0.892985761
REMARK minimizedRMSD -1
REMARK  0 active torsions:
REMARK  status: ('A' for Active; 'I' for Inactive)
ROOT
ATOM      1  C   UNL d   1       3.733   3.989  -5.997  0.00  0.00     0.023 A 
ATOM      2  C1  UNL d   1       3.146   2.723  -5.995  0.00  0.00     0.003 A 
ATOM      3  C2  UNL d   1       1.755   2.598  -5.993  0.00  0.00     0.048 A 
ATOM      4  C3  UNL d   1       0.958   3.741  -5.996  0.00  0.00     0.023 A 
ATOM      5  C4  UNL d   1       1.541   5.010  -5.999  0.00  0.00     0.048 A 
ATOM      6  C5  UNL d   1       2.932   5.130  -5.999  0.00  0.00     0.003 A 
ATOM      7  I   UNL d   1      -1.112   3.557  -5.994  0.00  0.00    -0.146 I 
ENDROOT
TORSDOF 0
ENDMDL
