MODEL 1
REMARK minimizedAffinity -0.482720554
REMARK minimizedRMSD -1
REMARK  0 active torsions:
REMARK  status: ('A' for Active; 'I' for Inactive)
ROOT
ATOM      1  C   UNL d   1      -3.087   4.951  -5.998  0.00  0.00     0.023 A 
ATOM      2  C1  UNL d   1      -2.923   3.566  -5.993  0.00  0.00     0.003 A 
ATOM      3  C2  UNL d   1      -1.640   3.013  -5.990  0.00  0.00     0.048 A 
ATOM      4  C3  UNL d   1      -0.526   3.852  -5.992  0.00  0.00     0.023 A 
ATOM      5  C4  UNL d   1      -0.686   5.238  -5.996  0.00  0.00     0.048 A 
ATOM      6  C5  UNL d   1      -1.970   5.786  -5.999  0.00  0.00     0.003 A 
ATOM      7  I   UNL d   1       1.383   3.032  -5.988  0.00  0.00    -0.146 I 
ENDROOT
TORSDOF 0
ENDMDL
