MODEL 1
REMARK minimizedAffinity 0.579131186
REMARK minimizedRMSD -1
REMARK  0 active torsions:
REMARK  status: ('A' for Active; 'I' for Inactive)
ROOT
ATOM      1  C   UNL d   1      -4.240   4.747  -5.993  0.00  0.00     0.023 A 
ATOM      2  C1  UNL d   1      -3.785   3.429  -5.997  0.00  0.00     0.003 A 
ATOM      3  C2  UNL d   1      -2.414   3.162  -6.000  0.00  0.00     0.048 A 
ATOM      4  C3  UNL d   1      -1.504   4.219  -5.996  0.00  0.00     0.023 A 
ATOM      5  C4  UNL d   1      -1.955   5.540  -5.991  0.00  0.00     0.048 A 
ATOM      6  C5  UNL d   1      -3.327   5.801  -5.990  0.00  0.00     0.003 A 
ATOM      7  I   UNL d   1       0.537   3.824  -5.999  0.00  0.00    -0.146 I 
ENDROOT
TORSDOF 0
ENDMDL
