MODEL 1
REMARK minimizedAffinity -2.94696617
REMARK minimizedRMSD -1
REMARK  0 active torsions:
REMARK  status: ('A' for Active; 'I' for Inactive)
ROOT
ATOM      1  C   UNL d   1       0.233   3.946  -5.957  0.00  0.00     0.023 A 
ATOM      2  C1  UNL d   1       0.409   5.330  -5.981  0.00  0.00     0.003 A 
ATOM      3  C2  UNL d   1       1.697   5.871  -5.990  0.00  0.00     0.048 A 
ATOM      4  C3  UNL d   1       2.803   5.022  -5.977  0.00  0.00     0.023 A 
ATOM      5  C4  UNL d   1       2.632   3.637  -5.954  0.00  0.00     0.048 A 
ATOM      6  C5  UNL d   1       1.343   3.101  -5.943  0.00  0.00     0.003 A 
ATOM      7  I   UNL d   1       4.720   5.825  -5.991  0.00  0.00    -0.146 I 
ENDROOT
TORSDOF 0
ENDMDL
