MODEL 1
REMARK minimizedAffinity -1.26630223
REMARK minimizedRMSD -1
REMARK  0 active torsions:
REMARK  status: ('A' for Active; 'I' for Inactive)
ROOT
ATOM      1  C   UNL d   1      -3.137   4.987  -5.995  0.00  0.00     0.023 A 
ATOM      2  C1  UNL d   1      -1.887   5.605  -5.994  0.00  0.00     0.003 A 
ATOM      3  C2  UNL d   1      -0.724   4.831  -5.995  0.00  0.00     0.048 A 
ATOM      4  C3  UNL d   1      -0.820   3.440  -5.997  0.00  0.00     0.023 A 
ATOM      5  C4  UNL d   1      -2.070   2.817  -5.998  0.00  0.00     0.048 A 
ATOM      6  C5  UNL d   1      -3.229   3.596  -5.997  0.00  0.00     0.003 A 
ATOM      7  I   UNL d   1       0.908   2.285  -5.998  0.00  0.00    -0.146 I 
ENDROOT
TORSDOF 0
ENDMDL
