MODEL 1
REMARK minimizedAffinity -2.59131789
REMARK minimizedRMSD -1
REMARK  0 active torsions:
REMARK  status: ('A' for Active; 'I' for Inactive)
ROOT
ATOM      1  C   UNL d   1      -0.358   3.911  -5.997  0.00  0.00     0.023 A 
ATOM      2  C1  UNL d   1      -0.687   5.267  -5.998  0.00  0.00     0.003 A 
ATOM      3  C2  UNL d   1      -2.026   5.662  -5.999  0.00  0.00     0.048 A 
ATOM      4  C3  UNL d   1      -3.032   4.696  -5.998  0.00  0.00     0.023 A 
ATOM      5  C4  UNL d   1      -2.708   3.338  -5.995  0.00  0.00     0.048 A 
ATOM      6  C5  UNL d   1      -1.367   2.948  -5.995  0.00  0.00     0.003 A 
ATOM      7  I   UNL d   1      -5.026   5.282  -6.000  0.00  0.00    -0.146 I 
ENDROOT
TORSDOF 0
ENDMDL
