MODEL 1
REMARK minimizedAffinity 2.98168421
REMARK minimizedRMSD -1
REMARK  0 active torsions:
REMARK  status: ('A' for Active; 'I' for Inactive)
ROOT
ATOM      1  C   UNL d   1      -2.729   5.279  -5.987  0.00  0.00     0.023 A 
ATOM      2  C1  UNL d   1      -1.457   5.852  -5.996  0.00  0.00     0.003 A 
ATOM      3  C2  UNL d   1      -0.323   5.038  -5.999  0.00  0.00     0.048 A 
ATOM      4  C3  UNL d   1      -0.467   3.651  -5.995  0.00  0.00     0.023 A 
ATOM      5  C4  UNL d   1      -1.737   3.073  -5.987  0.00  0.00     0.048 A 
ATOM      6  C5  UNL d   1      -2.868   3.891  -5.983  0.00  0.00     0.003 A 
ATOM      7  I   UNL d   1       1.221   2.438  -6.000  0.00  0.00    -0.146 I 
ENDROOT
TORSDOF 0
ENDMDL
