MODEL 1
REMARK minimizedAffinity -2.21475291
REMARK minimizedRMSD -1
REMARK  0 active torsions:
REMARK  status: ('A' for Active; 'I' for Inactive)
ROOT
ATOM      1  C   UNL d   1       5.475   4.657  -5.976  0.00  0.00     0.023 A 
ATOM      2  C1  UNL d   1       4.828   5.893  -5.990  0.00  0.00     0.003 A 
ATOM      3  C2  UNL d   1       3.433   5.951  -5.996  0.00  0.00     0.048 A 
ATOM      4  C3  UNL d   1       2.691   4.771  -5.988  0.00  0.00     0.023 A 
ATOM      5  C4  UNL d   1       3.334   3.532  -5.974  0.00  0.00     0.048 A 
ATOM      6  C5  UNL d   1       4.729   3.478  -5.968  0.00  0.00     0.003 A 
ATOM      7  I   UNL d   1       0.614   4.856  -5.998  0.00  0.00    -0.146 I 
ENDROOT
TORSDOF 0
ENDMDL
