MODEL 1
REMARK minimizedAffinity 15.705986
REMARK minimizedRMSD -1
REMARK  0 active torsions:
REMARK  status: ('A' for Active; 'I' for Inactive)
ROOT
ATOM      1  C   UNL d   1      -2.291   2.774  -4.326  0.00  0.00    -0.002 A 
ATOM      2  C1  UNL d   1      -0.916   2.776  -4.512  0.00  0.00     0.010 A 
ATOM      3  C2  UNL d   1      -0.135   1.715  -4.050  0.00  0.00     0.041 A 
ATOM      4  C3  UNL d   1      -0.765   0.640  -3.393  0.00  0.00    -0.075 A 
ATOM      5  S   UNL d   1      -0.011  -0.767  -2.743  0.00  0.00     0.015 SA
ATOM      6  C4  UNL d   1      -1.496  -1.406  -2.204  0.00  0.00     0.022 A 
ATOM      7  C5  UNL d   1      -2.552  -0.578  -2.504  0.00  0.00     0.026 A 
ATOM      8  C6  UNL d   1      -2.149   0.615  -3.194  0.00  0.00    -0.082 A 
ATOM      9  C7  UNL d   1      -2.913   1.706  -3.674  0.00  0.00     0.045 A 
ENDROOT
TORSDOF 0
ENDMDL
