MODEL 1
REMARK minimizedAffinity 18.9718323
REMARK minimizedRMSD -1
REMARK  0 active torsions:
REMARK  status: ('A' for Active; 'I' for Inactive)
ROOT
ATOM      1  C   UNL d   1      -0.791   3.328  -4.547  0.00  0.00    -0.002 A 
ATOM      2  C1  UNL d   1      -1.876   2.506  -4.275  0.00  0.00     0.010 A 
ATOM      3  C2  UNL d   1      -1.682   1.209  -3.795  0.00  0.00     0.041 A 
ATOM      4  C3  UNL d   1      -0.366   0.748  -3.588  0.00  0.00    -0.075 A 
ATOM      5  S   UNL d   1       0.113  -0.802  -3.006  0.00  0.00     0.015 SA
ATOM      6  C4  UNL d   1       1.768  -0.410  -3.103  0.00  0.00     0.022 A 
ATOM      7  C5  UNL d   1       1.969   0.869  -3.566  0.00  0.00     0.026 A 
ATOM      8  C6  UNL d   1       0.742   1.558  -3.853  0.00  0.00    -0.082 A 
ATOM      9  C7  UNL d   1       0.512   2.867  -4.340  0.00  0.00     0.045 A 
ENDROOT
TORSDOF 0
ENDMDL
