MODEL 1
REMARK minimizedAffinity 27.9079781
REMARK minimizedRMSD -1
REMARK  0 active torsions:
REMARK  status: ('A' for Active; 'I' for Inactive)
ROOT
ATOM      1  C   UNL d   1      -3.025   2.037  -5.412  0.00  0.00    -0.002 A 
ATOM      2  C1  UNL d   1      -2.350   2.582  -4.328  0.00  0.00     0.010 A 
ATOM      3  C2  UNL d   1      -2.744   3.808  -3.790  0.00  0.00     0.041 A 
ATOM      4  C3  UNL d   1      -3.838   4.485  -4.364  0.00  0.00    -0.075 A 
ATOM      5  S   UNL d   1      -4.498   6.000  -3.872  0.00  0.00     0.015 SA
ATOM      6  C4  UNL d   1      -5.691   5.960  -5.088  0.00  0.00     0.022 A 
ATOM      7  C5  UNL d   1      -5.603   4.826  -5.860  0.00  0.00     0.026 A 
ATOM      8  C6  UNL d   1      -4.534   3.957  -5.455  0.00  0.00    -0.082 A 
ATOM      9  C7  UNL d   1      -4.110   2.711  -5.979  0.00  0.00     0.045 A 
ENDROOT
TORSDOF 0
ENDMDL
