MODEL 1
REMARK minimizedAffinity 15.8776178
REMARK minimizedRMSD -1
REMARK  0 active torsions:
REMARK  status: ('A' for Active; 'I' for Inactive)
ROOT
ATOM      1  C   UNL d   1      -1.697   3.051  -4.405  0.00  0.00    -0.002 A 
ATOM      2  C1  UNL d   1      -0.347   3.206  -4.688  0.00  0.00     0.010 A 
ATOM      3  C2  UNL d   1       0.562   2.189  -4.390  0.00  0.00     0.041 A 
ATOM      4  C3  UNL d   1       0.087   1.001  -3.799  0.00  0.00    -0.075 A 
ATOM      5  S   UNL d   1       1.016  -0.379  -3.348  0.00  0.00     0.015 SA
ATOM      6  C4  UNL d   1      -0.357  -1.207  -2.769  0.00  0.00     0.022 A 
ATOM      7  C5  UNL d   1      -1.504  -0.463  -2.909  0.00  0.00     0.026 A 
ATOM      8  C6  UNL d   1      -1.268   0.822  -3.506  0.00  0.00    -0.082 A 
ATOM      9  C7  UNL d   1      -2.164   1.872  -3.819  0.00  0.00     0.045 A 
ENDROOT
TORSDOF 0
ENDMDL
