MODEL 1
REMARK minimizedAffinity 10.9775295
REMARK minimizedRMSD -1
REMARK  0 active torsions:
REMARK  status: ('A' for Active; 'I' for Inactive)
ROOT
ATOM      1  C   UNL d   1      -2.127  -1.569   0.922  0.00  0.00    -0.002 A 
ATOM      2  C1  UNL d   1      -2.313  -2.003   2.227  0.00  0.00     0.010 A 
ATOM      3  C2  UNL d   1      -1.995  -3.313   2.591  0.00  0.00     0.041 A 
ATOM      4  C3  UNL d   1      -1.480  -4.187   1.612  0.00  0.00    -0.075 A 
ATOM      5  S   UNL d   1      -1.020  -5.834   1.829  0.00  0.00     0.015 SA
ATOM      6  C4  UNL d   1      -0.565  -5.999   0.194  0.00  0.00     0.022 A 
ATOM      7  C5  UNL d   1      -0.754  -4.836  -0.513  0.00  0.00     0.026 A 
ATOM      8  C6  UNL d   1      -1.284  -3.772   0.292  0.00  0.00    -0.082 A 
ATOM      9  C7  UNL d   1      -1.617  -2.438  -0.046  0.00  0.00     0.045 A 
ENDROOT
TORSDOF 0
ENDMDL
