MODEL 1
REMARK minimizedAffinity 12.2166328
REMARK minimizedRMSD -1
REMARK  0 active torsions:
REMARK  status: ('A' for Active; 'I' for Inactive)
ROOT
ATOM      1  C   UNL d   1      -5.998   5.324  -5.325  0.00  0.00    -0.002 A 
ATOM      2  C1  UNL d   1      -5.354   6.000  -4.299  0.00  0.00     0.010 A 
ATOM      3  C2  UNL d   1      -4.090   5.596  -3.865  0.00  0.00     0.041 A 
ATOM      4  C3  UNL d   1      -3.477   4.491  -4.488  0.00  0.00    -0.075 A 
ATOM      5  S   UNL d   1      -1.932   3.817  -4.124  0.00  0.00     0.015 SA
ATOM      6  C4  UNL d   1      -2.090   2.617  -5.324  0.00  0.00     0.022 A 
ATOM      7  C5  UNL d   1      -3.286   2.712  -5.995  0.00  0.00     0.026 A 
ATOM      8  C6  UNL d   1      -4.105   3.794  -5.525  0.00  0.00    -0.082 A 
ATOM      9  C7  UNL d   1      -5.387   4.228  -5.941  0.00  0.00     0.045 A 
ENDROOT
TORSDOF 0
ENDMDL
