MODEL 1
REMARK minimizedAffinity 7.93678999
REMARK minimizedRMSD -1
REMARK  0 active torsions:
REMARK  status: ('A' for Active; 'I' for Inactive)
ROOT
ATOM      1  C   UNL d   1      -1.753   0.587  -3.090  0.00  0.00    -0.002 A 
ATOM      2  C1  UNL d   1      -0.406   0.630  -3.418  0.00  0.00     0.010 A 
ATOM      3  C2  UNL d   1       0.081   1.605  -4.291  0.00  0.00     0.041 A 
ATOM      4  C3  UNL d   1      -0.817   2.545  -4.832  0.00  0.00    -0.075 A 
ATOM      5  S   UNL d   1      -0.446   3.830  -5.921  0.00  0.00     0.015 SA
ATOM      6  C4  UNL d   1      -2.068   4.351  -5.975  0.00  0.00     0.022 A 
ATOM      7  C5  UNL d   1      -2.886   3.576  -5.188  0.00  0.00     0.026 A 
ATOM      8  C6  UNL d   1      -2.178   2.523  -4.516  0.00  0.00    -0.082 A 
ATOM      9  C7  UNL d   1      -2.641   1.522  -3.629  0.00  0.00     0.045 A 
ENDROOT
TORSDOF 0
ENDMDL
