MODEL 1
REMARK minimizedAffinity 21.3302269
REMARK minimizedRMSD -1
REMARK  0 active torsions:
REMARK  status: ('A' for Active; 'I' for Inactive)
ROOT
ATOM      1  C   UNL d   1       2.666   1.849  -0.447  0.00  0.00    -0.002 A 
ATOM      2  C1  UNL d   1       2.723   1.917   0.938  0.00  0.00     0.010 A 
ATOM      3  C2  UNL d   1       3.335   3.000   1.571  0.00  0.00     0.041 A 
ATOM      4  C3  UNL d   1       3.892   4.025   0.782  0.00  0.00    -0.075 A 
ATOM      5  S   UNL d   1       4.691   5.448   1.338  0.00  0.00     0.015 SA
ATOM      6  C4  UNL d   1       4.974   6.000  -0.249  0.00  0.00     0.022 A 
ATOM      7  C5  UNL d   1       4.479   5.132  -1.193  0.00  0.00     0.026 A 
ATOM      8  C6  UNL d   1       3.847   3.980  -0.614  0.00  0.00    -0.082 A 
ATOM      9  C7  UNL d   1       3.220   2.867  -1.227  0.00  0.00     0.045 A 
ENDROOT
TORSDOF 0
ENDMDL
