MODEL 1
REMARK minimizedAffinity 12.2644691
REMARK minimizedRMSD -1
REMARK  0 active torsions:
REMARK  status: ('A' for Active; 'I' for Inactive)
ROOT
ATOM      1  C   UNL d   1      -2.397  -1.608   0.773  0.00  0.00    -0.002 A 
ATOM      2  C1  UNL d   1      -2.835  -1.810   2.074  0.00  0.00     0.010 A 
ATOM      3  C2  UNL d   1      -2.571  -3.012   2.733  0.00  0.00     0.041 A 
ATOM      4  C3  UNL d   1      -1.851  -4.016   2.057  0.00  0.00    -0.075 A 
ATOM      5  S   UNL d   1      -1.411  -5.568   2.666  0.00  0.00     0.015 SA
ATOM      6  C4  UNL d   1      -0.630  -5.999   1.214  0.00  0.00     0.022 A 
ATOM      7  C5  UNL d   1      -0.694  -4.995   0.276  0.00  0.00     0.026 A 
ATOM      8  C6  UNL d   1      -1.398  -3.836   0.747  0.00  0.00    -0.082 A 
ATOM      9  C7  UNL d   1      -1.683  -2.606   0.105  0.00  0.00     0.045 A 
ENDROOT
TORSDOF 0
ENDMDL
