MODEL 1
REMARK minimizedAffinity 14.3703508
REMARK minimizedRMSD -1
REMARK  0 active torsions:
REMARK  status: ('A' for Active; 'I' for Inactive)
ROOT
ATOM      1  C   UNL d   1      -2.252  -1.882   0.324  0.00  0.00    -0.002 A 
ATOM      2  C1  UNL d   1      -2.956  -2.001   1.513  0.00  0.00     0.010 A 
ATOM      3  C2  UNL d   1      -2.753  -3.097   2.353  0.00  0.00     0.041 A 
ATOM      4  C3  UNL d   1      -1.819  -4.082   1.974  0.00  0.00    -0.075 A 
ATOM      5  S   UNL d   1      -1.404  -5.511   2.845  0.00  0.00     0.015 SA
ATOM      6  C4  UNL d   1      -0.282  -5.998   1.659  0.00  0.00     0.022 A 
ATOM      7  C5  UNL d   1      -0.212  -5.103   0.617  0.00  0.00     0.026 A 
ATOM      8  C6  UNL d   1      -1.097  -3.984   0.782  0.00  0.00    -0.082 A 
ATOM      9  C7  UNL d   1      -1.326  -2.861  -0.049  0.00  0.00     0.045 A 
ENDROOT
TORSDOF 0
ENDMDL
