MODEL 1
REMARK minimizedAffinity -5.51812601
REMARK minimizedRMSD -1
REMARK  2 active torsions:
REMARK  status: ('A' for Active; 'I' for Inactive)
REMARK    1  A    between atoms: C1_2  and  C2_3 
REMARK    2  A    between atoms: C2_3  and  C3_4 
ROOT
ATOM      1  C3  UNL d   1       1.502   0.418  -0.130  0.00  0.00    -0.075 A 
ATOM      2  C4  UNL d   1       0.427   0.991   0.565  0.00  0.00     0.002 A 
ATOM      3  C5  UNL d   1       0.606   2.153   1.316  0.00  0.00     0.002 A 
ATOM      4  C6  UNL d   1       1.862   2.750   1.390  0.00  0.00    -0.004 A 
ATOM      5  C7  UNL d   1       2.942   2.181   0.718  0.00  0.00     0.002 A 
ATOM      6  C8  UNL d   1       2.764   1.021  -0.038  0.00  0.00     0.002 A 
ENDROOT
BRANCH   1   7
ATOM      7  C2  UNL d   1       1.308  -0.822  -0.968  0.00  0.00     0.056 C 
BRANCH   7   8
ATOM      8  C1  UNL d   1       0.034  -1.607  -0.636  0.00  0.00     0.007 C 
ATOM      9  C   UNL d   1      -0.885  -1.795  -1.836  0.00  0.00     0.009 C 
ENDBRANCH   7   8
ENDBRANCH   1   7
TORSDOF 2
ENDMDL
