MODEL 1
REMARK minimizedAffinity -2.55905128
REMARK minimizedRMSD -1
REMARK  2 active torsions:
REMARK  status: ('A' for Active; 'I' for Inactive)
REMARK    1  A    between atoms: C1_2  and  C2_3 
REMARK    2  A    between atoms: C2_3  and  C3_4 
ROOT
ATOM      1  C3  UNL d   1      -1.145  -0.938  -1.565  0.00  0.00    -0.075 A 
ATOM      2  C4  UNL d   1      -2.173  -1.738  -1.044  0.00  0.00     0.002 A 
ATOM      3  C5  UNL d   1      -3.212  -2.179  -1.864  0.00  0.00     0.002 A 
ATOM      4  C6  UNL d   1      -3.242  -1.820  -3.209  0.00  0.00    -0.004 A 
ATOM      5  C7  UNL d   1      -2.235  -1.012  -3.734  0.00  0.00     0.002 A 
ATOM      6  C8  UNL d   1      -1.192  -0.573  -2.917  0.00  0.00     0.002 A 
ENDROOT
BRANCH   1   7
ATOM      7  C2  UNL d   1      -0.002  -0.481  -0.690  0.00  0.00     0.056 C 
BRANCH   7   8
ATOM      8  C1  UNL d   1      -0.423  -0.082   0.728  0.00  0.00     0.007 C 
ATOM      9  C   UNL d   1       0.565   0.857   1.406  0.00  0.00     0.009 C 
ENDBRANCH   7   8
ENDBRANCH   1   7
TORSDOF 2
ENDMDL
