MODEL 1
REMARK minimizedAffinity -3.67539358
REMARK minimizedRMSD -1
REMARK  2 active torsions:
REMARK  status: ('A' for Active; 'I' for Inactive)
REMARK    1  A    between atoms: C1_2  and  C2_3 
REMARK    2  A    between atoms: C2_3  and  C3_4 
ROOT
ATOM      1  C3  UNL d   1       0.335   0.139   0.079  0.00  0.00    -0.075 A 
ATOM      2  C4  UNL d   1       1.024   1.247  -0.435  0.00  0.00     0.002 A 
ATOM      3  C5  UNL d   1       1.149   2.415   0.318  0.00  0.00     0.002 A 
ATOM      4  C6  UNL d   1       0.580   2.494   1.587  0.00  0.00    -0.004 A 
ATOM      5  C7  UNL d   1      -0.121   1.405   2.101  0.00  0.00     0.002 A 
ATOM      6  C8  UNL d   1      -0.244   0.234   1.352  0.00  0.00     0.002 A 
ENDROOT
BRANCH   1   7
ATOM      7  C2  UNL d   1       0.222  -1.138  -0.718  0.00  0.00     0.056 C 
BRANCH   7   8
ATOM      8  C1  UNL d   1      -1.197  -1.441  -1.212  0.00  0.00     0.007 C 
ATOM      9  C   UNL d   1      -1.311  -1.468  -2.730  0.00  0.00     0.009 C 
ENDBRANCH   7   8
ENDBRANCH   1   7
TORSDOF 2
ENDMDL
