MODEL 1
REMARK minimizedAffinity -3.63477278
REMARK minimizedRMSD -1
REMARK  2 active torsions:
REMARK  status: ('A' for Active; 'I' for Inactive)
REMARK    1  A    between atoms: C1_2  and  C2_3 
REMARK    2  A    between atoms: C2_3  and  C3_4 
ROOT
ATOM      1  C3  UNL d   1      -0.999  -1.478  -1.604  0.00  0.00    -0.075 A 
ATOM      2  C4  UNL d   1      -0.822  -0.927  -2.881  0.00  0.00     0.002 A 
ATOM      3  C5  UNL d   1      -1.892  -0.846  -3.772  0.00  0.00     0.002 A 
ATOM      4  C6  UNL d   1      -3.148  -1.323  -3.403  0.00  0.00    -0.004 A 
ATOM      5  C7  UNL d   1      -3.331  -1.888  -2.142  0.00  0.00     0.002 A 
ATOM      6  C8  UNL d   1      -2.263  -1.966  -1.247  0.00  0.00     0.002 A 
ENDROOT
BRANCH   1   7
ATOM      7  C2  UNL d   1       0.148  -1.542  -0.624  0.00  0.00     0.056 C 
BRANCH   7   8
ATOM      8  C1  UNL d   1       0.769  -0.179  -0.300  0.00  0.00     0.007 C 
ATOM      9  C   UNL d   1      -0.036   0.621   0.715  0.00  0.00     0.009 C 
ENDBRANCH   7   8
ENDBRANCH   1   7
TORSDOF 2
ENDMDL
