MODEL 1
REMARK minimizedAffinity -3.02904391
REMARK minimizedRMSD -1
REMARK  2 active torsions:
REMARK  status: ('A' for Active; 'I' for Inactive)
REMARK    1  A    between atoms: C1_2  and  C2_3 
REMARK    2  A    between atoms: C2_3  and  C3_4 
ROOT
ATOM      1  C3  UNL d   1      -0.341  -0.523   0.019  0.00  0.00    -0.075 A 
ATOM      2  C4  UNL d   1      -1.287  -0.528   1.055  0.00  0.00     0.002 A 
ATOM      3  C5  UNL d   1      -1.309   0.499   1.999  0.00  0.00     0.002 A 
ATOM      4  C6  UNL d   1      -0.382   1.536   1.926  0.00  0.00    -0.004 A 
ATOM      5  C7  UNL d   1       0.573   1.542   0.912  0.00  0.00     0.002 A 
ATOM      6  C8  UNL d   1       0.595   0.518  -0.037  0.00  0.00     0.002 A 
ENDROOT
BRANCH   1   7
ATOM      7  C2  UNL d   1      -0.330  -1.616  -1.022  0.00  0.00     0.056 C 
BRANCH   7   8
ATOM      8  C1  UNL d   1      -0.837  -1.171  -2.398  0.00  0.00     0.007 C 
ATOM      9  C   UNL d   1      -1.976  -2.033  -2.926  0.00  0.00     0.009 C 
ENDBRANCH   7   8
ENDBRANCH   1   7
TORSDOF 2
ENDMDL
