MODEL 1
REMARK minimizedAffinity -4.25059462
REMARK minimizedRMSD -1
REMARK  2 active torsions:
REMARK  status: ('A' for Active; 'I' for Inactive)
REMARK    1  A    between atoms: C1_2  and  C2_3 
REMARK    2  A    between atoms: C2_3  and  C3_4 
ROOT
ATOM      1  C3  UNL d   1      -0.291  -0.006   0.194  0.00  0.00    -0.075 A 
ATOM      2  C4  UNL d   1      -0.092   1.017  -0.744  0.00  0.00     0.002 A 
ATOM      3  C5  UNL d   1       0.373   2.269  -0.339  0.00  0.00     0.002 A 
ATOM      4  C6  UNL d   1       0.634   2.516   1.007  0.00  0.00    -0.004 A 
ATOM      5  C7  UNL d   1       0.424   1.512   1.949  0.00  0.00     0.002 A 
ATOM      6  C8  UNL d   1      -0.036   0.258   1.546  0.00  0.00     0.002 A 
ENDROOT
BRANCH   1   7
ATOM      7  C2  UNL d   1      -0.766  -1.372  -0.242  0.00  0.00     0.056 C 
BRANCH   7   8
ATOM      8  C1  UNL d   1      -0.846  -1.549  -1.762  0.00  0.00     0.007 C 
ATOM      9  C   UNL d   1      -2.005  -2.433  -2.203  0.00  0.00     0.009 C 
ENDBRANCH   7   8
ENDBRANCH   1   7
TORSDOF 2
ENDMDL
