MODEL 1
REMARK minimizedAffinity -2.85484886
REMARK minimizedRMSD -1
REMARK  2 active torsions:
REMARK  status: ('A' for Active; 'I' for Inactive)
REMARK    1  A    between atoms: C1_2  and  C2_3 
REMARK    2  A    between atoms: C2_3  and  C3_4 
ROOT
ATOM      1  C3  UNL d   1      -0.558  -0.787  -0.281  0.00  0.00    -0.075 A 
ATOM      2  C4  UNL d   1      -0.894  -0.064   0.872  0.00  0.00     0.002 A 
ATOM      3  C5  UNL d   1       0.022   0.816   1.449  0.00  0.00     0.002 A 
ATOM      4  C6  UNL d   1       1.287   0.975   0.888  0.00  0.00    -0.004 A 
ATOM      5  C7  UNL d   1       1.638   0.249  -0.248  0.00  0.00     0.002 A 
ATOM      6  C8  UNL d   1       0.722  -0.628  -0.830  0.00  0.00     0.002 A 
ENDROOT
BRANCH   1   7
ATOM      7  C2  UNL d   1      -1.556  -1.718  -0.928  0.00  0.00     0.056 C 
BRANCH   7   8
ATOM      8  C1  UNL d   1      -1.741  -1.487  -2.431  0.00  0.00     0.007 C 
ATOM      9  C   UNL d   1      -3.101  -1.941  -2.945  0.00  0.00     0.009 C 
ENDBRANCH   7   8
ENDBRANCH   1   7
TORSDOF 2
ENDMDL
