MODEL 1
REMARK minimizedAffinity -3.56216812
REMARK minimizedRMSD -1
REMARK  2 active torsions:
REMARK  status: ('A' for Active; 'I' for Inactive)
REMARK    1  A    between atoms: C1_2  and  C2_3 
REMARK    2  A    between atoms: C2_3  and  C3_4 
ROOT
ATOM      1  C3  UNL d   1      -0.679  -0.906  -1.267  0.00  0.00    -0.075 A 
ATOM      2  C4  UNL d   1      -0.874  -0.447  -2.578  0.00  0.00     0.002 A 
ATOM      3  C5  UNL d   1      -1.938  -0.921  -3.344  0.00  0.00     0.002 A 
ATOM      4  C6  UNL d   1      -2.814  -1.867  -2.815  0.00  0.00    -0.004 A 
ATOM      5  C7  UNL d   1      -2.621  -2.343  -1.520  0.00  0.00     0.002 A 
ATOM      6  C8  UNL d   1      -1.559  -1.866  -0.749  0.00  0.00     0.002 A 
ENDROOT
BRANCH   1   7
ATOM      7  C2  UNL d   1       0.454  -0.374  -0.422  0.00  0.00     0.056 C 
BRANCH   7   8
ATOM      8  C1  UNL d   1       0.054  -0.043   1.020  0.00  0.00     0.007 C 
ATOM      9  C   UNL d   1      -0.919   1.124   1.120  0.00  0.00     0.009 C 
ENDBRANCH   7   8
ENDBRANCH   1   7
TORSDOF 2
ENDMDL
