MODEL 1
REMARK minimizedAffinity 2.5275166
REMARK minimizedRMSD -1
REMARK  2 active torsions:
REMARK  status: ('A' for Active; 'I' for Inactive)
REMARK    1  A    between atoms: C1_2  and  C2_3 
REMARK    2  A    between atoms: C2_3  and  C3_4 
ROOT
ATOM      1  C3  UNL d   1      -2.321  -0.811  -0.949  0.00  0.00    -0.075 A 
ATOM      2  C4  UNL d   1      -1.060  -1.371  -0.696  0.00  0.00     0.002 A 
ATOM      3  C5  UNL d   1      -0.416  -1.145   0.521  0.00  0.00     0.002 A 
ATOM      4  C6  UNL d   1      -1.018  -0.349   1.493  0.00  0.00    -0.004 A 
ATOM      5  C7  UNL d   1      -2.262   0.226   1.246  0.00  0.00     0.002 A 
ATOM      6  C8  UNL d   1      -2.911  -0.003   0.032  0.00  0.00     0.002 A 
ENDROOT
BRANCH   1   7
ATOM      7  C2  UNL d   1      -3.037  -1.076  -2.252  0.00  0.00     0.056 C 
BRANCH   7   8
ATOM      8  C1  UNL d   1      -3.439  -2.541  -2.456  0.00  0.00     0.007 C 
ATOM      9  C   UNL d   1      -4.823  -2.864  -1.911  0.00  0.00     0.009 C 
ENDBRANCH   7   8
ENDBRANCH   1   7
TORSDOF 2
ENDMDL
