MODEL 1
REMARK minimizedAffinity -2.55805349
REMARK minimizedRMSD -1
REMARK  2 active torsions:
REMARK  status: ('A' for Active; 'I' for Inactive)
REMARK    1  A    between atoms: C1_2  and  C2_3 
REMARK    2  A    between atoms: C2_3  and  C3_4 
ROOT
ATOM      1  C3  UNL d   1      -0.021  -0.222  -0.329  0.00  0.00    -0.075 A 
ATOM      2  C4  UNL d   1      -0.764  -0.263   0.859  0.00  0.00     0.002 A 
ATOM      3  C5  UNL d   1      -0.495   0.632   1.894  0.00  0.00     0.002 A 
ATOM      4  C6  UNL d   1       0.525   1.572   1.760  0.00  0.00    -0.004 A 
ATOM      5  C7  UNL d   1       1.281   1.611   0.590  0.00  0.00     0.002 A 
ATOM      6  C8  UNL d   1       1.011   0.719  -0.449  0.00  0.00     0.002 A 
ENDROOT
BRANCH   1   7
ATOM      7  C2  UNL d   1      -0.326  -1.169  -1.465  0.00  0.00     0.056 C 
BRANCH   7   8
ATOM      8  C1  UNL d   1      -1.808  -1.536  -1.589  0.00  0.00     0.007 C 
ATOM      9  C   UNL d   1      -2.231  -1.850  -3.018  0.00  0.00     0.009 C 
ENDBRANCH   7   8
ENDBRANCH   1   7
TORSDOF 2
ENDMDL
