MODEL 1
REMARK minimizedAffinity -3.66477394
REMARK minimizedRMSD -1
REMARK  2 active torsions:
REMARK  status: ('A' for Active; 'I' for Inactive)
REMARK    1  A    between atoms: C1_2  and  C2_3 
REMARK    2  A    between atoms: C2_3  and  C3_4 
ROOT
ATOM      1  C3  UNL d   1      -0.131  -0.187   0.135  0.00  0.00    -0.075 A 
ATOM      2  C4  UNL d   1      -1.186   0.364   0.876  0.00  0.00     0.002 A 
ATOM      3  C5  UNL d   1      -0.981   1.496   1.666  0.00  0.00     0.002 A 
ATOM      4  C6  UNL d   1       0.280   2.083   1.733  0.00  0.00    -0.004 A 
ATOM      5  C7  UNL d   1       1.339   1.534   1.013  0.00  0.00     0.002 A 
ATOM      6  C8  UNL d   1       1.136   0.405   0.219  0.00  0.00     0.002 A 
ENDROOT
BRANCH   1   7
ATOM      7  C2  UNL d   1      -0.353  -1.394  -0.745  0.00  0.00     0.056 C 
BRANCH   7   8
ATOM      8  C1  UNL d   1      -1.829  -1.740  -0.969  0.00  0.00     0.007 C 
ATOM      9  C   UNL d   1      -2.259  -1.621  -2.425  0.00  0.00     0.009 C 
ENDBRANCH   7   8
ENDBRANCH   1   7
TORSDOF 2
ENDMDL
