MODEL 1
REMARK minimizedAffinity -5.07197952
REMARK minimizedRMSD -1
REMARK  2 active torsions:
REMARK  status: ('A' for Active; 'I' for Inactive)
REMARK    1  A    between atoms: C1_2  and  C2_3 
REMARK    2  A    between atoms: C2_3  and  C3_4 
ROOT
ATOM      1  C3  UNL d   1      -3.197  -3.407  -1.680  0.00  0.00    -0.075 A 
ATOM      2  C4  UNL d   1      -3.717  -3.045  -2.932  0.00  0.00     0.002 A 
ATOM      3  C5  UNL d   1      -3.132  -2.017  -3.671  0.00  0.00     0.002 A 
ATOM      4  C6  UNL d   1      -2.030  -1.332  -3.166  0.00  0.00    -0.004 A 
ATOM      5  C7  UNL d   1      -1.515  -1.671  -1.917  0.00  0.00     0.002 A 
ATOM      6  C8  UNL d   1      -2.095  -2.703  -1.177  0.00  0.00     0.002 A 
ENDROOT
BRANCH   1   7
ATOM      7  C2  UNL d   1      -3.807  -4.539  -0.888  0.00  0.00     0.056 C 
BRANCH   7   8
ATOM      8  C1  UNL d   1      -5.338  -4.504  -0.828  0.00  0.00     0.007 C 
ATOM      9  C   UNL d   1      -5.897  -4.982   0.505  0.00  0.00     0.009 C 
ENDBRANCH   7   8
ENDBRANCH   1   7
TORSDOF 2
ENDMDL
