MODEL 1
REMARK minimizedAffinity -5.24377298
REMARK minimizedRMSD -1
REMARK  2 active torsions:
REMARK  status: ('A' for Active; 'I' for Inactive)
REMARK    1  A    between atoms: C1_2  and  C2_3 
REMARK    2  A    between atoms: C2_3  and  C3_4 
ROOT
ATOM      1  C3  UNL d   1      -0.350  -0.468   0.017  0.00  0.00    -0.075 A 
ATOM      2  C4  UNL d   1      -0.812   0.540   0.875  0.00  0.00     0.002 A 
ATOM      3  C5  UNL d   1       0.085   1.420   1.482  0.00  0.00     0.002 A 
ATOM      4  C6  UNL d   1       1.453   1.296   1.249  0.00  0.00    -0.004 A 
ATOM      5  C7  UNL d   1       1.924   0.287   0.412  0.00  0.00     0.002 A 
ATOM      6  C8  UNL d   1       1.029  -0.592  -0.201  0.00  0.00     0.002 A 
ENDROOT
BRANCH   1   7
ATOM      7  C2  UNL d   1      -1.317  -1.405  -0.666  0.00  0.00     0.056 C 
BRANCH   7   8
ATOM      8  C1  UNL d   1      -1.394  -1.222  -2.186  0.00  0.00     0.007 C 
ATOM      9  C   UNL d   1      -2.417  -2.135  -2.850  0.00  0.00     0.009 C 
ENDBRANCH   7   8
ENDBRANCH   1   7
TORSDOF 2
ENDMDL
