MODEL 1
REMARK minimizedAffinity 7.90448046
REMARK minimizedRMSD -1
REMARK  2 active torsions:
REMARK  status: ('A' for Active; 'I' for Inactive)
REMARK    1  A    between atoms: C1_2  and  C2_3 
REMARK    2  A    between atoms: C2_3  and  C3_4 
ROOT
ATOM      1  C3  UNL d   1      -2.722  -2.787  -0.232  0.00  0.00    -0.075 A 
ATOM      2  C4  UNL d   1      -3.674  -3.372  -1.080  0.00  0.00     0.002 A 
ATOM      3  C5  UNL d   1      -3.544  -3.273  -2.465  0.00  0.00     0.002 A 
ATOM      4  C6  UNL d   1      -2.469  -2.582  -3.020  0.00  0.00    -0.004 A 
ATOM      5  C7  UNL d   1      -1.527  -1.983  -2.187  0.00  0.00     0.002 A 
ATOM      6  C8  UNL d   1      -1.652  -2.084  -0.800  0.00  0.00     0.002 A 
ENDROOT
BRANCH   1   7
ATOM      7  C2  UNL d   1      -2.841  -2.916   1.268  0.00  0.00     0.056 C 
BRANCH   7   8
ATOM      8  C1  UNL d   1      -1.499  -3.089   1.988  0.00  0.00     0.007 C 
ATOM      9  C   UNL d   1      -1.390  -4.405   2.746  0.00  0.00     0.009 C 
ENDBRANCH   7   8
ENDBRANCH   1   7
TORSDOF 2
ENDMDL
