MODEL 1
REMARK minimizedAffinity 6.37110472
REMARK minimizedRMSD -1
REMARK  2 active torsions:
REMARK  status: ('A' for Active; 'I' for Inactive)
REMARK    1  A    between atoms: C1_2  and  C2_3 
REMARK    2  A    between atoms: C2_3  and  C3_4 
ROOT
ATOM      1  C3  UNL d   1       3.312   1.227   0.826  0.00  0.00    -0.075 A 
ATOM      2  C4  UNL d   1       3.664  -0.008   1.389  0.00  0.00     0.002 A 
ATOM      3  C5  UNL d   1       5.001  -0.403   1.452  0.00  0.00     0.002 A 
ATOM      4  C6  UNL d   1       5.999   0.426   0.945  0.00  0.00    -0.004 A 
ATOM      5  C7  UNL d   1       5.659   1.648   0.368  0.00  0.00     0.002 A 
ATOM      6  C8  UNL d   1       4.323   2.047   0.308  0.00  0.00     0.002 A 
ENDROOT
BRANCH   1   7
ATOM      7  C2  UNL d   1       1.870   1.673   0.782  0.00  0.00     0.056 C 
BRANCH   7   8
ATOM      8  C1  UNL d   1       1.135   1.542   2.120  0.00  0.00     0.007 C 
ATOM      9  C   UNL d   1       0.041   2.584   2.310  0.00  0.00     0.009 C 
ENDBRANCH   7   8
ENDBRANCH   1   7
TORSDOF 2
ENDMDL
