MODEL 1
REMARK minimizedAffinity 4.62617302
REMARK minimizedRMSD -1
REMARK  2 active torsions:
REMARK  status: ('A' for Active; 'I' for Inactive)
REMARK    1  A    between atoms: C1_2  and  C2_3 
REMARK    2  A    between atoms: C2_3  and  C3_4 
ROOT
ATOM      1  C3  UNL d   1      -1.213   1.440   2.487  0.00  0.00    -0.075 A 
ATOM      2  C4  UNL d   1      -1.030   0.133   2.959  0.00  0.00     0.002 A 
ATOM      3  C5  UNL d   1      -2.126  -0.651   3.319  0.00  0.00     0.002 A 
ATOM      4  C6  UNL d   1      -3.417  -0.135   3.222  0.00  0.00    -0.004 A 
ATOM      5  C7  UNL d   1      -3.610   1.168   2.770  0.00  0.00     0.002 A 
ATOM      6  C8  UNL d   1      -2.515   1.953   2.405  0.00  0.00     0.002 A 
ENDROOT
BRANCH   1   7
ATOM      7  C2  UNL d   1      -0.033   2.283   2.068  0.00  0.00     0.056 C 
BRANCH   7   8
ATOM      8  C1  UNL d   1       1.314   1.557   2.153  0.00  0.00     0.007 C 
ATOM      9  C   UNL d   1       1.859   1.142   0.793  0.00  0.00     0.009 C 
ENDBRANCH   7   8
ENDBRANCH   1   7
TORSDOF 2
ENDMDL
