MODEL 1
REMARK minimizedAffinity 9.53149986
REMARK minimizedRMSD -1
REMARK  2 active torsions:
REMARK  status: ('A' for Active; 'I' for Inactive)
REMARK    1  A    between atoms: C1_2  and  C2_3 
REMARK    2  A    between atoms: C2_3  and  C3_4 
ROOT
ATOM      1  C3  UNL d   1       3.763   2.722   0.642  0.00  0.00    -0.075 A 
ATOM      2  C4  UNL d   1       2.363   2.713   0.718  0.00  0.00     0.002 A 
ATOM      3  C5  UNL d   1       1.674   1.522   0.951  0.00  0.00     0.002 A 
ATOM      4  C6  UNL d   1       2.374   0.327   1.101  0.00  0.00    -0.004 A 
ATOM      5  C7  UNL d   1       3.764   0.322   1.011  0.00  0.00     0.002 A 
ATOM      6  C8  UNL d   1       4.456   1.513   0.782  0.00  0.00     0.002 A 
ENDROOT
BRANCH   1   7
ATOM      7  C2  UNL d   1       4.516   4.012   0.420  0.00  0.00     0.056 C 
BRANCH   7   8
ATOM      8  C1  UNL d   1       4.034   5.175   1.293  0.00  0.00     0.007 C 
ATOM      9  C   UNL d   1       5.144   5.799   2.128  0.00  0.00     0.009 C 
ENDBRANCH   7   8
ENDBRANCH   1   7
TORSDOF 2
ENDMDL
