MODEL 1
REMARK minimizedAffinity 3.39373326
REMARK minimizedRMSD -1
REMARK  2 active torsions:
REMARK  status: ('A' for Active; 'I' for Inactive)
REMARK    1  A    between atoms: C1_2  and  C2_3 
REMARK    2  A    between atoms: C2_3  and  C3_4 
ROOT
ATOM      1  C3  UNL d   1       3.853   2.354   1.163  0.00  0.00    -0.075 A 
ATOM      2  C4  UNL d   1       2.499   2.523   1.487  0.00  0.00     0.002 A 
ATOM      3  C5  UNL d   1       1.663   1.416   1.638  0.00  0.00     0.002 A 
ATOM      4  C6  UNL d   1       2.166   0.129   1.456  0.00  0.00    -0.004 A 
ATOM      5  C7  UNL d   1       3.506  -0.050   1.117  0.00  0.00     0.002 A 
ATOM      6  C8  UNL d   1       4.346   1.056   0.971  0.00  0.00     0.002 A 
ENDROOT
BRANCH   1   7
ATOM      7  C2  UNL d   1       4.770   3.546   1.028  0.00  0.00     0.056 C 
BRANCH   7   8
ATOM      8  C1  UNL d   1       4.304   4.782   1.805  0.00  0.00     0.007 C 
ATOM      9  C   UNL d   1       5.433   5.485   2.547  0.00  0.00     0.009 C 
ENDBRANCH   7   8
ENDBRANCH   1   7
TORSDOF 2
ENDMDL
