MODEL 1
REMARK minimizedAffinity 10.3303709
REMARK minimizedRMSD -1
REMARK  2 active torsions:
REMARK  status: ('A' for Active; 'I' for Inactive)
REMARK    1  A    between atoms: C1_2  and  C2_3 
REMARK    2  A    between atoms: C2_3  and  C3_4 
ROOT
ATOM      1  C3  UNL d   1       1.367   0.953   1.969  0.00  0.00    -0.075 A 
ATOM      2  C4  UNL d   1       2.167  -0.197   2.027  0.00  0.00     0.002 A 
ATOM      3  C5  UNL d   1       3.418  -0.221   1.410  0.00  0.00     0.002 A 
ATOM      4  C6  UNL d   1       3.879   0.898   0.719  0.00  0.00    -0.004 A 
ATOM      5  C7  UNL d   1       3.085   2.040   0.641  0.00  0.00     0.002 A 
ATOM      6  C8  UNL d   1       1.835   2.068   1.262  0.00  0.00     0.002 A 
ENDROOT
BRANCH   1   7
ATOM      7  C2  UNL d   1       0.025   0.996   2.661  0.00  0.00     0.056 C 
BRANCH   7   8
ATOM      8  C1  UNL d   1      -0.824   2.219   2.299  0.00  0.00     0.007 C 
ATOM      9  C   UNL d   1      -2.293   2.060   2.667  0.00  0.00     0.009 C 
ENDBRANCH   7   8
ENDBRANCH   1   7
TORSDOF 2
ENDMDL
