MODEL 1
REMARK minimizedAffinity 4.16923046
REMARK minimizedRMSD -1
REMARK  2 active torsions:
REMARK  status: ('A' for Active; 'I' for Inactive)
REMARK    1  A    between atoms: C1_2  and  C2_3 
REMARK    2  A    between atoms: C2_3  and  C3_4 
ROOT
ATOM      1  C3  UNL d   1      -3.159  -4.068  -2.547  0.00  0.00    -0.075 A 
ATOM      2  C4  UNL d   1      -2.923  -3.139  -1.523  0.00  0.00     0.002 A 
ATOM      3  C5  UNL d   1      -2.216  -1.965  -1.781  0.00  0.00     0.002 A 
ATOM      4  C6  UNL d   1      -1.728  -1.708  -3.060  0.00  0.00    -0.004 A 
ATOM      5  C7  UNL d   1      -1.942  -2.631  -4.081  0.00  0.00     0.002 A 
ATOM      6  C8  UNL d   1      -2.653  -3.806  -3.827  0.00  0.00     0.002 A 
ENDROOT
BRANCH   1   7
ATOM      7  C2  UNL d   1      -3.948  -5.328  -2.281  0.00  0.00     0.056 C 
BRANCH   7   8
ATOM      8  C1  UNL d   1      -5.373  -5.302  -2.845  0.00  0.00     0.007 C 
ATOM      9  C   UNL d   1      -5.911  -3.892  -3.052  0.00  0.00     0.009 C 
ENDBRANCH   7   8
ENDBRANCH   1   7
TORSDOF 2
ENDMDL
