MODEL 1
REMARK minimizedAffinity -1.41922247
REMARK minimizedRMSD -1
REMARK  2 active torsions:
REMARK  status: ('A' for Active; 'I' for Inactive)
REMARK    1  A    between atoms: C1_2  and  C2_3 
REMARK    2  A    between atoms: C2_3  and  C3_4 
ROOT
ATOM      1  C3  UNL d   1       3.330   0.903   0.987  0.00  0.00    -0.075 A 
ATOM      2  C4  UNL d   1       3.753   2.224   0.777  0.00  0.00     0.002 A 
ATOM      3  C5  UNL d   1       5.082   2.586   1.002  0.00  0.00     0.002 A 
ATOM      4  C6  UNL d   1       6.000   1.637   1.448  0.00  0.00    -0.004 A 
ATOM      5  C7  UNL d   1       5.586   0.327   1.676  0.00  0.00     0.002 A 
ATOM      6  C8  UNL d   1       4.259  -0.039   1.448  0.00  0.00     0.002 A 
ENDROOT
BRANCH   1   7
ATOM      7  C2  UNL d   1       1.900   0.498   0.718  0.00  0.00     0.056 C 
BRANCH   7   8
ATOM      8  C1  UNL d   1       1.738  -0.959   0.275  0.00  0.00     0.007 C 
ATOM      9  C   UNL d   1       0.286  -1.418   0.239  0.00  0.00     0.009 C 
ENDBRANCH   7   8
ENDBRANCH   1   7
TORSDOF 2
ENDMDL
