MODEL 1
REMARK minimizedAffinity 9.59214211
REMARK minimizedRMSD -1
REMARK  2 active torsions:
REMARK  status: ('A' for Active; 'I' for Inactive)
REMARK    1  A    between atoms: C1_2  and  C2_3 
REMARK    2  A    between atoms: C2_3  and  C3_4 
ROOT
ATOM      1  C3  UNL d   1       4.013   1.761   0.306  0.00  0.00    -0.075 A 
ATOM      2  C4  UNL d   1       4.444   0.502   0.750  0.00  0.00     0.002 A 
ATOM      3  C5  UNL d   1       3.628  -0.277   1.570  0.00  0.00     0.002 A 
ATOM      4  C6  UNL d   1       2.378   0.194   1.964  0.00  0.00    -0.004 A 
ATOM      5  C7  UNL d   1       1.946   1.450   1.543  0.00  0.00     0.002 A 
ATOM      6  C8  UNL d   1       2.759   2.230   0.719  0.00  0.00     0.002 A 
ENDROOT
BRANCH   1   7
ATOM      7  C2  UNL d   1       4.879   2.597  -0.606  0.00  0.00     0.056 C 
BRANCH   7   8
ATOM      8  C1  UNL d   1       5.184   1.937  -1.955  0.00  0.00     0.007 C 
ATOM      9  C   UNL d   1       4.483   2.613  -3.126  0.00  0.00     0.009 C 
ENDBRANCH   7   8
ENDBRANCH   1   7
TORSDOF 2
ENDMDL
