MODEL 1
REMARK minimizedAffinity 11.0988255
REMARK minimizedRMSD -1
REMARK  2 active torsions:
REMARK  status: ('A' for Active; 'I' for Inactive)
REMARK    1  A    between atoms: C1_2  and  C2_3 
REMARK    2  A    between atoms: C2_3  and  C3_4 
ROOT
ATOM      1  C3  UNL d   1      -1.088  -2.348  -3.607  0.00  0.00    -0.075 A 
ATOM      2  C4  UNL d   1       0.078  -3.112  -3.453  0.00  0.00     0.002 A 
ATOM      3  C5  UNL d   1       0.862  -3.439  -4.560  0.00  0.00     0.002 A 
ATOM      4  C6  UNL d   1       0.485  -3.018  -5.833  0.00  0.00    -0.004 A 
ATOM      5  C7  UNL d   1      -0.681  -2.273  -6.000  0.00  0.00     0.002 A 
ATOM      6  C8  UNL d   1      -1.465  -1.940  -4.894  0.00  0.00     0.002 A 
ENDROOT
BRANCH   1   7
ATOM      7  C2  UNL d   1      -1.925  -1.966  -2.409  0.00  0.00     0.056 C 
BRANCH   7   8
ATOM      8  C1  UNL d   1      -1.134  -1.284  -1.288  0.00  0.00     0.007 C 
ATOM      9  C   UNL d   1      -1.138  -2.072   0.015  0.00  0.00     0.009 C 
ENDBRANCH   7   8
ENDBRANCH   1   7
TORSDOF 2
ENDMDL
