MODEL 1
REMARK minimizedAffinity 14.3029251
REMARK minimizedRMSD -1
REMARK  2 active torsions:
REMARK  status: ('A' for Active; 'I' for Inactive)
REMARK    1  A    between atoms: C1_2  and  C2_3 
REMARK    2  A    between atoms: C2_3  and  C3_4 
ROOT
ATOM      1  C3  UNL d   1       0.918   0.898   3.609  0.00  0.00    -0.075 A 
ATOM      2  C4  UNL d   1       1.056   1.365   4.924  0.00  0.00     0.002 A 
ATOM      3  C5  UNL d   1       0.434   0.700   5.981  0.00  0.00     0.002 A 
ATOM      4  C6  UNL d   1      -0.342  -0.431   5.736  0.00  0.00    -0.004 A 
ATOM      5  C7  UNL d   1      -0.500  -0.894   4.431  0.00  0.00     0.002 A 
ATOM      6  C8  UNL d   1       0.125  -0.233   3.372  0.00  0.00     0.002 A 
ENDROOT
BRANCH   1   7
ATOM      7  C2  UNL d   1       1.613   1.596   2.464  0.00  0.00     0.056 C 
BRANCH   7   8
ATOM      8  C1  UNL d   1       2.132   0.648   1.379  0.00  0.00     0.007 C 
ATOM      9  C   UNL d   1       3.628   0.378   1.483  0.00  0.00     0.009 C 
ENDBRANCH   7   8
ENDBRANCH   1   7
TORSDOF 2
ENDMDL
