MODEL 1
REMARK minimizedAffinity 11.7471933
REMARK minimizedRMSD -1
REMARK  2 active torsions:
REMARK  status: ('A' for Active; 'I' for Inactive)
REMARK    1  A    between atoms: C1_2  and  C2_3 
REMARK    2  A    between atoms: C2_3  and  C3_4 
ROOT
ATOM      1  C3  UNL d   1      -1.414  -2.685  -0.261  0.00  0.00    -0.075 A 
ATOM      2  C4  UNL d   1      -2.792  -2.913  -0.127  0.00  0.00     0.002 A 
ATOM      3  C5  UNL d   1      -3.599  -3.054  -1.256  0.00  0.00     0.002 A 
ATOM      4  C6  UNL d   1      -3.044  -2.960  -2.530  0.00  0.00    -0.004 A 
ATOM      5  C7  UNL d   1      -1.680  -2.717  -2.675  0.00  0.00     0.002 A 
ATOM      6  C8  UNL d   1      -0.868  -2.580  -1.548  0.00  0.00     0.002 A 
ENDROOT
BRANCH   1   7
ATOM      7  C2  UNL d   1      -0.530  -2.560   0.956  0.00  0.00     0.056 C 
BRANCH   7   8
ATOM      8  C1  UNL d   1      -1.181  -3.051   2.253  0.00  0.00     0.007 C 
ATOM      9  C   UNL d   1      -1.066  -2.053   3.398  0.00  0.00     0.009 C 
ENDBRANCH   7   8
ENDBRANCH   1   7
TORSDOF 2
ENDMDL
