MODEL 1
REMARK minimizedAffinity -1.22276628
REMARK minimizedRMSD -1
REMARK  0 active torsions:
REMARK  status: ('A' for Active; 'I' for Inactive)
ROOT
ATOM      1  C   UNL d   1      -2.241   2.192   0.366  0.00  0.00     0.172 C 
ATOM      2  N   UNL d   1      -1.092   1.483  -0.146  0.00  0.00    -0.070 N 
ATOM      3  C1  UNL d   1      -0.730   0.205   0.186  0.00  0.00    -0.004 A 
ATOM      4  C2  UNL d   1       0.417  -0.104  -0.513  0.00  0.00    -0.047 A 
ATOM      5  C3  UNL d   1       0.755   1.027  -1.293  0.00  0.00    -0.047 A 
ATOM      6  C4  UNL d   1      -0.196   1.995  -1.047  0.00  0.00    -0.004 A 
ENDROOT
TORSDOF 0
ENDMDL
