MODEL 1
REMARK minimizedAffinity -2.64154601
REMARK minimizedRMSD -1
REMARK  0 active torsions:
REMARK  status: ('A' for Active; 'I' for Inactive)
ROOT
ATOM      1  C   UNL d   1       0.021  -0.768   1.488  0.00  0.00     0.172 C 
ATOM      2  N   UNL d   1      -0.765   0.342   1.003  0.00  0.00    -0.070 N 
ATOM      3  C1  UNL d   1      -1.787   0.953   1.679  0.00  0.00    -0.004 A 
ATOM      4  C2  UNL d   1      -2.278   1.962   0.880  0.00  0.00    -0.047 A 
ATOM      5  C3  UNL d   1      -1.525   1.958  -0.319  0.00  0.00    -0.047 A 
ATOM      6  C4  UNL d   1      -0.595   0.945  -0.216  0.00  0.00    -0.004 A 
ENDROOT
TORSDOF 0
ENDMDL
