MODEL 1
REMARK minimizedAffinity -3.1680429
REMARK minimizedRMSD -1
REMARK  0 active torsions:
REMARK  status: ('A' for Active; 'I' for Inactive)
ROOT
ATOM      1  C   UNL d   1       0.900  -0.790  -0.575  0.00  0.00     0.172 C 
ATOM      2  N   UNL d   1       0.024   0.070   0.186  0.00  0.00    -0.070 N 
ATOM      3  C1  UNL d   1      -0.328  -0.108   1.497  0.00  0.00    -0.004 A 
ATOM      4  C2  UNL d   1      -1.173   0.922   1.851  0.00  0.00    -0.047 A 
ATOM      5  C3  UNL d   1      -1.334   1.747   0.712  0.00  0.00    -0.047 A 
ATOM      6  C4  UNL d   1      -0.582   1.196  -0.304  0.00  0.00    -0.004 A 
ENDROOT
TORSDOF 0
ENDMDL
