MODEL 1
REMARK minimizedAffinity -0.671746492
REMARK minimizedRMSD -1
REMARK  0 active torsions:
REMARK  status: ('A' for Active; 'I' for Inactive)
ROOT
ATOM      1  C   UNL d   1       1.137  -1.787  -1.055  0.00  0.00     0.172 C 
ATOM      2  N   UNL d   1       0.519  -0.718  -0.305  0.00  0.00    -0.070 N 
ATOM      3  C1  UNL d   1       0.446   0.592  -0.696  0.00  0.00    -0.004 A 
ATOM      4  C2  UNL d   1      -0.217   1.290   0.291  0.00  0.00    -0.047 A 
ATOM      5  C3  UNL d   1      -0.552   0.367   1.310  0.00  0.00    -0.047 A 
ATOM      6  C4  UNL d   1      -0.084  -0.869   0.915  0.00  0.00    -0.004 A 
ENDROOT
TORSDOF 0
ENDMDL
