MODEL 1
REMARK minimizedAffinity -3.79322052
REMARK minimizedRMSD -1
REMARK  0 active torsions:
REMARK  status: ('A' for Active; 'I' for Inactive)
ROOT
ATOM      1  C   UNL d   1      -2.074   2.278   1.557  0.00  0.00     0.172 C 
ATOM      2  N   UNL d   1      -1.100   1.369   1.001  0.00  0.00    -0.070 N 
ATOM      3  C1  UNL d   1      -0.573   0.276   1.636  0.00  0.00    -0.004 A 
ATOM      4  C2  UNL d   1       0.316  -0.326   0.772  0.00  0.00    -0.047 A 
ATOM      5  C3  UNL d   1       0.326   0.433  -0.423  0.00  0.00    -0.047 A 
ATOM      6  C4  UNL d   1      -0.560   1.476  -0.254  0.00  0.00    -0.004 A 
ENDROOT
TORSDOF 0
ENDMDL
