MODEL 1
REMARK minimizedAffinity -3.89237022
REMARK minimizedRMSD -1
REMARK  0 active torsions:
REMARK  status: ('A' for Active; 'I' for Inactive)
ROOT
ATOM      1  C   UNL d   1       0.569  -0.604  -0.077  0.00  0.00     0.172 C 
ATOM      2  N   UNL d   1      -0.473   0.348   0.233  0.00  0.00    -0.070 N 
ATOM      3  C1  UNL d   1      -0.985   1.280  -0.630  0.00  0.00    -0.004 A 
ATOM      4  C2  UNL d   1      -1.955   1.990   0.043  0.00  0.00    -0.047 A 
ATOM      5  C3  UNL d   1      -2.029   1.466   1.356  0.00  0.00    -0.047 A 
ATOM      6  C4  UNL d   1      -1.100   0.451   1.446  0.00  0.00    -0.004 A 
ENDROOT
TORSDOF 0
ENDMDL
