MODEL 1
REMARK minimizedAffinity -2.02593899
REMARK minimizedRMSD -1
REMARK  0 active torsions:
REMARK  status: ('A' for Active; 'I' for Inactive)
ROOT
ATOM      1  C   UNL d   1       0.027  -0.036  -0.926  0.00  0.00     0.172 C 
ATOM      2  N   UNL d   1      -0.797   0.763  -0.049  0.00  0.00    -0.070 N 
ATOM      3  C1  UNL d   1      -1.145   0.438   1.235  0.00  0.00    -0.004 A 
ATOM      4  C2  UNL d   1      -1.933   1.455   1.728  0.00  0.00    -0.047 A 
ATOM      5  C3  UNL d   1      -2.065   2.424   0.705  0.00  0.00    -0.047 A 
ATOM      6  C4  UNL d   1      -1.352   1.970  -0.384  0.00  0.00    -0.004 A 
ENDROOT
TORSDOF 0
ENDMDL
