MODEL 1
REMARK minimizedAffinity -1.80312431
REMARK minimizedRMSD -1
REMARK  0 active torsions:
REMARK  status: ('A' for Active; 'I' for Inactive)
ROOT
ATOM      1  C   UNL d   1      -0.122  -2.517  -2.067  0.00  0.00     0.172 C 
ATOM      2  N   UNL d   1       0.102  -1.433  -1.139  0.00  0.00    -0.070 N 
ATOM      3  C1  UNL d   1       0.202  -1.554   0.221  0.00  0.00    -0.004 A 
ATOM      4  C2  UNL d   1       0.415  -0.296   0.742  0.00  0.00    -0.047 A 
ATOM      5  C3  UNL d   1       0.444   0.612  -0.343  0.00  0.00    -0.047 A 
ATOM      6  C4  UNL d   1       0.248  -0.119  -1.495  0.00  0.00    -0.004 A 
ENDROOT
TORSDOF 0
ENDMDL
