MODEL 1
REMARK minimizedAffinity -3.73116565
REMARK minimizedRMSD -1
REMARK  0 active torsions:
REMARK  status: ('A' for Active; 'I' for Inactive)
ROOT
ATOM      1  C   UNL d   1       0.501  -0.725  -0.118  0.00  0.00     0.172 C 
ATOM      2  N   UNL d   1      -0.346   0.341   0.364  0.00  0.00    -0.070 N 
ATOM      3  C1  UNL d   1      -0.913   1.320  -0.406  0.00  0.00    -0.004 A 
ATOM      4  C2  UNL d   1      -1.645   2.140   0.425  0.00  0.00    -0.047 A 
ATOM      5  C3  UNL d   1      -1.513   1.636   1.741  0.00  0.00    -0.047 A 
ATOM      6  C4  UNL d   1      -0.703   0.522   1.674  0.00  0.00    -0.004 A 
ENDROOT
TORSDOF 0
ENDMDL
