MODEL 1
REMARK minimizedAffinity -2.63123441
REMARK minimizedRMSD -1
REMARK  0 active torsions:
REMARK  status: ('A' for Active; 'I' for Inactive)
ROOT
ATOM      1  C   UNL d   1       0.752  -0.960  -0.562  0.00  0.00     0.172 C 
ATOM      2  N   UNL d   1      -0.192  -0.169   0.191  0.00  0.00    -0.070 N 
ATOM      3  C1  UNL d   1      -0.728  -0.506   1.405  0.00  0.00    -0.004 A 
ATOM      4  C2  UNL d   1      -1.580   0.508   1.787  0.00  0.00    -0.047 A 
ATOM      5  C3  UNL d   1      -1.556   1.488   0.767  0.00  0.00    -0.047 A 
ATOM      6  C4  UNL d   1      -0.689   1.044  -0.209  0.00  0.00    -0.004 A 
ENDROOT
TORSDOF 0
ENDMDL
