MODEL 1
REMARK minimizedAffinity -2.76832652
REMARK minimizedRMSD -1
REMARK  0 active torsions:
REMARK  status: ('A' for Active; 'I' for Inactive)
ROOT
ATOM      1  C   UNL d   1       0.145   3.691  -0.925  0.00  0.00     0.172 C 
ATOM      2  N   UNL d   1      -0.617   2.841  -0.040  0.00  0.00    -0.070 N 
ATOM      3  C1  UNL d   1      -0.705   1.477  -0.123  0.00  0.00    -0.004 A 
ATOM      4  C2  UNL d   1      -1.523   1.044   0.898  0.00  0.00    -0.047 A 
ATOM      5  C3  UNL d   1      -1.943   2.187   1.618  0.00  0.00    -0.047 A 
ATOM      6  C4  UNL d   1      -1.368   3.286   1.016  0.00  0.00    -0.004 A 
ENDROOT
TORSDOF 0
ENDMDL
