MODEL 1
REMARK minimizedAffinity -3.9699223
REMARK minimizedRMSD -1
REMARK  0 active torsions:
REMARK  status: ('A' for Active; 'I' for Inactive)
ROOT
ATOM      1  C   UNL d   1       0.266  -0.028   0.715  0.00  0.00     0.172 C 
ATOM      2  N   UNL d   1      -0.347   1.278   0.652  0.00  0.00    -0.070 N 
ATOM      3  C1  UNL d   1      -1.118   1.845   1.630  0.00  0.00    -0.004 A 
ATOM      4  C2  UNL d   1      -1.510   3.091   1.189  0.00  0.00    -0.047 A 
ATOM      5  C3  UNL d   1      -0.956   3.277  -0.099  0.00  0.00    -0.047 A 
ATOM      6  C4  UNL d   1      -0.241   2.140  -0.408  0.00  0.00    -0.004 A 
ENDROOT
TORSDOF 0
ENDMDL
