MODEL 1
REMARK minimizedAffinity -3.18932295
REMARK minimizedRMSD -1
REMARK  0 active torsions:
REMARK  status: ('A' for Active; 'I' for Inactive)
ROOT
ATOM      1  C   UNL d   1       0.606  -0.509  -0.521  0.00  0.00     0.172 C 
ATOM      2  N   UNL d   1      -0.067   0.254   0.504  0.00  0.00    -0.070 N 
ATOM      3  C1  UNL d   1      -0.075  -0.039   1.841  0.00  0.00    -0.004 A 
ATOM      4  C2  UNL d   1      -0.824   0.925   2.480  0.00  0.00    -0.047 A 
ATOM      5  C3  UNL d   1      -1.284   1.828   1.492  0.00  0.00    -0.047 A 
ATOM      6  C4  UNL d   1      -0.800   1.389   0.278  0.00  0.00    -0.004 A 
ENDROOT
TORSDOF 0
ENDMDL
