MODEL 1
REMARK minimizedAffinity -3.44054031
REMARK minimizedRMSD -1
REMARK  0 active torsions:
REMARK  status: ('A' for Active; 'I' for Inactive)
ROOT
ATOM      1  C   UNL d   1       0.596  -0.167  -0.457  0.00  0.00     0.172 C 
ATOM      2  N   UNL d   1      -0.351   0.674   0.235  0.00  0.00    -0.070 N 
ATOM      3  C1  UNL d   1      -1.418   1.315  -0.337  0.00  0.00    -0.004 A 
ATOM      4  C2  UNL d   1      -2.073   2.013   0.655  0.00  0.00    -0.047 A 
ATOM      5  C3  UNL d   1      -1.376   1.783   1.865  0.00  0.00    -0.047 A 
ATOM      6  C4  UNL d   1      -0.314   0.952   1.577  0.00  0.00    -0.004 A 
ENDROOT
TORSDOF 0
ENDMDL
