MODEL 1
REMARK minimizedAffinity -3.33558464
REMARK minimizedRMSD -1
REMARK  0 active torsions:
REMARK  status: ('A' for Active; 'I' for Inactive)
ROOT
ATOM      1  C   UNL d   1       0.295  -0.773  -0.468  0.00  0.00     0.172 C 
ATOM      2  N   UNL d   1      -0.510   0.235   0.181  0.00  0.00    -0.070 N 
ATOM      3  C1  UNL d   1      -0.806   0.282   1.517  0.00  0.00    -0.004 A 
ATOM      4  C2  UNL d   1      -1.593   1.392   1.736  0.00  0.00    -0.047 A 
ATOM      5  C3  UNL d   1      -1.776   2.035   0.489  0.00  0.00    -0.047 A 
ATOM      6  C4  UNL d   1      -1.095   1.297  -0.457  0.00  0.00    -0.004 A 
ENDROOT
TORSDOF 0
ENDMDL
