MODEL 1
REMARK minimizedAffinity -2.98601699
REMARK minimizedRMSD -1
REMARK  0 active torsions:
REMARK  status: ('A' for Active; 'I' for Inactive)
ROOT
ATOM      1  C2' OXE d   1      -3.249  -1.270   3.018  0.00  0.00     0.078 C 
ATOM      2  C1' OXE d   1      -3.161  -1.158   0.214  0.00  0.00     0.078 C 
ATOM      3  C1  OXE d   1      -2.094  -0.418   0.981  0.00  0.00    -0.078 A 
ATOM      4  C2  OXE d   1      -2.172  -0.439   2.353  0.00  0.00    -0.078 A 
ATOM      5  C3  OXE d   1      -1.182   0.181   3.109  0.00  0.00     0.003 A 
ATOM      6  C4  OXE d   1      -0.195   0.955   2.487  0.00  0.00    -0.002 A 
ATOM      7  C5  OXE d   1      -0.121   1.023   1.092  0.00  0.00    -0.002 A 
ATOM      8  C6  OXE d   1      -1.035   0.309   0.325  0.00  0.00     0.003 A 
ENDROOT
TORSDOF 0
ENDMDL
