MODEL 1
REMARK minimizedAffinity -2.20086098
REMARK minimizedRMSD -1
REMARK  0 active torsions:
REMARK  status: ('A' for Active; 'I' for Inactive)
ROOT
ATOM      1  C2' OXE d   1       2.202   0.337   2.127  0.00  0.00     0.078 C 
ATOM      2  C1' OXE d   1      -0.345   1.429   2.575  0.00  0.00     0.078 C 
ATOM      3  C1  OXE d   1      -0.131   0.640   1.307  0.00  0.00    -0.078 A 
ATOM      4  C2  OXE d   1       1.131   0.149   1.074  0.00  0.00    -0.078 A 
ATOM      5  C3  OXE d   1       1.370  -0.631  -0.054  0.00  0.00     0.003 A 
ATOM      6  C4  OXE d   1       0.377  -0.792  -1.028  0.00  0.00    -0.002 A 
ATOM      7  C5  OXE d   1      -0.904  -0.266  -0.829  0.00  0.00    -0.002 A 
ATOM      8  C6  OXE d   1      -1.186   0.414   0.350  0.00  0.00     0.003 A 
ENDROOT
TORSDOF 0
ENDMDL
