MODEL 1
REMARK minimizedAffinity -1.77667594
REMARK minimizedRMSD -1
REMARK  0 active torsions:
REMARK  status: ('A' for Active; 'I' for Inactive)
ROOT
ATOM      1  C2' OXE d   1       2.278   0.024   1.938  0.00  0.00     0.078 C 
ATOM      2  C1' OXE d   1      -0.219   1.213   2.420  0.00  0.00     0.078 C 
ATOM      3  C1  OXE d   1      -0.019   0.505   1.103  0.00  0.00    -0.078 A 
ATOM      4  C2  OXE d   1       1.221  -0.033   0.857  0.00  0.00    -0.078 A 
ATOM      5  C3  OXE d   1       1.442  -0.745  -0.319  0.00  0.00     0.003 A 
ATOM      6  C4  OXE d   1       0.463  -0.785  -1.318  0.00  0.00    -0.002 A 
ATOM      7  C5  OXE d   1      -0.794  -0.208  -1.104  0.00  0.00    -0.002 A 
ATOM      8  C6  OXE d   1      -1.065   0.402   0.116  0.00  0.00     0.003 A 
ENDROOT
TORSDOF 0
ENDMDL
