MODEL 1
REMARK minimizedAffinity -3.35737753
REMARK minimizedRMSD -1
REMARK  0 active torsions:
REMARK  status: ('A' for Active; 'I' for Inactive)
ROOT
ATOM      1  C2' OXE d   1       0.202   1.520   1.723  0.00  0.00     0.078 C 
ATOM      2  C1' OXE d   1       2.571   0.115   2.267  0.00  0.00     0.078 C 
ATOM      3  C1  OXE d   1       1.785  -0.279   1.041  0.00  0.00    -0.078 A 
ATOM      4  C2  OXE d   1       0.603   0.383   0.808  0.00  0.00    -0.078 A 
ATOM      5  C3  OXE d   1      -0.133   0.097  -0.338  0.00  0.00     0.003 A 
ATOM      6  C4  OXE d   1       0.240  -0.963  -1.174  0.00  0.00    -0.002 A 
ATOM      7  C5  OXE d   1       1.419  -1.676  -0.933  0.00  0.00    -0.002 A 
ATOM      8  C6  OXE d   1       2.223  -1.319   0.144  0.00  0.00     0.003 A 
ENDROOT
TORSDOF 0
ENDMDL
