MODEL 1
REMARK minimizedAffinity -3.21211791
REMARK minimizedRMSD -1
REMARK  0 active torsions:
REMARK  status: ('A' for Active; 'I' for Inactive)
ROOT
ATOM      1  C2' OXE d   1      -2.853  -0.528   2.928  0.00  0.00     0.078 C 
ATOM      2  C1' OXE d   1      -2.069  -0.838   0.250  0.00  0.00     0.078 C 
ATOM      3  C1  OXE d   1      -1.326   0.172   1.088  0.00  0.00    -0.078 A 
ATOM      4  C2  OXE d   1      -1.746   0.350   2.384  0.00  0.00    -0.078 A 
ATOM      5  C3  OXE d   1      -1.060   1.230   3.217  0.00  0.00     0.003 A 
ATOM      6  C4  OXE d   1      -0.044   2.045   2.703  0.00  0.00    -0.002 A 
ATOM      7  C5  OXE d   1       0.373   1.907   1.375  0.00  0.00    -0.002 A 
ATOM      8  C6  OXE d   1      -0.227   0.948   0.568  0.00  0.00     0.003 A 
ENDROOT
TORSDOF 0
ENDMDL
