MODEL 1
REMARK minimizedAffinity -3.62888598
REMARK minimizedRMSD -1
REMARK  0 active torsions:
REMARK  status: ('A' for Active; 'I' for Inactive)
ROOT
ATOM      1  C2' OXE d   1       2.152  -0.243   1.165  0.00  0.00     0.078 C 
ATOM      2  C1' OXE d   1       0.751  -0.896  -1.178  0.00  0.00     0.078 C 
ATOM      3  C1  OXE d   1      -0.016  -0.234  -0.061  0.00  0.00    -0.078 A 
ATOM      4  C2  OXE d   1       0.667   0.039   1.100  0.00  0.00    -0.078 A 
ATOM      5  C3  OXE d   1       0.020   0.699   2.141  0.00  0.00     0.003 A 
ATOM      6  C4  OXE d   1      -1.356   0.947   2.076  0.00  0.00    -0.002 A 
ATOM      7  C5  OXE d   1      -2.080   0.640   0.919  0.00  0.00    -0.002 A 
ATOM      8  C6  OXE d   1      -1.417   0.089  -0.172  0.00  0.00     0.003 A 
ENDROOT
TORSDOF 0
ENDMDL
