MODEL 1
REMARK minimizedAffinity -4.34429646
REMARK minimizedRMSD -1
REMARK  0 active torsions:
REMARK  status: ('A' for Active; 'I' for Inactive)
ROOT
ATOM      1  C2' OXE d   1      -2.742  -0.973  -0.767  0.00  0.00     0.078 C 
ATOM      2  C1' OXE d   1      -0.084  -0.294  -1.359  0.00  0.00     0.078 C 
ATOM      3  C1  OXE d   1      -0.589  -0.010   0.034  0.00  0.00    -0.078 A 
ATOM      4  C2  OXE d   1      -1.905  -0.303   0.301  0.00  0.00    -0.078 A 
ATOM      5  C3  OXE d   1      -2.407  -0.111   1.585  0.00  0.00     0.003 A 
ATOM      6  C4  OXE d   1      -1.628   0.519   2.564  0.00  0.00    -0.002 A 
ATOM      7  C5  OXE d   1      -0.298   0.861   2.301  0.00  0.00    -0.002 A 
ATOM      8  C6  OXE d   1       0.249   0.566   1.057  0.00  0.00     0.003 A 
ENDROOT
TORSDOF 0
ENDMDL
