MODEL 1
REMARK minimizedAffinity -5.10707617
REMARK minimizedRMSD -1
REMARK  0 active torsions:
REMARK  status: ('A' for Active; 'I' for Inactive)
ROOT
ATOM      1  C2' OXE d   1      -0.546   1.170   2.648  0.00  0.00     0.078 C 
ATOM      2  C1' OXE d   1      -2.780  -0.452   2.139  0.00  0.00     0.078 C 
ATOM      3  C1  OXE d   1      -1.633  -0.507   1.161  0.00  0.00    -0.078 A 
ATOM      4  C2  OXE d   1      -0.564   0.325   1.393  0.00  0.00    -0.078 A 
ATOM      5  C3  OXE d   1       0.544   0.273   0.552  0.00  0.00     0.003 A 
ATOM      6  C4  OXE d   1       0.515  -0.504  -0.612  0.00  0.00    -0.002 A 
ATOM      7  C5  OXE d   1      -0.580  -1.329  -0.888  0.00  0.00    -0.002 A 
ATOM      8  C6  OXE d   1      -1.642  -1.374   0.009  0.00  0.00     0.003 A 
ENDROOT
TORSDOF 0
ENDMDL
