MODEL 1
REMARK minimizedAffinity 0.392140776
REMARK minimizedRMSD -1
REMARK  0 active torsions:
REMARK  status: ('A' for Active; 'I' for Inactive)
ROOT
ATOM      1  C2' OXE d   1       0.389  -0.361  -1.499  0.00  0.00     0.078 C 
ATOM      2  C1' OXE d   1       1.842  -1.210   0.748  0.00  0.00     0.078 C 
ATOM      3  C1  OXE d   1       0.454  -0.665   0.973  0.00  0.00    -0.078 A 
ATOM      4  C2  OXE d   1      -0.232  -0.208  -0.127  0.00  0.00    -0.078 A 
ATOM      5  C3  OXE d   1      -1.537   0.254   0.017  0.00  0.00     0.003 A 
ATOM      6  C4  OXE d   1      -2.100   0.401   1.290  0.00  0.00    -0.002 A 
ATOM      7  C5  OXE d   1      -1.404  -0.021   2.428  0.00  0.00    -0.002 A 
ATOM      8  C6  OXE d   1      -0.145  -0.594   2.283  0.00  0.00     0.003 A 
ENDROOT
TORSDOF 0
ENDMDL
