MODEL 1
REMARK minimizedAffinity -3.49915671
REMARK minimizedRMSD -1
REMARK  0 active torsions:
REMARK  status: ('A' for Active; 'I' for Inactive)
ROOT
ATOM      1  C2' OXE d   1      -2.810  -0.421   2.765  0.00  0.00     0.078 C 
ATOM      2  C1' OXE d   1      -1.564  -1.444   0.467  0.00  0.00     0.078 C 
ATOM      3  C1  OXE d   1      -0.997  -0.185   1.073  0.00  0.00    -0.078 A 
ATOM      4  C2  OXE d   1      -1.641   0.334   2.170  0.00  0.00    -0.078 A 
ATOM      5  C3  OXE d   1      -1.127   1.463   2.801  0.00  0.00     0.003 A 
ATOM      6  C4  OXE d   1      -0.051   2.161   2.238  0.00  0.00    -0.002 A 
ATOM      7  C5  OXE d   1       0.595   1.671   1.099  0.00  0.00    -0.002 A 
ATOM      8  C6  OXE d   1       0.162   0.479   0.530  0.00  0.00     0.003 A 
ENDROOT
TORSDOF 0
ENDMDL
