MODEL 1
REMARK minimizedAffinity -2.23286891
REMARK minimizedRMSD -1
REMARK  3 active torsions:
REMARK  status: ('A' for Active; 'I' for Inactive)
REMARK    1  A    between atoms: C3'_2  and  C2'_3 
REMARK    2  A    between atoms: C2'_3  and  C1'_4 
REMARK    3  A    between atoms: C1'_4  and  C1_5 
ROOT
ATOM      1  C1  N4B d   1      -0.275  -0.545   0.417  0.00  0.00    -0.075 A 
ATOM      2  C2  N4B d   1      -1.253  -1.521   0.709  0.00  0.00     0.002 A 
ATOM      3  C3  N4B d   1      -1.018  -2.841   0.408  0.00  0.00     0.002 A 
ATOM      4  C4  N4B d   1       0.175  -3.203  -0.199  0.00  0.00    -0.004 A 
ATOM      5  C5  N4B d   1       1.125  -2.258  -0.454  0.00  0.00     0.002 A 
ATOM      6  C6  N4B d   1       0.904  -0.929  -0.154  0.00  0.00     0.002 A 
ENDROOT
BRANCH   1   7
ATOM      7  C1' N4B d   1      -0.523   0.920   0.648  0.00  0.00     0.057 C 
BRANCH   7   8
ATOM      8  C2' N4B d   1       0.745   1.701   0.313  0.00  0.00     0.009 C 
BRANCH   8   9
ATOM      9  C3' N4B d   1       0.770   3.061   0.989  0.00  0.00     0.004 C 
ATOM     10  C4' N4B d   1       2.145   3.464   1.432  0.00  0.00     0.003 C 
ENDBRANCH   8   9
ENDBRANCH   7   8
ENDBRANCH   1   7
TORSDOF 3
ENDMDL
