MODEL 1
REMARK minimizedAffinity -5.00836945
REMARK minimizedRMSD -1
REMARK  3 active torsions:
REMARK  status: ('A' for Active; 'I' for Inactive)
REMARK    1  A    between atoms: C3'_2  and  C2'_3 
REMARK    2  A    between atoms: C2'_3  and  C1'_4 
REMARK    3  A    between atoms: C1'_4  and  C1_5 
ROOT
ATOM      1  C1  N4B d   1      -0.218  -0.578   0.238  0.00  0.00    -0.075 A 
ATOM      2  C2  N4B d   1      -1.278  -1.224   0.911  0.00  0.00     0.002 A 
ATOM      3  C3  N4B d   1      -1.189  -2.563   1.205  0.00  0.00     0.002 A 
ATOM      4  C4  N4B d   1      -0.064  -3.276   0.821  0.00  0.00    -0.004 A 
ATOM      5  C5  N4B d   1       0.967  -2.639   0.194  0.00  0.00     0.002 A 
ATOM      6  C6  N4B d   1       0.893  -1.293  -0.104  0.00  0.00     0.002 A 
ENDROOT
BRANCH   1   7
ATOM      7  C1' N4B d   1      -0.306   0.864  -0.181  0.00  0.00     0.057 C 
BRANCH   7   8
ATOM      8  C2' N4B d   1       1.051   1.530   0.025  0.00  0.00     0.009 C 
BRANCH   8   9
ATOM      9  C3' N4B d   1       0.919   2.911   0.644  0.00  0.00     0.004 C 
ATOM     10  C4' N4B d   1       2.213   3.422   1.205  0.00  0.00     0.003 C 
ENDBRANCH   8   9
ENDBRANCH   7   8
ENDBRANCH   1   7
TORSDOF 3
ENDMDL
