MODEL 1
REMARK minimizedAffinity -5.01648808
REMARK minimizedRMSD -1
REMARK  3 active torsions:
REMARK  status: ('A' for Active; 'I' for Inactive)
REMARK    1  A    between atoms: C3'_2  and  C2'_3 
REMARK    2  A    between atoms: C2'_3  and  C1'_4 
REMARK    3  A    between atoms: C1'_4  and  C1_5 
ROOT
ATOM      1  C1  N4B d   1       0.098  -0.564  -0.251  0.00  0.00    -0.075 A 
ATOM      2  C2  N4B d   1      -0.685  -1.047   0.820  0.00  0.00     0.002 A 
ATOM      3  C3  N4B d   1      -0.807  -2.400   1.025  0.00  0.00     0.002 A 
ATOM      4  C4  N4B d   1      -0.175  -3.284   0.164  0.00  0.00    -0.004 A 
ATOM      5  C5  N4B d   1       0.600  -2.809  -0.853  0.00  0.00     0.002 A 
ATOM      6  C6  N4B d   1       0.735  -1.452  -1.068  0.00  0.00     0.002 A 
ENDROOT
BRANCH   1   7
ATOM      7  C1' N4B d   1       0.192   0.904  -0.567  0.00  0.00     0.057 C 
BRANCH   7   8
ATOM      8  C2' N4B d   1       0.209   1.696   0.737  0.00  0.00     0.009 C 
BRANCH   8   9
ATOM      9  C3' N4B d   1       0.898   3.041   0.576  0.00  0.00     0.004 C 
ATOM     10  C4' N4B d   1       2.390   2.922   0.487  0.00  0.00     0.003 C 
ENDBRANCH   8   9
ENDBRANCH   7   8
ENDBRANCH   1   7
TORSDOF 3
ENDMDL
