MODEL 1
REMARK minimizedAffinity -5.74064159
REMARK minimizedRMSD -1
REMARK  3 active torsions:
REMARK  status: ('A' for Active; 'I' for Inactive)
REMARK    1  A    between atoms: C3'_2  and  C2'_3 
REMARK    2  A    between atoms: C2'_3  and  C1'_4 
REMARK    3  A    between atoms: C1'_4  and  C1_5 
ROOT
ATOM      1  C1  N4B d   1      -0.345  -0.068  -0.295  0.00  0.00    -0.075 A 
ATOM      2  C2  N4B d   1      -1.138  -0.201   0.866  0.00  0.00     0.002 A 
ATOM      3  C3  N4B d   1      -1.407  -1.447   1.375  0.00  0.00     0.002 A 
ATOM      4  C4  N4B d   1      -0.912  -2.572   0.732  0.00  0.00    -0.004 A 
ATOM      5  C5  N4B d   1      -0.126  -2.434  -0.375  0.00  0.00     0.002 A 
ATOM      6  C6  N4B d   1       0.156  -1.187  -0.895  0.00  0.00     0.002 A 
ENDROOT
BRANCH   1   7
ATOM      7  C1' N4B d   1      -0.096   1.269  -0.938  0.00  0.00     0.057 C 
BRANCH   7   8
ATOM      8  C2' N4B d   1       0.032   2.331   0.150  0.00  0.00     0.009 C 
BRANCH   8   9
ATOM      9  C3' N4B d   1       0.788   3.556  -0.338  0.00  0.00     0.004 C 
ATOM     10  C4' N4B d   1       2.276   3.376  -0.293  0.00  0.00     0.003 C 
ENDBRANCH   8   9
ENDBRANCH   7   8
ENDBRANCH   1   7
TORSDOF 3
ENDMDL
