MODEL 1
REMARK minimizedAffinity -5.16778803
REMARK minimizedRMSD -1
REMARK  3 active torsions:
REMARK  status: ('A' for Active; 'I' for Inactive)
REMARK    1  A    between atoms: C3'_2  and  C2'_3 
REMARK    2  A    between atoms: C2'_3  and  C1'_4 
REMARK    3  A    between atoms: C1'_4  and  C1_5 
ROOT
ATOM      1  C1  N4B d   1      -0.196  -0.716  -0.367  0.00  0.00    -0.075 A 
ATOM      2  C2  N4B d   1       0.703  -1.714  -0.804  0.00  0.00     0.002 A 
ATOM      3  C3  N4B d   1       0.753  -2.924  -0.158  0.00  0.00     0.002 A 
ATOM      4  C4  N4B d   1      -0.070  -3.153   0.935  0.00  0.00    -0.004 A 
ATOM      5  C5  N4B d   1      -0.954  -2.194   1.335  0.00  0.00     0.002 A 
ATOM      6  C6  N4B d   1      -1.017  -0.973   0.693  0.00  0.00     0.002 A 
ENDROOT
BRANCH   1   7
ATOM      7  C1' N4B d   1      -0.225   0.654  -0.987  0.00  0.00     0.057 C 
BRANCH   7   8
ATOM      8  C2' N4B d   1      -0.015   1.702   0.102  0.00  0.00     0.009 C 
BRANCH   8   9
ATOM      9  C3' N4B d   1       1.454   2.035   0.294  0.00  0.00     0.004 C 
ATOM     10  C4' N4B d   1       1.672   3.169   1.251  0.00  0.00     0.003 C 
ENDBRANCH   8   9
ENDBRANCH   7   8
ENDBRANCH   1   7
TORSDOF 3
ENDMDL
