MODEL 1
REMARK minimizedAffinity -5.82965708
REMARK minimizedRMSD -1
REMARK  3 active torsions:
REMARK  status: ('A' for Active; 'I' for Inactive)
REMARK    1  A    between atoms: C3'_2  and  C2'_3 
REMARK    2  A    between atoms: C2'_3  and  C1'_4 
REMARK    3  A    between atoms: C1'_4  and  C1_5 
ROOT
ATOM      1  C1  N4B d   1      -0.195   0.216  -0.092  0.00  0.00    -0.075 A 
ATOM      2  C2  N4B d   1      -1.212   0.183   0.887  0.00  0.00     0.002 A 
ATOM      3  C3  N4B d   1      -1.589  -1.014   1.446  0.00  0.00     0.002 A 
ATOM      4  C4  N4B d   1      -0.978  -2.187   1.030  0.00  0.00    -0.004 A 
ATOM      5  C5  N4B d   1       0.022  -2.144   0.103  0.00  0.00     0.002 A 
ATOM      6  C6  N4B d   1       0.413  -0.948  -0.464  0.00  0.00     0.002 A 
ENDROOT
BRANCH   1   7
ATOM      7  C1' N4B d   1       0.191   1.489  -0.793  0.00  0.00     0.057 C 
BRANCH   7   8
ATOM      8  C2' N4B d   1       0.202   2.634   0.216  0.00  0.00     0.009 C 
BRANCH   8   9
ATOM      9  C3' N4B d   1       1.538   3.356   0.241  0.00  0.00     0.004 C 
ATOM     10  C4' N4B d   1       1.943   3.779   1.622  0.00  0.00     0.003 C 
ENDBRANCH   8   9
ENDBRANCH   7   8
ENDBRANCH   1   7
TORSDOF 3
ENDMDL
