MODEL 1
REMARK minimizedAffinity -6.17766428
REMARK minimizedRMSD -1
REMARK  3 active torsions:
REMARK  status: ('A' for Active; 'I' for Inactive)
REMARK    1  A    between atoms: C3'_2  and  C2'_3 
REMARK    2  A    between atoms: C2'_3  and  C1'_4 
REMARK    3  A    between atoms: C1'_4  and  C1_5 
ROOT
ATOM      1  C1  N4B d   1      -0.114  -0.504  -0.078  0.00  0.00    -0.075 A 
ATOM      2  C2  N4B d   1      -0.327  -1.472   0.928  0.00  0.00     0.002 A 
ATOM      3  C3  N4B d   1       0.034  -2.779   0.711  0.00  0.00     0.002 A 
ATOM      4  C4  N4B d   1       0.589  -3.144  -0.506  0.00  0.00    -0.004 A 
ATOM      5  C5  N4B d   1       0.816  -2.198  -1.463  0.00  0.00     0.002 A 
ATOM      6  C6  N4B d   1       0.462  -0.880  -1.257  0.00  0.00     0.002 A 
ENDROOT
BRANCH   1   7
ATOM      7  C1' N4B d   1      -0.570   0.921   0.080  0.00  0.00     0.057 C 
BRANCH   7   8
ATOM      8  C2' N4B d   1       0.434   1.847  -0.599  0.00  0.00     0.009 C 
BRANCH   8   9
ATOM      9  C3' N4B d   1       0.840   3.002   0.300  0.00  0.00     0.004 C 
ATOM     10  C4' N4B d   1       2.287   3.370   0.154  0.00  0.00     0.003 C 
ENDBRANCH   8   9
ENDBRANCH   7   8
ENDBRANCH   1   7
TORSDOF 3
ENDMDL
