MODEL 1
REMARK minimizedAffinity -5.41947651
REMARK minimizedRMSD -1
REMARK  3 active torsions:
REMARK  status: ('A' for Active; 'I' for Inactive)
REMARK    1  A    between atoms: C3'_2  and  C2'_3 
REMARK    2  A    between atoms: C2'_3  and  C1'_4 
REMARK    3  A    between atoms: C1'_4  and  C1_5 
ROOT
ATOM      1  C1  N4B d   1       0.176  -0.049   0.388  0.00  0.00    -0.075 A 
ATOM      2  C2  N4B d   1      -0.908  -0.398   1.224  0.00  0.00     0.002 A 
ATOM      3  C3  N4B d   1      -1.192  -1.720   1.463  0.00  0.00     0.002 A 
ATOM      4  C4  N4B d   1      -0.422  -2.706   0.865  0.00  0.00    -0.004 A 
ATOM      5  C5  N4B d   1       0.639  -2.360   0.080  0.00  0.00     0.002 A 
ATOM      6  C6  N4B d   1       0.939  -1.035  -0.166  0.00  0.00     0.002 A 
ENDROOT
BRANCH   1   7
ATOM      7  C1' N4B d   1       0.473   1.382   0.029  0.00  0.00     0.057 C 
BRANCH   7   8
ATOM      8  C2' N4B d   1       1.836   1.768   0.595  0.00  0.00     0.009 C 
BRANCH   8   9
ATOM      9  C3' N4B d   1       2.017   3.274   0.664  0.00  0.00     0.004 C 
ATOM     10  C4' N4B d   1       0.724   4.006   0.871  0.00  0.00     0.003 C 
ENDBRANCH   8   9
ENDBRANCH   7   8
ENDBRANCH   1   7
TORSDOF 3
ENDMDL
