MODEL 1
REMARK minimizedAffinity 1.49205744
REMARK minimizedRMSD -1
REMARK  0 active torsions:
REMARK  status: ('A' for Active; 'I' for Inactive)
ROOT
ATOM      1  C2' OXE d   1       4.863   3.970  -3.740  0.00  0.00     0.078 C 
ATOM      2  C1' OXE d   1       2.366   2.899  -3.034  0.00  0.00     0.078 C 
ATOM      3  C1  OXE d   1       2.397   3.975  -4.090  0.00  0.00    -0.078 A 
ATOM      4  C2  OXE d   1       3.618   4.526  -4.396  0.00  0.00    -0.078 A 
ATOM      5  C3  OXE d   1       3.710   5.483  -5.403  0.00  0.00     0.003 A 
ATOM      6  C4  OXE d   1       2.553   6.000  -5.997  0.00  0.00    -0.002 A 
ATOM      7  C5  OXE d   1       1.295   5.481  -5.672  0.00  0.00    -0.002 A 
ATOM      8  C6  OXE d   1       1.204   4.441  -4.753  0.00  0.00     0.003 A 
ENDROOT
TORSDOF 0
ENDMDL
