MODEL 1
REMARK minimizedAffinity -3.04978156
REMARK minimizedRMSD -1
REMARK  0 active torsions:
REMARK  status: ('A' for Active; 'I' for Inactive)
ROOT
ATOM      1  C2' OXE d   1       1.878   3.714  -4.136  0.00  0.00     0.078 C 
ATOM      2  C1' OXE d   1       1.908   6.000  -5.764  0.00  0.00     0.078 C 
ATOM      3  C1  OXE d   1       3.235   5.429  -5.329  0.00  0.00    -0.078 A 
ATOM      4  C2  OXE d   1       3.210   4.338  -4.494  0.00  0.00    -0.078 A 
ATOM      5  C3  OXE d   1       4.405   3.739  -4.107  0.00  0.00     0.003 A 
ATOM      6  C4  OXE d   1       5.632   4.328  -4.434  0.00  0.00    -0.002 A 
ATOM      7  C5  OXE d   1       5.679   5.463  -5.251  0.00  0.00    -0.002 A 
ATOM      8  C6  OXE d   1       4.494   6.000  -5.741  0.00  0.00     0.003 A 
ENDROOT
TORSDOF 0
ENDMDL
