MODEL 1
REMARK minimizedAffinity -0.872574687
REMARK minimizedRMSD -1
REMARK  0 active torsions:
REMARK  status: ('A' for Active; 'I' for Inactive)
ROOT
ATOM      1  C2' OXE d   1       2.955   2.968  -3.898  0.00  0.00     0.078 C 
ATOM      2  C1' OXE d   1       1.728   5.154  -5.160  0.00  0.00     0.078 C 
ATOM      3  C1  OXE d   1       3.228   5.034  -5.262  0.00  0.00    -0.078 A 
ATOM      4  C2  OXE d   1       3.825   3.987  -4.603  0.00  0.00    -0.078 A 
ATOM      5  C3  OXE d   1       5.200   3.798  -4.710  0.00  0.00     0.003 A 
ATOM      6  C4  OXE d   1       5.998   4.751  -5.355  0.00  0.00    -0.002 A 
ATOM      7  C5  OXE d   1       5.414   5.847  -5.999  0.00  0.00    -0.002 A 
ATOM      8  C6  OXE d   1       4.030   5.980  -5.999  0.00  0.00     0.003 A 
ENDROOT
TORSDOF 0
ENDMDL
