MODEL 1
REMARK minimizedAffinity 1.66917527
REMARK minimizedRMSD -1
REMARK  0 active torsions:
REMARK  status: ('A' for Active; 'I' for Inactive)
ROOT
ATOM      1  C2' OXE d   1      -1.514   5.941  -2.039  0.00  0.00     0.078 C 
ATOM      2  C1' OXE d   1      -3.181   5.993  -4.296  0.00  0.00     0.078 C 
ATOM      3  C1  OXE d   1      -1.690   5.972  -4.523  0.00  0.00    -0.078 A 
ATOM      4  C2  OXE d   1      -0.881   5.994  -3.413  0.00  0.00    -0.078 A 
ATOM      5  C3  OXE d   1       0.500   5.921  -3.564  0.00  0.00     0.003 A 
ATOM      6  C4  OXE d   1       1.077   5.980  -4.839  0.00  0.00    -0.002 A 
ATOM      7  C5  OXE d   1       0.272   5.999  -5.983  0.00  0.00    -0.002 A 
ATOM      8  C6  OXE d   1      -1.110   5.952  -5.843  0.00  0.00     0.003 A 
ENDROOT
TORSDOF 0
ENDMDL
