MODEL 1
REMARK minimizedAffinity 2.19860339
REMARK minimizedRMSD -1
REMARK  0 active torsions:
REMARK  status: ('A' for Active; 'I' for Inactive)
ROOT
ATOM      1  C2' OXE d   1      -0.355   6.000  -2.070  0.00  0.00     0.078 C 
ATOM      2  C1' OXE d   1      -0.563   5.979  -4.869  0.00  0.00     0.078 C 
ATOM      3  C1  OXE d   1      -1.842   5.981  -4.069  0.00  0.00    -0.078 A 
ATOM      4  C2  OXE d   1      -1.730   5.944  -2.700  0.00  0.00    -0.078 A 
ATOM      5  C3  OXE d   1      -2.877   6.000  -1.913  0.00  0.00     0.003 A 
ATOM      6  C4  OXE d   1      -4.145   5.938  -2.503  0.00  0.00    -0.002 A 
ATOM      7  C5  OXE d   1      -4.281   5.935  -3.895  0.00  0.00    -0.002 A 
ATOM      8  C6  OXE d   1      -3.142   6.000  -4.691  0.00  0.00     0.003 A 
ENDROOT
TORSDOF 0
ENDMDL
