MODEL 1
REMARK minimizedAffinity 1.85451412
REMARK minimizedRMSD -1
REMARK  0 active torsions:
REMARK  status: ('A' for Active; 'I' for Inactive)
ROOT
ATOM      1  C2' OXE d   1       4.217   3.783  -4.267  0.00  0.00     0.078 C 
ATOM      2  C1' OXE d   1       4.088   5.988  -6.000  0.00  0.00     0.078 C 
ATOM      3  C1  OXE d   1       2.789   5.426  -5.478  0.00  0.00    -0.078 A 
ATOM      4  C2  OXE d   1       2.860   4.318  -4.668  0.00  0.00    -0.078 A 
ATOM      5  C3  OXE d   1       1.695   3.794  -4.115  0.00  0.00     0.003 A 
ATOM      6  C4  OXE d   1       0.443   4.288  -4.499  0.00  0.00    -0.002 A 
ATOM      7  C5  OXE d   1       0.347   5.391  -5.354  0.00  0.00    -0.002 A 
ATOM      8  C6  OXE d   1       1.509   5.997  -5.818  0.00  0.00     0.003 A 
ENDROOT
TORSDOF 0
ENDMDL
