MODEL 1
REMARK minimizedAffinity 9.37720203
REMARK minimizedRMSD -1
REMARK  0 active torsions:
REMARK  status: ('A' for Active; 'I' for Inactive)
ROOT
ATOM      1  C2' OXE d   1       1.502   3.195  -4.202  0.00  0.00     0.078 C 
ATOM      2  C1' OXE d   1       4.036   2.988  -3.012  0.00  0.00     0.078 C 
ATOM      3  C1  OXE d   1       3.830   4.067  -4.045  0.00  0.00    -0.078 A 
ATOM      4  C2  OXE d   1       2.600   4.132  -4.656  0.00  0.00    -0.078 A 
ATOM      5  C3  OXE d   1       2.340   5.143  -5.576  0.00  0.00     0.003 A 
ATOM      6  C4  OXE d   1       3.365   5.999  -5.998  0.00  0.00    -0.002 A 
ATOM      7  C5  OXE d   1       4.635   5.925  -5.417  0.00  0.00    -0.002 A 
ATOM      8  C6  OXE d   1       4.872   4.995  -4.411  0.00  0.00     0.003 A 
ENDROOT
TORSDOF 0
ENDMDL
