MODEL 1
REMARK minimizedAffinity 3.55009198
REMARK minimizedRMSD -1
REMARK  0 active torsions:
REMARK  status: ('A' for Active; 'I' for Inactive)
ROOT
ATOM      1  C2' OXE d   1       1.148   0.359   1.687  0.00  0.00     0.078 C 
ATOM      2  C1' OXE d   1       1.996  -0.739  -0.753  0.00  0.00     0.078 C 
ATOM      3  C1  OXE d   1       1.599   0.716  -0.737  0.00  0.00    -0.078 A 
ATOM      4  C2  OXE d   1       1.141   1.233   0.451  0.00  0.00    -0.078 A 
ATOM      5  C3  OXE d   1       0.814   2.583   0.535  0.00  0.00     0.003 A 
ATOM      6  C4  OXE d   1       0.800   3.382  -0.615  0.00  0.00    -0.002 A 
ATOM      7  C5  OXE d   1       1.225   2.865  -1.843  0.00  0.00    -0.002 A 
ATOM      8  C6  OXE d   1       1.667   1.548  -1.912  0.00  0.00     0.003 A 
ENDROOT
TORSDOF 0
ENDMDL
