MODEL 1
REMARK minimizedAffinity 2.94054389
REMARK minimizedRMSD -1
REMARK  0 active torsions:
REMARK  status: ('A' for Active; 'I' for Inactive)
ROOT
ATOM      1  C2' OXE d   1      -0.884   5.949  -0.908  0.00  0.00     0.078 C 
ATOM      2  C1' OXE d   1      -0.114   5.930  -3.607  0.00  0.00     0.078 C 
ATOM      3  C1  OXE d   1      -1.590   5.955  -3.297  0.00  0.00    -0.078 A 
ATOM      4  C2  OXE d   1      -1.958   5.917  -1.974  0.00  0.00    -0.078 A 
ATOM      5  C3  OXE d   1      -3.305   5.992  -1.631  0.00  0.00     0.003 A 
ATOM      6  C4  OXE d   1      -4.292   5.952  -2.623  0.00  0.00    -0.002 A 
ATOM      7  C5  OXE d   1      -3.939   5.950  -3.976  0.00  0.00    -0.002 A 
ATOM      8  C6  OXE d   1      -2.595   5.995  -4.330  0.00  0.00     0.003 A 
ENDROOT
TORSDOF 0
ENDMDL
