MODEL 1
REMARK minimizedAffinity -1.93043375
REMARK minimizedRMSD -1
REMARK  0 active torsions:
REMARK  status: ('A' for Active; 'I' for Inactive)
ROOT
ATOM      1  C2' OXE d   1       3.226   2.920  -3.391  0.00  0.00     0.078 C 
ATOM      2  C1' OXE d   1       5.991   3.035  -3.865  0.00  0.00     0.078 C 
ATOM      3  C1  OXE d   1       5.120   4.071  -4.530  0.00  0.00    -0.078 A 
ATOM      4  C2  OXE d   1       3.763   3.979  -4.330  0.00  0.00    -0.078 A 
ATOM      5  C3  OXE d   1       2.919   4.942  -4.875  0.00  0.00     0.003 A 
ATOM      6  C4  OXE d   1       3.423   5.912  -5.751  0.00  0.00    -0.002 A 
ATOM      7  C5  OXE d   1       4.797   5.999  -6.000  0.00  0.00    -0.002 A 
ATOM      8  C6  OXE d   1       5.661   5.114  -5.365  0.00  0.00     0.003 A 
ENDROOT
TORSDOF 0
ENDMDL
