MODEL 1
REMARK minimizedAffinity 1.77082551
REMARK minimizedRMSD -1
REMARK  0 active torsions:
REMARK  status: ('A' for Active; 'I' for Inactive)
ROOT
ATOM      1  C2' OXE d   1       5.250   3.511  -4.135  0.00  0.00     0.078 C 
ATOM      2  C1' OXE d   1       5.507   5.999  -5.409  0.00  0.00     0.078 C 
ATOM      3  C1  OXE d   1       4.145   5.353  -5.397  0.00  0.00    -0.078 A 
ATOM      4  C2  OXE d   1       4.038   4.114  -4.813  0.00  0.00    -0.078 A 
ATOM      5  C3  OXE d   1       2.793   3.497  -4.726  0.00  0.00     0.003 A 
ATOM      6  C4  OXE d   1       1.679   4.057  -5.364  0.00  0.00    -0.002 A 
ATOM      7  C5  OXE d   1       1.775   5.300  -5.999  0.00  0.00    -0.002 A 
ATOM      8  C6  OXE d   1       2.988   5.979  -5.988  0.00  0.00     0.003 A 
ENDROOT
TORSDOF 0
ENDMDL
