MODEL 1
REMARK minimizedAffinity 2.16478515
REMARK minimizedRMSD -1
REMARK  0 active torsions:
REMARK  status: ('A' for Active; 'I' for Inactive)
ROOT
ATOM      1  C2' OXE d   1      -2.067   5.923  -2.289  0.00  0.00     0.078 C 
ATOM      2  C1' OXE d   1      -3.284   5.953  -4.818  0.00  0.00     0.078 C 
ATOM      3  C1  OXE d   1      -1.777   5.950  -4.763  0.00  0.00    -0.078 A 
ATOM      4  C2  OXE d   1      -1.190   5.982  -3.521  0.00  0.00    -0.078 A 
ATOM      5  C3  OXE d   1       0.197   5.926  -3.412  0.00  0.00     0.003 A 
ATOM      6  C4  OXE d   1       1.001   5.992  -4.556  0.00  0.00    -0.002 A 
ATOM      7  C5  OXE d   1       0.423   6.000  -5.830  0.00  0.00    -0.002 A 
ATOM      8  C6  OXE d   1      -0.961   5.936  -5.952  0.00  0.00     0.003 A 
ENDROOT
TORSDOF 0
ENDMDL
