MODEL 1
REMARK minimizedAffinity 2.48802876
REMARK minimizedRMSD -1
REMARK  0 active torsions:
REMARK  status: ('A' for Active; 'I' for Inactive)
ROOT
ATOM      1  C2' OXE d   1      -0.778  -0.336   1.816  0.00  0.00     0.078 C 
ATOM      2  C1' OXE d   1       0.159   1.587   3.633  0.00  0.00     0.078 C 
ATOM      3  C1  OXE d   1       0.540   1.746   2.182  0.00  0.00    -0.078 A 
ATOM      4  C2  OXE d   1       0.116   0.775   1.308  0.00  0.00    -0.078 A 
ATOM      5  C3  OXE d   1       0.393   0.901  -0.051  0.00  0.00     0.003 A 
ATOM      6  C4  OXE d   1       1.229   1.926  -0.511  0.00  0.00    -0.002 A 
ATOM      7  C5  OXE d   1       1.704   2.904   0.370  0.00  0.00    -0.002 A 
ATOM      8  C6  OXE d   1       1.335   2.852   1.709  0.00  0.00     0.003 A 
ENDROOT
TORSDOF 0
ENDMDL
