MODEL 1
REMARK minimizedAffinity 3.95098305
REMARK minimizedRMSD -1
REMARK  0 active torsions:
REMARK  status: ('A' for Active; 'I' for Inactive)
ROOT
ATOM      1  C2' OXE d   1      -0.648  -0.967   1.739  0.00  0.00     0.078 C 
ATOM      2  C1' OXE d   1      -1.913   0.492  -0.297  0.00  0.00     0.078 C 
ATOM      3  C1  OXE d   1      -0.570   0.979   0.186  0.00  0.00    -0.078 A 
ATOM      4  C2  OXE d   1       0.020   0.286   1.215  0.00  0.00    -0.078 A 
ATOM      5  C3  OXE d   1       1.284   0.660   1.662  0.00  0.00     0.003 A 
ATOM      6  C4  OXE d   1       1.891   1.826   1.179  0.00  0.00    -0.002 A 
ATOM      7  C5  OXE d   1       1.288   2.569   0.159  0.00  0.00    -0.002 A 
ATOM      8  C6  OXE d   1       0.080   2.136  -0.377  0.00  0.00     0.003 A 
ENDROOT
TORSDOF 0
ENDMDL
