MODEL 1
REMARK minimizedAffinity 7.95987558
REMARK minimizedRMSD -1
REMARK  0 active torsions:
REMARK  status: ('A' for Active; 'I' for Inactive)
ROOT
ATOM      1  C2' OXE d   1      -0.731   5.983  -0.756  0.00  0.00     0.078 C 
ATOM      2  C1' OXE d   1      -0.410   5.978  -3.544  0.00  0.00     0.078 C 
ATOM      3  C1  OXE d   1      -1.816   5.975  -2.998  0.00  0.00    -0.078 A 
ATOM      4  C2  OXE d   1      -1.964   5.930  -1.633  0.00  0.00    -0.078 A 
ATOM      5  C3  OXE d   1      -3.238   5.980  -1.075  0.00  0.00     0.003 A 
ATOM      6  C4  OXE d   1      -4.373   5.921  -1.893  0.00  0.00    -0.002 A 
ATOM      7  C5  OXE d   1      -4.245   5.926  -3.286  0.00  0.00    -0.002 A 
ATOM      8  C6  OXE d   1      -2.977   5.996  -3.853  0.00  0.00     0.003 A 
ENDROOT
TORSDOF 0
ENDMDL
