MODEL 1
REMARK minimizedAffinity -3.49252057
REMARK minimizedRMSD -1
REMARK  0 active torsions:
REMARK  status: ('A' for Active; 'I' for Inactive)
ROOT
ATOM      1  C2' OXE d   1      -2.694   5.931  -4.818  0.00  0.00     0.078 C 
ATOM      2  C1' OXE d   1      -1.349   5.902  -2.354  0.00  0.00     0.078 C 
ATOM      3  C1  OXE d   1      -0.515   5.942  -3.609  0.00  0.00    -0.078 A 
ATOM      4  C2  OXE d   1      -1.180   5.909  -4.811  0.00  0.00    -0.078 A 
ATOM      5  C3  OXE d   1      -0.461   6.000  -6.000  0.00  0.00     0.003 A 
ATOM      6  C4  OXE d   1       0.939   5.970  -5.986  0.00  0.00    -0.002 A 
ATOM      7  C5  OXE d   1       1.636   5.963  -4.773  0.00  0.00    -0.002 A 
ATOM      8  C6  OXE d   1       0.926   5.993  -3.578  0.00  0.00     0.003 A 
ENDROOT
TORSDOF 0
ENDMDL
