MODEL 1
REMARK minimizedAffinity 1.55071306
REMARK minimizedRMSD -1
REMARK  0 active torsions:
REMARK  status: ('A' for Active; 'I' for Inactive)
ROOT
ATOM      1  C2' OXE d   1      -0.340   5.999  -0.712  0.00  0.00     0.078 C 
ATOM      2  C1' OXE d   1      -0.510   5.983  -3.514  0.00  0.00     0.078 C 
ATOM      3  C1  OXE d   1      -1.799   5.981  -2.732  0.00  0.00    -0.078 A 
ATOM      4  C2  OXE d   1      -1.706   5.942  -1.361  0.00  0.00    -0.078 A 
ATOM      5  C3  OXE d   1      -2.864   5.994  -0.590  0.00  0.00     0.003 A 
ATOM      6  C4  OXE d   1      -4.124   5.931  -1.198  0.00  0.00    -0.002 A 
ATOM      7  C5  OXE d   1      -4.240   5.931  -2.592  0.00  0.00    -0.002 A 
ATOM      8  C6  OXE d   1      -3.091   5.998  -3.372  0.00  0.00     0.003 A 
ENDROOT
TORSDOF 0
ENDMDL
