MODEL 1
REMARK minimizedAffinity 2.75446653
REMARK minimizedRMSD -1
REMARK  0 active torsions:
REMARK  status: ('A' for Active; 'I' for Inactive)
ROOT
ATOM      1  C2' OXE d   1       1.538   3.420  -3.601  0.00  0.00     0.078 C 
ATOM      2  C1' OXE d   1       0.646   5.640  -5.069  0.00  0.00     0.078 C 
ATOM      3  C1  OXE d   1       2.105   5.272  -5.167  0.00  0.00    -0.078 A 
ATOM      4  C2  OXE d   1       2.542   4.213  -4.409  0.00  0.00    -0.078 A 
ATOM      5  C3  OXE d   1       3.867   3.797  -4.505  0.00  0.00     0.003 A 
ATOM      6  C4  OXE d   1       4.792   4.541  -5.247  0.00  0.00    -0.002 A 
ATOM      7  C5  OXE d   1       4.376   5.648  -5.995  0.00  0.00    -0.002 A 
ATOM      8  C6  OXE d   1       3.031   6.000  -6.000  0.00  0.00     0.003 A 
ENDROOT
TORSDOF 0
ENDMDL
