MODEL 1
REMARK minimizedAffinity -5.24806309
REMARK minimizedRMSD -1
REMARK  0 active torsions:
REMARK  status: ('A' for Active; 'I' for Inactive)
ROOT
ATOM      1  O1  BZF d   1       0.389   0.708  -0.987  0.00  0.00    -0.204 OA
ATOM      2  C2  BZF d   1      -0.892   0.244  -1.214  0.00  0.00     0.174 A 
ATOM      3  C3  BZF d   1      -1.313  -0.522  -0.187  0.00  0.00    -0.012 A 
ATOM      4  C3A BZF d   1      -0.262  -0.462   0.783  0.00  0.00    -0.107 A 
ATOM      5  C4  BZF d   1      -0.098  -1.005   2.025  0.00  0.00     0.055 A 
ATOM      6  C5  BZF d   1       1.076  -0.813   2.680  0.00  0.00    -0.016 A 
ATOM      7  C6  BZF d   1       2.109  -0.088   2.122  0.00  0.00     0.022 A 
ATOM      8  C7  BZF d   1       1.991   0.475   0.895  0.00  0.00     0.029 A 
ATOM      9  C7A BZF d   1       0.793   0.310   0.244  0.00  0.00     0.058 A 
ENDROOT
TORSDOF 0
ENDMDL
