MODEL 1
REMARK minimizedAffinity -4.78927183
REMARK minimizedRMSD -1
REMARK  0 active torsions:
REMARK  status: ('A' for Active; 'I' for Inactive)
ROOT
ATOM      1  O1  BZF d   1       0.401   0.169  -1.026  0.00  0.00    -0.204 OA
ATOM      2  C2  BZF d   1      -0.981   0.152  -1.043  0.00  0.00     0.174 A 
ATOM      3  C3  BZF d   1      -1.469  -0.249   0.149  0.00  0.00    -0.012 A 
ATOM      4  C3A BZF d   1      -0.322  -0.410   0.990  0.00  0.00    -0.107 A 
ATOM      5  C4  BZF d   1      -0.160  -0.776   2.295  0.00  0.00     0.055 A 
ATOM      6  C5  BZF d   1       1.098  -0.907   2.793  0.00  0.00    -0.016 A 
ATOM      7  C6  BZF d   1       2.214  -0.685   2.013  0.00  0.00     0.022 A 
ATOM      8  C7  BZF d   1       2.103  -0.314   0.714  0.00  0.00     0.029 A 
ATOM      9  C7A BZF d   1       0.833  -0.149   0.218  0.00  0.00     0.058 A 
ENDROOT
TORSDOF 0
ENDMDL
