MODEL 1
REMARK minimizedAffinity -2.13239646
REMARK minimizedRMSD -1
REMARK  0 active torsions:
REMARK  status: ('A' for Active; 'I' for Inactive)
ROOT
ATOM      1  O1  BZF d   1       0.746  -0.681  -1.104  0.00  0.00    -0.204 OA
ATOM      2  C2  BZF d   1      -0.301   0.218  -1.047  0.00  0.00     0.174 A 
ATOM      3  C3  BZF d   1      -0.904   0.176   0.159  0.00  0.00    -0.012 A 
ATOM      4  C3A BZF d   1      -0.130  -0.745   0.933  0.00  0.00    -0.107 A 
ATOM      5  C4  BZF d   1      -0.220  -1.197   2.219  0.00  0.00     0.055 A 
ATOM      6  C5  BZF d   1       0.649  -2.151   2.646  0.00  0.00    -0.016 A 
ATOM      7  C6  BZF d   1       1.615  -2.678   1.814  0.00  0.00     0.022 A 
ATOM      8  C7  BZF d   1       1.745  -2.258   0.532  0.00  0.00     0.029 A 
ATOM      9  C7A BZF d   1       0.890  -1.271   0.107  0.00  0.00     0.058 A 
ENDROOT
TORSDOF 0
ENDMDL
