MODEL 1
REMARK minimizedAffinity -4.32438374
REMARK minimizedRMSD -1
REMARK  0 active torsions:
REMARK  status: ('A' for Active; 'I' for Inactive)
ROOT
ATOM      1  O1  BZF d   1       1.200   0.662  -0.415  0.00  0.00    -0.204 OA
ATOM      2  C2  BZF d   1       0.019   0.620  -1.132  0.00  0.00     0.174 A 
ATOM      3  C3  BZF d   1      -0.958   0.032  -0.411  0.00  0.00    -0.012 A 
ATOM      4  C3A BZF d   1      -0.374  -0.231   0.869  0.00  0.00    -0.107 A 
ATOM      5  C4  BZF d   1      -0.850  -0.789   2.021  0.00  0.00     0.055 A 
ATOM      6  C5  BZF d   1      -0.002  -0.968   3.068  0.00  0.00    -0.016 A 
ATOM      7  C6  BZF d   1       1.327  -0.607   2.995  0.00  0.00     0.022 A 
ATOM      8  C7  BZF d   1       1.844  -0.046   1.875  0.00  0.00     0.029 A 
ATOM      9  C7A BZF d   1       0.982   0.167   0.827  0.00  0.00     0.058 A 
ENDROOT
TORSDOF 0
ENDMDL
