MODEL 1
REMARK minimizedAffinity -6.54978514
REMARK minimizedRMSD -1
REMARK  0 active torsions:
REMARK  status: ('A' for Active; 'I' for Inactive)
ROOT
ATOM      1  O1  BZF d   1       1.305  -1.420  -1.090  0.00  0.00    -0.204 OA
ATOM      2  C2  BZF d   1       0.199  -0.916  -1.746  0.00  0.00     0.174 A 
ATOM      3  C3  BZF d   1      -0.674  -0.379  -0.870  0.00  0.00    -0.012 A 
ATOM      4  C3A BZF d   1      -0.034  -0.476   0.406  0.00  0.00    -0.107 A 
ATOM      5  C4  BZF d   1      -0.394  -0.099   1.668  0.00  0.00     0.055 A 
ATOM      6  C5  BZF d   1       0.426  -0.405   2.708  0.00  0.00    -0.016 A 
ATOM      7  C6  BZF d   1       1.609  -1.089   2.523  0.00  0.00     0.022 A 
ATOM      8  C7  BZF d   1       2.011  -1.480   1.289  0.00  0.00     0.029 A 
ATOM      9  C7A BZF d   1       1.200  -1.144   0.232  0.00  0.00     0.058 A 
ENDROOT
TORSDOF 0
ENDMDL
