MODEL 1
REMARK minimizedAffinity -5.19600344
REMARK minimizedRMSD -1
REMARK  0 active torsions:
REMARK  status: ('A' for Active; 'I' for Inactive)
ROOT
ATOM      1  O1  BZF d   1       0.575  -0.456  -1.531  0.00  0.00    -0.204 OA
ATOM      2  C2  BZF d   1      -0.659   0.085  -1.221  0.00  0.00     0.174 A 
ATOM      3  C3  BZF d   1      -0.935  -0.075   0.089  0.00  0.00    -0.012 A 
ATOM      4  C3A BZF d   1       0.236  -0.675   0.651  0.00  0.00    -0.107 A 
ATOM      5  C4  BZF d   1       0.577  -1.064   1.915  0.00  0.00     0.055 A 
ATOM      6  C5  BZF d   1       1.769  -1.685   2.115  0.00  0.00    -0.016 A 
ATOM      7  C6  BZF d   1       2.640  -1.938   1.076  0.00  0.00     0.022 A 
ATOM      8  C7  BZF d   1       2.347  -1.567  -0.195  0.00  0.00     0.029 A 
ATOM      9  C7A BZF d   1       1.158  -0.909  -0.395  0.00  0.00     0.058 A 
ENDROOT
TORSDOF 0
ENDMDL
