MODEL 1
REMARK minimizedAffinity -4.61656904
REMARK minimizedRMSD -1
REMARK  0 active torsions:
REMARK  status: ('A' for Active; 'I' for Inactive)
ROOT
ATOM      1  O1  BZF d   1       1.039   0.896  -1.054  0.00  0.00    -0.204 OA
ATOM      2  C2  BZF d   1       0.459  -0.247  -0.538  0.00  0.00     0.174 A 
ATOM      3  C3  BZF d   1      -0.858  -0.285  -0.823  0.00  0.00    -0.012 A 
ATOM      4  C3A BZF d   1      -1.099   0.863  -1.642  0.00  0.00    -0.107 A 
ATOM      5  C4  BZF d   1      -2.213   1.362  -2.254  0.00  0.00     0.055 A 
ATOM      6  C5  BZF d   1      -2.127   2.543  -2.921  0.00  0.00    -0.016 A 
ATOM      7  C6  BZF d   1      -0.946   3.253  -2.991  0.00  0.00     0.022 A 
ATOM      8  C7  BZF d   1       0.186   2.795  -2.404  0.00  0.00     0.029 A 
ATOM      9  C7A BZF d   1       0.110   1.586  -1.758  0.00  0.00     0.058 A 
ENDROOT
TORSDOF 0
ENDMDL
