MODEL 1
REMARK minimizedAffinity -5.39658594
REMARK minimizedRMSD -1
REMARK  0 active torsions:
REMARK  status: ('A' for Active; 'I' for Inactive)
ROOT
ATOM      1  O1  BZF d   1      -1.507   0.023  -0.300  0.00  0.00    -0.204 OA
ATOM      2  C2  BZF d   1      -0.768  -0.142  -1.455  0.00  0.00     0.174 A 
ATOM      3  C3  BZF d   1       0.544  -0.270  -1.170  0.00  0.00    -0.012 A 
ATOM      4  C3A BZF d   1       0.620  -0.272   0.259  0.00  0.00    -0.107 A 
ATOM      5  C4  BZF d   1       1.653  -0.386   1.144  0.00  0.00     0.055 A 
ATOM      6  C5  BZF d   1       1.399  -0.276   2.474  0.00  0.00    -0.016 A 
ATOM      7  C6  BZF d   1       0.126  -0.047   2.954  0.00  0.00     0.022 A 
ATOM      8  C7  BZF d   1      -0.932   0.068   2.115  0.00  0.00     0.029 A 
ATOM      9  C7A BZF d   1      -0.684  -0.076   0.771  0.00  0.00     0.058 A 
ENDROOT
TORSDOF 0
ENDMDL
