MODEL 1
REMARK minimizedAffinity -1.89925385
REMARK minimizedRMSD -1
REMARK  0 active torsions:
REMARK  status: ('A' for Active; 'I' for Inactive)
ROOT
ATOM      1  O1  BZF d   1       0.235   0.256  -1.003  0.00  0.00    -0.204 OA
ATOM      2  C2  BZF d   1      -1.145   0.205  -0.971  0.00  0.00     0.174 A 
ATOM      3  C3  BZF d   1      -1.578  -0.285   0.208  0.00  0.00    -0.012 A 
ATOM      4  C3A BZF d   1      -0.398  -0.470   0.996  0.00  0.00    -0.107 A 
ATOM      5  C4  BZF d   1      -0.178  -0.916   2.268  0.00  0.00     0.055 A 
ATOM      6  C5  BZF d   1       1.100  -1.046   2.711  0.00  0.00    -0.016 A 
ATOM      7  C6  BZF d   1       2.180  -0.744   1.908  0.00  0.00     0.022 A 
ATOM      8  C7  BZF d   1       2.012  -0.294   0.641  0.00  0.00     0.029 A 
ATOM      9  C7A BZF d   1       0.721  -0.130   0.201  0.00  0.00     0.058 A 
ENDROOT
TORSDOF 0
ENDMDL
