MODEL 1
REMARK minimizedAffinity -2.47176695
REMARK minimizedRMSD -1
REMARK  0 active torsions:
REMARK  status: ('A' for Active; 'I' for Inactive)
ROOT
ATOM      1  O1  BZF d   1      -1.608  -1.253  -0.003  0.00  0.00    -0.204 OA
ATOM      2  C2  BZF d   1      -1.160  -0.723  -1.198  0.00  0.00     0.174 A 
ATOM      3  C3  BZF d   1       0.024  -0.099  -1.031  0.00  0.00    -0.012 A 
ATOM      4  C3A BZF d   1       0.380  -0.328   0.335  0.00  0.00    -0.107 A 
ATOM      5  C4  BZF d   1       1.456   0.028   1.097  0.00  0.00     0.055 A 
ATOM      6  C5  BZF d   1       1.464  -0.290   2.418  0.00  0.00    -0.016 A 
ATOM      7  C6  BZF d   1       0.413  -0.958   3.011  0.00  0.00     0.022 A 
ATOM      8  C7  BZF d   1      -0.674  -1.337   2.295  0.00  0.00     0.029 A 
ATOM      9  C7A BZF d   1      -0.670  -1.046   0.952  0.00  0.00     0.058 A 
ENDROOT
TORSDOF 0
ENDMDL
