MODEL 1
REMARK minimizedAffinity 4.21981478
REMARK minimizedRMSD -1
REMARK  0 active torsions:
REMARK  status: ('A' for Active; 'I' for Inactive)
ROOT
ATOM      1  C   UNL d   1      -3.204   5.990   6.000  0.00  0.00     0.077 C 
ATOM      2  C1  UNL d   1      -3.817   5.541   4.706  0.00  0.00    -0.074 A 
ATOM      3  C2  UNL d   1      -5.183   5.254   4.620  0.00  0.00    -0.005 A 
ATOM      4  C3  UNL d   1      -5.741   4.847   3.408  0.00  0.00     0.006 A 
ATOM      5  C4  UNL d   1      -4.939   4.723   2.272  0.00  0.00    -0.005 A 
ATOM      6  C5  UNL d   1      -3.572   5.007   2.339  0.00  0.00    -0.074 A 
ATOM      7  C6  UNL d   1      -2.698   4.889   1.126  0.00  0.00     0.077 C 
ATOM      8  C7  UNL d   1      -3.020   5.423   3.559  0.00  0.00    -0.001 A 
ENDROOT
TORSDOF 0
ENDMDL
