MODEL 1
REMARK minimizedAffinity 7.34930849
REMARK minimizedRMSD -1
REMARK  0 active torsions:
REMARK  status: ('A' for Active; 'I' for Inactive)
ROOT
ATOM      1  C   UNL d   1      -2.439  -1.987   0.475  0.00  0.00     0.077 C 
ATOM      2  C1  UNL d   1      -2.696  -1.033   1.604  0.00  0.00    -0.074 A 
ATOM      3  C2  UNL d   1      -2.111   0.237   1.619  0.00  0.00    -0.005 A 
ATOM      4  C3  UNL d   1      -2.367   1.117   2.670  0.00  0.00     0.006 A 
ATOM      5  C4  UNL d   1      -3.209   0.736   3.716  0.00  0.00    -0.005 A 
ATOM      6  C5  UNL d   1      -3.803  -0.530   3.718  0.00  0.00    -0.074 A 
ATOM      7  C6  UNL d   1      -4.718  -0.952   4.829  0.00  0.00     0.077 C 
ATOM      8  C7  UNL d   1      -3.547  -1.406   2.654  0.00  0.00    -0.001 A 
ENDROOT
TORSDOF 0
ENDMDL
