MODEL 1
REMARK minimizedAffinity -1.09091103
REMARK minimizedRMSD -1
REMARK  0 active torsions:
REMARK  status: ('A' for Active; 'I' for Inactive)
ROOT
ATOM      1  C   UNL d   1      -2.644   5.989   0.955  0.00  0.00     0.077 C 
ATOM      2  C1  UNL d   1      -3.401   6.000   2.250  0.00  0.00    -0.074 A 
ATOM      3  C2  UNL d   1      -4.800   6.000   2.264  0.00  0.00    -0.005 A 
ATOM      4  C3  UNL d   1      -5.490   6.000   3.476  0.00  0.00     0.006 A 
ATOM      5  C4  UNL d   1      -4.791   6.000   4.684  0.00  0.00    -0.005 A 
ATOM      6  C5  UNL d   1      -3.392   5.999   4.688  0.00  0.00    -0.074 A 
ATOM      7  C6  UNL d   1      -2.625   5.988   5.977  0.00  0.00     0.077 C 
ATOM      8  C7  UNL d   1      -2.706   5.991   3.467  0.00  0.00    -0.001 A 
ENDROOT
TORSDOF 0
ENDMDL
