MODEL 1
REMARK minimizedAffinity 2.39645576
REMARK minimizedRMSD -1
REMARK  0 active torsions:
REMARK  status: ('A' for Active; 'I' for Inactive)
ROOT
ATOM      1  C   UNL d   1      -2.617   6.000   5.786  0.00  0.00     0.077 C 
ATOM      2  C1  UNL d   1      -3.336   5.991   4.470  0.00  0.00    -0.074 A 
ATOM      3  C2  UNL d   1      -4.733   5.998   4.414  0.00  0.00    -0.005 A 
ATOM      4  C3  UNL d   1      -5.388   6.000   3.182  0.00  0.00     0.006 A 
ATOM      5  C4  UNL d   1      -4.652   5.993   1.996  0.00  0.00    -0.005 A 
ATOM      6  C5  UNL d   1      -3.255   5.986   2.032  0.00  0.00    -0.074 A 
ATOM      7  C6  UNL d   1      -2.449   5.989   0.767  0.00  0.00     0.077 C 
ATOM      8  C7  UNL d   1      -2.604   5.992   3.274  0.00  0.00    -0.001 A 
ENDROOT
TORSDOF 0
ENDMDL
