MODEL 1
REMARK minimizedAffinity 5.30749798
REMARK minimizedRMSD -1
REMARK  0 active torsions:
REMARK  status: ('A' for Active; 'I' for Inactive)
ROOT
ATOM      1  C   UNL d   1      -2.254   5.997   6.000  0.00  0.00     0.077 C 
ATOM      2  C1  UNL d   1      -3.130   5.990   4.782  0.00  0.00    -0.074 A 
ATOM      3  C2  UNL d   1      -4.524   5.996   4.899  0.00  0.00    -0.005 A 
ATOM      4  C3  UNL d   1      -5.325   5.999   3.757  0.00  0.00     0.006 A 
ATOM      5  C4  UNL d   1      -4.742   5.997   2.489  0.00  0.00    -0.005 A 
ATOM      6  C5  UNL d   1      -3.350   5.992   2.353  0.00  0.00    -0.074 A 
ATOM      7  C6  UNL d   1      -2.707   6.000   0.998  0.00  0.00     0.077 C 
ATOM      8  C7  UNL d   1      -2.551   5.996   3.505  0.00  0.00    -0.001 A 
ENDROOT
TORSDOF 0
ENDMDL
