MODEL 1
REMARK minimizedAffinity 3.0518446
REMARK minimizedRMSD -1
REMARK  0 active torsions:
REMARK  status: ('A' for Active; 'I' for Inactive)
ROOT
ATOM      1  C   UNL d   1      -2.210   5.972   0.897  0.00  0.00     0.077 C 
ATOM      2  C1  UNL d   1      -2.966   5.987   2.192  0.00  0.00    -0.074 A 
ATOM      3  C2  UNL d   1      -4.365   5.985   2.208  0.00  0.00    -0.005 A 
ATOM      4  C3  UNL d   1      -5.055   5.988   3.420  0.00  0.00     0.006 A 
ATOM      5  C4  UNL d   1      -4.355   5.994   4.627  0.00  0.00    -0.005 A 
ATOM      6  C5  UNL d   1      -2.956   5.995   4.631  0.00  0.00    -0.074 A 
ATOM      7  C6  UNL d   1      -2.188   5.991   5.920  0.00  0.00     0.077 C 
ATOM      8  C7  UNL d   1      -2.270   5.984   3.409  0.00  0.00    -0.001 A 
ENDROOT
TORSDOF 0
ENDMDL
