MODEL 1
REMARK minimizedAffinity -0.330282599
REMARK minimizedRMSD -1
REMARK  0 active torsions:
REMARK  status: ('A' for Active; 'I' for Inactive)
ROOT
ATOM      1  C   UNL d   1      -2.558   5.999   6.000  0.00  0.00     0.077 C 
ATOM      2  C1  UNL d   1      -3.246   5.989   4.667  0.00  0.00    -0.074 A 
ATOM      3  C2  UNL d   1      -4.642   5.989   4.579  0.00  0.00    -0.005 A 
ATOM      4  C3  UNL d   1      -5.268   5.989   3.332  0.00  0.00     0.006 A 
ATOM      5  C4  UNL d   1      -4.505   5.989   2.164  0.00  0.00    -0.005 A 
ATOM      6  C5  UNL d   1      -3.109   5.990   2.232  0.00  0.00    -0.074 A 
ATOM      7  C6  UNL d   1      -2.275   6.000   0.986  0.00  0.00     0.077 C 
ATOM      8  C7  UNL d   1      -2.487   5.997   3.489  0.00  0.00    -0.001 A 
ENDROOT
TORSDOF 0
ENDMDL
