MODEL 1
REMARK minimizedAffinity -0.0859780312
REMARK minimizedRMSD -1
REMARK  0 active torsions:
REMARK  status: ('A' for Active; 'I' for Inactive)
ROOT
ATOM      1  C   UNL d   1      -2.994   6.000   5.765  0.00  0.00     0.077 C 
ATOM      2  C1  UNL d   1      -3.627   5.992   4.405  0.00  0.00    -0.074 A 
ATOM      3  C2  UNL d   1      -5.018   5.997   4.260  0.00  0.00    -0.005 A 
ATOM      4  C3  UNL d   1      -5.593   5.999   2.989  0.00  0.00     0.006 A 
ATOM      5  C4  UNL d   1      -4.784   5.997   1.852  0.00  0.00    -0.005 A 
ATOM      6  C5  UNL d   1      -3.391   5.992   1.978  0.00  0.00    -0.074 A 
ATOM      7  C6  UNL d   1      -2.507   5.999   0.766  0.00  0.00     0.077 C 
ATOM      8  C7  UNL d   1      -2.821   5.997   3.258  0.00  0.00    -0.001 A 
ENDROOT
TORSDOF 0
ENDMDL
