MODEL 1
REMARK minimizedAffinity -2.18056726
REMARK minimizedRMSD -1
REMARK  0 active torsions:
REMARK  status: ('A' for Active; 'I' for Inactive)
ROOT
ATOM      1  C   UNL d   1      -2.999   6.000   5.999  0.00  0.00     0.077 C 
ATOM      2  C1  UNL d   1      -3.508   5.986   4.589  0.00  0.00    -0.074 A 
ATOM      3  C2  UNL d   1      -4.880   5.982   4.319  0.00  0.00    -0.005 A 
ATOM      4  C3  UNL d   1      -5.338   5.978   3.002  0.00  0.00     0.006 A 
ATOM      5  C4  UNL d   1      -4.430   5.980   1.942  0.00  0.00    -0.005 A 
ATOM      6  C5  UNL d   1      -3.054   5.986   2.192  0.00  0.00    -0.074 A 
ATOM      7  C6  UNL d   1      -2.065   5.997   1.065  0.00  0.00     0.077 C 
ATOM      8  C7  UNL d   1      -2.602   5.996   3.519  0.00  0.00    -0.001 A 
ENDROOT
TORSDOF 0
ENDMDL
