MODEL 1
REMARK minimizedAffinity -1.6061765
REMARK minimizedRMSD -1
REMARK  0 active torsions:
REMARK  status: ('A' for Active; 'I' for Inactive)
ROOT
ATOM      1  C   UNL d   1      -5.971   5.975   1.997  0.00  0.00     0.077 C 
ATOM      2  C1  UNL d   1      -4.580   5.977   2.560  0.00  0.00    -0.074 A 
ATOM      3  C2  UNL d   1      -3.464   5.988   1.717  0.00  0.00    -0.005 A 
ATOM      4  C3  UNL d   1      -2.177   5.999   2.255  0.00  0.00     0.006 A 
ATOM      5  C4  UNL d   1      -1.994   5.999   3.639  0.00  0.00    -0.005 A 
ATOM      6  C5  UNL d   1      -3.098   5.988   4.496  0.00  0.00    -0.074 A 
ATOM      7  C6  UNL d   1      -2.919   5.998   5.986  0.00  0.00     0.077 C 
ATOM      8  C7  UNL d   1      -4.388   5.984   3.948  0.00  0.00    -0.001 A 
ENDROOT
TORSDOF 0
ENDMDL
