MODEL 1
REMARK minimizedAffinity 3.40545678
REMARK minimizedRMSD -1
REMARK  0 active torsions:
REMARK  status: ('A' for Active; 'I' for Inactive)
ROOT
ATOM      1  C   UNL d   1      -1.863   5.987   0.974  0.00  0.00     0.077 C 
ATOM      2  C1  UNL d   1      -2.799   5.998   2.146  0.00  0.00    -0.074 A 
ATOM      3  C2  UNL d   1      -4.185   5.996   1.960  0.00  0.00    -0.005 A 
ATOM      4  C3  UNL d   1      -5.042   5.996   3.060  0.00  0.00     0.006 A 
ATOM      5  C4  UNL d   1      -4.524   5.998   4.355  0.00  0.00    -0.005 A 
ATOM      6  C5  UNL d   1      -3.141   5.999   4.561  0.00  0.00    -0.074 A 
ATOM      7  C6  UNL d   1      -2.567   5.991   5.947  0.00  0.00     0.077 C 
ATOM      8  C7  UNL d   1      -2.285   5.992   3.451  0.00  0.00    -0.001 A 
ENDROOT
TORSDOF 0
ENDMDL
