MODEL 1
REMARK minimizedAffinity 1.22708929
REMARK minimizedRMSD -1
REMARK  0 active torsions:
REMARK  status: ('A' for Active; 'I' for Inactive)
ROOT
ATOM      1  C   UNL d   1      -2.788   2.296   2.256  0.00  0.00     0.077 C 
ATOM      2  C1  UNL d   1      -3.344   3.590   2.770  0.00  0.00    -0.074 A 
ATOM      3  C2  UNL d   1      -4.420   4.215   2.131  0.00  0.00    -0.005 A 
ATOM      4  C3  UNL d   1      -4.933   5.413   2.627  0.00  0.00     0.006 A 
ATOM      5  C4  UNL d   1      -4.376   5.998   3.765  0.00  0.00    -0.005 A 
ATOM      6  C5  UNL d   1      -3.301   5.388   4.418  0.00  0.00    -0.074 A 
ATOM      7  C6  UNL d   1      -2.697   5.999   5.648  0.00  0.00     0.077 C 
ATOM      8  C7  UNL d   1      -2.795   4.180   3.918  0.00  0.00    -0.001 A 
ENDROOT
TORSDOF 0
ENDMDL
