MODEL 1
REMARK minimizedAffinity 3.42740607
REMARK minimizedRMSD -1
REMARK  0 active torsions:
REMARK  status: ('A' for Active; 'I' for Inactive)
ROOT
ATOM      1  C   UNL d   1      -2.919   2.970   1.994  0.00  0.00     0.077 C 
ATOM      2  C1  UNL d   1      -3.613   4.030   2.796  0.00  0.00    -0.074 A 
ATOM      3  C2  UNL d   1      -4.853   4.538   2.395  0.00  0.00    -0.005 A 
ATOM      4  C3  UNL d   1      -5.492   5.517   3.156  0.00  0.00     0.006 A 
ATOM      5  C4  UNL d   1      -4.898   5.997   4.324  0.00  0.00    -0.005 A 
ATOM      6  C5  UNL d   1      -3.659   5.501   4.741  0.00  0.00    -0.074 A 
ATOM      7  C6  UNL d   1      -3.012   5.999   5.999  0.00  0.00     0.077 C 
ATOM      8  C7  UNL d   1      -3.027   4.512   3.975  0.00  0.00    -0.001 A 
ENDROOT
TORSDOF 0
ENDMDL
