MODEL 1
REMARK minimizedAffinity -1.56814826
REMARK minimizedRMSD -1
REMARK  0 active torsions:
REMARK  status: ('A' for Active; 'I' for Inactive)
ROOT
ATOM      1  C   UNL d   1      -5.995   5.968   2.328  0.00  0.00     0.077 C 
ATOM      2  C1  UNL d   1      -4.530   5.964   2.648  0.00  0.00    -0.074 A 
ATOM      3  C2  UNL d   1      -3.572   5.961   1.629  0.00  0.00    -0.005 A 
ATOM      4  C3  UNL d   1      -2.212   5.966   1.942  0.00  0.00     0.006 A 
ATOM      5  C4  UNL d   1      -1.798   5.975   3.275  0.00  0.00    -0.005 A 
ATOM      6  C5  UNL d   1      -2.742   5.979   4.307  0.00  0.00    -0.074 A 
ATOM      7  C6  UNL d   1      -2.314   5.998   5.744  0.00  0.00     0.077 C 
ATOM      8  C7  UNL d   1      -4.106   5.980   3.984  0.00  0.00    -0.001 A 
ENDROOT
TORSDOF 0
ENDMDL
