MODEL 1
REMARK minimizedAffinity 0.85876745
REMARK minimizedRMSD -1
REMARK  0 active torsions:
REMARK  status: ('A' for Active; 'I' for Inactive)
ROOT
ATOM      1  C   UNL d   1      -2.613   4.796   1.136  0.00  0.00     0.077 C 
ATOM      2  C1  UNL d   1      -3.277   5.222   2.412  0.00  0.00    -0.074 A 
ATOM      3  C2  UNL d   1      -4.660   5.420   2.471  0.00  0.00    -0.005 A 
ATOM      4  C3  UNL d   1      -5.264   5.807   3.668  0.00  0.00     0.006 A 
ATOM      5  C4  UNL d   1      -4.493   6.000   4.814  0.00  0.00    -0.005 A 
ATOM      6  C5  UNL d   1      -3.109   5.806   4.774  0.00  0.00    -0.074 A 
ATOM      7  C6  UNL d   1      -2.266   5.999   6.000  0.00  0.00     0.077 C 
ATOM      8  C7  UNL d   1      -2.510   5.410   3.570  0.00  0.00    -0.001 A 
ENDROOT
TORSDOF 0
ENDMDL
