MODEL 1
REMARK minimizedAffinity 0.468829393
REMARK minimizedRMSD -1
REMARK  0 active torsions:
REMARK  status: ('A' for Active; 'I' for Inactive)
ROOT
ATOM      1  C   UNL d   1      -2.988   5.956   5.571  0.00  0.00     0.077 C 
ATOM      2  C1  UNL d   1      -3.100   5.267   4.244  0.00  0.00    -0.074 A 
ATOM      3  C2  UNL d   1      -3.314   5.999   3.071  0.00  0.00    -0.005 A 
ATOM      4  C3  UNL d   1      -3.406   5.345   1.842  0.00  0.00     0.006 A 
ATOM      5  C4  UNL d   1      -3.287   3.957   1.773  0.00  0.00    -0.005 A 
ATOM      6  C5  UNL d   1      -3.072   3.209   2.935  0.00  0.00    -0.074 A 
ATOM      7  C6  UNL d   1      -2.932   1.717   2.878  0.00  0.00     0.077 C 
ATOM      8  C7  UNL d   1      -2.973   3.873   4.166  0.00  0.00    -0.001 A 
ENDROOT
TORSDOF 0
ENDMDL
