MODEL 1
REMARK minimizedAffinity 4.93433857
REMARK minimizedRMSD -1
REMARK  0 active torsions:
REMARK  status: ('A' for Active; 'I' for Inactive)
ROOT
ATOM      1  C   UNL d   1      -2.802   5.967   5.950  0.00  0.00     0.077 C 
ATOM      2  C1  UNL d   1      -3.036   5.982   4.468  0.00  0.00    -0.074 A 
ATOM      3  C2  UNL d   1      -1.963   5.993   3.571  0.00  0.00    -0.005 A 
ATOM      4  C3  UNL d   1      -2.196   5.997   2.196  0.00  0.00     0.006 A 
ATOM      5  C4  UNL d   1      -3.502   5.992   1.705  0.00  0.00    -0.005 A 
ATOM      6  C5  UNL d   1      -4.587   5.981   2.586  0.00  0.00    -0.074 A 
ATOM      7  C6  UNL d   1      -5.997   5.965   2.075  0.00  0.00     0.077 C 
ATOM      8  C7  UNL d   1      -4.345   5.969   3.967  0.00  0.00    -0.001 A 
ENDROOT
TORSDOF 0
ENDMDL
