MODEL 1
REMARK minimizedAffinity 4.55464458
REMARK minimizedRMSD -1
REMARK  0 active torsions:
REMARK  status: ('A' for Active; 'I' for Inactive)
ROOT
ATOM      1  C   UNL d   1      -3.457   5.902   5.237  0.00  0.00     0.077 C 
ATOM      2  C1  UNL d   1      -3.270   5.249   3.900  0.00  0.00    -0.074 A 
ATOM      3  C2  UNL d   1      -3.326   5.999   2.720  0.00  0.00    -0.005 A 
ATOM      4  C3  UNL d   1      -3.141   5.380   1.484  0.00  0.00     0.006 A 
ATOM      5  C4  UNL d   1      -2.898   4.007   1.415  0.00  0.00    -0.005 A 
ATOM      6  C5  UNL d   1      -2.837   3.242   2.584  0.00  0.00    -0.074 A 
ATOM      7  C6  UNL d   1      -2.567   1.768   2.528  0.00  0.00     0.077 C 
ATOM      8  C7  UNL d   1      -3.017   3.873   3.823  0.00  0.00    -0.001 A 
ENDROOT
TORSDOF 0
ENDMDL
