MODEL 1
REMARK minimizedAffinity 4.43141079
REMARK minimizedRMSD -1
REMARK  0 active torsions:
REMARK  status: ('A' for Active; 'I' for Inactive)
ROOT
ATOM      1  C   UNL d   1      -2.638   5.997   6.000  0.00  0.00     0.077 C 
ATOM      2  C1  UNL d   1      -3.410   5.733   4.742  0.00  0.00    -0.074 A 
ATOM      3  C2  UNL d   1      -4.782   5.999   4.671  0.00  0.00    -0.005 A 
ATOM      4  C3  UNL d   1      -5.485   5.757   3.491  0.00  0.00     0.006 A 
ATOM      5  C4  UNL d   1      -4.826   5.248   2.372  0.00  0.00    -0.005 A 
ATOM      6  C5  UNL d   1      -3.455   4.977   2.423  0.00  0.00    -0.074 A 
ATOM      7  C6  UNL d   1      -2.729   4.439   1.227  0.00  0.00     0.077 C 
ATOM      8  C7  UNL d   1      -2.753   5.229   3.611  0.00  0.00    -0.001 A 
ENDROOT
TORSDOF 0
ENDMDL
