MODEL 1
REMARK minimizedAffinity 1.26648712
REMARK minimizedRMSD -1
REMARK  0 active torsions:
REMARK  status: ('A' for Active; 'I' for Inactive)
ROOT
ATOM      1  C   UNL d   1       2.090  -1.135  -0.471  0.00  0.00     0.078 C 
ATOM      2  C1  UNL d   1       1.402  -1.145   0.861  0.00  0.00    -0.077 A 
ATOM      3  C2  UNL d   1       2.094  -0.819   2.033  0.00  0.00    -0.001 A 
ATOM      4  C3  UNL d   1       1.443  -0.842   3.268  0.00  0.00     0.003 A 
ATOM      5  C4  UNL d   1       0.097  -1.194   3.342  0.00  0.00    -0.005 A 
ATOM      6  C5  UNL d   1      -0.600  -1.522   2.181  0.00  0.00     0.003 A 
ATOM      7  C6  UNL d   1       0.049  -1.499   0.946  0.00  0.00    -0.001 A 
ENDROOT
TORSDOF 0
ENDMDL
