MODEL 1
REMARK minimizedAffinity 6.44165659
REMARK minimizedRMSD -1
REMARK  0 active torsions:
REMARK  status: ('A' for Active; 'I' for Inactive)
ROOT
ATOM      1  C   UNL d   1       2.530  -1.504  -0.727  0.00  0.00     0.078 C 
ATOM      2  C1  UNL d   1       3.746  -0.889  -0.102  0.00  0.00    -0.077 A 
ATOM      3  C2  UNL d   1       4.825  -1.681   0.309  0.00  0.00    -0.001 A 
ATOM      4  C3  UNL d   1       5.946  -1.095   0.898  0.00  0.00     0.003 A 
ATOM      5  C4  UNL d   1       5.999   0.285   1.083  0.00  0.00    -0.005 A 
ATOM      6  C5  UNL d   1       4.929   1.081   0.680  0.00  0.00     0.003 A 
ATOM      7  C6  UNL d   1       3.807   0.497   0.090  0.00  0.00    -0.001 A 
ENDROOT
TORSDOF 0
ENDMDL
