MODEL 1
REMARK minimizedAffinity 5.17534828
REMARK minimizedRMSD -1
REMARK  0 active torsions:
REMARK  status: ('A' for Active; 'I' for Inactive)
ROOT
ATOM      1  C   UNL d   1      -3.890   0.655   1.529  0.00  0.00     0.078 C 
ATOM      2  C1  UNL d   1      -2.499   0.177   1.819  0.00  0.00    -0.077 A 
ATOM      3  C2  UNL d   1      -1.793  -0.594   0.887  0.00  0.00    -0.001 A 
ATOM      4  C3  UNL d   1      -0.502  -1.041   1.174  0.00  0.00     0.003 A 
ATOM      5  C4  UNL d   1       0.094  -0.723   2.393  0.00  0.00    -0.005 A 
ATOM      6  C5  UNL d   1      -0.602   0.042   3.327  0.00  0.00     0.003 A 
ATOM      7  C6  UNL d   1      -1.893   0.489   3.042  0.00  0.00    -0.001 A 
ENDROOT
TORSDOF 0
ENDMDL
