MODEL 1
REMARK minimizedAffinity 0.971822143
REMARK minimizedRMSD -1
REMARK  0 active torsions:
REMARK  status: ('A' for Active; 'I' for Inactive)
ROOT
ATOM      1  C   UNL d   1       1.215  -1.514   1.634  0.00  0.00     0.078 C 
ATOM      2  C1  UNL d   1       1.459  -1.164   0.197  0.00  0.00    -0.077 A 
ATOM      3  C2  UNL d   1       2.583  -0.421  -0.184  0.00  0.00    -0.001 A 
ATOM      4  C3  UNL d   1       2.793  -0.094  -1.524  0.00  0.00     0.003 A 
ATOM      5  C4  UNL d   1       1.881  -0.504  -2.495  0.00  0.00    -0.005 A 
ATOM      6  C5  UNL d   1       0.758  -1.242  -2.126  0.00  0.00     0.003 A 
ATOM      7  C6  UNL d   1       0.547  -1.570  -0.786  0.00  0.00    -0.001 A 
ENDROOT
TORSDOF 0
ENDMDL
