MODEL 1
REMARK minimizedAffinity -3.80525017
REMARK minimizedRMSD -1
REMARK  0 active torsions:
REMARK  status: ('A' for Active; 'I' for Inactive)
ROOT
ATOM      1  C   UNL d   1       1.875  -0.334  -0.928  0.00  0.00     0.078 C 
ATOM      2  C1  UNL d   1       0.564  -0.177  -0.217  0.00  0.00    -0.077 A 
ATOM      3  C2  UNL d   1       0.287  -0.895   0.953  0.00  0.00    -0.001 A 
ATOM      4  C3  UNL d   1      -0.941  -0.746   1.599  0.00  0.00     0.003 A 
ATOM      5  C4  UNL d   1      -1.903   0.120   1.081  0.00  0.00    -0.005 A 
ATOM      6  C5  UNL d   1      -1.638   0.837  -0.083  0.00  0.00     0.003 A 
ATOM      7  C6  UNL d   1      -0.410   0.689  -0.730  0.00  0.00    -0.001 A 
ENDROOT
TORSDOF 0
ENDMDL
