MODEL 1
REMARK minimizedAffinity 8.34277534
REMARK minimizedRMSD -1
REMARK  0 active torsions:
REMARK  status: ('A' for Active; 'I' for Inactive)
ROOT
ATOM      1  O1  BZF d   1      -2.909  -3.321   0.776  0.00  0.00    -0.204 OA
ATOM      2  C2  BZF d   1      -1.790  -2.707   1.302  0.00  0.00     0.174 A 
ATOM      3  C3  BZF d   1      -1.038  -2.162   0.324  0.00  0.00    -0.012 A 
ATOM      4  C3A BZF d   1      -1.779  -2.374  -0.882  0.00  0.00    -0.107 A 
ATOM      5  C4  BZF d   1      -1.559  -2.045  -2.189  0.00  0.00     0.055 A 
ATOM      6  C5  BZF d   1      -2.443  -2.463  -3.133  0.00  0.00    -0.016 A 
ATOM      7  C6  BZF d   1      -3.553  -3.215  -2.806  0.00  0.00     0.022 A 
ATOM      8  C7  BZF d   1      -3.815  -3.561  -1.523  0.00  0.00     0.029 A 
ATOM      9  C7A BZF d   1      -2.942  -3.112  -0.563  0.00  0.00     0.058 A 
ENDROOT
TORSDOF 0
ENDMDL
