MODEL 1
REMARK minimizedAffinity 1.7635498
REMARK minimizedRMSD -1
REMARK  0 active torsions:
REMARK  status: ('A' for Active; 'I' for Inactive)
ROOT
ATOM      1  O1  BZF d   1       2.506  -0.126   1.184  0.00  0.00    -0.204 OA
ATOM      2  C2  BZF d   1       1.706   0.800   0.543  0.00  0.00     0.174 A 
ATOM      3  C3  BZF d   1       2.391   1.935   0.297  0.00  0.00    -0.012 A 
ATOM      4  C3A BZF d   1       3.728   1.671   0.733  0.00  0.00    -0.107 A 
ATOM      5  C4  BZF d   1       4.877   2.407   0.736  0.00  0.00     0.055 A 
ATOM      6  C5  BZF d   1       5.996   1.883   1.301  0.00  0.00    -0.016 A 
ATOM      7  C6  BZF d   1       6.000   0.629   1.876  0.00  0.00     0.022 A 
ATOM      8  C7  BZF d   1       4.885  -0.142   1.893  0.00  0.00     0.029 A 
ATOM      9  C7A BZF d   1       3.761   0.373   1.293  0.00  0.00     0.058 A 
ENDROOT
TORSDOF 0
ENDMDL
