MODEL 1
REMARK minimizedAffinity 5.87979126
REMARK minimizedRMSD -1
REMARK  0 active torsions:
REMARK  status: ('A' for Active; 'I' for Inactive)
ROOT
ATOM      1  O1  BZF d   1       3.873   2.799   0.745  0.00  0.00    -0.204 OA
ATOM      2  C2  BZF d   1       5.008   3.551   0.981  0.00  0.00     0.174 A 
ATOM      3  C3  BZF d   1       6.000   2.780   1.470  0.00  0.00    -0.012 A 
ATOM      4  C3A BZF d   1       5.481   1.447   1.458  0.00  0.00    -0.107 A 
ATOM      5  C4  BZF d   1       6.000   0.234   1.812  0.00  0.00     0.055 A 
ATOM      6  C5  BZF d   1       5.207  -0.867   1.748  0.00  0.00    -0.016 A 
ATOM      7  C6  BZF d   1       3.891  -0.793   1.340  0.00  0.00     0.022 A 
ATOM      8  C7  BZF d   1       3.334   0.387   0.975  0.00  0.00     0.029 A 
ATOM      9  C7A BZF d   1       4.142   1.497   1.007  0.00  0.00     0.058 A 
ENDROOT
TORSDOF 0
ENDMDL
