MODEL 1
REMARK minimizedAffinity 20.4324036
REMARK minimizedRMSD -1
REMARK  0 active torsions:
REMARK  status: ('A' for Active; 'I' for Inactive)
ROOT
ATOM      1  O1  BZF d   1       3.855  -1.213   4.999  0.00  0.00    -0.204 OA
ATOM      2  C2  BZF d   1       5.128  -1.504   5.450  0.00  0.00     0.174 A 
ATOM      3  C3  BZF d   1       6.000  -1.557   4.423  0.00  0.00    -0.012 A 
ATOM      4  C3A BZF d   1       5.241  -1.191   3.266  0.00  0.00    -0.107 A 
ATOM      5  C4  BZF d   1       5.554  -1.046   1.945  0.00  0.00     0.055 A 
ATOM      6  C5  BZF d   1       4.566  -0.750   1.061  0.00  0.00    -0.016 A 
ATOM      7  C6  BZF d   1       3.255  -0.596   1.461  0.00  0.00     0.022 A 
ATOM      8  C7  BZF d   1       2.897  -0.725   2.762  0.00  0.00     0.029 A 
ATOM      9  C7A BZF d   1       3.898  -0.992   3.663  0.00  0.00     0.058 A 
ENDROOT
TORSDOF 0
ENDMDL
