MODEL 1
REMARK minimizedAffinity 14.149394
REMARK minimizedRMSD -1
REMARK  0 active torsions:
REMARK  status: ('A' for Active; 'I' for Inactive)
ROOT
ATOM      1  O1  BZF d   1       4.823   0.608  -1.350  0.00  0.00    -0.204 OA
ATOM      2  C2  BZF d   1       4.813   1.671  -2.232  0.00  0.00     0.174 A 
ATOM      3  C3  BZF d   1       3.840   2.548  -1.913  0.00  0.00    -0.012 A 
ATOM      4  C3A BZF d   1       3.261   2.046  -0.705  0.00  0.00    -0.107 A 
ATOM      5  C4  BZF d   1       2.259   2.488   0.110  0.00  0.00     0.055 A 
ATOM      6  C5  BZF d   1       1.888   1.726   1.173  0.00  0.00    -0.016 A 
ATOM      7  C6  BZF d   1       2.493   0.518   1.447  0.00  0.00     0.022 A 
ATOM      8  C7  BZF d   1       3.496   0.040   0.670  0.00  0.00     0.029 A 
ATOM      9  C7A BZF d   1       3.895   0.823  -0.386  0.00  0.00     0.058 A 
ENDROOT
TORSDOF 0
ENDMDL
