MODEL 1
REMARK minimizedAffinity 8.29084492
REMARK minimizedRMSD -1
REMARK  0 active torsions:
REMARK  status: ('A' for Active; 'I' for Inactive)
ROOT
ATOM      1  O1  BZF d   1       1.282   0.956   3.204  0.00  0.00    -0.204 OA
ATOM      2  C2  BZF d   1       0.367   1.820   2.633  0.00  0.00     0.174 A 
ATOM      3  C3  BZF d   1       0.775   2.207   1.407  0.00  0.00    -0.012 A 
ATOM      4  C3A BZF d   1       1.978   1.472   1.162  0.00  0.00    -0.107 A 
ATOM      5  C4  BZF d   1       2.843   1.413   0.107  0.00  0.00     0.055 A 
ATOM      6  C5  BZF d   1       3.963   0.651   0.212  0.00  0.00    -0.016 A 
ATOM      7  C6  BZF d   1       4.251  -0.061   1.359  0.00  0.00     0.022 A 
ATOM      8  C7  BZF d   1       3.420  -0.038   2.429  0.00  0.00     0.029 A 
ATOM      9  C7A BZF d   1       2.272   0.706   2.313  0.00  0.00     0.058 A 
ENDROOT
TORSDOF 0
ENDMDL
