MODEL 1
REMARK minimizedAffinity 14.6304893
REMARK minimizedRMSD -1
REMARK  0 active torsions:
REMARK  status: ('A' for Active; 'I' for Inactive)
ROOT
ATOM      1  O1  BZF d   1       1.821   4.133  -5.956  0.00  0.00    -0.204 OA
ATOM      2  C2  BZF d   1       1.762   5.513  -5.927  0.00  0.00     0.174 A 
ATOM      3  C3  BZF d   1       2.436   5.998  -4.864  0.00  0.00    -0.012 A 
ATOM      4  C3A BZF d   1       3.026   4.855  -4.239  0.00  0.00    -0.107 A 
ATOM      5  C4  BZF d   1       3.828   4.691  -3.146  0.00  0.00     0.055 A 
ATOM      6  C5  BZF d   1       4.170   3.434  -2.759  0.00  0.00    -0.016 A 
ATOM      7  C6  BZF d   1       3.725   2.319  -3.439  0.00  0.00     0.022 A 
ATOM      8  C7  BZF d   1       2.932   2.431  -4.532  0.00  0.00     0.029 A 
ATOM      9  C7A BZF d   1       2.612   3.701  -4.945  0.00  0.00     0.058 A 
ENDROOT
TORSDOF 0
ENDMDL
