MODEL 1
REMARK minimizedAffinity 17.1061554
REMARK minimizedRMSD -1
REMARK  0 active torsions:
REMARK  status: ('A' for Active; 'I' for Inactive)
ROOT
ATOM      1  O1  BZF d   1      -3.881  -0.409   2.605  0.00  0.00    -0.204 OA
ATOM      2  C2  BZF d   1      -3.582   0.884   2.988  0.00  0.00     0.174 A 
ATOM      3  C3  BZF d   1      -4.002   1.119   4.248  0.00  0.00    -0.012 A 
ATOM      4  C3A BZF d   1      -4.518  -0.132   4.712  0.00  0.00    -0.107 A 
ATOM      5  C4  BZF d   1      -5.066  -0.541   5.894  0.00  0.00     0.055 A 
ATOM      6  C5  BZF d   1      -5.538  -1.811   5.999  0.00  0.00    -0.016 A 
ATOM      7  C6  BZF d   1      -5.483  -2.696   4.942  0.00  0.00     0.022 A 
ATOM      8  C7  BZF d   1      -4.944  -2.337   3.752  0.00  0.00     0.029 A 
ATOM      9  C7A BZF d   1      -4.436  -1.065   3.653  0.00  0.00     0.058 A 
ENDROOT
TORSDOF 0
ENDMDL
