MODEL 1
REMARK minimizedAffinity 5.78371382
REMARK minimizedRMSD -1
REMARK  0 active torsions:
REMARK  status: ('A' for Active; 'I' for Inactive)
ROOT
ATOM      1  O1  BZF d   1       3.423   4.937  -5.999  0.00  0.00    -0.204 OA
ATOM      2  C2  BZF d   1       2.142   5.149  -5.529  0.00  0.00     0.174 A 
ATOM      3  C3  BZF d   1       1.914   4.425  -4.415  0.00  0.00    -0.012 A 
ATOM      4  C3A BZF d   1       3.160   3.786  -4.120  0.00  0.00    -0.107 A 
ATOM      5  C4  BZF d   1       3.573   2.947  -3.125  0.00  0.00     0.055 A 
ATOM      6  C5  BZF d   1       4.834   2.443  -3.166  0.00  0.00    -0.016 A 
ATOM      7  C6  BZF d   1       5.706   2.753  -4.189  0.00  0.00     0.022 A 
ATOM      8  C7  BZF d   1       5.344   3.585  -5.196  0.00  0.00     0.029 A 
ATOM      9  C7A BZF d   1       4.081   4.121  -5.140  0.00  0.00     0.058 A 
ENDROOT
TORSDOF 0
ENDMDL
