MODEL 1
REMARK minimizedAffinity -3.85848212
REMARK minimizedRMSD -1
REMARK  0 active torsions:
REMARK  status: ('A' for Active; 'I' for Inactive)
ROOT
ATOM      1  O1  BZF d   1       4.077   5.842  -5.991  0.00  0.00    -0.204 OA
ATOM      2  C2  BZF d   1       2.697   5.788  -6.000  0.00  0.00     0.174 A 
ATOM      3  C3  BZF d   1       2.254   4.745  -5.268  0.00  0.00    -0.012 A 
ATOM      4  C3A BZF d   1       3.428   4.162  -4.694  0.00  0.00    -0.107 A 
ATOM      5  C4  BZF d   1       3.638   3.104  -3.857  0.00  0.00     0.055 A 
ATOM      6  C5  BZF d   1       4.913   2.752  -3.545  0.00  0.00    -0.016 A 
ATOM      7  C6  BZF d   1       6.000   3.431  -4.056  0.00  0.00     0.022 A 
ATOM      8  C7  BZF d   1       5.841   4.490  -4.886  0.00  0.00     0.029 A 
ATOM      9  C7A BZF d   1       4.554   4.869  -5.177  0.00  0.00     0.058 A 
ENDROOT
TORSDOF 0
ENDMDL
