MODEL 1
REMARK minimizedAffinity 13.6730328
REMARK minimizedRMSD -1
REMARK  0 active torsions:
REMARK  status: ('A' for Active; 'I' for Inactive)
ROOT
ATOM      1  O1  BZF d   1      -0.670  -2.554   2.231  0.00  0.00    -0.204 OA
ATOM      2  C2  BZF d   1      -1.290  -1.777   1.272  0.00  0.00     0.174 A 
ATOM      3  C3  BZF d   1      -2.229  -2.488   0.614  0.00  0.00    -0.012 A 
ATOM      4  C3A BZF d   1      -2.256  -3.764   1.261  0.00  0.00    -0.107 A 
ATOM      5  C4  BZF d   1      -2.995  -4.897   1.071  0.00  0.00     0.055 A 
ATOM      6  C5  BZF d   1      -2.725  -5.995   1.825  0.00  0.00    -0.016 A 
ATOM      7  C6  BZF d   1      -1.723  -5.997   2.773  0.00  0.00     0.022 A 
ATOM      8  C7  BZF d   1      -0.967  -4.895   3.000  0.00  0.00     0.029 A 
ATOM      9  C7A BZF d   1      -1.259  -3.773   2.263  0.00  0.00     0.058 A 
ENDROOT
TORSDOF 0
ENDMDL
