MODEL 1
REMARK minimizedAffinity 7.5118351
REMARK minimizedRMSD -1
REMARK  0 active torsions:
REMARK  status: ('A' for Active; 'I' for Inactive)
ROOT
ATOM      1  O1  BZF d   1       2.876   1.856  -2.853  0.00  0.00    -0.204 OA
ATOM      2  C2  BZF d   1       1.747   2.585  -3.171  0.00  0.00     0.174 A 
ATOM      3  C3  BZF d   1       0.883   2.606  -2.136  0.00  0.00    -0.012 A 
ATOM      4  C3A BZF d   1       1.553   1.920  -1.073  0.00  0.00    -0.107 A 
ATOM      5  C4  BZF d   1       1.213   1.629   0.217  0.00  0.00     0.055 A 
ATOM      6  C5  BZF d   1       2.061   0.881   0.970  0.00  0.00    -0.016 A 
ATOM      7  C6  BZF d   1       3.253   0.404   0.465  0.00  0.00     0.022 A 
ATOM      8  C7  BZF d   1       3.635   0.671  -0.808  0.00  0.00     0.029 A 
ATOM      9  C7A BZF d   1       2.796   1.454  -1.561  0.00  0.00     0.058 A 
ENDROOT
TORSDOF 0
ENDMDL
