MODEL 1
REMARK minimizedAffinity 9.57651138
REMARK minimizedRMSD -1
REMARK  0 active torsions:
REMARK  status: ('A' for Active; 'I' for Inactive)
ROOT
ATOM      1  O1  BZF d   1      -3.744   2.831   4.791  0.00  0.00    -0.204 OA
ATOM      2  C2  BZF d   1      -3.760   1.973   3.709  0.00  0.00     0.174 A 
ATOM      3  C3  BZF d   1      -4.528   2.467   2.716  0.00  0.00    -0.012 A 
ATOM      4  C3A BZF d   1      -4.949   3.756   3.173  0.00  0.00    -0.107 A 
ATOM      5  C4  BZF d   1      -5.719   4.742   2.624  0.00  0.00     0.055 A 
ATOM      6  C5  BZF d   1      -5.999   5.848   3.362  0.00  0.00    -0.016 A 
ATOM      7  C6  BZF d   1      -5.532   6.000   4.650  0.00  0.00     0.022 A 
ATOM      8  C7  BZF d   1      -4.760   5.052   5.236  0.00  0.00     0.029 A 
ATOM      9  C7A BZF d   1      -4.447   3.947   4.482  0.00  0.00     0.058 A 
ENDROOT
TORSDOF 0
ENDMDL
