MODEL 1
REMARK minimizedAffinity 9.46647072
REMARK minimizedRMSD -1
REMARK  0 active torsions:
REMARK  status: ('A' for Active; 'I' for Inactive)
ROOT
ATOM      1  O1  BZF d   1       3.382  -0.048   0.281  0.00  0.00    -0.204 OA
ATOM      2  C2  BZF d   1       3.769   0.780  -0.754  0.00  0.00     0.174 A 
ATOM      3  C3  BZF d   1       3.073   1.936  -0.728  0.00  0.00    -0.012 A 
ATOM      4  C3A BZF d   1       2.263   1.860   0.449  0.00  0.00    -0.107 A 
ATOM      5  C4  BZF d   1       1.365   2.711   1.027  0.00  0.00     0.055 A 
ATOM      6  C5  BZF d   1       0.688   2.306   2.134  0.00  0.00    -0.016 A 
ATOM      7  C6  BZF d   1       0.881   1.057   2.685  0.00  0.00     0.022 A 
ATOM      8  C7  BZF d   1       1.765   0.179   2.151  0.00  0.00     0.029 A 
ATOM      9  C7A BZF d   1       2.474   0.598   1.051  0.00  0.00     0.058 A 
ENDROOT
TORSDOF 0
ENDMDL
