MODEL 1
REMARK minimizedAffinity 0.355224937
REMARK minimizedRMSD -1
REMARK  0 active torsions:
REMARK  status: ('A' for Active; 'I' for Inactive)
ROOT
ATOM      1  O1  BZF d   1       2.946   4.581  -6.000  0.00  0.00    -0.204 OA
ATOM      2  C2  BZF d   1       1.725   4.125  -5.543  0.00  0.00     0.174 A 
ATOM      3  C3  BZF d   1       1.870   2.967  -4.867  0.00  0.00    -0.012 A 
ATOM      4  C3A BZF d   1       3.280   2.730  -4.824  0.00  0.00    -0.107 A 
ATOM      5  C4  BZF d   1       4.050   1.744  -4.276  0.00  0.00     0.055 A 
ATOM      6  C5  BZF d   1       5.394   1.768  -4.476  0.00  0.00    -0.016 A 
ATOM      7  C6  BZF d   1       6.000   2.758  -5.222  0.00  0.00     0.022 A 
ATOM      8  C7  BZF d   1       5.278   3.759  -5.781  0.00  0.00     0.029 A 
ATOM      9  C7A BZF d   1       3.924   3.756  -5.553  0.00  0.00     0.058 A 
ENDROOT
TORSDOF 0
ENDMDL
