MODEL 1
REMARK minimizedAffinity 2.16145563
REMARK minimizedRMSD -1
REMARK  0 active torsions:
REMARK  status: ('A' for Active; 'I' for Inactive)
ROOT
ATOM      1  O1  BZF d   1       5.960   5.500  -3.990  0.00  0.00    -0.204 OA
ATOM      2  C2  BZF d   1       5.947   5.630  -5.365  0.00  0.00     0.174 A 
ATOM      3  C3  BZF d   1       5.997   4.421  -5.961  0.00  0.00    -0.012 A 
ATOM      4  C3A BZF d   1       5.951   3.472  -4.891  0.00  0.00    -0.107 A 
ATOM      5  C4  BZF d   1       5.953   2.107  -4.845  0.00  0.00     0.055 A 
ATOM      6  C5  BZF d   1       5.974   1.487  -3.636  0.00  0.00    -0.016 A 
ATOM      7  C6  BZF d   1       6.000   2.199  -2.455  0.00  0.00     0.022 A 
ATOM      8  C7  BZF d   1       5.994   3.554  -2.449  0.00  0.00     0.029 A 
ATOM      9  C7A BZF d   1       5.939   4.184  -3.669  0.00  0.00     0.058 A 
ENDROOT
TORSDOF 0
ENDMDL
