MODEL 1
REMARK minimizedAffinity 9.50544453
REMARK minimizedRMSD -1
REMARK  0 active torsions:
REMARK  status: ('A' for Active; 'I' for Inactive)
ROOT
ATOM      1  O1  BZF d   1       4.269   4.111  -5.957  0.00  0.00    -0.204 OA
ATOM      2  C2  BZF d   1       2.888   4.137  -5.997  0.00  0.00     0.174 A 
ATOM      3  C3  BZF d   1       2.366   3.382  -5.009  0.00  0.00    -0.012 A 
ATOM      4  C3A BZF d   1       3.491   2.925  -4.251  0.00  0.00    -0.107 A 
ATOM      5  C4  BZF d   1       3.618   2.148  -3.135  0.00  0.00     0.055 A 
ATOM      6  C5  BZF d   1       4.862   1.829  -2.691  0.00  0.00    -0.016 A 
ATOM      7  C6  BZF d   1       5.998   2.264  -3.340  0.00  0.00     0.022 A 
ATOM      8  C7  BZF d   1       5.923   3.041  -4.447  0.00  0.00     0.029 A 
ATOM      9  C7A BZF d   1       4.668   3.393  -4.880  0.00  0.00     0.058 A 
ENDROOT
TORSDOF 0
ENDMDL
