MODEL 1
REMARK minimizedAffinity -2.16596365
REMARK minimizedRMSD -1
REMARK  0 active torsions:
REMARK  status: ('A' for Active; 'I' for Inactive)
ROOT
ATOM      1  O1  BZF d   1       2.190   4.772  -5.586  0.00  0.00    -0.204 OA
ATOM      2  C2  BZF d   1       2.819   5.999  -5.683  0.00  0.00     0.174 A 
ATOM      3  C3  BZF d   1       3.975   6.000  -4.989  0.00  0.00    -0.012 A 
ATOM      4  C3A BZF d   1       4.121   4.663  -4.499  0.00  0.00    -0.107 A 
ATOM      5  C4  BZF d   1       5.078   4.036  -3.753  0.00  0.00     0.055 A 
ATOM      6  C5  BZF d   1       4.885   2.742  -3.384  0.00  0.00    -0.016 A 
ATOM      7  C6  BZF d   1       3.746   2.049  -3.738  0.00  0.00     0.022 A 
ATOM      8  C7  BZF d   1       2.771   2.627  -4.481  0.00  0.00     0.029 A 
ATOM      9  C7A BZF d   1       2.979   3.924  -4.884  0.00  0.00     0.058 A 
ENDROOT
TORSDOF 0
ENDMDL
