MODEL 1
REMARK minimizedAffinity -5.58246946
REMARK minimizedRMSD -1
REMARK  0 active torsions:
REMARK  status: ('A' for Active; 'I' for Inactive)
ROOT
ATOM      1  C1  DEN d   1       0.788   0.427  -0.913  0.00  0.00     0.130 A 
ATOM      2  C2  DEN d   1       0.392   0.867   0.422  0.00  0.00    -0.031 A 
ATOM      3  C3  DEN d   1      -0.105  -0.311   1.162  0.00  0.00     0.027 A 
ATOM      4  C4  DEN d   1      -0.292  -2.760   0.376  0.00  0.00     0.027 A 
ATOM      5  C5  DEN d   1      -0.089  -3.618  -0.682  0.00  0.00    -0.003 A 
ATOM      6  C6  DEN d   1       0.384  -3.186  -1.892  0.00  0.00     0.001 A 
ATOM      7  C7  DEN d   1       0.714  -1.867  -2.060  0.00  0.00     0.017 A 
ATOM      8  C8  DEN d   1       0.505  -0.994  -1.000  0.00  0.00    -0.094 A 
ATOM      9  C9  DEN d   1       0.037  -1.453   0.219  0.00  0.00    -0.072 A 
ENDROOT
TORSDOF 0
ENDMDL
