MODEL 1
REMARK minimizedAffinity -6.4533124
REMARK minimizedRMSD -1
REMARK  0 active torsions:
REMARK  status: ('A' for Active; 'I' for Inactive)
ROOT
ATOM      1  C1  DEN d   1       0.285   0.427  -0.998  0.00  0.00     0.130 A 
ATOM      2  C2  DEN d   1      -0.209   0.831   0.315  0.00  0.00    -0.031 A 
ATOM      3  C3  DEN d   1      -0.508  -0.392   1.087  0.00  0.00     0.027 A 
ATOM      4  C4  DEN d   1      -0.251  -2.859   0.381  0.00  0.00     0.027 A 
ATOM      5  C5  DEN d   1       0.120  -3.701  -0.645  0.00  0.00    -0.003 A 
ATOM      6  C6  DEN d   1       0.536  -3.229  -1.862  0.00  0.00     0.001 A 
ATOM      7  C7  DEN d   1       0.634  -1.879  -2.069  0.00  0.00     0.017 A 
ATOM      8  C8  DEN d   1       0.255  -1.024  -1.042  0.00  0.00    -0.094 A 
ATOM      9  C9  DEN d   1      -0.151  -1.520   0.185  0.00  0.00    -0.072 A 
ENDROOT
TORSDOF 0
ENDMDL
