MODEL 1
REMARK minimizedAffinity -4.19846725
REMARK minimizedRMSD -1
REMARK  0 active torsions:
REMARK  status: ('A' for Active; 'I' for Inactive)
ROOT
ATOM      1  C1  DEN d   1      -0.146  -0.711   0.638  0.00  0.00     0.130 A 
ATOM      2  C2  DEN d   1       0.025   0.376  -0.323  0.00  0.00    -0.031 A 
ATOM      3  C3  DEN d   1       0.352  -0.221  -1.633  0.00  0.00     0.027 A 
ATOM      4  C4  DEN d   1       0.605  -2.709  -2.265  0.00  0.00     0.027 A 
ATOM      5  C5  DEN d   1       0.565  -3.999  -1.784  0.00  0.00    -0.003 A 
ATOM      6  C6  DEN d   1       0.320  -4.280  -0.466  0.00  0.00     0.001 A 
ATOM      7  C7  DEN d   1       0.061  -3.258   0.409  0.00  0.00     0.017 A 
ATOM      8  C8  DEN d   1       0.108  -1.954  -0.067  0.00  0.00    -0.094 A 
ATOM      9  C9  DEN d   1       0.345  -1.692  -1.406  0.00  0.00    -0.072 A 
ENDROOT
TORSDOF 0
ENDMDL
