MODEL 1
REMARK minimizedAffinity -4.29285002
REMARK minimizedRMSD -1
REMARK  0 active torsions:
REMARK  status: ('A' for Active; 'I' for Inactive)
ROOT
ATOM      1  C1  DEN d   1       0.591   0.205   0.199  0.00  0.00     0.130 A 
ATOM      2  C2  DEN d   1      -0.456   0.936   0.907  0.00  0.00    -0.031 A 
ATOM      3  C3  DEN d   1      -1.608   0.029   1.083  0.00  0.00     0.027 A 
ATOM      4  C4  DEN d   1      -1.869  -2.425   0.335  0.00  0.00     0.027 A 
ATOM      5  C5  DEN d   1      -1.252  -3.473  -0.313  0.00  0.00    -0.003 A 
ATOM      6  C6  DEN d   1      -0.002  -3.359  -0.860  0.00  0.00     0.001 A 
ATOM      7  C7  DEN d   1       0.691  -2.184  -0.731  0.00  0.00     0.017 A 
ATOM      8  C8  DEN d   1       0.073  -1.121  -0.086  0.00  0.00    -0.094 A 
ATOM      9  C9  DEN d   1      -1.187  -1.260   0.471  0.00  0.00    -0.072 A 
ENDROOT
TORSDOF 0
ENDMDL
