MODEL 1
REMARK minimizedAffinity -4.65324259
REMARK minimizedRMSD -1
REMARK  0 active torsions:
REMARK  status: ('A' for Active; 'I' for Inactive)
ROOT
ATOM      1  C1  DEN d   1       0.203   0.135  -0.947  0.00  0.00     0.130 A 
ATOM      2  C2  DEN d   1      -0.194   0.679   0.349  0.00  0.00    -0.031 A 
ATOM      3  C3  DEN d   1      -0.475  -0.455   1.253  0.00  0.00     0.027 A 
ATOM      4  C4  DEN d   1      -0.329  -2.985   0.775  0.00  0.00     0.027 A 
ATOM      5  C5  DEN d   1      -0.047  -3.932  -0.185  0.00  0.00    -0.003 A 
ATOM      6  C6  DEN d   1       0.302  -3.592  -1.465  0.00  0.00     0.001 A 
ATOM      7  C7  DEN d   1       0.422  -2.272  -1.808  0.00  0.00     0.017 A 
ATOM      8  C8  DEN d   1       0.133  -1.311  -0.848  0.00  0.00    -0.094 A 
ATOM      9  C9  DEN d   1      -0.206  -1.675   0.444  0.00  0.00    -0.072 A 
ENDROOT
TORSDOF 0
ENDMDL
