MODEL 1
REMARK minimizedAffinity -4.11864471
REMARK minimizedRMSD -1
REMARK  0 active torsions:
REMARK  status: ('A' for Active; 'I' for Inactive)
ROOT
ATOM      1  C1  DEN d   1       0.520   0.288  -1.212  0.00  0.00     0.130 A 
ATOM      2  C2  DEN d   1      -0.145   1.280  -0.372  0.00  0.00    -0.031 A 
ATOM      3  C3  DEN d   1      -0.799   0.568   0.744  0.00  0.00     0.027 A 
ATOM      4  C4  DEN d   1      -0.844  -1.960   1.252  0.00  0.00     0.027 A 
ATOM      5  C5  DEN d   1      -0.431  -3.200   0.817  0.00  0.00    -0.003 A 
ATOM      6  C6  DEN d   1       0.293  -3.366  -0.334  0.00  0.00     0.001 A 
ATOM      7  C7  DEN d   1       0.665  -2.270  -1.066  0.00  0.00     0.017 A 
ATOM      8  C8  DEN d   1       0.246  -1.017  -0.637  0.00  0.00    -0.094 A 
ATOM      9  C9  DEN d   1      -0.475  -0.869   0.535  0.00  0.00    -0.072 A 
ENDROOT
TORSDOF 0
ENDMDL
