MODEL 1
REMARK minimizedAffinity -1.92799842
REMARK minimizedRMSD -1
REMARK  0 active torsions:
REMARK  status: ('A' for Active; 'I' for Inactive)
ROOT
ATOM      1  C1  DEN d   1       0.180   1.485   0.693  0.00  0.00     0.130 A 
ATOM      2  C2  DEN d   1       0.298   2.107  -0.623  0.00  0.00    -0.031 A 
ATOM      3  C3  DEN d   1       0.187   1.044  -1.642  0.00  0.00     0.027 A 
ATOM      4  C4  DEN d   1      -0.161  -1.490  -1.311  0.00  0.00     0.027 A 
ATOM      5  C5  DEN d   1      -0.307  -2.491  -0.376  0.00  0.00    -0.003 A 
ATOM      6  C6  DEN d   1      -0.268  -2.243   0.971  0.00  0.00     0.001 A 
ATOM      7  C7  DEN d   1      -0.123  -0.957   1.420  0.00  0.00     0.017 A 
ATOM      8  C8  DEN d   1       0.033   0.056   0.483  0.00  0.00    -0.094 A 
ATOM      9  C9  DEN d   1      -0.022  -0.213  -0.874  0.00  0.00    -0.072 A 
ENDROOT
TORSDOF 0
ENDMDL
