MODEL 1
REMARK minimizedAffinity -4.58338881
REMARK minimizedRMSD -1
REMARK  0 active torsions:
REMARK  status: ('A' for Active; 'I' for Inactive)
ROOT
ATOM      1  C1  DEN d   1      -0.556  -3.440  -1.218  0.00  0.00     0.130 A 
ATOM      2  C2  DEN d   1      -0.012  -3.189  -2.549  0.00  0.00    -0.031 A 
ATOM      3  C3  DEN d   1       0.339  -1.757  -2.636  0.00  0.00     0.027 A 
ATOM      4  C4  DEN d   1       0.099   0.084  -0.846  0.00  0.00     0.027 A 
ATOM      5  C5  DEN d   1      -0.324   0.354   0.437  0.00  0.00    -0.003 A 
ATOM      6  C6  DEN d   1      -0.880  -0.606   1.240  0.00  0.00     0.001 A 
ATOM      7  C7  DEN d   1      -0.987  -1.893   0.783  0.00  0.00     0.017 A 
ATOM      8  C8  DEN d   1      -0.570  -2.171  -0.512  0.00  0.00    -0.094 A 
ATOM      9  C9  DEN d   1       0.000  -1.190  -1.304  0.00  0.00    -0.072 A 
ENDROOT
TORSDOF 0
ENDMDL
