MODEL 1
REMARK minimizedAffinity -4.63550186
REMARK minimizedRMSD -1
REMARK  0 active torsions:
REMARK  status: ('A' for Active; 'I' for Inactive)
ROOT
ATOM      1  C1  DEN d   1      -0.222   0.624  -0.477  0.00  0.00     0.130 A 
ATOM      2  C2  DEN d   1      -0.801   0.755   0.857  0.00  0.00    -0.031 A 
ATOM      3  C3  DEN d   1      -1.169  -0.595   1.329  0.00  0.00     0.027 A 
ATOM      4  C4  DEN d   1      -0.896  -2.863   0.132  0.00  0.00     0.027 A 
ATOM      5  C5  DEN d   1      -0.465  -3.478  -1.023  0.00  0.00    -0.003 A 
ATOM      6  C6  DEN d   1       0.041  -2.771  -2.081  0.00  0.00     0.001 A 
ATOM      7  C7  DEN d   1       0.171  -1.411  -1.989  0.00  0.00     0.017 A 
ATOM      8  C8  DEN d   1      -0.267  -0.783  -0.831  0.00  0.00    -0.094 A 
ATOM      9  C9  DEN d   1      -0.765  -1.516   0.233  0.00  0.00    -0.072 A 
ENDROOT
TORSDOF 0
ENDMDL
