MODEL 1
REMARK minimizedAffinity -6.57396555
REMARK minimizedRMSD -1
REMARK  0 active torsions:
REMARK  status: ('A' for Active; 'I' for Inactive)
ROOT
ATOM      1  C1  DEN d   1      -0.057   0.429  -1.189  0.00  0.00     0.130 A 
ATOM      2  C2  DEN d   1      -0.563   1.137  -0.016  0.00  0.00    -0.031 A 
ATOM      3  C3  DEN d   1      -0.816   0.141   1.044  0.00  0.00     0.027 A 
ATOM      4  C4  DEN d   1      -0.469  -2.415   0.985  0.00  0.00     0.027 A 
ATOM      5  C5  DEN d   1      -0.070  -3.476   0.203  0.00  0.00    -0.003 A 
ATOM      6  C6  DEN d   1       0.327  -3.315  -1.098  0.00  0.00     0.001 A 
ATOM      7  C7  DEN d   1       0.375  -2.059  -1.643  0.00  0.00     0.017 A 
ATOM      8  C8  DEN d   1      -0.033  -0.985  -0.863  0.00  0.00    -0.094 A 
ATOM      9  C9  DEN d   1      -0.419  -1.167   0.455  0.00  0.00    -0.072 A 
ENDROOT
TORSDOF 0
ENDMDL
