MODEL 1
REMARK minimizedAffinity -4.07639599
REMARK minimizedRMSD -1
REMARK  0 active torsions:
REMARK  status: ('A' for Active; 'I' for Inactive)
ROOT
ATOM      1  C1  DEN d   1       0.343   0.130  -1.925  0.00  0.00     0.130 A 
ATOM      2  C2  DEN d   1       0.262   1.236  -0.975  0.00  0.00    -0.031 A 
ATOM      3  C3  DEN d   1       0.067   0.667   0.374  0.00  0.00     0.027 A 
ATOM      4  C4  DEN d   1      -0.111  -1.808   1.080  0.00  0.00     0.027 A 
ATOM      5  C5  DEN d   1      -0.112  -3.108   0.624  0.00  0.00    -0.003 A 
ATOM      6  C6  DEN d   1       0.003  -3.416  -0.705  0.00  0.00     0.001 A 
ATOM      7  C7  DEN d   1       0.170  -2.412  -1.623  0.00  0.00     0.017 A 
ATOM      8  C8  DEN d   1       0.165  -1.099  -1.172  0.00  0.00    -0.094 A 
ATOM      9  C9  DEN d   1       0.059  -0.808   0.178  0.00  0.00    -0.072 A 
ENDROOT
TORSDOF 0
ENDMDL
