MODEL 1
REMARK minimizedAffinity -6.87407875
REMARK minimizedRMSD -1
REMARK  0 active torsions:
REMARK  status: ('A' for Active; 'I' for Inactive)
ROOT
ATOM      1  C1  DEN d   1       0.084   0.205  -0.820  0.00  0.00     0.130 A 
ATOM      2  C2  DEN d   1      -0.238   0.732   0.504  0.00  0.00    -0.031 A 
ATOM      3  C3  DEN d   1      -0.452  -0.414   1.411  0.00  0.00     0.027 A 
ATOM      4  C4  DEN d   1      -0.311  -2.938   0.898  0.00  0.00     0.027 A 
ATOM      5  C5  DEN d   1      -0.080  -3.872  -0.088  0.00  0.00    -0.003 A 
ATOM      6  C6  DEN d   1       0.187  -3.516  -1.383  0.00  0.00     0.001 A 
ATOM      7  C7  DEN d   1       0.273  -2.190  -1.718  0.00  0.00     0.017 A 
ATOM      8  C8  DEN d   1       0.034  -1.243  -0.732  0.00  0.00    -0.094 A 
ATOM      9  C9  DEN d   1      -0.222  -1.623   0.575  0.00  0.00    -0.072 A 
ENDROOT
TORSDOF 0
ENDMDL
