MODEL 1
REMARK minimizedAffinity -5.6704464
REMARK minimizedRMSD -1
REMARK  0 active torsions:
REMARK  status: ('A' for Active; 'I' for Inactive)
ROOT
ATOM      1  C1  DEN d   1       0.558   0.542  -0.930  0.00  0.00     0.130 A 
ATOM      2  C2  DEN d   1      -0.013   1.269   0.200  0.00  0.00    -0.031 A 
ATOM      3  C3  DEN d   1      -0.571   0.280   1.145  0.00  0.00     0.027 A 
ATOM      4  C4  DEN d   1      -0.601  -2.293   0.969  0.00  0.00     0.027 A 
ATOM      5  C5  DEN d   1      -0.247  -3.369   0.186  0.00  0.00    -0.003 A 
ATOM      6  C6  DEN d   1       0.364  -3.217  -1.030  0.00  0.00     0.001 A 
ATOM      7  C7  DEN d   1       0.682  -1.961  -1.478  0.00  0.00     0.017 A 
ATOM      8  C8  DEN d   1       0.321  -0.871  -0.697  0.00  0.00    -0.094 A 
ATOM      9  C9  DEN d   1      -0.286  -1.047   0.535  0.00  0.00    -0.072 A 
ENDROOT
TORSDOF 0
ENDMDL
