MODEL 1
REMARK minimizedAffinity -4.69891644
REMARK minimizedRMSD -1
REMARK  0 active torsions:
REMARK  status: ('A' for Active; 'I' for Inactive)
ROOT
ATOM      1  C1  DEN d   1      -0.775  -1.440   1.065  0.00  0.00     0.130 A 
ATOM      2  C2  DEN d   1      -0.692  -0.007   1.333  0.00  0.00    -0.031 A 
ATOM      3  C3  DEN d   1      -0.452   0.684   0.051  0.00  0.00     0.027 A 
ATOM      4  C4  DEN d   1      -0.208  -0.319  -2.313  0.00  0.00     0.027 A 
ATOM      5  C5  DEN d   1      -0.193  -1.489  -3.040  0.00  0.00    -0.003 A 
ATOM      6  C6  DEN d   1      -0.336  -2.717  -2.450  0.00  0.00     0.001 A 
ATOM      7  C7  DEN d   1      -0.545  -2.801  -1.099  0.00  0.00     0.017 A 
ATOM      8  C8  DEN d   1      -0.554  -1.626  -0.358  0.00  0.00    -0.094 A 
ATOM      9  C9  DEN d   1      -0.420  -0.393  -0.975  0.00  0.00    -0.072 A 
ENDROOT
TORSDOF 0
ENDMDL
