MODEL 1
REMARK minimizedAffinity -0.21307981
REMARK minimizedRMSD -1
REMARK  0 active torsions:
REMARK  status: ('A' for Active; 'I' for Inactive)
ROOT
ATOM      1  C1  DEN d   1       0.571  -2.124  -2.325  0.00  0.00     0.130 A 
ATOM      2  C2  DEN d   1       0.744  -0.937  -3.158  0.00  0.00    -0.031 A 
ATOM      3  C3  DEN d   1       0.302   0.236  -2.378  0.00  0.00     0.027 A 
ATOM      4  C4  DEN d   1      -0.626   0.331   0.027  0.00  0.00     0.027 A 
ATOM      5  C5  DEN d   1      -0.967  -0.422   1.128  0.00  0.00    -0.003 A 
ATOM      6  C6  DEN d   1      -0.853  -1.787   1.144  0.00  0.00     0.001 A 
ATOM      7  C7  DEN d   1      -0.342  -2.438   0.052  0.00  0.00     0.017 A 
ATOM      8  C8  DEN d   1      -0.003  -1.686  -1.065  0.00  0.00    -0.094 A 
ATOM      9  C9  DEN d   1      -0.114  -0.306  -1.057  0.00  0.00    -0.072 A 
ENDROOT
TORSDOF 0
ENDMDL
