MODEL 1
REMARK minimizedAffinity 11.0650721
REMARK minimizedRMSD -1
REMARK  0 active torsions:
REMARK  status: ('A' for Active; 'I' for Inactive)
ROOT
ATOM      1  O1  BZF d   1      -6.000   1.476  -3.088  0.00  0.00    -0.204 OA
ATOM      2  C2  BZF d   1      -5.843   0.285  -3.771  0.00  0.00     0.174 A 
ATOM      3  C3  BZF d   1      -5.442  -0.696  -2.937  0.00  0.00    -0.012 A 
ATOM      4  C3A BZF d   1      -5.431  -0.102  -1.635  0.00  0.00    -0.107 A 
ATOM      5  C4  BZF d   1      -5.135  -0.575  -0.389  0.00  0.00     0.055 A 
ATOM      6  C5  BZF d   1      -5.151   0.282   0.665  0.00  0.00    -0.016 A 
ATOM      7  C6  BZF d   1      -5.455   1.619   0.508  0.00  0.00     0.022 A 
ATOM      8  C7  BZF d   1      -5.761   2.134  -0.707  0.00  0.00     0.029 A 
ATOM      9  C7A BZF d   1      -5.777   1.263  -1.769  0.00  0.00     0.058 A 
ENDROOT
TORSDOF 0
ENDMDL
