MODEL 1
REMARK minimizedAffinity 6.71351242
REMARK minimizedRMSD -1
REMARK  0 active torsions:
REMARK  status: ('A' for Active; 'I' for Inactive)
ROOT
ATOM      1  O1  BZF d   1      -0.139  -2.611   1.980  0.00  0.00    -0.204 OA
ATOM      2  C2  BZF d   1      -1.103  -2.507   0.995  0.00  0.00     0.174 A 
ATOM      3  C3  BZF d   1      -1.985  -1.530   1.291  0.00  0.00    -0.012 A 
ATOM      4  C3A BZF d   1      -1.492  -0.929   2.492  0.00  0.00    -0.107 A 
ATOM      5  C4  BZF d   1      -1.925   0.106   3.271  0.00  0.00     0.055 A 
ATOM      6  C5  BZF d   1      -1.257   0.394   4.419  0.00  0.00    -0.016 A 
ATOM      7  C6  BZF d   1      -0.156  -0.334   4.820  0.00  0.00     0.022 A 
ATOM      8  C7  BZF d   1       0.314  -1.366   4.078  0.00  0.00     0.029 A 
ATOM      9  C7A BZF d   1      -0.339  -1.639   2.901  0.00  0.00     0.058 A 
ENDROOT
TORSDOF 0
ENDMDL
