MODEL 1
REMARK minimizedAffinity 18.1711807
REMARK minimizedRMSD -1
REMARK  0 active torsions:
REMARK  status: ('A' for Active; 'I' for Inactive)
ROOT
ATOM      1  O1  BZF d   1       5.997   4.507  -2.374  0.00  0.00    -0.204 OA
ATOM      2  C2  BZF d   1       5.055   4.496  -3.384  0.00  0.00     0.174 A 
ATOM      3  C3  BZF d   1       3.921   3.893  -2.974  0.00  0.00    -0.012 A 
ATOM      4  C3A BZF d   1       4.137   3.584  -1.593  0.00  0.00    -0.107 A 
ATOM      5  C4  BZF d   1       3.367   2.994  -0.632  0.00  0.00     0.055 A 
ATOM      6  C5  BZF d   1       3.901   2.774   0.598  0.00  0.00    -0.016 A 
ATOM      7  C6  BZF d   1       5.200   3.128   0.900  0.00  0.00     0.022 A 
ATOM      8  C7  BZF d   1       6.000   3.721  -0.020  0.00  0.00     0.029 A 
ATOM      9  C7A BZF d   1       5.453   3.974  -1.254  0.00  0.00     0.058 A 
ENDROOT
TORSDOF 0
ENDMDL
