MODEL 1
REMARK minimizedAffinity 15.2485142
REMARK minimizedRMSD -1
REMARK  0 active torsions:
REMARK  status: ('A' for Active; 'I' for Inactive)
ROOT
ATOM      1  O1  BZF d   1       2.883   2.893  -1.613  0.00  0.00    -0.204 OA
ATOM      2  C2  BZF d   1       1.761   2.705  -2.396  0.00  0.00     0.174 A 
ATOM      3  C3  BZF d   1       2.008   3.048  -3.676  0.00  0.00    -0.012 A 
ATOM      4  C3A BZF d   1       3.397   3.390  -3.713  0.00  0.00    -0.107 A 
ATOM      5  C4  BZF d   1       4.237   3.797  -4.709  0.00  0.00     0.055 A 
ATOM      6  C5  BZF d   1       5.521   4.120  -4.400  0.00  0.00    -0.016 A 
ATOM      7  C6  BZF d   1       5.994   4.053  -3.106  0.00  0.00     0.022 A 
ATOM      8  C7  BZF d   1       5.200   3.649  -2.085  0.00  0.00     0.029 A 
ATOM      9  C7A BZF d   1       3.912   3.291  -2.400  0.00  0.00     0.058 A 
ENDROOT
TORSDOF 0
ENDMDL
