MODEL 1
REMARK minimizedAffinity 8.23749065
REMARK minimizedRMSD -1
REMARK  0 active torsions:
REMARK  status: ('A' for Active; 'I' for Inactive)
ROOT
ATOM      1  O1  BZF d   1       6.000   5.505   0.797  0.00  0.00    -0.204 OA
ATOM      2  C2  BZF d   1       5.571   5.866  -0.465  0.00  0.00     0.174 A 
ATOM      3  C3  BZF d   1       4.792   4.903  -0.999  0.00  0.00    -0.012 A 
ATOM      4  C3A BZF d   1       4.655   3.917   0.029  0.00  0.00    -0.107 A 
ATOM      5  C4  BZF d   1       3.986   2.729   0.108  0.00  0.00     0.055 A 
ATOM      6  C5  BZF d   1       4.117   1.970   1.227  0.00  0.00    -0.016 A 
ATOM      7  C6  BZF d   1       4.911   2.365   2.284  0.00  0.00     0.022 A 
ATOM      8  C7  BZF d   1       5.590   3.538   2.254  0.00  0.00     0.029 A 
ATOM      9  C7A BZF d   1       5.434   4.322   1.137  0.00  0.00     0.058 A 
ENDROOT
TORSDOF 0
ENDMDL
