MODEL 1
REMARK minimizedAffinity 14.5210581
REMARK minimizedRMSD -1
REMARK  0 active torsions:
REMARK  status: ('A' for Active; 'I' for Inactive)
ROOT
ATOM      1  O1  BZF d   1       6.000   5.441  -0.670  0.00  0.00    -0.204 OA
ATOM      2  C2  BZF d   1       5.338   5.542  -1.879  0.00  0.00     0.174 A 
ATOM      3  C3  BZF d   1       4.561   4.460  -2.090  0.00  0.00    -0.012 A 
ATOM      4  C3A BZF d   1       4.678   3.673  -0.901  0.00  0.00    -0.107 A 
ATOM      5  C4  BZF d   1       4.130   2.489  -0.500  0.00  0.00     0.055 A 
ATOM      6  C5  BZF d   1       4.507   1.956   0.691  0.00  0.00    -0.016 A 
ATOM      7  C6  BZF d   1       5.432   2.577   1.504  0.00  0.00     0.022 A 
ATOM      8  C7  BZF d   1       6.000   3.756   1.152  0.00  0.00     0.029 A 
ATOM      9  C7A BZF d   1       5.596   4.314  -0.036  0.00  0.00     0.058 A 
ENDROOT
TORSDOF 0
ENDMDL
