MODEL 1
REMARK minimizedAffinity 14.8163176
REMARK minimizedRMSD -1
REMARK  0 active torsions:
REMARK  status: ('A' for Active; 'I' for Inactive)
ROOT
ATOM      1  O1  BZF d   1      -0.672   0.392   5.146  0.00  0.00    -0.204 OA
ATOM      2  C2  BZF d   1      -1.828   0.840   4.538  0.00  0.00     0.174 A 
ATOM      3  C3  BZF d   1      -1.978   0.275   3.322  0.00  0.00    -0.012 A 
ATOM      4  C3A BZF d   1      -0.893  -0.649   3.200  0.00  0.00    -0.107 A 
ATOM      5  C4  BZF d   1      -0.508  -1.522   2.222  0.00  0.00     0.055 A 
ATOM      6  C5  BZF d   1       0.643  -2.227   2.382  0.00  0.00    -0.016 A 
ATOM      7  C6  BZF d   1       1.434  -2.081   3.502  0.00  0.00     0.022 A 
ATOM      8  C7  BZF d   1       1.091  -1.231   4.501  0.00  0.00     0.029 A 
ATOM      9  C7A BZF d   1      -0.088  -0.541   4.357  0.00  0.00     0.058 A 
ENDROOT
TORSDOF 0
ENDMDL
