MODEL 1
REMARK minimizedAffinity 25.2889214
REMARK minimizedRMSD -1
REMARK  0 active torsions:
REMARK  status: ('A' for Active; 'I' for Inactive)
ROOT
ATOM      1  O1  BZF d   1      -1.139   3.934  -4.967  0.00  0.00    -0.204 OA
ATOM      2  C2  BZF d   1      -1.629   5.225  -5.002  0.00  0.00     0.174 A 
ATOM      3  C3  BZF d   1      -1.000   5.999  -4.094  0.00  0.00    -0.012 A 
ATOM      4  C3A BZF d   1       0.006   5.161  -3.517  0.00  0.00    -0.107 A 
ATOM      5  C4  BZF d   1       0.964   5.364  -2.566  0.00  0.00     0.055 A 
ATOM      6  C5  BZF d   1       1.739   4.319  -2.175  0.00  0.00    -0.016 A 
ATOM      7  C6  BZF d   1       1.580   3.057  -2.710  0.00  0.00     0.022 A 
ATOM      8  C7  BZF d   1       0.645   2.808  -3.660  0.00  0.00     0.029 A 
ATOM      9  C7A BZF d   1      -0.117   3.870  -4.080  0.00  0.00     0.058 A 
ENDROOT
TORSDOF 0
ENDMDL
