MODEL 1
REMARK minimizedAffinity 15.1334209
REMARK minimizedRMSD -1
REMARK  0 active torsions:
REMARK  status: ('A' for Active; 'I' for Inactive)
ROOT
ATOM      1  O1  BZF d   1       2.246   2.686  -3.840  0.00  0.00    -0.204 OA
ATOM      2  C2  BZF d   1       2.047   3.295  -2.617  0.00  0.00     0.174 A 
ATOM      3  C3  BZF d   1       3.156   3.955  -2.225  0.00  0.00    -0.012 A 
ATOM      4  C3A BZF d   1       4.077   3.822  -3.311  0.00  0.00    -0.107 A 
ATOM      5  C4  BZF d   1       5.347   4.276  -3.527  0.00  0.00     0.055 A 
ATOM      6  C5  BZF d   1       5.995   3.908  -4.663  0.00  0.00    -0.016 A 
ATOM      7  C6  BZF d   1       5.407   3.086  -5.601  0.00  0.00     0.022 A 
ATOM      8  C7  BZF d   1       4.147   2.616  -5.434  0.00  0.00     0.029 A 
ATOM      9  C7A BZF d   1       3.477   3.012  -4.303  0.00  0.00     0.058 A 
ENDROOT
TORSDOF 0
ENDMDL
