MODEL 1
REMARK minimizedAffinity 19.5712948
REMARK minimizedRMSD -1
REMARK  0 active torsions:
REMARK  status: ('A' for Active; 'I' for Inactive)
ROOT
ATOM      1  O1  BZF d   1       4.655   4.075  -2.579  0.00  0.00    -0.204 OA
ATOM      2  C2  BZF d   1       5.347   5.065  -1.909  0.00  0.00     0.174 A 
ATOM      3  C3  BZF d   1       4.501   6.000  -1.430  0.00  0.00    -0.012 A 
ATOM      4  C3A BZF d   1       3.191   5.519  -1.746  0.00  0.00    -0.107 A 
ATOM      5  C4  BZF d   1       1.934   5.999  -1.516  0.00  0.00     0.055 A 
ATOM      6  C5  BZF d   1       0.866   5.324  -2.018  0.00  0.00    -0.016 A 
ATOM      7  C6  BZF d   1       1.020   4.170  -2.759  0.00  0.00     0.022 A 
ATOM      8  C7  BZF d   1       2.248   3.653  -3.009  0.00  0.00     0.029 A 
ATOM      9  C7A BZF d   1       3.326   4.314  -2.475  0.00  0.00     0.058 A 
ENDROOT
TORSDOF 0
ENDMDL
