MODEL 1
REMARK minimizedAffinity 14.2527189
REMARK minimizedRMSD -1
REMARK  0 active torsions:
REMARK  status: ('A' for Active; 'I' for Inactive)
ROOT
ATOM      1  O1  BZF d   1      -5.906   2.099   2.816  0.00  0.00    -0.204 OA
ATOM      2  C2  BZF d   1      -5.859   0.946   3.575  0.00  0.00     0.174 A 
ATOM      3  C3  BZF d   1      -5.809   1.240   4.891  0.00  0.00    -0.012 A 
ATOM      4  C3A BZF d   1      -5.919   2.665   4.962  0.00  0.00    -0.107 A 
ATOM      5  C4  BZF d   1      -5.947   3.554   5.998  0.00  0.00     0.055 A 
ATOM      6  C5  BZF d   1      -5.990   4.884   5.726  0.00  0.00    -0.016 A 
ATOM      7  C6  BZF d   1      -5.999   5.361   4.431  0.00  0.00     0.022 A 
ATOM      8  C7  BZF d   1      -5.977   4.517   3.370  0.00  0.00     0.029 A 
ATOM      9  C7A BZF d   1      -5.968   3.171   3.642  0.00  0.00     0.058 A 
ENDROOT
TORSDOF 0
ENDMDL
