MODEL 1
REMARK minimizedAffinity 6.86088181
REMARK minimizedRMSD -1
REMARK  0 active torsions:
REMARK  status: ('A' for Active; 'I' for Inactive)
ROOT
ATOM      1  O1  BZF d   1       5.612   2.696  -0.085  0.00  0.00    -0.204 OA
ATOM      2  C2  BZF d   1       5.667   3.377   1.116  0.00  0.00     0.174 A 
ATOM      3  C3  BZF d   1       4.513   3.234   1.800  0.00  0.00    -0.012 A 
ATOM      4  C3A BZF d   1       3.721   2.336   1.017  0.00  0.00    -0.107 A 
ATOM      5  C4  BZF d   1       2.477   1.797   1.179  0.00  0.00     0.055 A 
ATOM      6  C5  BZF d   1       1.963   1.013   0.195  0.00  0.00    -0.016 A 
ATOM      7  C6  BZF d   1       2.662   0.753  -0.965  0.00  0.00     0.022 A 
ATOM      8  C7  BZF d   1       3.901   1.262  -1.170  0.00  0.00     0.029 A 
ATOM      9  C7A BZF d   1       4.437   2.028  -0.163  0.00  0.00     0.058 A 
ENDROOT
TORSDOF 0
ENDMDL
