MODEL 1
REMARK minimizedAffinity 14.2935286
REMARK minimizedRMSD -1
REMARK  0 active torsions:
REMARK  status: ('A' for Active; 'I' for Inactive)
ROOT
ATOM      1  O1  BZF d   1      -1.585   0.316   4.484  0.00  0.00    -0.204 OA
ATOM      2  C2  BZF d   1      -2.696   0.890   5.070  0.00  0.00     0.174 A 
ATOM      3  C3  BZF d   1      -3.731   0.921   4.205  0.00  0.00    -0.012 A 
ATOM      4  C3A BZF d   1      -3.263   0.246   3.034  0.00  0.00    -0.107 A 
ATOM      5  C4  BZF d   1      -3.837  -0.059   1.833  0.00  0.00     0.055 A 
ATOM      6  C5  BZF d   1      -3.085  -0.662   0.875  0.00  0.00    -0.016 A 
ATOM      7  C6  BZF d   1      -1.756  -0.969   1.082  0.00  0.00     0.022 A 
ATOM      8  C7  BZF d   1      -1.144  -0.691   2.258  0.00  0.00     0.029 A 
ATOM      9  C7A BZF d   1      -1.910  -0.111   3.240  0.00  0.00     0.058 A 
ENDROOT
TORSDOF 0
ENDMDL
