MODEL 1
REMARK minimizedAffinity 8.14298534
REMARK minimizedRMSD -1
REMARK  0 active torsions:
REMARK  status: ('A' for Active; 'I' for Inactive)
ROOT
ATOM      1  O1  BZF d   1       4.382   3.548   2.184  0.00  0.00    -0.204 OA
ATOM      2  C2  BZF d   1       5.601   3.888   1.628  0.00  0.00     0.174 A 
ATOM      3  C3  BZF d   1       5.803   3.219   0.474  0.00  0.00    -0.012 A 
ATOM      4  C3A BZF d   1       4.598   2.481   0.250  0.00  0.00    -0.107 A 
ATOM      5  C4  BZF d   1       4.184   1.638  -0.741  0.00  0.00     0.055 A 
ATOM      6  C5  BZF d   1       2.978   1.023  -0.624  0.00  0.00    -0.016 A 
ATOM      7  C6  BZF d   1       2.164   1.223   0.472  0.00  0.00     0.022 A 
ATOM      8  C7  BZF d   1       2.530   2.054   1.478  0.00  0.00     0.029 A 
ATOM      9  C7A BZF d   1       3.733   2.703   1.347  0.00  0.00     0.058 A 
ENDROOT
TORSDOF 0
ENDMDL
