MODEL 1
REMARK minimizedAffinity 12.233799
REMARK minimizedRMSD -1
REMARK  0 active torsions:
REMARK  status: ('A' for Active; 'I' for Inactive)
ROOT
ATOM      1  O1  BZF d   1       2.880   3.429  -4.378  0.00  0.00    -0.204 OA
ATOM      2  C2  BZF d   1       4.235   3.189  -4.258  0.00  0.00     0.174 A 
ATOM      3  C3  BZF d   1       4.494   2.440  -3.168  0.00  0.00    -0.012 A 
ATOM      4  C3A BZF d   1       3.212   2.118  -2.619  0.00  0.00    -0.107 A 
ATOM      5  C4  BZF d   1       2.810   1.384  -1.540  0.00  0.00     0.055 A 
ATOM      6  C5  BZF d   1       1.487   1.327  -1.236  0.00  0.00    -0.016 A 
ATOM      7  C6  BZF d   1       0.540   1.994  -1.985  0.00  0.00     0.022 A 
ATOM      8  C7  BZF d   1       0.890   2.730  -3.068  0.00  0.00     0.029 A 
ATOM      9  C7A BZF d   1       2.224   2.763  -3.397  0.00  0.00     0.058 A 
ENDROOT
TORSDOF 0
ENDMDL
