MODEL 1
REMARK minimizedAffinity 14.8489132
REMARK minimizedRMSD -1
REMARK  0 active torsions:
REMARK  status: ('A' for Active; 'I' for Inactive)
ROOT
ATOM      1  O1  BZF d   1       5.999  -2.634  -0.397  0.00  0.00    -0.204 OA
ATOM      2  C2  BZF d   1       5.059  -1.896  -1.089  0.00  0.00     0.174 A 
ATOM      3  C3  BZF d   1       3.926  -2.607  -1.264  0.00  0.00    -0.012 A 
ATOM      4  C3A BZF d   1       4.141  -3.834  -0.560  0.00  0.00    -0.107 A 
ATOM      5  C4  BZF d   1       3.372  -4.944  -0.352  0.00  0.00     0.055 A 
ATOM      6  C5  BZF d   1       3.904  -6.000   0.318  0.00  0.00    -0.016 A 
ATOM      7  C6  BZF d   1       5.201  -5.982   0.788  0.00  0.00     0.022 A 
ATOM      8  C7  BZF d   1       6.000  -4.902   0.610  0.00  0.00     0.029 A 
ATOM      9  C7A BZF d   1       5.454  -3.821  -0.037  0.00  0.00     0.058 A 
ENDROOT
TORSDOF 0
ENDMDL
