MODEL 1
REMARK minimizedAffinity 13.8932323
REMARK minimizedRMSD -1
REMARK  0 active torsions:
REMARK  status: ('A' for Active; 'I' for Inactive)
ROOT
ATOM      1  O1  BZF d   1       2.588   2.292  -3.450  0.00  0.00    -0.204 OA
ATOM      2  C2  BZF d   1       2.068   2.591  -2.205  0.00  0.00     0.174 A 
ATOM      3  C3  BZF d   1       2.870   3.452  -1.547  0.00  0.00    -0.012 A 
ATOM      4  C3A BZF d   1       3.911   3.780  -2.471  0.00  0.00    -0.107 A 
ATOM      5  C4  BZF d   1       5.001   4.600  -2.406  0.00  0.00     0.055 A 
ATOM      6  C5  BZF d   1       5.862   4.639  -3.457  0.00  0.00    -0.016 A 
ATOM      7  C6  BZF d   1       5.667   3.869  -4.585  0.00  0.00     0.022 A 
ATOM      8  C7  BZF d   1       4.598   3.043  -4.697  0.00  0.00     0.029 A 
ATOM      9  C7A BZF d   1       3.708   3.026  -3.651  0.00  0.00     0.058 A 
ENDROOT
TORSDOF 0
ENDMDL
