MODEL 1
REMARK minimizedAffinity -3.66139579
REMARK minimizedRMSD -1
REMARK  0 active torsions:
REMARK  status: ('A' for Active; 'I' for Inactive)
ROOT
ATOM      1  C   UNL d   1      -1.608   3.644   0.920  0.00  0.00     0.020 A 
ATOM      2  C1  UNL d   1      -1.686   2.381   1.504  0.00  0.00     0.020 A 
ATOM      3  C2  UNL d   1      -1.006   1.304   0.931  0.00  0.00     0.034 A 
ATOM      4  C3  UNL d   1      -0.244   1.489  -0.229  0.00  0.00     0.017 A 
ATOM      5  C4  UNL d   1      -0.167   2.758  -0.814  0.00  0.00     0.017 A 
ATOM      6  C5  UNL d   1      -0.850   3.832  -0.236  0.00  0.00     0.034 A 
ATOM      7 Cl   UNL d   1       0.753   3.064  -2.245  0.00  0.00    -0.070 Cl
ATOM      8 Cl1  UNL d   1       0.571   0.113  -0.883  0.00  0.00    -0.070 Cl
ENDROOT
TORSDOF 0
ENDMDL
