MODEL 1
REMARK minimizedAffinity -5.75786066
REMARK minimizedRMSD -1
REMARK  0 active torsions:
REMARK  status: ('A' for Active; 'I' for Inactive)
ROOT
ATOM      1  C   UNL d   1      -2.429   2.936   1.758  0.00  0.00     0.020 A 
ATOM      2  C1  UNL d   1      -2.395   1.578   2.074  0.00  0.00     0.020 A 
ATOM      3  C2  UNL d   1      -1.554   0.717   1.366  0.00  0.00     0.034 A 
ATOM      4  C3  UNL d   1      -0.743   1.213   0.339  0.00  0.00     0.017 A 
ATOM      5  C4  UNL d   1      -0.777   2.576   0.022  0.00  0.00     0.017 A 
ATOM      6  C5  UNL d   1      -1.621   3.433   0.735  0.00  0.00     0.034 A 
ATOM      7 Cl   UNL d   1       0.195   3.261  -1.232  0.00  0.00    -0.070 Cl
ATOM      8 Cl1  UNL d   1       0.273   0.091  -0.495  0.00  0.00    -0.070 Cl
ENDROOT
TORSDOF 0
ENDMDL
