MODEL 1
REMARK minimizedAffinity -3.94536567
REMARK minimizedRMSD -1
REMARK  0 active torsions:
REMARK  status: ('A' for Active; 'I' for Inactive)
ROOT
ATOM      1  C   UNL d   1       1.381  -0.171  -0.750  0.00  0.00     0.020 A 
ATOM      2  C1  UNL d   1       0.758  -0.750   0.355  0.00  0.00     0.020 A 
ATOM      3  C2  UNL d   1      -0.244  -0.056   1.036  0.00  0.00     0.034 A 
ATOM      4  C3  UNL d   1      -0.627   1.222   0.612  0.00  0.00     0.017 A 
ATOM      5  C4  UNL d   1      -0.002   1.802  -0.498  0.00  0.00     0.017 A 
ATOM      6  C5  UNL d   1       1.001   1.102  -1.175  0.00  0.00     0.034 A 
ATOM      7 Cl   UNL d   1      -0.420   3.375  -1.080  0.00  0.00    -0.070 Cl
ATOM      8 Cl1  UNL d   1      -1.874   2.023   1.500  0.00  0.00    -0.070 Cl
ENDROOT
TORSDOF 0
ENDMDL
