MODEL 1
REMARK minimizedAffinity -5.04403973
REMARK minimizedRMSD -1
REMARK  0 active torsions:
REMARK  status: ('A' for Active; 'I' for Inactive)
ROOT
ATOM      1  C   UNL d   1      -1.536   3.519  -1.043  0.00  0.00     0.020 A 
ATOM      2  C1  UNL d   1      -2.208   3.567   0.178  0.00  0.00     0.020 A 
ATOM      3  C2  UNL d   1      -1.998   2.567   1.129  0.00  0.00     0.034 A 
ATOM      4  C3  UNL d   1      -1.115   1.515   0.862  0.00  0.00     0.017 A 
ATOM      5  C4  UNL d   1      -0.441   1.468  -0.364  0.00  0.00     0.017 A 
ATOM      6  C5  UNL d   1      -0.654   2.472  -1.313  0.00  0.00     0.034 A 
ATOM      7 Cl   UNL d   1       0.665   0.202  -0.766  0.00  0.00    -0.070 Cl
ATOM      8 Cl1  UNL d   1      -0.903   0.313   2.085  0.00  0.00    -0.070 Cl
ENDROOT
TORSDOF 0
ENDMDL
