MODEL 1
REMARK minimizedAffinity -4.80352974
REMARK minimizedRMSD -1
REMARK  0 active torsions:
REMARK  status: ('A' for Active; 'I' for Inactive)
ROOT
ATOM      1  C   UNL d   1      -0.389  -0.103   0.888  0.00  0.00     0.020 A 
ATOM      2  C1  UNL d   1      -1.397   0.185   1.807  0.00  0.00     0.020 A 
ATOM      3  C2  UNL d   1      -1.942   1.469   1.864  0.00  0.00     0.034 A 
ATOM      4  C3  UNL d   1      -1.480   2.470   1.002  0.00  0.00     0.017 A 
ATOM      5  C4  UNL d   1      -0.468   2.179   0.080  0.00  0.00     0.017 A 
ATOM      6  C5  UNL d   1       0.074   0.892   0.026  0.00  0.00     0.034 A 
ATOM      7 Cl   UNL d   1       0.153   3.362  -1.017  0.00  0.00    -0.070 Cl
ATOM      8 Cl1  UNL d   1      -2.201   4.035   1.128  0.00  0.00    -0.070 Cl
ENDROOT
TORSDOF 0
ENDMDL
