MODEL 1
REMARK minimizedAffinity -1.53434575
REMARK minimizedRMSD -1
REMARK  0 active torsions:
REMARK  status: ('A' for Active; 'I' for Inactive)
ROOT
ATOM      1  C   UNL d   1      -1.583   2.007   2.169  0.00  0.00     0.020 A 
ATOM      2  C1  UNL d   1      -1.403   0.628   2.259  0.00  0.00     0.020 A 
ATOM      3  C2  UNL d   1      -0.651  -0.043   1.292  0.00  0.00     0.034 A 
ATOM      4  C3  UNL d   1      -0.076   0.666   0.231  0.00  0.00     0.017 A 
ATOM      5  C4  UNL d   1      -0.258   2.051   0.142  0.00  0.00     0.017 A 
ATOM      6  C5  UNL d   1      -1.011   2.717   1.113  0.00  0.00     0.034 A 
ATOM      7 Cl   UNL d   1       0.421   2.994  -1.138  0.00  0.00    -0.070 Cl
ATOM      8 Cl1  UNL d   1       0.842  -0.227  -0.928  0.00  0.00    -0.070 Cl
ENDROOT
TORSDOF 0
ENDMDL
