MODEL 1
REMARK minimizedAffinity -0.811061323
REMARK minimizedRMSD -1
REMARK  0 active torsions:
REMARK  status: ('A' for Active; 'I' for Inactive)
ROOT
ATOM      1  C   UNL d   1       0.701  -3.550  -2.611  0.00  0.00     0.020 A 
ATOM      2  C1  UNL d   1      -0.313  -3.709  -1.668  0.00  0.00     0.020 A 
ATOM      3  C2  UNL d   1      -0.564  -2.700  -0.736  0.00  0.00     0.034 A 
ATOM      4  C3  UNL d   1       0.199  -1.527  -0.746  0.00  0.00     0.017 A 
ATOM      5  C4  UNL d   1       1.216  -1.367  -1.694  0.00  0.00     0.017 A 
ATOM      6  C5  UNL d   1       1.464  -2.381  -2.624  0.00  0.00     0.034 A 
ATOM      7 Cl   UNL d   1       2.200   0.052  -1.768  0.00  0.00    -0.070 Cl
ATOM      8 Cl1  UNL d   1      -0.168  -0.320   0.435  0.00  0.00    -0.070 Cl
ENDROOT
TORSDOF 0
ENDMDL
