MODEL 1
REMARK minimizedAffinity -2.06487799
REMARK minimizedRMSD -1
REMARK  0 active torsions:
REMARK  status: ('A' for Active; 'I' for Inactive)
ROOT
ATOM      1  C   UNL d   1       1.167  -0.953  -0.517  0.00  0.00     0.020 A 
ATOM      2  C1  UNL d   1       0.712  -1.330   0.745  0.00  0.00     0.020 A 
ATOM      3  C2  UNL d   1       0.254  -0.361   1.641  0.00  0.00     0.034 A 
ATOM      4  C3  UNL d   1       0.251   0.990   1.274  0.00  0.00     0.017 A 
ATOM      5  C4  UNL d   1       0.708   1.367   0.006  0.00  0.00     0.017 A 
ATOM      6  C5  UNL d   1       1.165   0.393  -0.886  0.00  0.00     0.034 A 
ATOM      7 Cl   UNL d   1       0.734   3.014  -0.517  0.00  0.00    -0.070 Cl
ATOM      8 Cl1  UNL d   1      -0.329   2.135   2.431  0.00  0.00    -0.070 Cl
ENDROOT
TORSDOF 0
ENDMDL
