MODEL 1
REMARK minimizedAffinity -5.53696823
REMARK minimizedRMSD -1
REMARK  0 active torsions:
REMARK  status: ('A' for Active; 'I' for Inactive)
ROOT
ATOM      1  C   UNL d   1      -2.597   3.061   1.272  0.00  0.00     0.020 A 
ATOM      2  C1  UNL d   1      -2.543   1.708   1.604  0.00  0.00     0.020 A 
ATOM      3  C2  UNL d   1      -1.490   0.917   1.139  0.00  0.00     0.034 A 
ATOM      4  C3  UNL d   1      -0.487   1.478   0.340  0.00  0.00     0.017 A 
ATOM      5  C4  UNL d   1      -0.543   2.837   0.008  0.00  0.00     0.017 A 
ATOM      6  C5  UNL d   1      -1.600   3.624   0.476  0.00  0.00     0.034 A 
ATOM      7 Cl   UNL d   1       0.657   3.601  -0.974  0.00  0.00    -0.070 Cl
ATOM      8 Cl1  UNL d   1       0.785   0.441  -0.199  0.00  0.00    -0.070 Cl
ENDROOT
TORSDOF 0
ENDMDL
