MODEL 1
REMARK minimizedAffinity -5.58197308
REMARK minimizedRMSD -1
REMARK  0 active torsions:
REMARK  status: ('A' for Active; 'I' for Inactive)
ROOT
ATOM      1  C   UNL d   1      -2.701   3.272   0.860  0.00  0.00     0.020 A 
ATOM      2  C1  UNL d   1      -2.833   1.929   1.210  0.00  0.00     0.020 A 
ATOM      3  C2  UNL d   1      -1.889   0.998   0.773  0.00  0.00     0.034 A 
ATOM      4  C3  UNL d   1      -0.808   1.408  -0.017  0.00  0.00     0.017 A 
ATOM      5  C4  UNL d   1      -0.677   2.757  -0.367  0.00  0.00     0.017 A 
ATOM      6  C5  UNL d   1      -1.625   3.685   0.073  0.00  0.00     0.034 A 
ATOM      7 Cl   UNL d   1       0.629   3.339  -1.338  0.00  0.00    -0.070 Cl
ATOM      8 Cl1  UNL d   1       0.322   0.203  -0.521  0.00  0.00    -0.070 Cl
ENDROOT
TORSDOF 0
ENDMDL
