MODEL 1
REMARK minimizedAffinity -1.84433866
REMARK minimizedRMSD -1
REMARK  0 active torsions:
REMARK  status: ('A' for Active; 'I' for Inactive)
ROOT
ATOM      1  C   UNL d   1       1.160  -0.934  -0.785  0.00  0.00     0.020 A 
ATOM      2  C1  UNL d   1       0.621  -1.382   0.420  0.00  0.00     0.020 A 
ATOM      3  C2  UNL d   1      -0.089  -0.501   1.238  0.00  0.00     0.034 A 
ATOM      4  C3  UNL d   1      -0.263   0.833   0.852  0.00  0.00     0.017 A 
ATOM      5  C4  UNL d   1       0.278   1.282  -0.358  0.00  0.00     0.017 A 
ATOM      6  C5  UNL d   1       0.989   0.395  -1.174  0.00  0.00     0.034 A 
ATOM      7 Cl   UNL d   1       0.106   2.913  -0.902  0.00  0.00    -0.070 Cl
ATOM      8 Cl1  UNL d   1      -1.153   1.867   1.912  0.00  0.00    -0.070 Cl
ENDROOT
TORSDOF 0
ENDMDL
