MODEL 1
REMARK minimizedAffinity -4.33795023
REMARK minimizedRMSD -1
REMARK  0 active torsions:
REMARK  status: ('A' for Active; 'I' for Inactive)
ROOT
ATOM      1  C   UNL d   1      -1.583   2.956  -0.727  0.00  0.00     0.020 A 
ATOM      2  C1  UNL d   1      -2.289   2.903   0.473  0.00  0.00     0.020 A 
ATOM      3  C2  UNL d   1      -2.012   1.898   1.403  0.00  0.00     0.034 A 
ATOM      4  C3  UNL d   1      -1.026   0.942   1.133  0.00  0.00     0.017 A 
ATOM      5  C4  UNL d   1      -0.318   0.996  -0.073  0.00  0.00     0.017 A 
ATOM      6  C5  UNL d   1      -0.599   2.004  -1.000  0.00  0.00     0.034 A 
ATOM      7 Cl   UNL d   1       0.913  -0.148  -0.477  0.00  0.00    -0.070 Cl
ATOM      8 Cl1  UNL d   1      -0.736  -0.273   2.327  0.00  0.00    -0.070 Cl
ENDROOT
TORSDOF 0
ENDMDL
