MODEL 1
REMARK minimizedAffinity -3.30415058
REMARK minimizedRMSD -1
REMARK  0 active torsions:
REMARK  status: ('A' for Active; 'I' for Inactive)
ROOT
ATOM      1  C   UNL d   1      -1.782   1.314   2.157  0.00  0.00     0.020 A 
ATOM      2  C1  UNL d   1      -1.411  -0.011   1.927  0.00  0.00     0.020 A 
ATOM      3  C2  UNL d   1      -0.460  -0.310   0.949  0.00  0.00     0.034 A 
ATOM      4  C3  UNL d   1       0.124   0.717   0.197  0.00  0.00     0.017 A 
ATOM      5  C4  UNL d   1      -0.249   2.046   0.429  0.00  0.00     0.017 A 
ATOM      6  C5  UNL d   1      -1.201   2.340   1.409  0.00  0.00     0.034 A 
ATOM      7 Cl   UNL d   1       0.428   3.366  -0.458  0.00  0.00    -0.070 Cl
ATOM      8 Cl1  UNL d   1       1.293   0.274  -0.995  0.00  0.00    -0.070 Cl
ENDROOT
TORSDOF 0
ENDMDL
