MODEL 1
REMARK minimizedAffinity -4.0069747
REMARK minimizedRMSD -1
REMARK  0 active torsions:
REMARK  status: ('A' for Active; 'I' for Inactive)
ROOT
ATOM      1  C   UNL d   1      -1.855   2.656   1.129  0.00  0.00     0.020 A 
ATOM      2  C1  UNL d   1      -1.535   3.478   0.049  0.00  0.00     0.020 A 
ATOM      3  C2  UNL d   1      -0.491   3.127  -0.810  0.00  0.00     0.034 A 
ATOM      4  C3  UNL d   1       0.237   1.952  -0.590  0.00  0.00     0.017 A 
ATOM      5  C4  UNL d   1      -0.086   1.128   0.495  0.00  0.00     0.017 A 
ATOM      6  C5  UNL d   1      -1.132   1.484   1.351  0.00  0.00     0.034 A 
ATOM      7 Cl   UNL d   1       0.767  -0.338   0.830  0.00  0.00    -0.070 Cl
ATOM      8 Cl1  UNL d   1       1.514   1.580  -1.692  0.00  0.00    -0.070 Cl
ENDROOT
TORSDOF 0
ENDMDL
