MODEL 1
REMARK minimizedAffinity -5.93405867
REMARK minimizedRMSD -1
REMARK  0 active torsions:
REMARK  status: ('A' for Active; 'I' for Inactive)
ROOT
ATOM      1  C   UNL d   1      -2.046   2.895   1.273  0.00  0.00     0.020 A 
ATOM      2  C1  UNL d   1      -1.386   3.489   0.198  0.00  0.00     0.020 A 
ATOM      3  C2  UNL d   1      -0.312   2.835  -0.410  0.00  0.00     0.034 A 
ATOM      4  C3  UNL d   1       0.105   1.583   0.057  0.00  0.00     0.017 A 
ATOM      5  C4  UNL d   1      -0.558   0.987   1.136  0.00  0.00     0.017 A 
ATOM      6  C5  UNL d   1      -1.633   1.647   1.741  0.00  0.00     0.034 A 
ATOM      7 Cl   UNL d   1      -0.101  -0.555   1.768  0.00  0.00    -0.070 Cl
ATOM      8 Cl1  UNL d   1       1.440   0.831  -0.743  0.00  0.00    -0.070 Cl
ENDROOT
TORSDOF 0
ENDMDL
