MODEL 1
REMARK minimizedAffinity -5.95213461
REMARK minimizedRMSD -1
REMARK  0 active torsions:
REMARK  status: ('A' for Active; 'I' for Inactive)
ROOT
ATOM      1  C   UNL d   1      -0.746   3.621  -0.682  0.00  0.00     0.020 A 
ATOM      2  C1  UNL d   1      -1.732   3.630   0.304  0.00  0.00     0.020 A 
ATOM      3  C2  UNL d   1      -1.873   2.536   1.160  0.00  0.00     0.034 A 
ATOM      4  C3  UNL d   1      -1.027   1.428   1.032  0.00  0.00     0.017 A 
ATOM      5  C4  UNL d   1      -0.038   1.420   0.042  0.00  0.00     0.017 A 
ATOM      6  C5  UNL d   1       0.099   2.518  -0.813  0.00  0.00     0.034 A 
ATOM      7 Cl   UNL d   1       1.043   0.089  -0.177  0.00  0.00    -0.070 Cl
ATOM      8 Cl1  UNL d   1      -1.258   0.110   2.125  0.00  0.00    -0.070 Cl
ENDROOT
TORSDOF 0
ENDMDL
