MODEL 1
REMARK minimizedAffinity -5.6031394
REMARK minimizedRMSD -1
REMARK  0 active torsions:
REMARK  status: ('A' for Active; 'I' for Inactive)
ROOT
ATOM      1  C   UNL d   1      -1.767   2.826   0.738  0.00  0.00     0.020 A 
ATOM      2  C1  UNL d   1      -0.909   3.507  -0.125  0.00  0.00     0.020 A 
ATOM      3  C2  UNL d   1       0.180   2.843  -0.695  0.00  0.00     0.034 A 
ATOM      4  C3  UNL d   1       0.414   1.495  -0.403  0.00  0.00     0.017 A 
ATOM      5  C4  UNL d   1      -0.448   0.812   0.464  0.00  0.00     0.017 A 
ATOM      6  C5  UNL d   1      -1.537   1.482   1.031  0.00  0.00     0.034 A 
ATOM      7 Cl   UNL d   1      -0.224  -0.852   0.872  0.00  0.00    -0.070 Cl
ATOM      8 Cl1  UNL d   1       1.778   0.737  -1.143  0.00  0.00    -0.070 Cl
ENDROOT
TORSDOF 0
ENDMDL
