MODEL 1
REMARK minimizedAffinity 11.908699
REMARK minimizedRMSD -1
REMARK  2 active torsions:
REMARK  status: ('A' for Active; 'I' for Inactive)
REMARK    1  A    between atoms: C1_2  and  C2_3 
REMARK    2  A    between atoms: C2_3  and  C3_4 
ROOT
ATOM      1  C3  UNL d   1      -2.004  -2.373   3.310  0.00  0.00    -0.075 A 
ATOM      2  C4  UNL d   1      -1.715  -2.050   4.643  0.00  0.00     0.002 A 
ATOM      3  C5  UNL d   1      -0.640  -1.217   4.953  0.00  0.00     0.002 A 
ATOM      4  C6  UNL d   1       0.165  -0.706   3.937  0.00  0.00    -0.004 A 
ATOM      5  C7  UNL d   1      -0.103  -1.034   2.610  0.00  0.00     0.002 A 
ATOM      6  C8  UNL d   1      -1.181  -1.864   2.297  0.00  0.00     0.002 A 
ENDROOT
BRANCH   1   7
ATOM      7  C2  UNL d   1      -3.184  -3.250   2.965  0.00  0.00     0.056 C 
BRANCH   7   8
ATOM      8  C1  UNL d   1      -3.961  -2.793   1.726  0.00  0.00     0.007 C 
ATOM      9  C   UNL d   1      -3.878  -3.778   0.568  0.00  0.00     0.009 C 
ENDBRANCH   7   8
ENDBRANCH   1   7
TORSDOF 2
ENDMDL
