MODEL 1
REMARK minimizedAffinity 8.68303871
REMARK minimizedRMSD -1
REMARK  2 active torsions:
REMARK  status: ('A' for Active; 'I' for Inactive)
REMARK    1  A    between atoms: C1_2  and  C2_3 
REMARK    2  A    between atoms: C2_3  and  C3_4 
ROOT
ATOM      1  C3  UNL d   1      -3.398  -3.882   1.458  0.00  0.00    -0.075 A 
ATOM      2  C4  UNL d   1      -4.648  -3.385   1.853  0.00  0.00     0.002 A 
ATOM      3  C5  UNL d   1      -4.777  -2.648   3.031  0.00  0.00     0.002 A 
ATOM      4  C6  UNL d   1      -3.662  -2.408   3.832  0.00  0.00    -0.004 A 
ATOM      5  C7  UNL d   1      -2.418  -2.912   3.457  0.00  0.00     0.002 A 
ATOM      6  C8  UNL d   1      -2.286  -3.646   2.277  0.00  0.00     0.002 A 
ENDROOT
BRANCH   1   7
ATOM      7  C2  UNL d   1      -3.246  -4.655   0.170  0.00  0.00     0.056 C 
BRANCH   7   8
ATOM      8  C1  UNL d   1      -4.008  -5.985   0.147  0.00  0.00     0.007 C 
ATOM      9  C   UNL d   1      -5.160  -6.000  -0.848  0.00  0.00     0.009 C 
ENDBRANCH   7   8
ENDBRANCH   1   7
TORSDOF 2
ENDMDL
