MODEL 1
REMARK minimizedAffinity 13.0134516
REMARK minimizedRMSD -1
REMARK  2 active torsions:
REMARK  status: ('A' for Active; 'I' for Inactive)
REMARK    1  A    between atoms: C1_2  and  C2_3 
REMARK    2  A    between atoms: C2_3  and  C3_4 
ROOT
ATOM      1  C3  UNL d   1       1.924  -1.123   2.455  0.00  0.00    -0.075 A 
ATOM      2  C4  UNL d   1       0.690  -1.636   2.030  0.00  0.00     0.002 A 
ATOM      3  C5  UNL d   1      -0.454  -1.463   2.810  0.00  0.00     0.002 A 
ATOM      4  C6  UNL d   1      -0.377  -0.788   4.026  0.00  0.00    -0.004 A 
ATOM      5  C7  UNL d   1       0.848  -0.289   4.465  0.00  0.00     0.002 A 
ATOM      6  C8  UNL d   1       1.993  -0.456   3.685  0.00  0.00     0.002 A 
ENDROOT
BRANCH   1   7
ATOM      7  C2  UNL d   1       3.160  -1.280   1.601  0.00  0.00     0.056 C 
BRANCH   7   8
ATOM      8  C1  UNL d   1       4.253  -0.246   1.890  0.00  0.00     0.007 C 
ATOM      9  C   UNL d   1       4.010   1.092   1.206  0.00  0.00     0.009 C 
ENDBRANCH   7   8
ENDBRANCH   1   7
TORSDOF 2
ENDMDL
