MODEL 1
REMARK minimizedAffinity 7.10987854
REMARK minimizedRMSD -1
REMARK  2 active torsions:
REMARK  status: ('A' for Active; 'I' for Inactive)
REMARK    1  A    between atoms: C1_2  and  C2_3 
REMARK    2  A    between atoms: C2_3  and  C3_4 
ROOT
ATOM      1  C3  UNL d   1      -4.118  -4.124   0.187  0.00  0.00    -0.075 A 
ATOM      2  C4  UNL d   1      -4.333  -3.334   1.326  0.00  0.00     0.002 A 
ATOM      3  C5  UNL d   1      -3.254  -2.794   2.027  0.00  0.00     0.002 A 
ATOM      4  C6  UNL d   1      -1.950  -3.042   1.605  0.00  0.00    -0.004 A 
ATOM      5  C7  UNL d   1      -1.724  -3.839   0.484  0.00  0.00     0.002 A 
ATOM      6  C8  UNL d   1      -2.801  -4.378  -0.221  0.00  0.00     0.002 A 
ENDROOT
BRANCH   1   7
ATOM      7  C2  UNL d   1      -5.281  -4.688  -0.593  0.00  0.00     0.056 C 
BRANCH   7   8
ATOM      8  C1  UNL d   1      -5.835  -5.999  -0.026  0.00  0.00     0.007 C 
ATOM      9  C   UNL d   1      -5.961  -5.991   1.491  0.00  0.00     0.009 C 
ENDBRANCH   7   8
ENDBRANCH   1   7
TORSDOF 2
ENDMDL
