MODEL 1
REMARK minimizedAffinity 5.15251827
REMARK minimizedRMSD -1
REMARK  2 active torsions:
REMARK  status: ('A' for Active; 'I' for Inactive)
REMARK    1  A    between atoms: C1_2  and  C2_3 
REMARK    2  A    between atoms: C2_3  and  C3_4 
ROOT
ATOM      1  C3  UNL d   1      -4.104  -4.514   1.226  0.00  0.00    -0.075 A 
ATOM      2  C4  UNL d   1      -3.723  -5.662   1.934  0.00  0.00     0.002 A 
ATOM      3  C5  UNL d   1      -3.713  -5.663   3.329  0.00  0.00     0.002 A 
ATOM      4  C6  UNL d   1      -4.073  -4.516   4.032  0.00  0.00    -0.004 A 
ATOM      5  C7  UNL d   1      -4.437  -3.364   3.339  0.00  0.00     0.002 A 
ATOM      6  C8  UNL d   1      -4.453  -3.361   1.943  0.00  0.00     0.002 A 
ENDROOT
BRANCH   1   7
ATOM      7  C2  UNL d   1      -4.146  -4.515  -0.284  0.00  0.00     0.056 C 
BRANCH   7   8
ATOM      8  C1  UNL d   1      -4.150  -5.915  -0.906  0.00  0.00     0.007 C 
ATOM      9  C   UNL d   1      -4.966  -5.999  -2.190  0.00  0.00     0.009 C 
ENDBRANCH   7   8
ENDBRANCH   1   7
TORSDOF 2
ENDMDL
