MODEL 1
REMARK minimizedAffinity 11.2585535
REMARK minimizedRMSD -1
REMARK  2 active torsions:
REMARK  status: ('A' for Active; 'I' for Inactive)
REMARK    1  A    between atoms: C1_2  and  C2_3 
REMARK    2  A    between atoms: C2_3  and  C3_4 
ROOT
ATOM      1  C3  UNL d   1      -4.091   2.883  -4.794  0.00  0.00    -0.075 A 
ATOM      2  C4  UNL d   1      -3.519   3.449  -5.943  0.00  0.00     0.002 A 
ATOM      3  C5  UNL d   1      -2.167   3.793  -5.965  0.00  0.00     0.002 A 
ATOM      4  C6  UNL d   1      -1.373   3.585  -4.838  0.00  0.00    -0.004 A 
ATOM      5  C7  UNL d   1      -1.935   3.039  -3.687  0.00  0.00     0.002 A 
ATOM      6  C8  UNL d   1      -3.286   2.689  -3.663  0.00  0.00     0.002 A 
ENDROOT
BRANCH   1   7
ATOM      7  C2  UNL d   1      -5.546   2.481  -4.774  0.00  0.00     0.056 C 
BRANCH   7   8
ATOM      8  C1  UNL d   1      -6.000   1.846  -3.455  0.00  0.00     0.007 C 
ATOM      9  C   UNL d   1      -5.999   0.324  -3.490  0.00  0.00     0.009 C 
ENDBRANCH   7   8
ENDBRANCH   1   7
TORSDOF 2
ENDMDL
