MODEL 1
REMARK minimizedAffinity 17.58078
REMARK minimizedRMSD -1
REMARK  2 active torsions:
REMARK  status: ('A' for Active; 'I' for Inactive)
REMARK    1  A    between atoms: C1_2  and  C2_3 
REMARK    2  A    between atoms: C2_3  and  C3_4 
ROOT
ATOM      1  C3  UNL d   1      -1.333  -2.498   2.200  0.00  0.00    -0.075 A 
ATOM      2  C4  UNL d   1      -1.248  -1.183   2.680  0.00  0.00     0.002 A 
ATOM      3  C5  UNL d   1      -0.066  -0.453   2.541  0.00  0.00     0.002 A 
ATOM      4  C6  UNL d   1       1.045  -1.031   1.932  0.00  0.00    -0.004 A 
ATOM      5  C7  UNL d   1       0.977  -2.342   1.466  0.00  0.00     0.002 A 
ATOM      6  C8  UNL d   1      -0.205  -3.073   1.600  0.00  0.00     0.002 A 
ENDROOT
BRANCH   1   7
ATOM      7  C2  UNL d   1      -2.617  -3.282   2.320  0.00  0.00     0.056 C 
BRANCH   7   8
ATOM      8  C1  UNL d   1      -3.645  -2.968   1.228  0.00  0.00     0.007 C 
ATOM      9  C   UNL d   1      -3.335  -3.644  -0.101  0.00  0.00     0.009 C 
ENDBRANCH   7   8
ENDBRANCH   1   7
TORSDOF 2
ENDMDL
