MODEL 1
REMARK minimizedAffinity 10.7619772
REMARK minimizedRMSD -1
REMARK  2 active torsions:
REMARK  status: ('A' for Active; 'I' for Inactive)
REMARK    1  A    between atoms: C1_2  and  C2_3 
REMARK    2  A    between atoms: C2_3  and  C3_4 
ROOT
ATOM      1  C3  UNL d   1      -0.797  -2.268   2.300  0.00  0.00    -0.075 A 
ATOM      2  C4  UNL d   1      -0.785  -1.076   3.039  0.00  0.00     0.002 A 
ATOM      3  C5  UNL d   1       0.151  -0.079   2.761  0.00  0.00     0.002 A 
ATOM      4  C6  UNL d   1       1.091  -0.265   1.751  0.00  0.00    -0.004 A 
ATOM      5  C7  UNL d   1       1.100  -1.452   1.021  0.00  0.00     0.002 A 
ATOM      6  C8  UNL d   1       0.162  -2.449   1.294  0.00  0.00     0.002 A 
ENDROOT
BRANCH   1   7
ATOM      7  C2  UNL d   1      -1.826  -3.338   2.576  0.00  0.00     0.056 C 
BRANCH   7   8
ATOM      8  C1  UNL d   1      -3.196  -2.794   2.991  0.00  0.00     0.007 C 
ATOM      9  C   UNL d   1      -4.182  -2.702   1.834  0.00  0.00     0.009 C 
ENDBRANCH   7   8
ENDBRANCH   1   7
TORSDOF 2
ENDMDL
