MODEL 1
REMARK minimizedAffinity 14.4093504
REMARK minimizedRMSD -1
REMARK  2 active torsions:
REMARK  status: ('A' for Active; 'I' for Inactive)
REMARK    1  A    between atoms: C1_2  and  C2_3 
REMARK    2  A    between atoms: C2_3  and  C3_4 
ROOT
ATOM      1  C3  UNL d   1      -0.277  -0.652   3.442  0.00  0.00    -0.075 A 
ATOM      2  C4  UNL d   1       0.527  -0.550   4.586  0.00  0.00     0.002 A 
ATOM      3  C5  UNL d   1      -0.048  -0.524   5.857  0.00  0.00     0.002 A 
ATOM      4  C6  UNL d   1      -1.432  -0.589   6.000  0.00  0.00    -0.004 A 
ATOM      5  C7  UNL d   1      -2.242  -0.674   4.869  0.00  0.00     0.002 A 
ATOM      6  C8  UNL d   1      -1.669  -0.705   3.597  0.00  0.00     0.002 A 
ENDROOT
BRANCH   1   7
ATOM      7  C2  UNL d   1       0.341  -0.710   2.066  0.00  0.00     0.056 C 
BRANCH   7   8
ATOM      8  C1  UNL d   1       0.363  -2.113   1.451  0.00  0.00     0.007 C 
ATOM      9  C   UNL d   1      -0.728  -2.331   0.412  0.00  0.00     0.009 C 
ENDBRANCH   7   8
ENDBRANCH   1   7
TORSDOF 2
ENDMDL
