MODEL 1
REMARK minimizedAffinity 16.6856632
REMARK minimizedRMSD -1
REMARK  2 active torsions:
REMARK  status: ('A' for Active; 'I' for Inactive)
REMARK    1  A    between atoms: C1_2  and  C2_3 
REMARK    2  A    between atoms: C2_3  and  C3_4 
ROOT
ATOM      1  C3  UNL d   1       1.567  -0.664   2.100  0.00  0.00    -0.075 A 
ATOM      2  C4  UNL d   1       0.175  -0.511   2.172  0.00  0.00     0.002 A 
ATOM      3  C5  UNL d   1      -0.673  -1.473   1.624  0.00  0.00     0.002 A 
ATOM      4  C6  UNL d   1      -0.142  -2.594   0.990  0.00  0.00    -0.004 A 
ATOM      5  C7  UNL d   1       1.240  -2.748   0.898  0.00  0.00     0.002 A 
ATOM      6  C8  UNL d   1       2.090  -1.789   1.449  0.00  0.00     0.002 A 
ENDROOT
BRANCH   1   7
ATOM      7  C2  UNL d   1       2.490   0.359   2.718  0.00  0.00     0.056 C 
BRANCH   7   8
ATOM      8  C1  UNL d   1       3.856   0.462   2.031  0.00  0.00     0.007 C 
ATOM      9  C   UNL d   1       3.876   1.462   0.882  0.00  0.00     0.009 C 
ENDBRANCH   7   8
ENDBRANCH   1   7
TORSDOF 2
ENDMDL
