MODEL 1
REMARK minimizedAffinity 6.37384701
REMARK minimizedRMSD -1
REMARK  2 active torsions:
REMARK  status: ('A' for Active; 'I' for Inactive)
REMARK    1  A    between atoms: C1_2  and  C2_3 
REMARK    2  A    between atoms: C2_3  and  C3_4 
ROOT
ATOM      1  C3  UNL d   1       1.292  -1.707   2.503  0.00  0.00    -0.075 A 
ATOM      2  C4  UNL d   1       2.445  -1.311   1.810  0.00  0.00     0.002 A 
ATOM      3  C5  UNL d   1       3.377  -0.465   2.411  0.00  0.00     0.002 A 
ATOM      4  C6  UNL d   1       3.164   0.004   3.706  0.00  0.00    -0.004 A 
ATOM      5  C7  UNL d   1       2.013  -0.369   4.397  0.00  0.00     0.002 A 
ATOM      6  C8  UNL d   1       1.081  -1.219   3.800  0.00  0.00     0.002 A 
ENDROOT
BRANCH   1   7
ATOM      7  C2  UNL d   1       0.294  -2.646   1.869  0.00  0.00     0.056 C 
BRANCH   7   8
ATOM      8  C1  UNL d   1       0.917  -3.922   1.293  0.00  0.00     0.007 C 
ATOM      9  C   UNL d   1       0.973  -5.068   2.295  0.00  0.00     0.009 C 
ENDBRANCH   7   8
ENDBRANCH   1   7
TORSDOF 2
ENDMDL
