MODEL 1
REMARK minimizedAffinity -0.654573619
REMARK minimizedRMSD -1
REMARK  2 active torsions:
REMARK  status: ('A' for Active; 'I' for Inactive)
REMARK    1  A    between atoms: C1_2  and  C2_3 
REMARK    2  A    between atoms: C2_3  and  C3_4 
ROOT
ATOM      1  C3  UNL d   1      -4.340  -5.294   2.439  0.00  0.00    -0.075 A 
ATOM      2  C4  UNL d   1      -4.373  -6.000   1.227  0.00  0.00     0.002 A 
ATOM      3  C5  UNL d   1      -4.117  -5.348   0.020  0.00  0.00     0.002 A 
ATOM      4  C6  UNL d   1      -3.837  -3.983   0.008  0.00  0.00    -0.004 A 
ATOM      5  C7  UNL d   1      -3.818  -3.269   1.204  0.00  0.00     0.002 A 
ATOM      6  C8  UNL d   1      -4.069  -3.920   2.414  0.00  0.00     0.002 A 
ENDROOT
BRANCH   1   7
ATOM      7  C2  UNL d   1      -4.587  -6.000   3.751  0.00  0.00     0.056 C 
BRANCH   7   8
ATOM      8  C1  UNL d   1      -5.964  -5.720   4.360  0.00  0.00     0.007 C 
ATOM      9  C   UNL d   1      -6.000  -4.455   5.208  0.00  0.00     0.009 C 
ENDBRANCH   7   8
ENDBRANCH   1   7
TORSDOF 2
ENDMDL
