MODEL 1
REMARK minimizedAffinity -1.97374785
REMARK minimizedRMSD -1
REMARK  2 active torsions:
REMARK  status: ('A' for Active; 'I' for Inactive)
REMARK    1  A    between atoms: C1_2  and  C2_3 
REMARK    2  A    between atoms: C2_3  and  C3_4 
ROOT
ATOM      1  C3  UNL d   1      -5.369  -5.139   3.317  0.00  0.00    -0.075 A 
ATOM      2  C4  UNL d   1      -5.999  -5.844   4.353  0.00  0.00     0.002 A 
ATOM      3  C5  UNL d   1      -5.758  -5.510   5.686  0.00  0.00     0.002 A 
ATOM      4  C6  UNL d   1      -4.877  -4.477   6.000  0.00  0.00    -0.004 A 
ATOM      5  C7  UNL d   1      -4.233  -3.781   4.979  0.00  0.00     0.002 A 
ATOM      6  C8  UNL d   1      -4.476  -4.111   3.644  0.00  0.00     0.002 A 
ENDROOT
BRANCH   1   7
ATOM      7  C2  UNL d   1      -5.649  -5.477   1.872  0.00  0.00     0.056 C 
BRANCH   7   8
ATOM      8  C1  UNL d   1      -4.950  -4.553   0.869  0.00  0.00     0.007 C 
ATOM      9  C   UNL d   1      -4.859  -5.145  -0.531  0.00  0.00     0.009 C 
ENDBRANCH   7   8
ENDBRANCH   1   7
TORSDOF 2
ENDMDL
