MODEL 1
REMARK minimizedAffinity 17.1102924
REMARK minimizedRMSD -1
REMARK  2 active torsions:
REMARK  status: ('A' for Active; 'I' for Inactive)
REMARK    1  A    between atoms: C1_2  and  C2_3 
REMARK    2  A    between atoms: C2_3  and  C3_4 
ROOT
ATOM      1  C3  UNL d   1      -2.494   3.258  -2.187  0.00  0.00    -0.075 A 
ATOM      2  C4  UNL d   1      -2.280   4.638  -2.308  0.00  0.00     0.002 A 
ATOM      3  C5  UNL d   1      -3.280   5.545  -1.954  0.00  0.00     0.002 A 
ATOM      4  C6  UNL d   1      -4.507   5.084  -1.484  0.00  0.00    -0.004 A 
ATOM      5  C7  UNL d   1      -4.738   3.714  -1.375  0.00  0.00     0.002 A 
ATOM      6  C8  UNL d   1      -3.737   2.805  -1.725  0.00  0.00     0.002 A 
ENDROOT
BRANCH   1   7
ATOM      7  C2  UNL d   1      -1.406   2.273  -2.541  0.00  0.00     0.056 C 
BRANCH   7   8
ATOM      8  C1  UNL d   1      -0.008   2.695  -2.078  0.00  0.00     0.007 C 
ATOM      9  C   UNL d   1       0.303   2.278  -0.647  0.00  0.00     0.009 C 
ENDBRANCH   7   8
ENDBRANCH   1   7
TORSDOF 2
ENDMDL
