MODEL 1
REMARK minimizedAffinity 4.26399851
REMARK minimizedRMSD -1
REMARK  1 active torsions:
REMARK  status: ('A' for Active; 'I' for Inactive)
REMARK    1  A    between atoms: C1_2  and  C2_3 
ROOT
ATOM      1  C2  UNL d   1       1.809  -2.545  -3.852  0.00  0.00    -0.077 A 
ATOM      2  C3  UNL d   1       2.994  -1.851  -4.133  0.00  0.00     0.002 A 
ATOM      3  C4  UNL d   1       3.051  -0.955  -5.202  0.00  0.00     0.002 A 
ATOM      4  C5  UNL d   1       1.925  -0.742  -5.996  0.00  0.00    -0.004 A 
ATOM      5  C6  UNL d   1       0.743  -1.430  -5.725  0.00  0.00     0.002 A 
ATOM      6  C7  UNL d   1       0.685  -2.327  -4.658  0.00  0.00     0.002 A 
ENDROOT
BRANCH   1   7
ATOM      7  C1  UNL d   1       1.732  -3.475  -2.669  0.00  0.00     0.055 C 
ATOM      8  C   UNL d   1       0.405  -4.219  -2.635  0.00  0.00     0.019 C 
ENDBRANCH   1   7
TORSDOF 1
ENDMDL
