MODEL 1
REMARK minimizedAffinity -3.6269486
REMARK minimizedRMSD -1
REMARK  1 active torsions:
REMARK  status: ('A' for Active; 'I' for Inactive)
REMARK    1  A    between atoms: C1_2  and  C2_3 
ROOT
ATOM      1  C2  UNL d   1       0.945  -1.712  -2.398  0.00  0.00    -0.077 A 
ATOM      2  C3  UNL d   1       1.158  -0.814  -3.453  0.00  0.00     0.002 A 
ATOM      3  C4  UNL d   1       0.087  -0.109  -4.007  0.00  0.00     0.002 A 
ATOM      4  C5  UNL d   1      -1.201  -0.291  -3.510  0.00  0.00    -0.004 A 
ATOM      5  C6  UNL d   1      -1.424  -1.183  -2.462  0.00  0.00     0.002 A 
ATOM      6  C7  UNL d   1      -0.355  -1.890  -1.908  0.00  0.00     0.002 A 
ENDROOT
BRANCH   1   7
ATOM      7  C1  UNL d   1       2.105  -2.436  -1.766  0.00  0.00     0.055 C 
ATOM      8  C   UNL d   1       3.324  -1.533  -1.649  0.00  0.00     0.019 C 
ENDBRANCH   1   7
TORSDOF 1
ENDMDL
