MODEL 1
REMARK minimizedAffinity 2.64265108
REMARK minimizedRMSD -1
REMARK  1 active torsions:
REMARK  status: ('A' for Active; 'I' for Inactive)
REMARK    1  A    between atoms: C1_2  and  C2_3 
ROOT
ATOM      1  C2  UNL d   1       2.632  -0.880   4.158  0.00  0.00    -0.077 A 
ATOM      2  C3  UNL d   1       2.705  -0.201   2.933  0.00  0.00     0.002 A 
ATOM      3  C4  UNL d   1       1.865  -0.558   1.876  0.00  0.00     0.002 A 
ATOM      4  C5  UNL d   1       0.945  -1.592   2.034  0.00  0.00    -0.004 A 
ATOM      5  C6  UNL d   1       0.866  -2.275   3.248  0.00  0.00     0.002 A 
ATOM      6  C7  UNL d   1       1.705  -1.920   4.305  0.00  0.00     0.002 A 
ENDROOT
BRANCH   1   7
ATOM      7  C1  UNL d   1       3.502  -0.464   5.315  0.00  0.00     0.055 C 
ATOM      8  C   UNL d   1       4.494  -1.558   5.683  0.00  0.00     0.019 C 
ENDBRANCH   1   7
TORSDOF 1
ENDMDL
