MODEL 1
REMARK minimizedAffinity 5.98812485
REMARK minimizedRMSD -1
REMARK  1 active torsions:
REMARK  status: ('A' for Active; 'I' for Inactive)
REMARK    1  A    between atoms: C1_2  and  C2_3 
ROOT
ATOM      1  C2  UNL d   1       0.792   4.885  -0.727  0.00  0.00    -0.077 A 
ATOM      2  C3  UNL d   1       0.505   3.834  -1.608  0.00  0.00     0.002 A 
ATOM      3  C4  UNL d   1      -0.651   3.864  -2.391  0.00  0.00     0.002 A 
ATOM      4  C5  UNL d   1      -1.525   4.945  -2.304  0.00  0.00    -0.004 A 
ATOM      5  C6  UNL d   1      -1.249   5.995  -1.429  0.00  0.00     0.002 A 
ATOM      6  C7  UNL d   1      -0.096   5.966  -0.644  0.00  0.00     0.002 A 
ENDROOT
BRANCH   1   7
ATOM      7  C1  UNL d   1       2.063   4.877   0.083  0.00  0.00     0.055 C 
ATOM      8  C   UNL d   1       2.134   3.657   0.989  0.00  0.00     0.019 C 
ENDBRANCH   1   7
TORSDOF 1
ENDMDL
