MODEL 1
REMARK minimizedAffinity -3.20688677
REMARK minimizedRMSD -1
REMARK  1 active torsions:
REMARK  status: ('A' for Active; 'I' for Inactive)
REMARK    1  A    between atoms: C1_2  and  C2_3 
ROOT
ATOM      1  C2  UNL d   1       0.053  -3.215  -3.278  0.00  0.00    -0.077 A 
ATOM      2  C3  UNL d   1      -0.907  -2.686  -4.152  0.00  0.00     0.002 A 
ATOM      3  C4  UNL d   1      -0.935  -1.316  -4.424  0.00  0.00     0.002 A 
ATOM      4  C5  UNL d   1      -0.004  -0.467  -3.830  0.00  0.00    -0.004 A 
ATOM      5  C6  UNL d   1       0.953  -0.983  -2.958  0.00  0.00     0.002 A 
ATOM      6  C7  UNL d   1       0.982  -2.351  -2.684  0.00  0.00     0.002 A 
ENDROOT
BRANCH   1   7
ATOM      7  C1  UNL d   1       0.116  -4.698  -3.021  0.00  0.00     0.055 C 
ATOM      8  C   UNL d   1       1.484  -5.263  -3.374  0.00  0.00     0.019 C 
ENDBRANCH   1   7
TORSDOF 1
ENDMDL
