MODEL 1
REMARK minimizedAffinity 5.65706539
REMARK minimizedRMSD -1
REMARK  1 active torsions:
REMARK  status: ('A' for Active; 'I' for Inactive)
REMARK    1  A    between atoms: C1_2  and  C2_3 
ROOT
ATOM      1  C2  UNL d   1       1.225   0.346   2.274  0.00  0.00    -0.077 A 
ATOM      2  C3  UNL d   1       2.512   0.454   1.730  0.00  0.00     0.002 A 
ATOM      3  C4  UNL d   1       2.899   1.614   1.056  0.00  0.00     0.002 A 
ATOM      4  C5  UNL d   1       2.007   2.676   0.924  0.00  0.00    -0.004 A 
ATOM      5  C6  UNL d   1       0.724   2.577   1.461  0.00  0.00     0.002 A 
ATOM      6  C7  UNL d   1       0.335   1.418   2.133  0.00  0.00     0.002 A 
ENDROOT
BRANCH   1   7
ATOM      7  C1  UNL d   1       0.822  -0.885   3.044  0.00  0.00     0.055 C 
ATOM      8  C   UNL d   1       1.856  -1.237   4.104  0.00  0.00     0.019 C 
ENDBRANCH   1   7
TORSDOF 1
ENDMDL
