MODEL 1
REMARK minimizedAffinity 0.907434523
REMARK minimizedRMSD -1
REMARK  1 active torsions:
REMARK  status: ('A' for Active; 'I' for Inactive)
REMARK    1  A    between atoms: C1_2  and  C2_3 
ROOT
ATOM      1  C2  UNL d   1       1.299  -3.313  -2.200  0.00  0.00    -0.077 A 
ATOM      2  C3  UNL d   1      -0.073  -3.256  -1.920  0.00  0.00     0.002 A 
ATOM      3  C4  UNL d   1      -0.894  -4.354  -2.186  0.00  0.00     0.002 A 
ATOM      4  C5  UNL d   1      -0.352  -5.517  -2.728  0.00  0.00    -0.004 A 
ATOM      5  C6  UNL d   1       1.012  -5.583  -3.011  0.00  0.00     0.002 A 
ATOM      6  C7  UNL d   1       1.834  -4.487  -2.747  0.00  0.00     0.002 A 
ENDROOT
BRANCH   1   7
ATOM      7  C1  UNL d   1       2.195  -2.149  -1.868  0.00  0.00     0.055 C 
ATOM      8  C   UNL d   1       2.495  -2.088  -0.378  0.00  0.00     0.019 C 
ENDBRANCH   1   7
TORSDOF 1
ENDMDL
