MODEL 1
REMARK minimizedAffinity 3.92317915
REMARK minimizedRMSD -1
REMARK  1 active torsions:
REMARK  status: ('A' for Active; 'I' for Inactive)
REMARK    1  A    between atoms: C1_2  and  C2_3 
ROOT
ATOM      1  C2  UNL d   1       5.592   1.911   4.362  0.00  0.00    -0.073 A 
ATOM      2  C3  UNL d   1       4.856   1.657   3.199  0.00  0.00    -0.002 A 
ATOM      3  C4  UNL d   1       4.485   2.706   2.357  0.00  0.00     0.004 A 
ATOM      4  C5  UNL d   1       4.853   4.016   2.663  0.00  0.00    -0.004 A 
ATOM      5  C6  UNL d   1       5.599   4.289   3.814  0.00  0.00    -0.075 A 
ATOM      6  C7  UNL d   1       6.000   5.693   4.159  0.00  0.00     0.076 C 
ATOM      7  C8  UNL d   1       5.965   3.230   4.657  0.00  0.00     0.001 A 
ENDROOT
BRANCH   1   8
ATOM      8  C1  UNL d   1       6.000   0.781   5.272  0.00  0.00     0.053 C 
ATOM      9  C   UNL d   1       5.966  -0.563   4.562  0.00  0.00     0.018 C 
ENDBRANCH   1   8
TORSDOF 1
ENDMDL
