MODEL 1
REMARK minimizedAffinity 7.63840199
REMARK minimizedRMSD -1
REMARK  1 active torsions:
REMARK  status: ('A' for Active; 'I' for Inactive)
REMARK    1  A    between atoms: C1_2  and  C2_3 
ROOT
ATOM      1  C2  UNL d   1       5.303   1.246   4.280  0.00  0.00    -0.073 A 
ATOM      2  C3  UNL d   1       5.235  -0.036   3.721  0.00  0.00    -0.002 A 
ATOM      3  C4  UNL d   1       4.602  -0.237   2.494  0.00  0.00     0.004 A 
ATOM      4  C5  UNL d   1       4.039   0.839   1.810  0.00  0.00    -0.004 A 
ATOM      5  C6  UNL d   1       4.107   2.129   2.345  0.00  0.00    -0.075 A 
ATOM      6  C7  UNL d   1       3.504   3.298   1.623  0.00  0.00     0.076 C 
ATOM      7  C8  UNL d   1       4.742   2.323   3.580  0.00  0.00     0.001 A 
ENDROOT
BRANCH   1   8
ATOM      8  C1  UNL d   1       5.991   1.469   5.602  0.00  0.00     0.053 C 
ATOM      9  C   UNL d   1       6.000   2.937   5.999  0.00  0.00     0.018 C 
ENDBRANCH   1   8
TORSDOF 1
ENDMDL
