MODEL 1
REMARK minimizedAffinity -5.57483721
REMARK minimizedRMSD -1
REMARK  1 active torsions:
REMARK  status: ('A' for Active; 'I' for Inactive)
REMARK    1  A    between atoms: C1_2  and  C2_3 
ROOT
ATOM      1  C2  UNL d   1      -4.028   4.058   3.531  0.00  0.00    -0.073 A 
ATOM      2  C3  UNL d   1      -3.669   4.456   2.239  0.00  0.00    -0.002 A 
ATOM      3  C4  UNL d   1      -3.112   3.538   1.348  0.00  0.00     0.004 A 
ATOM      4  C5  UNL d   1      -2.915   2.213   1.737  0.00  0.00    -0.004 A 
ATOM      5  C6  UNL d   1      -3.279   1.793   3.021  0.00  0.00    -0.075 A 
ATOM      6  C7  UNL d   1      -3.072   0.372   3.456  0.00  0.00     0.076 C 
ATOM      7  C8  UNL d   1      -3.835   2.722   3.910  0.00  0.00     0.001 A 
ENDROOT
BRANCH   1   8
ATOM      8  C1  UNL d   1      -4.636   5.045   4.495  0.00  0.00     0.053 C 
ATOM      9  C   UNL d   1      -4.461   4.611   5.941  0.00  0.00     0.018 C 
ENDBRANCH   1   8
TORSDOF 1
ENDMDL
