MODEL 1
REMARK minimizedAffinity 8.02653503
REMARK minimizedRMSD -1
REMARK  1 active torsions:
REMARK  status: ('A' for Active; 'I' for Inactive)
REMARK    1  A    between atoms: C1_2  and  C2_3 
ROOT
ATOM      1  C2  UNL d   1       4.853   1.676   3.565  0.00  0.00    -0.073 A 
ATOM      2  C3  UNL d   1       5.558   2.145   4.679  0.00  0.00    -0.002 A 
ATOM      3  C4  UNL d   1       5.998   1.256   5.660  0.00  0.00     0.004 A 
ATOM      4  C5  UNL d   1       5.744  -0.110   5.535  0.00  0.00    -0.004 A 
ATOM      5  C6  UNL d   1       5.051  -0.599   4.423  0.00  0.00    -0.075 A 
ATOM      6  C7  UNL d   1       4.767  -2.065   4.275  0.00  0.00     0.076 C 
ATOM      7  C8  UNL d   1       4.610   0.300   3.443  0.00  0.00     0.001 A 
ENDROOT
BRANCH   1   8
ATOM      8  C1  UNL d   1       4.382   2.632   2.499  0.00  0.00     0.053 C 
ATOM      9  C   UNL d   1       4.725   4.074   2.836  0.00  0.00     0.018 C 
ENDBRANCH   1   8
TORSDOF 1
ENDMDL
