MODEL 1
REMARK minimizedAffinity 3.70890403
REMARK minimizedRMSD -1
REMARK  1 active torsions:
REMARK  status: ('A' for Active; 'I' for Inactive)
REMARK    1  A    between atoms: C1_2  and  C2_3 
ROOT
ATOM      1  C2  UNL d   1      -3.432  -0.443   1.108  0.00  0.00    -0.073 A 
ATOM      2  C3  UNL d   1      -4.503  -1.300   1.383  0.00  0.00    -0.002 A 
ATOM      3  C4  UNL d   1      -4.755  -1.716   2.691  0.00  0.00     0.004 A 
ATOM      4  C5  UNL d   1      -3.943  -1.275   3.737  0.00  0.00    -0.004 A 
ATOM      5  C6  UNL d   1      -2.875  -0.409   3.483  0.00  0.00    -0.075 A 
ATOM      6  C7  UNL d   1      -1.991   0.073   4.596  0.00  0.00     0.076 C 
ATOM      7  C8  UNL d   1      -2.627   0.002   2.166  0.00  0.00     0.001 A 
ENDROOT
BRANCH   1   8
ATOM      8  C1  UNL d   1      -3.160   0.014  -0.302  0.00  0.00     0.053 C 
ATOM      9  C   UNL d   1      -2.528   1.396  -0.342  0.00  0.00     0.018 C 
ENDBRANCH   1   8
TORSDOF 1
ENDMDL
