MODEL 1
REMARK minimizedAffinity 5.22224236
REMARK minimizedRMSD -1
REMARK  1 active torsions:
REMARK  status: ('A' for Active; 'I' for Inactive)
REMARK    1  A    between atoms: C1_2  and  C2_3 
ROOT
ATOM      1  C2  UNL d   1       5.340   3.386   3.350  0.00  0.00    -0.073 A 
ATOM      2  C3  UNL d   1       4.657   2.638   2.384  0.00  0.00    -0.002 A 
ATOM      3  C4  UNL d   1       4.418   1.278   2.584  0.00  0.00     0.004 A 
ATOM      4  C5  UNL d   1       4.851   0.654   3.754  0.00  0.00    -0.004 A 
ATOM      5  C6  UNL d   1       5.524   1.387   4.737  0.00  0.00    -0.075 A 
ATOM      6  C7  UNL d   1       5.999   0.730   6.000  0.00  0.00     0.076 C 
ATOM      7  C8  UNL d   1       5.763   2.752   4.527  0.00  0.00     0.001 A 
ENDROOT
BRANCH   1   8
ATOM      8  C1  UNL d   1       5.595   4.856   3.141  0.00  0.00     0.053 C 
ATOM      9  C   UNL d   1       5.530   5.637   4.444  0.00  0.00     0.018 C 
ENDBRANCH   1   8
TORSDOF 1
ENDMDL
