MODEL 1
REMARK minimizedAffinity 2.41640759
REMARK minimizedRMSD -1
REMARK  1 active torsions:
REMARK  status: ('A' for Active; 'I' for Inactive)
REMARK    1  A    between atoms: C1_2  and  C2_3 
ROOT
ATOM      1  C2  UNL d   1      -2.914   1.159   1.833  0.00  0.00    -0.073 A 
ATOM      2  C3  UNL d   1      -3.087   0.306   0.737  0.00  0.00    -0.002 A 
ATOM      3  C4  UNL d   1      -3.242   0.831  -0.546  0.00  0.00     0.004 A 
ATOM      4  C5  UNL d   1      -3.219   2.211  -0.748  0.00  0.00    -0.004 A 
ATOM      5  C6  UNL d   1      -3.036   3.079   0.333  0.00  0.00    -0.075 A 
ATOM      6  C7  UNL d   1      -3.011   4.566   0.134  0.00  0.00     0.076 C 
ATOM      7  C8  UNL d   1      -2.884   2.544   1.620  0.00  0.00     0.001 A 
ENDROOT
BRANCH   1   8
ATOM      8  C1  UNL d   1      -2.740   0.596   3.221  0.00  0.00     0.053 C 
ATOM      9  C   UNL d   1      -3.893  -0.312   3.617  0.00  0.00     0.018 C 
ENDBRANCH   1   8
TORSDOF 1
ENDMDL
