MODEL 1
REMARK minimizedAffinity -2.25604272
REMARK minimizedRMSD -1
REMARK  0 active torsions:
REMARK  status: ('A' for Active; 'I' for Inactive)
ROOT
ATOM      1  C   UNL d   1      -1.069  -2.194   0.971  0.00  0.00     0.172 C 
ATOM      2  N   UNL d   1      -0.671  -0.836   0.684  0.00  0.00    -0.070 N 
ATOM      3  C1  UNL d   1       0.374  -0.463  -0.118  0.00  0.00    -0.004 A 
ATOM      4  C2  UNL d   1       0.422   0.915  -0.136  0.00  0.00    -0.047 A 
ATOM      5  C3  UNL d   1      -0.630   1.386   0.684  0.00  0.00    -0.047 A 
ATOM      6  C4  UNL d   1      -1.291   0.281   1.179  0.00  0.00    -0.004 A 
ENDROOT
TORSDOF 0
ENDMDL
