MODEL 1
REMARK minimizedAffinity -0.900919616
REMARK minimizedRMSD -1
REMARK  0 active torsions:
REMARK  status: ('A' for Active; 'I' for Inactive)
ROOT
ATOM      1  C   UNL d   1       6.000  -4.583   5.974  0.00  0.00     0.172 C 
ATOM      2  N   UNL d   1       5.991  -3.283   5.345  0.00  0.00    -0.070 N 
ATOM      3  C1  UNL d   1       5.974  -2.080   6.000  0.00  0.00    -0.004 A 
ATOM      4  C2  UNL d   1       5.972  -1.082   5.049  0.00  0.00    -0.047 A 
ATOM      5  C3  UNL d   1       5.988  -1.707   3.779  0.00  0.00    -0.047 A 
ATOM      6  C4  UNL d   1       6.000  -3.069   3.992  0.00  0.00    -0.004 A 
ENDROOT
TORSDOF 0
ENDMDL
