MODEL 1
REMARK minimizedAffinity -2.5713017
REMARK minimizedRMSD -1
REMARK  0 active torsions:
REMARK  status: ('A' for Active; 'I' for Inactive)
ROOT
ATOM      1  C   UNL d   1       0.218   1.165  -0.070  0.00  0.00     0.172 C 
ATOM      2  N   UNL d   1       1.209   2.056   0.487  0.00  0.00    -0.070 N 
ATOM      3  C1  UNL d   1       1.137   3.423   0.498  0.00  0.00    -0.004 A 
ATOM      4  C2  UNL d   1       2.273   3.900   1.117  0.00  0.00    -0.047 A 
ATOM      5  C3  UNL d   1       3.054   2.781   1.489  0.00  0.00    -0.047 A 
ATOM      6  C4  UNL d   1       2.372   1.652   1.088  0.00  0.00    -0.004 A 
ENDROOT
TORSDOF 0
ENDMDL
