MODEL 1
REMARK minimizedAffinity 0.433044195
REMARK minimizedRMSD -1
REMARK  0 active torsions:
REMARK  status: ('A' for Active; 'I' for Inactive)
ROOT
ATOM      1  C   UNL d   1      -1.459   1.529  -0.561  0.00  0.00     0.172 C 
ATOM      2  N   UNL d   1      -0.731   0.294  -0.736  0.00  0.00    -0.070 N 
ATOM      3  C1  UNL d   1      -1.058  -0.911  -0.176  0.00  0.00    -0.004 A 
ATOM      4  C2  UNL d   1      -0.121  -1.835  -0.584  0.00  0.00    -0.047 A 
ATOM      5  C3  UNL d   1       0.802  -1.161  -1.419  0.00  0.00    -0.047 A 
ATOM      6  C4  UNL d   1       0.401   0.156  -1.495  0.00  0.00    -0.004 A 
ENDROOT
TORSDOF 0
ENDMDL
