MODEL 1
REMARK minimizedAffinity -3.33138323
REMARK minimizedRMSD -1
REMARK  0 active torsions:
REMARK  status: ('A' for Active; 'I' for Inactive)
ROOT
ATOM      1  C   UNL d   1      -0.062  -0.802  -0.779  0.00  0.00     0.172 C 
ATOM      2  N   UNL d   1      -0.384  -2.210  -0.759  0.00  0.00    -0.070 N 
ATOM      3  C1  UNL d   1      -1.144  -2.868  -1.688  0.00  0.00    -0.004 A 
ATOM      4  C2  UNL d   1      -1.217  -4.192  -1.313  0.00  0.00    -0.047 A 
ATOM      5  C3  UNL d   1      -0.475  -4.334  -0.117  0.00  0.00    -0.047 A 
ATOM      6  C4  UNL d   1       0.029  -3.092   0.204  0.00  0.00    -0.004 A 
ENDROOT
TORSDOF 0
ENDMDL
