MODEL 1
REMARK minimizedAffinity 3.14028215
REMARK minimizedRMSD -1
REMARK  0 active torsions:
REMARK  status: ('A' for Active; 'I' for Inactive)
ROOT
ATOM      1  C   UNL d   1       2.381  -3.593   6.000  0.00  0.00     0.172 C 
ATOM      2  N   UNL d   1       3.798  -3.330   5.916  0.00  0.00    -0.070 N 
ATOM      3  C1  UNL d   1       4.375  -2.093   5.799  0.00  0.00    -0.004 A 
ATOM      4  C2  UNL d   1       5.741  -2.267   5.750  0.00  0.00    -0.047 A 
ATOM      5  C3  UNL d   1       5.994  -3.657   5.840  0.00  0.00    -0.047 A 
ATOM      6  C4  UNL d   1       4.774  -4.291   5.942  0.00  0.00    -0.004 A 
ENDROOT
TORSDOF 0
ENDMDL
