MODEL 1
REMARK minimizedAffinity -2.36839747
REMARK minimizedRMSD -1
REMARK  0 active torsions:
REMARK  status: ('A' for Active; 'I' for Inactive)
ROOT
ATOM      1  C   UNL d   1       0.392   1.253   0.228  0.00  0.00     0.172 C 
ATOM      2  N   UNL d   1      -0.109  -0.100   0.293  0.00  0.00    -0.070 N 
ATOM      3  C1  UNL d   1      -0.004  -1.039  -0.698  0.00  0.00    -0.004 A 
ATOM      4  C2  UNL d   1      -0.603  -2.196  -0.249  0.00  0.00    -0.047 A 
ATOM      5  C3  UNL d   1      -1.086  -1.943   1.057  0.00  0.00    -0.047 A 
ATOM      6  C4  UNL d   1      -0.767  -0.638   1.368  0.00  0.00    -0.004 A 
ENDROOT
TORSDOF 0
ENDMDL
