MODEL 1
REMARK minimizedAffinity -2.91551638
REMARK minimizedRMSD -1
REMARK  0 active torsions:
REMARK  status: ('A' for Active; 'I' for Inactive)
ROOT
ATOM      1  C   UNL d   1       0.542   1.212   0.374  0.00  0.00     0.172 C 
ATOM      2  N   UNL d   1      -0.188   0.037   0.788  0.00  0.00    -0.070 N 
ATOM      3  C1  UNL d   1      -0.304  -0.419   2.075  0.00  0.00    -0.004 A 
ATOM      4  C2  UNL d   1      -1.077  -1.560   2.050  0.00  0.00    -0.047 A 
ATOM      5  C3  UNL d   1      -1.436  -1.799   0.703  0.00  0.00    -0.047 A 
ATOM      6  C4  UNL d   1      -0.873  -0.796  -0.057  0.00  0.00    -0.004 A 
ENDROOT
TORSDOF 0
ENDMDL
