MODEL 1
REMARK minimizedAffinity -2.69307542
REMARK minimizedRMSD -1
REMARK  0 active torsions:
REMARK  status: ('A' for Active; 'I' for Inactive)
ROOT
ATOM      1  C   UNL d   1       0.895   1.576   0.165  0.00  0.00     0.172 C 
ATOM      2  N   UNL d   1       0.253   0.293   0.332  0.00  0.00    -0.070 N 
ATOM      3  C1  UNL d   1       0.369  -0.521   1.427  0.00  0.00    -0.004 A 
ATOM      4  C2  UNL d   1      -0.393  -1.647   1.199  0.00  0.00    -0.047 A 
ATOM      5  C3  UNL d   1      -0.986  -1.504  -0.078  0.00  0.00    -0.047 A 
ATOM      6  C4  UNL d   1      -0.569  -0.295  -0.592  0.00  0.00    -0.004 A 
ENDROOT
TORSDOF 0
ENDMDL
