MODEL 1
REMARK minimizedAffinity -2.43705297
REMARK minimizedRMSD -1
REMARK  0 active torsions:
REMARK  status: ('A' for Active; 'I' for Inactive)
ROOT
ATOM      1  C   UNL d   1      -0.237   1.337  -0.047  0.00  0.00     0.172 C 
ATOM      2  N   UNL d   1      -0.561  -0.031   0.286  0.00  0.00    -0.070 N 
ATOM      3  C1  UNL d   1      -0.217  -1.134  -0.449  0.00  0.00    -0.004 A 
ATOM      4  C2  UNL d   1      -0.709  -2.245   0.202  0.00  0.00    -0.047 A 
ATOM      5  C3  UNL d   1      -1.373  -1.793   1.367  0.00  0.00    -0.047 A 
ATOM      6  C4  UNL d   1      -1.266  -0.419   1.394  0.00  0.00    -0.004 A 
ENDROOT
TORSDOF 0
ENDMDL
