MODEL 1
REMARK minimizedAffinity -2.30503345
REMARK minimizedRMSD -1
REMARK  0 active torsions:
REMARK  status: ('A' for Active; 'I' for Inactive)
ROOT
ATOM      1  C   UNL d   1       0.176   0.928   0.426  0.00  0.00     0.172 C 
ATOM      2  N   UNL d   1       1.019   2.032   0.822  0.00  0.00    -0.070 N 
ATOM      3  C1  UNL d   1       1.334   2.374   2.110  0.00  0.00    -0.004 A 
ATOM      4  C2  UNL d   1       2.157   3.479   2.064  0.00  0.00    -0.047 A 
ATOM      5  C3  UNL d   1       2.342   3.812   0.701  0.00  0.00    -0.047 A 
ATOM      6  C4  UNL d   1       1.627   2.900  -0.046  0.00  0.00    -0.004 A 
ENDROOT
TORSDOF 0
ENDMDL
