MODEL 1
REMARK minimizedAffinity -4.58899546
REMARK minimizedRMSD -1
REMARK  0 active torsions:
REMARK  status: ('A' for Active; 'I' for Inactive)
ROOT
ATOM      1  C   UNL d   1       0.911  -0.469   0.622  0.00  0.00     0.172 C 
ATOM      2  N   UNL d   1       0.476  -1.559  -0.219  0.00  0.00    -0.070 N 
ATOM      3  C1  UNL d   1       0.147  -2.816   0.210  0.00  0.00    -0.004 A 
ATOM      4  C2  UNL d   1      -0.215  -3.558  -0.894  0.00  0.00    -0.047 A 
ATOM      5  C3  UNL d   1      -0.099  -2.717  -2.026  0.00  0.00    -0.047 A 
ATOM      6  C4  UNL d   1       0.331  -1.485  -1.580  0.00  0.00    -0.004 A 
ENDROOT
TORSDOF 0
ENDMDL
