MODEL 1
REMARK minimizedAffinity -3.82076001
REMARK minimizedRMSD -1
REMARK  0 active torsions:
REMARK  status: ('A' for Active; 'I' for Inactive)
ROOT
ATOM      1  C   UNL d   1       0.013  -0.196  -0.004  0.00  0.00     0.172 C 
ATOM      2  N   UNL d   1       0.048  -1.586  -0.394  0.00  0.00    -0.070 N 
ATOM      3  C1  UNL d   1       0.110  -2.054  -1.679  0.00  0.00    -0.004 A 
ATOM      4  C2  UNL d   1       0.126  -3.431  -1.628  0.00  0.00    -0.047 A 
ATOM      5  C3  UNL d   1       0.070  -3.804  -0.264  0.00  0.00    -0.047 A 
ATOM      6  C4  UNL d   1       0.023  -2.643   0.478  0.00  0.00    -0.004 A 
ENDROOT
TORSDOF 0
ENDMDL
