MODEL 1
REMARK minimizedAffinity -5.31717253
REMARK minimizedRMSD -1
REMARK  1 active torsions:
REMARK  status: ('A' for Active; 'I' for Inactive)
REMARK    1  A    between atoms: N_2  and  C1_3 
ROOT
ATOM      1  C1  UNL d   1       0.280  -0.287  -0.326  0.00  0.00     0.143 A 
ATOM      2  C2  UNL d   1       0.445  -1.601  -0.779  0.00  0.00    -0.057 A 
ATOM      3  C3  UNL d   1       1.702  -2.087  -1.156  0.00  0.00     0.033 A 
ATOM      4  C4  UNL d   1       2.817  -1.255  -1.115  0.00  0.00    -0.042 A 
ATOM      5  C5  UNL d   1       2.673   0.061  -0.692  0.00  0.00     0.033 A 
ATOM      6  C6  UNL d   1       1.415   0.539  -0.310  0.00  0.00    -0.057 A 
ENDROOT
BRANCH   1   7
ATOM      7  N   UNL d   1      -0.960   0.284  -0.030  0.00  0.00    -0.732 N 
ATOM      8  C   UNL d   1      -1.430   1.443  -0.759  0.00  0.00     0.284 C 
ATOM      9  H3  UNL d   1      -1.677  -0.415   0.147  0.00  0.00     0.395 HD
ENDBRANCH   1   7
TORSDOF 1
ENDMDL
