MODEL 1
REMARK minimizedAffinity -4.22966433
REMARK minimizedRMSD -1
REMARK  1 active torsions:
REMARK  status: ('A' for Active; 'I' for Inactive)
REMARK    1  A    between atoms: N_2  and  C1_3 
ROOT
ATOM      1  C1  UNL d   1      -2.250  -0.233   1.090  0.00  0.00     0.143 A 
ATOM      2  C2  UNL d   1      -3.483  -0.750   1.500  0.00  0.00    -0.057 A 
ATOM      3  C3  UNL d   1      -3.919  -0.623   2.824  0.00  0.00     0.033 A 
ATOM      4  C4  UNL d   1      -3.114  -0.000   3.772  0.00  0.00    -0.042 A 
ATOM      5  C5  UNL d   1      -1.873   0.499   3.392  0.00  0.00     0.033 A 
ATOM      6  C6  UNL d   1      -1.446   0.375   2.066  0.00  0.00    -0.057 A 
ENDROOT
BRANCH   1   7
ATOM      7  N   UNL d   1      -1.717  -0.414  -0.189  0.00  0.00    -0.732 N 
ATOM      8  C   UNL d   1      -0.473  -1.130  -0.375  0.00  0.00     0.284 C 
ATOM      9  H3  UNL d   1      -2.431  -0.635  -0.880  0.00  0.00     0.395 HD
ENDBRANCH   1   7
TORSDOF 1
ENDMDL
