MODEL 1
REMARK minimizedAffinity -3.3101182
REMARK minimizedRMSD -1
REMARK  1 active torsions:
REMARK  status: ('A' for Active; 'I' for Inactive)
REMARK    1  A    between atoms: N_2  and  C1_3 
ROOT
ATOM      1  C1  UNL d   1       1.250  -1.251  -0.923  0.00  0.00     0.143 A 
ATOM      2  C2  UNL d   1       1.710   0.070  -0.932  0.00  0.00    -0.057 A 
ATOM      3  C3  UNL d   1       0.966   1.101  -0.347  0.00  0.00     0.033 A 
ATOM      4  C4  UNL d   1      -0.269   0.833   0.235  0.00  0.00    -0.042 A 
ATOM      5  C5  UNL d   1      -0.757  -0.469   0.233  0.00  0.00     0.033 A 
ATOM      6  C6  UNL d   1      -0.006  -1.496  -0.347  0.00  0.00    -0.057 A 
ENDROOT
BRANCH   1   7
ATOM      7  N   UNL d   1       1.897  -2.304  -1.575  0.00  0.00    -0.732 N 
ATOM      8  C   UNL d   1       1.443  -2.759  -2.871  0.00  0.00     0.284 C 
ATOM      9  H3  UNL d   1       2.909  -2.255  -1.483  0.00  0.00     0.395 HD
ENDBRANCH   1   7
TORSDOF 1
ENDMDL
