MODEL 1
REMARK minimizedAffinity -2.91766
REMARK minimizedRMSD -1
REMARK  1 active torsions:
REMARK  status: ('A' for Active; 'I' for Inactive)
REMARK    1  A    between atoms: N_2  and  C1_3 
ROOT
ATOM      1  C1  UNL d   1       0.542   0.337  -0.456  0.00  0.00     0.143 A 
ATOM      2  C2  UNL d   1      -0.216  -0.838  -0.413  0.00  0.00    -0.057 A 
ATOM      3  C3  UNL d   1       0.348  -2.078  -0.735  0.00  0.00     0.033 A 
ATOM      4  C4  UNL d   1       1.678  -2.162  -1.134  0.00  0.00    -0.042 A 
ATOM      5  C5  UNL d   1       2.443  -1.004  -1.208  0.00  0.00     0.033 A 
ATOM      6  C6  UNL d   1       1.876   0.231  -0.880  0.00  0.00    -0.057 A 
ENDROOT
BRANCH   1   7
ATOM      7  N   UNL d   1       0.013   1.612  -0.244  0.00  0.00    -0.732 N 
ATOM      8  C   UNL d   1      -0.370   2.448  -1.362  0.00  0.00     0.284 C 
ATOM      9  H3  UNL d   1      -0.640   1.637   0.536  0.00  0.00     0.395 HD
ENDBRANCH   1   7
TORSDOF 1
ENDMDL
