MODEL 1
REMARK minimizedAffinity -4.16486692
REMARK minimizedRMSD -1
REMARK  1 active torsions:
REMARK  status: ('A' for Active; 'I' for Inactive)
REMARK    1  A    between atoms: N_2  and  C1_3 
ROOT
ATOM      1  C1  UNL d   1       0.536  -1.243  -0.621  0.00  0.00     0.143 A 
ATOM      2  C2  UNL d   1       0.812  -0.065   0.080  0.00  0.00    -0.057 A 
ATOM      3  C3  UNL d   1       1.952   0.698  -0.202  0.00  0.00     0.033 A 
ATOM      4  C4  UNL d   1       2.854   0.277  -1.174  0.00  0.00    -0.042 A 
ATOM      5  C5  UNL d   1       2.613  -0.904  -1.866  0.00  0.00     0.033 A 
ATOM      6  C6  UNL d   1       1.469  -1.658  -1.584  0.00  0.00    -0.057 A 
ENDROOT
BRANCH   1   7
ATOM      7  N   UNL d   1      -0.529  -2.096  -0.320  0.00  0.00    -0.732 N 
ATOM      8  C   UNL d   1      -0.286  -3.468   0.073  0.00  0.00     0.284 C 
ATOM      9  H3  UNL d   1      -1.258  -1.633   0.217  0.00  0.00     0.395 HD
ENDBRANCH   1   7
TORSDOF 1
ENDMDL
