MODEL 1
REMARK minimizedAffinity -4.20121431
REMARK minimizedRMSD -1
REMARK  1 active torsions:
REMARK  status: ('A' for Active; 'I' for Inactive)
REMARK    1  A    between atoms: N_2  and  C1_3 
ROOT
ATOM      1  C1  UNL d   1      -0.228  -0.220   0.021  0.00  0.00     0.143 A 
ATOM      2  C2  UNL d   1       0.094  -1.563  -0.208  0.00  0.00    -0.057 A 
ATOM      3  C3  UNL d   1       1.291  -1.925  -0.838  0.00  0.00     0.033 A 
ATOM      4  C4  UNL d   1       2.176  -0.947  -1.277  0.00  0.00    -0.042 A 
ATOM      5  C5  UNL d   1       1.866   0.394  -1.083  0.00  0.00     0.033 A 
ATOM      6  C6  UNL d   1       0.672   0.750  -0.447  0.00  0.00    -0.057 A 
ENDROOT
BRANCH   1   7
ATOM      7  N   UNL d   1      -1.447   0.207   0.553  0.00  0.00    -0.732 N 
ATOM      8  C   UNL d   1      -1.541   0.627   1.935  0.00  0.00     0.284 C 
ATOM      9  H3  UNL d   1      -1.970   0.791  -0.095  0.00  0.00     0.395 HD
ENDBRANCH   1   7
TORSDOF 1
ENDMDL
