MODEL 1
REMARK minimizedAffinity -4.21533966
REMARK minimizedRMSD -1
REMARK  1 active torsions:
REMARK  status: ('A' for Active; 'I' for Inactive)
REMARK    1  A    between atoms: N_2  and  C1_3 
ROOT
ATOM      1  C1  UNL d   1      -0.384  -0.057   0.411  0.00  0.00     0.143 A 
ATOM      2  C2  UNL d   1       0.768   0.703   0.180  0.00  0.00    -0.057 A 
ATOM      3  C3  UNL d   1       1.854   0.177  -0.530  0.00  0.00     0.033 A 
ATOM      4  C4  UNL d   1       1.818  -1.132  -0.999  0.00  0.00    -0.042 A 
ATOM      5  C5  UNL d   1       0.694  -1.914  -0.759  0.00  0.00     0.033 A 
ATOM      6  C6  UNL d   1      -0.390  -1.381  -0.055  0.00  0.00    -0.057 A 
ENDROOT
BRANCH   1   7
ATOM      7  N   UNL d   1      -1.456   0.375   1.195  0.00  0.00    -0.732 N 
ATOM      8  C   UNL d   1      -1.225   1.016   2.472  0.00  0.00     0.284 C 
ATOM      9  H3  UNL d   1      -2.194   0.805   0.642  0.00  0.00     0.395 HD
ENDBRANCH   1   7
TORSDOF 1
ENDMDL
