MODEL 1
REMARK minimizedAffinity -3.49522257
REMARK minimizedRMSD -1
REMARK  1 active torsions:
REMARK  status: ('A' for Active; 'I' for Inactive)
REMARK    1  A    between atoms: N_2  and  C1_3 
ROOT
ATOM      1  C1  UNL d   1       0.793   0.131  -1.233  0.00  0.00     0.143 A 
ATOM      2  C2  UNL d   1       0.274  -0.574  -0.142  0.00  0.00    -0.057 A 
ATOM      3  C3  UNL d   1       0.737  -1.855   0.182  0.00  0.00     0.033 A 
ATOM      4  C4  UNL d   1       1.711  -2.467  -0.600  0.00  0.00    -0.042 A 
ATOM      5  C5  UNL d   1       2.224  -1.795  -1.704  0.00  0.00     0.033 A 
ATOM      6  C6  UNL d   1       1.761  -0.514  -2.018  0.00  0.00    -0.057 A 
ENDROOT
BRANCH   1   7
ATOM      7  N   UNL d   1       0.304   1.366  -1.664  0.00  0.00    -0.732 N 
ATOM      8  C   UNL d   1      -1.109   1.670  -1.581  0.00  0.00     0.284 C 
ATOM      9  H3  UNL d   1       0.911   2.138  -1.400  0.00  0.00     0.395 HD
ENDBRANCH   1   7
TORSDOF 1
ENDMDL
