MODEL 1
REMARK minimizedAffinity -4.34670544
REMARK minimizedRMSD -1
REMARK  1 active torsions:
REMARK  status: ('A' for Active; 'I' for Inactive)
REMARK    1  A    between atoms: N_2  and  C1_3 
ROOT
ATOM      1  C1  UNL d   1      -1.075  -0.320  -0.591  0.00  0.00     0.143 A 
ATOM      2  C2  UNL d   1       0.310  -0.432  -0.432  0.00  0.00    -0.057 A 
ATOM      3  C3  UNL d   1       1.164   0.637  -0.731  0.00  0.00     0.033 A 
ATOM      4  C4  UNL d   1       0.647   1.830  -1.224  0.00  0.00    -0.042 A 
ATOM      5  C5  UNL d   1      -0.724   1.956  -1.414  0.00  0.00     0.033 A 
ATOM      6  C6  UNL d   1      -1.572   0.887  -1.107  0.00  0.00    -0.057 A 
ENDROOT
BRANCH   1   7
ATOM      7  N   UNL d   1      -1.968  -1.379  -0.405  0.00  0.00    -0.732 N 
ATOM      8  C   UNL d   1      -1.618  -2.720  -0.822  0.00  0.00     0.284 C 
ATOM      9  H3  UNL d   1      -2.442  -1.333   0.495  0.00  0.00     0.395 HD
ENDBRANCH   1   7
TORSDOF 1
ENDMDL
