MODEL 1
REMARK minimizedAffinity -4.40085554
REMARK minimizedRMSD -1
REMARK  1 active torsions:
REMARK  status: ('A' for Active; 'I' for Inactive)
REMARK    1  A    between atoms: N_2  and  C1_3 
ROOT
ATOM      1  C1  UNL d   1      -0.034  -0.263  -0.351  0.00  0.00     0.143 A 
ATOM      2  C2  UNL d   1       0.183  -1.597  -0.711  0.00  0.00    -0.057 A 
ATOM      3  C3  UNL d   1       1.467  -2.071  -1.002  0.00  0.00     0.033 A 
ATOM      4  C4  UNL d   1       2.558  -1.209  -0.965  0.00  0.00    -0.042 A 
ATOM      5  C5  UNL d   1       2.363   0.127  -0.634  0.00  0.00     0.033 A 
ATOM      6  C6  UNL d   1       1.078   0.593  -0.339  0.00  0.00    -0.057 A 
ENDROOT
BRANCH   1   7
ATOM      7  N   UNL d   1      -1.300   0.292  -0.147  0.00  0.00    -0.732 N 
ATOM      8  C   UNL d   1      -1.809   1.315  -1.036  0.00  0.00     0.284 C 
ATOM      9  H3  UNL d   1      -1.990  -0.405   0.124  0.00  0.00     0.395 HD
ENDBRANCH   1   7
TORSDOF 1
ENDMDL
