MODEL 1
REMARK minimizedAffinity -4.58324099
REMARK minimizedRMSD -1
REMARK  1 active torsions:
REMARK  status: ('A' for Active; 'I' for Inactive)
REMARK    1  A    between atoms: N_2  and  C1_3 
ROOT
ATOM      1  C1  UNL d   1      -0.294  -0.246  -0.507  0.00  0.00     0.143 A 
ATOM      2  C2  UNL d   1       0.779   0.572  -0.879  0.00  0.00    -0.057 A 
ATOM      3  C3  UNL d   1       2.033   0.030  -1.184  0.00  0.00     0.033 A 
ATOM      4  C4  UNL d   1       2.246  -1.342  -1.093  0.00  0.00    -0.042 A 
ATOM      5  C5  UNL d   1       1.201  -2.171  -0.702  0.00  0.00     0.033 A 
ATOM      6  C6  UNL d   1      -0.051  -1.625  -0.405  0.00  0.00    -0.057 A 
ENDROOT
BRANCH   1   7
ATOM      7  N   UNL d   1      -1.537   0.241  -0.097  0.00  0.00    -0.732 N 
ATOM      8  C   UNL d   1      -2.095  -0.144   1.181  0.00  0.00     0.284 C 
ATOM      9  H3  UNL d   1      -1.664   1.224  -0.327  0.00  0.00     0.395 HD
ENDBRANCH   1   7
TORSDOF 1
ENDMDL
