MODEL 1
REMARK minimizedAffinity -6.52886534
REMARK minimizedRMSD -1
REMARK  3 active torsions:
REMARK  status: ('A' for Active; 'I' for Inactive)
REMARK    1  A    between atoms: C3'_2  and  C2'_3 
REMARK    2  A    between atoms: C2'_3  and  C1'_4 
REMARK    3  A    between atoms: C1'_4  and  C1_5 
ROOT
ATOM      1  C1  N4B d   1      -1.153  -0.311  -0.579  0.00  0.00    -0.075 A 
ATOM      2  C2  N4B d   1      -2.094   0.320  -1.420  0.00  0.00     0.002 A 
ATOM      3  C3  N4B d   1      -2.637  -0.366  -2.479  0.00  0.00     0.002 A 
ATOM      4  C4  N4B d   1      -2.241  -1.672  -2.726  0.00  0.00    -0.004 A 
ATOM      5  C5  N4B d   1      -1.350  -2.283  -1.893  0.00  0.00     0.002 A 
ATOM      6  C6  N4B d   1      -0.799  -1.607  -0.823  0.00  0.00     0.002 A 
ENDROOT
BRANCH   1   7
ATOM      7  C1' N4B d   1      -0.468   0.426   0.540  0.00  0.00     0.057 C 
BRANCH   7   8
ATOM      8  C2' N4B d   1       0.421   1.516  -0.049  0.00  0.00     0.009 C 
BRANCH   8   9
ATOM      9  C3' N4B d   1       1.508   1.948   0.920  0.00  0.00     0.004 C 
ATOM     10  C4' N4B d   1       2.882   1.555   0.465  0.00  0.00     0.003 C 
ENDBRANCH   8   9
ENDBRANCH   7   8
ENDBRANCH   1   7
TORSDOF 3
ENDMDL
