MODEL 1
REMARK minimizedAffinity -5.06496525
REMARK minimizedRMSD -1
REMARK  3 active torsions:
REMARK  status: ('A' for Active; 'I' for Inactive)
REMARK    1  A    between atoms: C3'_2  and  C2'_3 
REMARK    2  A    between atoms: C2'_3  and  C1'_4 
REMARK    3  A    between atoms: C1'_4  and  C1_5 
ROOT
ATOM      1  C1  N4B d   1       0.892   1.118   0.417  0.00  0.00    -0.075 A 
ATOM      2  C2  N4B d   1       2.046   0.445  -0.042  0.00  0.00     0.002 A 
ATOM      3  C3  N4B d   1       3.291   0.883   0.336  0.00  0.00     0.002 A 
ATOM      4  C4  N4B d   1       3.408   1.998   1.153  0.00  0.00    -0.004 A 
ATOM      5  C5  N4B d   1       2.288   2.626   1.613  0.00  0.00     0.002 A 
ATOM      6  C6  N4B d   1       1.029   2.195   1.244  0.00  0.00     0.002 A 
ENDROOT
BRANCH   1   7
ATOM      7  C1' N4B d   1      -0.488   0.728  -0.039  0.00  0.00     0.057 C 
BRANCH   7   8
ATOM      8  C2' N4B d   1      -0.595  -0.793  -0.066  0.00  0.00     0.009 C 
BRANCH   8   9
ATOM      9  C3' N4B d   1      -1.080  -1.305  -1.412  0.00  0.00     0.004 C 
ATOM     10  C4' N4B d   1      -2.311  -2.153  -1.301  0.00  0.00     0.003 C 
ENDBRANCH   8   9
ENDBRANCH   7   8
ENDBRANCH   1   7
TORSDOF 3
ENDMDL
