MODEL 1
REMARK minimizedAffinity -3.88470984
REMARK minimizedRMSD -1
REMARK  3 active torsions:
REMARK  status: ('A' for Active; 'I' for Inactive)
REMARK    1  A    between atoms: C3'_2  and  C2'_3 
REMARK    2  A    between atoms: C2'_3  and  C1'_4 
REMARK    3  A    between atoms: C1'_4  and  C1_5 
ROOT
ATOM      1  C1  N4B d   1       0.720   0.460  -0.005  0.00  0.00    -0.075 A 
ATOM      2  C2  N4B d   1      -0.281   1.071   0.782  0.00  0.00     0.002 A 
ATOM      3  C3  N4B d   1       0.031   2.148   1.575  0.00  0.00     0.002 A 
ATOM      4  C4  N4B d   1       1.335   2.617   1.613  0.00  0.00    -0.004 A 
ATOM      5  C5  N4B d   1       2.291   2.038   0.831  0.00  0.00     0.002 A 
ATOM      6  C6  N4B d   1       1.991   0.958   0.025  0.00  0.00     0.002 A 
ENDROOT
BRANCH   1   7
ATOM      7  C1' N4B d   1       0.446  -0.772  -0.822  0.00  0.00     0.057 C 
BRANCH   7   8
ATOM      8  C2' N4B d   1      -1.062  -0.958  -0.959  0.00  0.00     0.009 C 
BRANCH   8   9
ATOM      9  C3' N4B d   1      -1.458  -1.383  -2.362  0.00  0.00     0.004 C 
ATOM     10  C4' N4B d   1      -2.942  -1.508  -2.535  0.00  0.00     0.003 C 
ENDBRANCH   8   9
ENDBRANCH   7   8
ENDBRANCH   1   7
TORSDOF 3
ENDMDL
