MODEL 1
REMARK minimizedAffinity -5.2172575
REMARK minimizedRMSD -1
REMARK  3 active torsions:
REMARK  status: ('A' for Active; 'I' for Inactive)
REMARK    1  A    between atoms: C3'_2  and  C2'_3 
REMARK    2  A    between atoms: C2'_3  and  C1'_4 
REMARK    3  A    between atoms: C1'_4  and  C1_5 
ROOT
ATOM      1  C1  N4B d   1       0.824   0.491  -0.015  0.00  0.00    -0.075 A 
ATOM      2  C2  N4B d   1      -0.172   1.029   0.829  0.00  0.00     0.002 A 
ATOM      3  C3  N4B d   1       0.107   2.123   1.610  0.00  0.00     0.002 A 
ATOM      4  C4  N4B d   1       1.376   2.682   1.579  0.00  0.00    -0.004 A 
ATOM      5  C5  N4B d   1       2.325   2.172   0.743  0.00  0.00     0.002 A 
ATOM      6  C6  N4B d   1       2.057   1.075  -0.051  0.00  0.00     0.002 A 
ENDROOT
BRANCH   1   7
ATOM      7  C1' N4B d   1       0.592  -0.756  -0.824  0.00  0.00     0.057 C 
BRANCH   7   8
ATOM      8  C2' N4B d   1      -0.649  -1.471  -0.297  0.00  0.00     0.009 C 
BRANCH   8   9
ATOM      9  C3' N4B d   1      -1.597  -1.865  -1.417  0.00  0.00     0.004 C 
ATOM     10  C4' N4B d   1      -1.300  -1.156  -2.705  0.00  0.00     0.003 C 
ENDBRANCH   8   9
ENDBRANCH   7   8
ENDBRANCH   1   7
TORSDOF 3
ENDMDL
