MODEL 1
REMARK minimizedAffinity -5.96786833
REMARK minimizedRMSD -1
REMARK  3 active torsions:
REMARK  status: ('A' for Active; 'I' for Inactive)
REMARK    1  A    between atoms: C3'_2  and  C2'_3 
REMARK    2  A    between atoms: C2'_3  and  C1'_4 
REMARK    3  A    between atoms: C1'_4  and  C1_5 
ROOT
ATOM      1  C1  N4B d   1       0.850   0.472   0.388  0.00  0.00    -0.075 A 
ATOM      2  C2  N4B d   1       0.285   1.537   1.124  0.00  0.00     0.002 A 
ATOM      3  C3  N4B d   1       1.072   2.592   1.518  0.00  0.00     0.002 A 
ATOM      4  C4  N4B d   1       2.423   2.595   1.205  0.00  0.00    -0.004 A 
ATOM      5  C5  N4B d   1       2.955   1.575   0.472  0.00  0.00     0.002 A 
ATOM      6  C6  N4B d   1       2.175   0.510   0.066  0.00  0.00     0.002 A 
ENDROOT
BRANCH   1   7
ATOM      7  C1' N4B d   1       0.049  -0.743   0.010  0.00  0.00     0.057 C 
BRANCH   7   8
ATOM      8  C2' N4B d   1      -0.209  -0.725  -1.494  0.00  0.00     0.009 C 
BRANCH   8   9
ATOM      9  C3' N4B d   1      -1.488  -1.459  -1.860  0.00  0.00     0.004 C 
ATOM     10  C4' N4B d   1      -2.029  -1.051  -3.198  0.00  0.00     0.003 C 
ENDBRANCH   8   9
ENDBRANCH   7   8
ENDBRANCH   1   7
TORSDOF 3
ENDMDL
