MODEL 1
REMARK minimizedAffinity -3.71828079
REMARK minimizedRMSD -1
REMARK  3 active torsions:
REMARK  status: ('A' for Active; 'I' for Inactive)
REMARK    1  A    between atoms: C3'_2  and  C2'_3 
REMARK    2  A    between atoms: C2'_3  and  C1'_4 
REMARK    3  A    between atoms: C1'_4  and  C1_5 
ROOT
ATOM      1  C1  N4B d   1       0.491   1.356   0.834  0.00  0.00    -0.075 A 
ATOM      2  C2  N4B d   1       0.571   2.580   1.534  0.00  0.00     0.002 A 
ATOM      3  C3  N4B d   1       1.775   3.233   1.640  0.00  0.00     0.002 A 
ATOM      4  C4  N4B d   1       2.911   2.674   1.073  0.00  0.00    -0.004 A 
ATOM      5  C5  N4B d   1       2.820   1.505   0.376  0.00  0.00     0.002 A 
ATOM      6  C6  N4B d   1       1.616   0.840   0.258  0.00  0.00     0.002 A 
ENDROOT
BRANCH   1   7
ATOM      7  C1' N4B d   1      -0.785   0.563   0.764  0.00  0.00     0.057 C 
BRANCH   7   8
ATOM      8  C2' N4B d   1      -0.550  -0.692  -0.071  0.00  0.00     0.009 C 
BRANCH   8   9
ATOM      9  C3' N4B d   1      -1.836  -1.214  -0.687  0.00  0.00     0.004 C 
ATOM     10  C4' N4B d   1      -1.671  -1.619  -2.122  0.00  0.00     0.003 C 
ENDBRANCH   8   9
ENDBRANCH   7   8
ENDBRANCH   1   7
TORSDOF 3
ENDMDL
