MODEL 1
REMARK minimizedAffinity -1.54190266
REMARK minimizedRMSD -1
REMARK  0 active torsions:
REMARK  status: ('A' for Active; 'I' for Inactive)
ROOT
ATOM      1  C   UNL d   1       0.407   0.362  -5.477  0.00  0.00     0.023 A 
ATOM      2  C1  UNL d   1       1.446   0.996  -4.796  0.00  0.00     0.003 A 
ATOM      3  C2  UNL d   1       1.637   0.759  -3.434  0.00  0.00     0.048 A 
ATOM      4  C3  UNL d   1       0.786  -0.114  -2.758  0.00  0.00     0.023 A 
ATOM      5  C4  UNL d   1      -0.255  -0.752  -3.435  0.00  0.00     0.048 A 
ATOM      6  C5  UNL d   1      -0.443  -0.511  -4.797  0.00  0.00     0.003 A 
ATOM      7  I   UNL d   1       1.068  -0.469  -0.729  0.00  0.00    -0.146 I 
ENDROOT
TORSDOF 0
ENDMDL
