MODEL 1
REMARK minimizedAffinity -3.25386953
REMARK minimizedRMSD -1
REMARK  0 active torsions:
REMARK  status: ('A' for Active; 'I' for Inactive)
ROOT
ATOM      1  C   UNL d   1      -0.159  -0.050  -5.668  0.00  0.00     0.023 A 
ATOM      2  C1  UNL d   1      -0.980  -0.873  -4.897  0.00  0.00     0.003 A 
ATOM      3  C2  UNL d   1      -0.720  -1.043  -3.536  0.00  0.00     0.048 A 
ATOM      4  C3  UNL d   1       0.361  -0.385  -2.951  0.00  0.00     0.023 A 
ATOM      5  C4  UNL d   1       1.185   0.441  -3.717  0.00  0.00     0.048 A 
ATOM      6  C5  UNL d   1       0.922   0.606  -5.078  0.00  0.00     0.003 A 
ATOM      7  I   UNL d   1       0.749  -0.636  -0.924  0.00  0.00    -0.146 I 
ENDROOT
TORSDOF 0
ENDMDL
