MODEL 1
REMARK minimizedAffinity -2.74843073
REMARK minimizedRMSD -1
REMARK  0 active torsions:
REMARK  status: ('A' for Active; 'I' for Inactive)
ROOT
ATOM      1  C   UNL d   1       0.471   0.067   1.894  0.00  0.00     0.023 A 
ATOM      2  C1  UNL d   1       1.519  -0.462   1.140  0.00  0.00     0.003 A 
ATOM      3  C2  UNL d   1       1.386  -0.602  -0.242  0.00  0.00     0.048 A 
ATOM      4  C3  UNL d   1       0.201  -0.210  -0.866  0.00  0.00     0.023 A 
ATOM      5  C4  UNL d   1      -0.850   0.320  -0.116  0.00  0.00     0.048 A 
ATOM      6  C5  UNL d   1      -0.712   0.457   1.266  0.00  0.00     0.003 A 
ATOM      7  I   UNL d   1       0.000  -0.417  -2.924  0.00  0.00    -0.146 I 
ENDROOT
TORSDOF 0
ENDMDL
