MODEL 1
REMARK minimizedAffinity -1.18478382
REMARK minimizedRMSD -1
REMARK  0 active torsions:
REMARK  status: ('A' for Active; 'I' for Inactive)
ROOT
ATOM      1  C   UNL d   1      -0.973   1.328   2.914  0.00  0.00     0.023 A 
ATOM      2  C1  UNL d   1       0.314   1.659   2.487  0.00  0.00     0.003 A 
ATOM      3  C2  UNL d   1       0.789   1.182   1.264  0.00  0.00     0.048 A 
ATOM      4  C3  UNL d   1      -0.027   0.376   0.471  0.00  0.00     0.023 A 
ATOM      5  C4  UNL d   1      -1.316   0.044   0.894  0.00  0.00     0.048 A 
ATOM      6  C5  UNL d   1      -1.786   0.522   2.118  0.00  0.00     0.003 A 
ATOM      7  I   UNL d   1       0.678  -0.334  -1.350  0.00  0.00    -0.146 I 
ENDROOT
TORSDOF 0
ENDMDL
