MODEL 1
REMARK minimizedAffinity -1.57468402
REMARK minimizedRMSD -1
REMARK  0 active torsions:
REMARK  status: ('A' for Active; 'I' for Inactive)
ROOT
ATOM      1  C   UNL d   1       1.321   1.064  -4.444  0.00  0.00     0.023 A 
ATOM      2  C1  UNL d   1       2.419   1.120  -3.585  0.00  0.00     0.003 A 
ATOM      3  C2  UNL d   1       2.280   0.750  -2.246  0.00  0.00     0.048 A 
ATOM      4  C3  UNL d   1       1.039   0.324  -1.772  0.00  0.00     0.023 A 
ATOM      5  C4  UNL d   1      -0.062   0.265  -2.628  0.00  0.00     0.048 A 
ATOM      6  C5  UNL d   1       0.082   0.637  -3.966  0.00  0.00     0.003 A 
ATOM      7  I   UNL d   1       0.829  -0.228   0.221  0.00  0.00    -0.146 I 
ENDROOT
TORSDOF 0
ENDMDL
