MODEL 1
REMARK minimizedAffinity -3.59102488
REMARK minimizedRMSD -1
REMARK  0 active torsions:
REMARK  status: ('A' for Active; 'I' for Inactive)
ROOT
ATOM      1  N1  IND d   1       4.306  -5.308  -5.333  0.00  0.00    -0.196 N 
ATOM      2  C2  IND d   1       5.185  -5.914  -4.479  0.00  0.00     0.054 A 
ATOM      3  C3  IND d   1       5.997  -4.996  -3.909  0.00  0.00    -0.031 A 
ATOM      4  C4  IND d   1       5.995  -2.434  -4.156  0.00  0.00     0.051 A 
ATOM      5  C5  IND d   1       5.401  -1.419  -4.852  0.00  0.00    -0.031 A 
ATOM      6  C6  IND d   1       4.389  -1.653  -5.761  0.00  0.00     0.015 A 
ATOM      7  C7  IND d   1       3.924  -2.915  -5.999  0.00  0.00    -0.016 A 
ATOM      8  C8  IND d   1       4.530  -3.949  -5.299  0.00  0.00    -0.047 A 
ATOM      9  C9  IND d   1       5.586  -3.722  -4.407  0.00  0.00    -0.096 A 
ATOM     10  HN1 IND d   1       3.713  -5.707  -5.810  0.00  0.00     0.298 HD
ENDROOT
TORSDOF 0
ENDMDL
