MODEL 1
REMARK minimizedAffinity -3.57224131
REMARK minimizedRMSD -1
REMARK  0 active torsions:
REMARK  status: ('A' for Active; 'I' for Inactive)
ROOT
ATOM      1  N1  IND d   1       4.058  -5.039  -4.527  0.00  0.00    -0.196 N 
ATOM      2  C2  IND d   1       5.117  -5.780  -4.972  0.00  0.00     0.054 A 
ATOM      3  C3  IND d   1       6.000  -4.993  -5.627  0.00  0.00    -0.031 A 
ATOM      4  C4  IND d   1       5.957  -2.446  -5.999  0.00  0.00     0.051 A 
ATOM      5  C5  IND d   1       5.174  -1.342  -5.809  0.00  0.00    -0.031 A 
ATOM      6  C6  IND d   1       3.956  -1.415  -5.165  0.00  0.00     0.015 A 
ATOM      7  C7  IND d   1       3.478  -2.598  -4.677  0.00  0.00    -0.016 A 
ATOM      8  C8  IND d   1       4.267  -3.722  -4.875  0.00  0.00    -0.047 A 
ATOM      9  C9  IND d   1       5.485  -3.662  -5.564  0.00  0.00    -0.096 A 
ATOM     10  HN1 IND d   1       3.376  -5.344  -4.101  0.00  0.00     0.298 HD
ENDROOT
TORSDOF 0
ENDMDL
