MODEL 1
REMARK minimizedAffinity -3.41618657
REMARK minimizedRMSD -1
REMARK  0 active torsions:
REMARK  status: ('A' for Active; 'I' for Inactive)
ROOT
ATOM      1  N1  IND d   1       5.991  -2.695  -5.808  0.00  0.00    -0.196 N 
ATOM      2  C2  IND d   1       5.007  -1.766  -5.999  0.00  0.00     0.054 A 
ATOM      3  C3  IND d   1       3.813  -2.254  -5.595  0.00  0.00    -0.031 A 
ATOM      4  C4  IND d   1       3.259  -4.515  -4.497  0.00  0.00     0.051 A 
ATOM      5  C5  IND d   1       3.822  -5.712  -4.150  0.00  0.00    -0.031 A 
ATOM      6  C6  IND d   1       5.164  -5.968  -4.340  0.00  0.00     0.015 A 
ATOM      7  C7  IND d   1       6.000  -5.029  -4.875  0.00  0.00    -0.016 A 
ATOM      8  C8  IND d   1       5.430  -3.815  -5.235  0.00  0.00    -0.047 A 
ATOM      9  C9  IND d   1       4.060  -3.565  -5.084  0.00  0.00    -0.096 A 
ATOM     10  HN1 IND d   1       6.821  -2.597  -6.012  0.00  0.00     0.298 HD
ENDROOT
TORSDOF 0
ENDMDL
