MODEL 1
REMARK minimizedAffinity -3.43550706
REMARK minimizedRMSD -1
REMARK  0 active torsions:
REMARK  status: ('A' for Active; 'I' for Inactive)
ROOT
ATOM      1  N1  IND d   1       5.999  -2.344  -4.174  0.00  0.00    -0.196 N 
ATOM      2  C2  IND d   1       5.451  -1.520  -5.117  0.00  0.00     0.054 A 
ATOM      3  C3  IND d   1       4.705  -2.235  -5.989  0.00  0.00    -0.031 A 
ATOM      4  C4  IND d   1       4.163  -4.751  -6.000  0.00  0.00     0.051 A 
ATOM      5  C5  IND d   1       4.464  -5.921  -5.359  0.00  0.00    -0.031 A 
ATOM      6  C6  IND d   1       5.307  -5.958  -4.267  0.00  0.00     0.015 A 
ATOM      7  C7  IND d   1       5.874  -4.821  -3.766  0.00  0.00    -0.016 A 
ATOM      8  C8  IND d   1       5.576  -3.633  -4.418  0.00  0.00    -0.047 A 
ATOM      9  C9  IND d   1       4.755  -3.594  -5.552  0.00  0.00    -0.096 A 
ATOM     10  HN1 IND d   1       6.521  -2.099  -3.535  0.00  0.00     0.298 HD
ENDROOT
TORSDOF 0
ENDMDL
