MODEL 1
REMARK minimizedAffinity -1.80930042
REMARK minimizedRMSD -1
REMARK  0 active torsions:
REMARK  status: ('A' for Active; 'I' for Inactive)
ROOT
ATOM      1  N1  IND d   1       2.766  -4.762  -5.414  0.00  0.00    -0.196 N 
ATOM      2  C2  IND d   1       3.320  -5.994  -5.621  0.00  0.00     0.054 A 
ATOM      3  C3  IND d   1       4.614  -6.000  -5.229  0.00  0.00    -0.031 A 
ATOM      4  C4  IND d   1       5.998  -4.129  -4.127  0.00  0.00     0.051 A 
ATOM      5  C5  IND d   1       5.935  -2.812  -3.769  0.00  0.00    -0.031 A 
ATOM      6  C6  IND d   1       4.789  -2.063  -3.942  0.00  0.00     0.015 A 
ATOM      7  C7  IND d   1       3.654  -2.609  -4.471  0.00  0.00    -0.016 A 
ATOM      8  C8  IND d   1       3.716  -3.944  -4.843  0.00  0.00    -0.047 A 
ATOM      9  C9  IND d   1       4.889  -4.698  -4.709  0.00  0.00    -0.096 A 
ATOM     10  HN1 IND d   1       1.959  -4.536  -5.608  0.00  0.00     0.298 HD
ENDROOT
TORSDOF 0
ENDMDL
