MODEL 1
REMARK minimizedAffinity -4.06958723
REMARK minimizedRMSD -1
REMARK  0 active torsions:
REMARK  status: ('A' for Active; 'I' for Inactive)
ROOT
ATOM      1  N1  IND d   1       3.770  -5.354  -4.872  0.00  0.00    -0.196 N 
ATOM      2  C2  IND d   1       4.827  -6.000  -4.292  0.00  0.00     0.054 A 
ATOM      3  C3  IND d   1       5.860  -5.146  -4.116  0.00  0.00    -0.031 A 
ATOM      4  C4  IND d   1       6.000  -2.623  -4.611  0.00  0.00     0.051 A 
ATOM      5  C5  IND d   1       5.298  -1.596  -5.177  0.00  0.00    -0.031 A 
ATOM      6  C6  IND d   1       4.025  -1.772  -5.678  0.00  0.00     0.015 A 
ATOM      7  C7  IND d   1       3.398  -2.985  -5.621  0.00  0.00    -0.016 A 
ATOM      8  C8  IND d   1       4.110  -4.032  -5.053  0.00  0.00    -0.047 A 
ATOM      9  C9  IND d   1       5.419  -3.869  -4.582  0.00  0.00    -0.096 A 
ATOM     10  HN1 IND d   1       3.019  -5.714  -5.086  0.00  0.00     0.298 HD
ENDROOT
TORSDOF 0
ENDMDL
