MODEL 1
REMARK minimizedAffinity -3.23364282
REMARK minimizedRMSD -1
REMARK  0 active torsions:
REMARK  status: ('A' for Active; 'I' for Inactive)
ROOT
ATOM      1  N1  IND d   1       3.853  -0.994  -5.460  0.00  0.00    -0.196 N 
ATOM      2  C2  IND d   1       4.983  -0.445  -5.999  0.00  0.00     0.054 A 
ATOM      3  C3  IND d   1       5.997  -1.339  -5.976  0.00  0.00    -0.031 A 
ATOM      4  C4  IND d   1       5.999  -3.791  -5.193  0.00  0.00     0.051 A 
ATOM      5  C5  IND d   1       5.210  -4.730  -4.589  0.00  0.00    -0.031 A 
ATOM      6  C6  IND d   1       3.902  -4.467  -4.240  0.00  0.00     0.015 A 
ATOM      7  C7  IND d   1       3.327  -3.254  -4.493  0.00  0.00    -0.016 A 
ATOM      8  C8  IND d   1       4.127  -2.296  -5.100  0.00  0.00    -0.047 A 
ATOM      9  C9  IND d   1       5.469  -2.543  -5.418  0.00  0.00    -0.096 A 
ATOM     10  HN1 IND d   1       3.098  -0.594  -5.362  0.00  0.00     0.298 HD
ENDROOT
TORSDOF 0
ENDMDL
