MODEL 1
REMARK minimizedAffinity 16.9505863
REMARK minimizedRMSD -1
REMARK  0 active torsions:
REMARK  status: ('A' for Active; 'I' for Inactive)
ROOT
ATOM      1  C   UNL d   1       5.253   0.577   0.717  0.00  0.00     0.077 C 
ATOM      2  C1  UNL d   1       4.437   0.599   1.974  0.00  0.00    -0.074 A 
ATOM      3  C2  UNL d   1       3.042   0.499   1.928  0.00  0.00    -0.005 A 
ATOM      4  C3  UNL d   1       2.297   0.511   3.107  0.00  0.00     0.006 A 
ATOM      5  C4  UNL d   1       2.937   0.624   4.342  0.00  0.00    -0.005 A 
ATOM      6  C5  UNL d   1       4.330   0.725   4.408  0.00  0.00    -0.074 A 
ATOM      7  C6  UNL d   1       5.034   0.837   5.727  0.00  0.00     0.077 C 
ATOM      8  C7  UNL d   1       5.073   0.704   3.219  0.00  0.00    -0.001 A 
ENDROOT
TORSDOF 0
ENDMDL
