MODEL 1
REMARK minimizedAffinity 10.263629
REMARK minimizedRMSD -1
REMARK  0 active torsions:
REMARK  status: ('A' for Active; 'I' for Inactive)
ROOT
ATOM      1  C   UNL d   1       2.884   0.086  -4.483  0.00  0.00     0.077 C 
ATOM      2  C1  UNL d   1       1.483  -0.439  -4.380  0.00  0.00    -0.074 A 
ATOM      3  C2  UNL d   1       0.684  -0.583  -5.519  0.00  0.00    -0.005 A 
ATOM      4  C3  UNL d   1      -0.614  -1.081  -5.410  0.00  0.00     0.006 A 
ATOM      5  C4  UNL d   1      -1.125  -1.441  -4.162  0.00  0.00    -0.005 A 
ATOM      6  C5  UNL d   1      -0.341  -1.305  -3.012  0.00  0.00    -0.074 A 
ATOM      7  C6  UNL d   1      -0.872  -1.696  -1.665  0.00  0.00     0.077 C 
ATOM      8  C7  UNL d   1       0.965  -0.810  -3.132  0.00  0.00    -0.001 A 
ENDROOT
TORSDOF 0
ENDMDL
