MODEL 1
REMARK minimizedAffinity 10.7272167
REMARK minimizedRMSD -1
REMARK  0 active torsions:
REMARK  status: ('A' for Active; 'I' for Inactive)
ROOT
ATOM      1  C   UNL d   1       0.758   0.414   1.862  0.00  0.00     0.077 C 
ATOM      2  C1  UNL d   1       1.592   0.250   3.098  0.00  0.00    -0.074 A 
ATOM      3  C2  UNL d   1       1.205  -0.628   4.115  0.00  0.00    -0.005 A 
ATOM      4  C3  UNL d   1       1.995  -0.777   5.255  0.00  0.00     0.006 A 
ATOM      5  C4  UNL d   1       3.179  -0.051   5.388  0.00  0.00    -0.005 A 
ATOM      6  C5  UNL d   1       3.584   0.831   4.381  0.00  0.00    -0.074 A 
ATOM      7  C6  UNL d   1       4.859   1.611   4.504  0.00  0.00     0.077 C 
ATOM      8  C7  UNL d   1       2.787   0.970   3.236  0.00  0.00    -0.001 A 
ENDROOT
TORSDOF 0
ENDMDL
