MODEL 1
REMARK minimizedAffinity 6.18356323
REMARK minimizedRMSD -1
REMARK  0 active torsions:
REMARK  status: ('A' for Active; 'I' for Inactive)
ROOT
ATOM      1  C   UNL d   1       0.487   1.932   6.000  0.00  0.00     0.077 C 
ATOM      2  C1  UNL d   1       0.578   0.969   4.853  0.00  0.00    -0.074 A 
ATOM      3  C2  UNL d   1       0.266   1.372   3.550  0.00  0.00    -0.005 A 
ATOM      4  C3  UNL d   1       0.365   0.469   2.492  0.00  0.00     0.006 A 
ATOM      5  C4  UNL d   1       0.775  -0.844   2.725  0.00  0.00    -0.005 A 
ATOM      6  C5  UNL d   1       1.092  -1.265   4.021  0.00  0.00    -0.074 A 
ATOM      7  C6  UNL d   1       1.545  -2.670   4.287  0.00  0.00     0.077 C 
ATOM      8  C7  UNL d   1       0.998  -0.349   5.078  0.00  0.00    -0.001 A 
ENDROOT
TORSDOF 0
ENDMDL
