MODEL 1
REMARK minimizedAffinity 18.4199696
REMARK minimizedRMSD -1
REMARK  0 active torsions:
REMARK  status: ('A' for Active; 'I' for Inactive)
ROOT
ATOM      1  C   UNL d   1      -0.379   2.229   2.996  0.00  0.00     0.077 C 
ATOM      2  C1  UNL d   1       0.151   0.856   2.708  0.00  0.00    -0.074 A 
ATOM      3  C2  UNL d   1       1.097   0.260   3.549  0.00  0.00    -0.005 A 
ATOM      4  C3  UNL d   1       1.574  -1.022   3.274  0.00  0.00     0.006 A 
ATOM      5  C4  UNL d   1       1.112  -1.719   2.157  0.00  0.00    -0.005 A 
ATOM      6  C5  UNL d   1       0.165  -1.140   1.306  0.00  0.00    -0.074 A 
ATOM      7  C6  UNL d   1      -0.350  -1.879   0.107  0.00  0.00     0.077 C 
ATOM      8  C7  UNL d   1      -0.315   0.146   1.593  0.00  0.00    -0.001 A 
ENDROOT
TORSDOF 0
ENDMDL
