MODEL 1
REMARK minimizedAffinity 20.0343285
REMARK minimizedRMSD -1
REMARK  0 active torsions:
REMARK  status: ('A' for Active; 'I' for Inactive)
ROOT
ATOM      1  C   UNL d   1      -0.021   3.152   5.999  0.00  0.00     0.077 C 
ATOM      2  C1  UNL d   1      -0.198   2.510   4.655  0.00  0.00    -0.074 A 
ATOM      3  C2  UNL d   1      -1.096   3.035   3.720  0.00  0.00    -0.005 A 
ATOM      4  C3  UNL d   1      -1.242   2.432   2.470  0.00  0.00     0.006 A 
ATOM      5  C4  UNL d   1      -0.493   1.301   2.144  0.00  0.00    -0.005 A 
ATOM      6  C5  UNL d   1       0.410   0.763   3.065  0.00  0.00    -0.074 A 
ATOM      7  C6  UNL d   1       1.230  -0.447   2.726  0.00  0.00     0.077 C 
ATOM      8  C7  UNL d   1       0.557   1.378   4.316  0.00  0.00    -0.001 A 
ENDROOT
TORSDOF 0
ENDMDL
