MODEL 1
REMARK minimizedAffinity 7.92250824
REMARK minimizedRMSD -1
REMARK  0 active torsions:
REMARK  status: ('A' for Active; 'I' for Inactive)
ROOT
ATOM      1  C   UNL d   1       4.478   6.000   0.108  0.00  0.00     0.077 C 
ATOM      2  C1  UNL d   1       4.607   4.886   1.104  0.00  0.00    -0.074 A 
ATOM      3  C2  UNL d   1       4.392   3.556   0.727  0.00  0.00    -0.005 A 
ATOM      4  C3  UNL d   1       4.525   2.530   1.662  0.00  0.00     0.006 A 
ATOM      5  C4  UNL d   1       4.875   2.822   2.981  0.00  0.00    -0.005 A 
ATOM      6  C5  UNL d   1       5.096   4.145   3.376  0.00  0.00    -0.074 A 
ATOM      7  C6  UNL d   1       5.482   4.476   4.787  0.00  0.00     0.077 C 
ATOM      8  C7  UNL d   1       4.967   5.170   2.429  0.00  0.00    -0.001 A 
ENDROOT
TORSDOF 0
ENDMDL
