MODEL 1
REMARK minimizedAffinity 18.8533707
REMARK minimizedRMSD -1
REMARK  0 active torsions:
REMARK  status: ('A' for Active; 'I' for Inactive)
ROOT
ATOM      1  C   UNL d   1       3.976  -3.353  -4.313  0.00  0.00     0.077 C 
ATOM      2  C1  UNL d   1       2.543  -3.175  -4.718  0.00  0.00    -0.074 A 
ATOM      3  C2  UNL d   1       1.916  -4.098  -5.562  0.00  0.00    -0.005 A 
ATOM      4  C3  UNL d   1       0.580  -3.925  -5.923  0.00  0.00     0.006 A 
ATOM      5  C4  UNL d   1      -0.141  -2.830  -5.445  0.00  0.00    -0.005 A 
ATOM      6  C5  UNL d   1       0.469  -1.898  -4.600  0.00  0.00    -0.074 A 
ATOM      7  C6  UNL d   1      -0.294  -0.721  -4.069  0.00  0.00     0.077 C 
ATOM      8  C7  UNL d   1       1.810  -2.082  -4.236  0.00  0.00    -0.001 A 
ENDROOT
TORSDOF 0
ENDMDL
