MODEL 1
REMARK minimizedAffinity 8.27128792
REMARK minimizedRMSD -1
REMARK  0 active torsions:
REMARK  status: ('A' for Active; 'I' for Inactive)
ROOT
ATOM      1  C   UNL d   1       1.466  -2.488   5.577  0.00  0.00     0.077 C 
ATOM      2  C1  UNL d   1       0.968  -1.626   4.455  0.00  0.00    -0.074 A 
ATOM      3  C2  UNL d   1       0.722  -2.166   3.189  0.00  0.00    -0.005 A 
ATOM      4  C3  UNL d   1       0.249  -1.354   2.158  0.00  0.00     0.006 A 
ATOM      5  C4  UNL d   1       0.019   0.004   2.383  0.00  0.00    -0.005 A 
ATOM      6  C5  UNL d   1       0.258   0.561   3.643  0.00  0.00    -0.074 A 
ATOM      7  C6  UNL d   1       0.006   2.016   3.904  0.00  0.00     0.077 C 
ATOM      8  C7  UNL d   1       0.726  -0.263   4.675  0.00  0.00    -0.001 A 
ENDROOT
TORSDOF 0
ENDMDL
