MODEL 1
REMARK minimizedAffinity 4.97955847
REMARK minimizedRMSD -1
REMARK  0 active torsions:
REMARK  status: ('A' for Active; 'I' for Inactive)
ROOT
ATOM      1  C   UNL d   1       5.244   5.103  -5.985  0.00  0.00     0.077 C 
ATOM      2  C1  UNL d   1       5.253   3.753  -5.332  0.00  0.00    -0.074 A 
ATOM      3  C2  UNL d   1       5.999   3.521  -4.171  0.00  0.00    -0.005 A 
ATOM      4  C3  UNL d   1       5.990   2.263  -3.569  0.00  0.00     0.006 A 
ATOM      5  C4  UNL d   1       5.238   1.225  -4.121  0.00  0.00    -0.005 A 
ATOM      6  C5  UNL d   1       4.486   1.438  -5.280  0.00  0.00    -0.074 A 
ATOM      7  C6  UNL d   1       3.663   0.337  -5.880  0.00  0.00     0.077 C 
ATOM      8  C7  UNL d   1       4.494   2.707  -5.875  0.00  0.00    -0.001 A 
ENDROOT
TORSDOF 0
ENDMDL
