MODEL 1
REMARK minimizedAffinity 18.6102505
REMARK minimizedRMSD -1
REMARK  0 active torsions:
REMARK  status: ('A' for Active; 'I' for Inactive)
ROOT
ATOM      1  C   UNL d   1       4.114  -2.629  -4.446  0.00  0.00     0.077 C 
ATOM      2  C1  UNL d   1       2.675  -2.614  -4.868  0.00  0.00    -0.074 A 
ATOM      3  C2  UNL d   1       2.135  -3.662  -5.620  0.00  0.00    -0.005 A 
ATOM      4  C3  UNL d   1       0.792  -3.638  -5.998  0.00  0.00     0.006 A 
ATOM      5  C4  UNL d   1      -0.023  -2.568  -5.627  0.00  0.00    -0.005 A 
ATOM      6  C5  UNL d   1       0.499  -1.511  -4.875  0.00  0.00    -0.074 A 
ATOM      7  C6  UNL d   1      -0.366  -0.358  -4.460  0.00  0.00     0.077 C 
ATOM      8  C7  UNL d   1       1.847  -1.546  -4.493  0.00  0.00    -0.001 A 
ENDROOT
TORSDOF 0
ENDMDL
