MODEL 1
REMARK minimizedAffinity 14.1454382
REMARK minimizedRMSD -1
REMARK  0 active torsions:
REMARK  status: ('A' for Active; 'I' for Inactive)
ROOT
ATOM      1  C   UNL d   1      -2.592  -1.247   1.464  0.00  0.00     0.077 C 
ATOM      2  C1  UNL d   1      -3.376  -0.215   0.710  0.00  0.00    -0.074 A 
ATOM      3  C2  UNL d   1      -3.502   1.090   1.198  0.00  0.00    -0.005 A 
ATOM      4  C3  UNL d   1      -4.227   2.042   0.482  0.00  0.00     0.006 A 
ATOM      5  C4  UNL d   1      -4.832   1.700  -0.728  0.00  0.00    -0.005 A 
ATOM      6  C5  UNL d   1      -4.716   0.401  -1.232  0.00  0.00    -0.074 A 
ATOM      7  C6  UNL d   1      -5.352   0.019  -2.536  0.00  0.00     0.077 C 
ATOM      8  C7  UNL d   1      -3.981  -0.548  -0.510  0.00  0.00    -0.001 A 
ENDROOT
TORSDOF 0
ENDMDL
