MODEL 1
REMARK minimizedAffinity -3.36820316
REMARK minimizedRMSD -1
REMARK  0 active torsions:
REMARK  status: ('A' for Active; 'I' for Inactive)
ROOT
ATOM      1  C   UNL d   1      -5.680  -2.999  -4.869  0.00  0.00     0.023 A 
ATOM      2  C1  UNL d   1      -5.864  -4.378  -4.762  0.00  0.00     0.003 A 
ATOM      3  C2  UNL d   1      -4.772  -5.240  -4.875  0.00  0.00     0.048 A 
ATOM      4  C3  UNL d   1      -3.498  -4.718  -5.093  0.00  0.00     0.023 A 
ATOM      5  C4  UNL d   1      -3.308  -3.339  -5.200  0.00  0.00     0.048 A 
ATOM      6  C5  UNL d   1      -4.403  -2.480  -5.088  0.00  0.00     0.003 A 
ATOM      7  I   UNL d   1      -1.871  -6.000  -5.261  0.00  0.00    -0.146 I 
ENDROOT
TORSDOF 0
ENDMDL
