MODEL 1
REMARK minimizedAffinity -3.6147809
REMARK minimizedRMSD -1
REMARK  0 active torsions:
REMARK  status: ('A' for Active; 'I' for Inactive)
ROOT
ATOM      1  C   UNL d   1      -5.978  -4.073  -4.573  0.00  0.00     0.023 A 
ATOM      2  C1  UNL d   1      -5.769  -4.869  -5.699  0.00  0.00     0.003 A 
ATOM      3  C2  UNL d   1      -4.486  -5.332  -6.000  0.00  0.00     0.048 A 
ATOM      4  C3  UNL d   1      -3.417  -4.995  -5.170  0.00  0.00     0.023 A 
ATOM      5  C4  UNL d   1      -3.622  -4.199  -4.042  0.00  0.00     0.048 A 
ATOM      6  C5  UNL d   1      -4.907  -3.739  -3.745  0.00  0.00     0.003 A 
ATOM      7  I   UNL d   1      -1.507  -5.682  -5.616  0.00  0.00    -0.146 I 
ENDROOT
TORSDOF 0
ENDMDL
