MODEL 1
REMARK minimizedAffinity -3.67086053
REMARK minimizedRMSD -1
REMARK  0 active torsions:
REMARK  status: ('A' for Active; 'I' for Inactive)
ROOT
ATOM      1  C   UNL d   1      -5.997  -4.035  -4.664  0.00  0.00     0.023 A 
ATOM      2  C1  UNL d   1      -5.691  -5.377  -4.438  0.00  0.00     0.003 A 
ATOM      3  C2  UNL d   1      -4.428  -5.872  -4.770  0.00  0.00     0.048 A 
ATOM      4  C3  UNL d   1      -3.476  -5.019  -5.328  0.00  0.00     0.023 A 
ATOM      5  C4  UNL d   1      -3.778  -3.676  -5.556  0.00  0.00     0.048 A 
ATOM      6  C5  UNL d   1      -5.042  -3.185  -5.223  0.00  0.00     0.003 A 
ATOM      7  I   UNL d   1      -1.596  -5.754  -5.823  0.00  0.00    -0.146 I 
ENDROOT
TORSDOF 0
ENDMDL
