MODEL 1
REMARK minimizedAffinity -0.813761353
REMARK minimizedRMSD -1
REMARK  0 active torsions:
REMARK  status: ('A' for Active; 'I' for Inactive)
ROOT
ATOM      1  C   UNL d   1      -5.997  -1.867  -4.823  0.00  0.00     0.023 A 
ATOM      2  C1  UNL d   1      -5.940  -2.668  -3.682  0.00  0.00     0.003 A 
ATOM      3  C2  UNL d   1      -5.204  -3.854  -3.697  0.00  0.00     0.048 A 
ATOM      4  C3  UNL d   1      -4.526  -4.233  -4.855  0.00  0.00     0.023 A 
ATOM      5  C4  UNL d   1      -4.580  -3.434  -5.999  0.00  0.00     0.048 A 
ATOM      6  C5  UNL d   1      -5.318  -2.249  -5.979  0.00  0.00     0.003 A 
ATOM      7  I   UNL d   1      -3.430  -5.999  -4.880  0.00  0.00    -0.146 I 
ENDROOT
TORSDOF 0
ENDMDL
