MODEL 1
REMARK minimizedAffinity -3.30959654
REMARK minimizedRMSD -1
REMARK  0 active torsions:
REMARK  status: ('A' for Active; 'I' for Inactive)
ROOT
ATOM      1  C   UNL d   1      -5.329  -3.275  -4.474  0.00  0.00     0.023 A 
ATOM      2  C1  UNL d   1      -4.125  -2.636  -4.774  0.00  0.00     0.003 A 
ATOM      3  C2  UNL d   1      -3.028  -3.381  -5.211  0.00  0.00     0.048 A 
ATOM      4  C3  UNL d   1      -3.141  -4.764  -5.348  0.00  0.00     0.023 A 
ATOM      5  C4  UNL d   1      -4.343  -5.407  -5.051  0.00  0.00     0.048 A 
ATOM      6  C5  UNL d   1      -5.437  -4.659  -4.612  0.00  0.00     0.003 A 
ATOM      7  I   UNL d   1      -1.509  -5.874  -5.999  0.00  0.00    -0.146 I 
ENDROOT
TORSDOF 0
ENDMDL
