MODEL 1
REMARK minimizedAffinity -2.78701711
REMARK minimizedRMSD -1
REMARK  0 active torsions:
REMARK  status: ('A' for Active; 'I' for Inactive)
ROOT
ATOM      1  C   UNL d   1      -3.802  -1.859  -4.547  0.00  0.00     0.023 A 
ATOM      2  C1  UNL d   1      -4.877  -1.821  -5.436  0.00  0.00     0.003 A 
ATOM      3  C2  UNL d   1      -5.482  -3.008  -5.854  0.00  0.00     0.048 A 
ATOM      4  C3  UNL d   1      -5.008  -4.230  -5.378  0.00  0.00     0.023 A 
ATOM      5  C4  UNL d   1      -3.933  -4.273  -4.489  0.00  0.00     0.048 A 
ATOM      6  C5  UNL d   1      -3.331  -3.084  -4.074  0.00  0.00     0.003 A 
ATOM      7  I   UNL d   1      -5.906  -5.998  -5.999  0.00  0.00    -0.146 I 
ENDROOT
TORSDOF 0
ENDMDL
