MODEL 1
REMARK minimizedAffinity -1.80136943
REMARK minimizedRMSD -1
REMARK  0 active torsions:
REMARK  status: ('A' for Active; 'I' for Inactive)
ROOT
ATOM      1  C   UNL d   1      -3.691  -5.720  -4.804  0.00  0.00     0.023 A 
ATOM      2  C1  UNL d   1      -4.726  -5.678  -5.738  0.00  0.00     0.003 A 
ATOM      3  C2  UNL d   1      -5.390  -4.476  -5.992  0.00  0.00     0.048 A 
ATOM      4  C3  UNL d   1      -5.013  -3.320  -5.309  0.00  0.00     0.023 A 
ATOM      5  C4  UNL d   1      -3.978  -3.358  -4.374  0.00  0.00     0.048 A 
ATOM      6  C5  UNL d   1      -3.317  -4.562  -4.123  0.00  0.00     0.003 A 
ATOM      7  I   UNL d   1      -6.000  -1.530  -5.686  0.00  0.00    -0.146 I 
ENDROOT
TORSDOF 0
ENDMDL
