MODEL 1
REMARK minimizedAffinity -3.09147811
REMARK minimizedRMSD -1
REMARK  0 active torsions:
REMARK  status: ('A' for Active; 'I' for Inactive)
ROOT
ATOM      1  C   UNL d   1      -4.301  -5.992  -5.240  0.00  0.00     0.023 A 
ATOM      2  C1  UNL d   1      -5.262  -5.778  -4.251  0.00  0.00     0.003 A 
ATOM      3  C2  UNL d   1      -5.750  -4.490  -4.018  0.00  0.00     0.048 A 
ATOM      4  C3  UNL d   1      -5.274  -3.422  -4.777  0.00  0.00     0.023 A 
ATOM      5  C4  UNL d   1      -4.314  -3.632  -5.768  0.00  0.00     0.048 A 
ATOM      6  C5  UNL d   1      -3.828  -4.920  -5.997  0.00  0.00     0.003 A 
ATOM      7  I   UNL d   1      -6.000  -1.505  -4.432  0.00  0.00    -0.146 I 
ENDROOT
TORSDOF 0
ENDMDL
