MODEL 1
REMARK minimizedAffinity -3.05221891
REMARK minimizedRMSD -1
REMARK  0 active torsions:
REMARK  status: ('A' for Active; 'I' for Inactive)
ROOT
ATOM      1  C   UNL d   1      -5.533  -2.245  -5.783  0.00  0.00     0.023 A 
ATOM      2  C1  UNL d   1      -4.257  -2.014  -5.269  0.00  0.00     0.003 A 
ATOM      3  C2  UNL d   1      -3.446  -3.089  -4.901  0.00  0.00     0.048 A 
ATOM      4  C3  UNL d   1      -3.917  -4.393  -5.051  0.00  0.00     0.023 A 
ATOM      5  C4  UNL d   1      -5.192  -4.629  -5.567  0.00  0.00     0.048 A 
ATOM      6  C5  UNL d   1      -6.000  -3.551  -5.932  0.00  0.00     0.003 A 
ATOM      7  I   UNL d   1      -2.711  -5.996  -4.505  0.00  0.00    -0.146 I 
ENDROOT
TORSDOF 0
ENDMDL
