MODEL 1
REMARK minimizedAffinity -3.70343089
REMARK minimizedRMSD -1
REMARK  0 active torsions:
REMARK  status: ('A' for Active; 'I' for Inactive)
ROOT
ATOM      1  C   UNL d   1      -5.791  -2.169  -5.250  0.00  0.00     0.023 A 
ATOM      2  C1  UNL d   1      -5.994  -3.332  -4.507  0.00  0.00     0.003 A 
ATOM      3  C2  UNL d   1      -5.029  -4.341  -4.509  0.00  0.00     0.048 A 
ATOM      4  C3  UNL d   1      -3.862  -4.180  -5.255  0.00  0.00     0.023 A 
ATOM      5  C4  UNL d   1      -3.654  -3.018  -6.000  0.00  0.00     0.048 A 
ATOM      6  C5  UNL d   1      -4.623  -2.012  -5.996  0.00  0.00     0.003 A 
ATOM      7  I   UNL d   1      -2.424  -5.681  -5.260  0.00  0.00    -0.146 I 
ENDROOT
TORSDOF 0
ENDMDL
