MODEL 1
REMARK minimizedAffinity -3.07613206
REMARK minimizedRMSD -1
REMARK  0 active torsions:
REMARK  status: ('A' for Active; 'I' for Inactive)
ROOT
ATOM      1  C   UNL d   1      -3.037  -5.829  -5.656  0.00  0.00     0.023 A 
ATOM      2  C1  UNL d   1      -2.536  -4.627  -5.156  0.00  0.00     0.003 A 
ATOM      3  C2  UNL d   1      -3.384  -3.530  -4.991  0.00  0.00     0.048 A 
ATOM      4  C3  UNL d   1      -4.733  -3.643  -5.326  0.00  0.00     0.023 A 
ATOM      5  C4  UNL d   1      -5.239  -4.844  -5.826  0.00  0.00     0.048 A 
ATOM      6  C5  UNL d   1      -4.387  -5.937  -5.991  0.00  0.00     0.003 A 
ATOM      7  I   UNL d   1      -5.998  -2.012  -5.080  0.00  0.00    -0.146 I 
ENDROOT
TORSDOF 0
ENDMDL
