MODEL 1
REMARK minimizedAffinity 2.69901991
REMARK minimizedRMSD -1
REMARK  0 active torsions:
REMARK  status: ('A' for Active; 'I' for Inactive)
ROOT
ATOM      1  C   UNL d   1      -1.958  -5.993  -5.620  0.00  0.00     0.023 A 
ATOM      2  C1  UNL d   1      -1.368  -4.814  -5.163  0.00  0.00     0.003 A 
ATOM      3  C2  UNL d   1      -2.120  -3.640  -5.086  0.00  0.00     0.048 A 
ATOM      4  C3  UNL d   1      -3.461  -3.651  -5.466  0.00  0.00     0.023 A 
ATOM      5  C4  UNL d   1      -4.056  -4.828  -5.923  0.00  0.00     0.048 A 
ATOM      6  C5  UNL d   1      -3.301  -6.000  -6.000  0.00  0.00     0.003 A 
ATOM      7  I   UNL d   1      -4.582  -1.905  -5.351  0.00  0.00    -0.146 I 
ENDROOT
TORSDOF 0
ENDMDL
