MODEL 1
REMARK minimizedAffinity -3.48128581
REMARK minimizedRMSD -1
REMARK  0 active torsions:
REMARK  status: ('A' for Active; 'I' for Inactive)
ROOT
ATOM      1  C   UNL d   1      -5.429  -3.918  -4.897  0.00  0.00     0.023 A 
ATOM      2  C1  UNL d   1      -4.255  -3.164  -4.864  0.00  0.00     0.003 A 
ATOM      3  C2  UNL d   1      -3.032  -3.759  -5.179  0.00  0.00     0.048 A 
ATOM      4  C3  UNL d   1      -2.990  -5.109  -5.527  0.00  0.00     0.023 A 
ATOM      5  C4  UNL d   1      -4.161  -5.867  -5.562  0.00  0.00     0.048 A 
ATOM      6  C5  UNL d   1      -5.382  -5.268  -5.245  0.00  0.00     0.003 A 
ATOM      7  I   UNL d   1      -1.171  -5.998  -5.997  0.00  0.00    -0.146 I 
ENDROOT
TORSDOF 0
ENDMDL
