MODEL 1
REMARK minimizedAffinity -2.73462939
REMARK minimizedRMSD -1
REMARK  0 active torsions:
REMARK  status: ('A' for Active; 'I' for Inactive)
ROOT
ATOM      1  C   UNL d   1      -5.997  -3.448  -4.411  0.00  0.00     0.023 A 
ATOM      2  C1  UNL d   1      -5.439  -2.815  -5.521  0.00  0.00     0.003 A 
ATOM      3  C2  UNL d   1      -4.173  -3.189  -5.978  0.00  0.00     0.048 A 
ATOM      4  C3  UNL d   1      -3.472  -4.199  -5.320  0.00  0.00     0.023 A 
ATOM      5  C4  UNL d   1      -4.027  -4.836  -4.209  0.00  0.00     0.048 A 
ATOM      6  C5  UNL d   1      -5.292  -4.457  -3.755  0.00  0.00     0.003 A 
ATOM      7  I   UNL d   1      -1.589  -4.759  -5.998  0.00  0.00    -0.146 I 
ENDROOT
TORSDOF 0
ENDMDL
