MODEL 1
REMARK minimizedAffinity -2.89024067
REMARK minimizedRMSD -1
REMARK  0 active torsions:
REMARK  status: ('A' for Active; 'I' for Inactive)
ROOT
ATOM      1  C   UNL d   1      -6.000  -4.227  -5.759  0.00  0.00     0.023 A 
ATOM      2  C1  UNL d   1      -5.703  -5.570  -5.526  0.00  0.00     0.003 A 
ATOM      3  C2  UNL d   1      -4.375  -5.999  -5.504  0.00  0.00     0.048 A 
ATOM      4  C3  UNL d   1      -3.348  -5.080  -5.715  0.00  0.00     0.023 A 
ATOM      5  C4  UNL d   1      -3.640  -3.735  -5.947  0.00  0.00     0.048 A 
ATOM      6  C5  UNL d   1      -4.969  -3.310  -5.969  0.00  0.00     0.003 A 
ATOM      7  I   UNL d   1      -1.369  -5.716  -5.682  0.00  0.00    -0.146 I 
ENDROOT
TORSDOF 0
ENDMDL
