MODEL 1
REMARK minimizedAffinity -2.01635194
REMARK minimizedRMSD -1
REMARK  0 active torsions:
REMARK  status: ('A' for Active; 'I' for Inactive)
ROOT
ATOM      1  C   UNL d   1      -3.413  -5.515  -5.959  0.00  0.00     0.023 A 
ATOM      2  C1  UNL d   1      -2.761  -4.561  -5.178  0.00  0.00     0.003 A 
ATOM      3  C2  UNL d   1      -3.501  -3.639  -4.436  0.00  0.00     0.048 A 
ATOM      4  C3  UNL d   1      -4.895  -3.677  -4.479  0.00  0.00     0.023 A 
ATOM      5  C4  UNL d   1      -5.552  -4.629  -5.259  0.00  0.00     0.048 A 
ATOM      6  C5  UNL d   1      -4.807  -5.549  -6.000  0.00  0.00     0.003 A 
ATOM      7  I   UNL d   1      -5.999  -2.305  -3.375  0.00  0.00    -0.146 I 
ENDROOT
TORSDOF 0
ENDMDL
