MODEL 1
REMARK minimizedAffinity 7.28504896
REMARK minimizedRMSD -1
REMARK  0 active torsions:
REMARK  status: ('A' for Active; 'I' for Inactive)
ROOT
ATOM      1  C   UNL d   1      -2.553  -4.260  -4.907  0.00  0.00     0.023 A 
ATOM      2  C1  UNL d   1      -2.794  -3.426  -5.999  0.00  0.00     0.003 A 
ATOM      3  C2  UNL d   1      -3.783  -2.444  -5.924  0.00  0.00     0.048 A 
ATOM      4  C3  UNL d   1      -4.527  -2.300  -4.753  0.00  0.00     0.023 A 
ATOM      5  C4  UNL d   1      -4.289  -3.131  -3.657  0.00  0.00     0.048 A 
ATOM      6  C5  UNL d   1      -3.300  -4.113  -3.738  0.00  0.00     0.003 A 
ATOM      7  I   UNL d   1      -6.000  -0.838  -4.638  0.00  0.00    -0.146 I 
ENDROOT
TORSDOF 0
ENDMDL
