MODEL 1
REMARK minimizedAffinity 4.17351484
REMARK minimizedRMSD -1
REMARK  2 active torsions:
REMARK  status: ('A' for Active; 'I' for Inactive)
REMARK    1  A    between atoms: C1_2  and  C2_3 
REMARK    2  A    between atoms: C2_3  and  C3_4 
ROOT
ATOM      1  C3  UNL d   1       4.755   1.893  -0.433  0.00  0.00    -0.075 A 
ATOM      2  C4  UNL d   1       5.346   1.554   0.793  0.00  0.00     0.002 A 
ATOM      3  C5  UNL d   1       5.958   2.531   1.579  0.00  0.00     0.002 A 
ATOM      4  C6  UNL d   1       5.996   3.854   1.146  0.00  0.00    -0.004 A 
ATOM      5  C7  UNL d   1       5.427   4.200  -0.078  0.00  0.00     0.002 A 
ATOM      6  C8  UNL d   1       4.810   3.225  -0.864  0.00  0.00     0.002 A 
ENDROOT
BRANCH   1   7
ATOM      7  C2  UNL d   1       4.065   0.846  -1.274  0.00  0.00     0.056 C 
BRANCH   7   8
ATOM      8  C1  UNL d   1       3.198  -0.129  -0.470  0.00  0.00     0.007 C 
ATOM      9  C   UNL d   1       1.811   0.416  -0.161  0.00  0.00     0.009 C 
ENDBRANCH   7   8
ENDBRANCH   1   7
TORSDOF 2
ENDMDL
