MODEL 1
REMARK minimizedAffinity 10.6734695
REMARK minimizedRMSD -1
REMARK  2 active torsions:
REMARK  status: ('A' for Active; 'I' for Inactive)
REMARK    1  A    between atoms: C1_2  and  C2_3 
REMARK    2  A    between atoms: C2_3  and  C3_4 
ROOT
ATOM      1  C3  UNL d   1       1.449   0.261   0.180  0.00  0.00    -0.075 A 
ATOM      2  C4  UNL d   1       0.443   0.940  -0.523  0.00  0.00     0.002 A 
ATOM      3  C5  UNL d   1      -0.752   1.286   0.108  0.00  0.00     0.002 A 
ATOM      4  C6  UNL d   1      -0.961   0.949   1.444  0.00  0.00    -0.004 A 
ATOM      5  C7  UNL d   1       0.024   0.259   2.147  0.00  0.00     0.002 A 
ATOM      6  C8  UNL d   1       1.223  -0.084   1.520  0.00  0.00     0.002 A 
ENDROOT
BRANCH   1   7
ATOM      7  C2  UNL d   1       2.756  -0.090  -0.488  0.00  0.00     0.056 C 
BRANCH   7   8
ATOM      8  C1  UNL d   1       3.980   0.579   0.146  0.00  0.00     0.007 C 
ATOM      9  C   UNL d   1       4.801   1.393  -0.847  0.00  0.00     0.009 C 
ENDBRANCH   7   8
ENDBRANCH   1   7
TORSDOF 2
ENDMDL
