MODEL 1
REMARK minimizedAffinity 3.93304944
REMARK minimizedRMSD -1
REMARK  2 active torsions:
REMARK  status: ('A' for Active; 'I' for Inactive)
REMARK    1  A    between atoms: C1_2  and  C2_3 
REMARK    2  A    between atoms: C2_3  and  C3_4 
ROOT
ATOM      1  C3  UNL d   1      -4.486   1.470  -2.713  0.00  0.00    -0.075 A 
ATOM      2  C4  UNL d   1      -3.178   0.977  -2.602  0.00  0.00     0.002 A 
ATOM      3  C5  UNL d   1      -2.407   0.752  -3.743  0.00  0.00     0.002 A 
ATOM      4  C6  UNL d   1      -2.936   1.006  -5.007  0.00  0.00    -0.004 A 
ATOM      5  C7  UNL d   1      -4.240   1.480  -5.129  0.00  0.00     0.002 A 
ATOM      6  C8  UNL d   1      -5.012   1.711  -3.989  0.00  0.00     0.002 A 
ENDROOT
BRANCH   1   7
ATOM      7  C2  UNL d   1      -5.315   1.744  -1.481  0.00  0.00     0.056 C 
BRANCH   7   8
ATOM      8  C1  UNL d   1      -5.169   0.686  -0.383  0.00  0.00     0.007 C 
ATOM      9  C   UNL d   1      -4.474   1.209   0.867  0.00  0.00     0.009 C 
ENDBRANCH   7   8
ENDBRANCH   1   7
TORSDOF 2
ENDMDL
