MODEL 1
REMARK minimizedAffinity 10.3569174
REMARK minimizedRMSD -1
REMARK  2 active torsions:
REMARK  status: ('A' for Active; 'I' for Inactive)
REMARK    1  A    between atoms: C1_2  and  C2_3 
REMARK    2  A    between atoms: C2_3  and  C3_4 
ROOT
ATOM      1  C3  UNL d   1      -1.072   1.742   0.087  0.00  0.00    -0.075 A 
ATOM      2  C4  UNL d   1      -2.326   1.157   0.314  0.00  0.00     0.002 A 
ATOM      3  C5  UNL d   1      -3.292   1.821   1.070  0.00  0.00     0.002 A 
ATOM      4  C6  UNL d   1      -3.013   3.072   1.618  0.00  0.00    -0.004 A 
ATOM      5  C7  UNL d   1      -1.764   3.655   1.413  0.00  0.00     0.002 A 
ATOM      6  C8  UNL d   1      -0.798   2.994   0.653  0.00  0.00     0.002 A 
ENDROOT
BRANCH   1   7
ATOM      7  C2  UNL d   1      -0.033   1.041  -0.756  0.00  0.00     0.056 C 
BRANCH   7   8
ATOM      8  C1  UNL d   1      -0.315   1.090  -2.261  0.00  0.00     0.007 C 
ATOM      9  C   UNL d   1      -1.519   0.254  -2.674  0.00  0.00     0.009 C 
ENDBRANCH   7   8
ENDBRANCH   1   7
TORSDOF 2
ENDMDL
