MODEL 1
REMARK minimizedAffinity 8.62319469
REMARK minimizedRMSD -1
REMARK  2 active torsions:
REMARK  status: ('A' for Active; 'I' for Inactive)
REMARK    1  A    between atoms: C1_2  and  C2_3 
REMARK    2  A    between atoms: C2_3  and  C3_4 
ROOT
ATOM      1  C3  UNL d   1       3.195   0.344  -0.429  0.00  0.00    -0.075 A 
ATOM      2  C4  UNL d   1       3.934  -0.801  -0.098  0.00  0.00     0.002 A 
ATOM      3  C5  UNL d   1       5.328  -0.758  -0.060  0.00  0.00     0.002 A 
ATOM      4  C6  UNL d   1       6.000   0.424  -0.362  0.00  0.00    -0.004 A 
ATOM      5  C7  UNL d   1       5.277   1.563  -0.708  0.00  0.00     0.002 A 
ATOM      6  C8  UNL d   1       3.882   1.525  -0.743  0.00  0.00     0.002 A 
ENDROOT
BRANCH   1   7
ATOM      7  C2  UNL d   1       1.685   0.312  -0.443  0.00  0.00     0.056 C 
BRANCH   7   8
ATOM      8  C1  UNL d   1       1.043   0.609   0.916  0.00  0.00     0.007 C 
ATOM      9  C   UNL d   1      -0.295   1.328   0.803  0.00  0.00     0.009 C 
ENDBRANCH   7   8
ENDBRANCH   1   7
TORSDOF 2
ENDMDL
