MODEL 1
REMARK minimizedAffinity 12.0860329
REMARK minimizedRMSD -1
REMARK  2 active torsions:
REMARK  status: ('A' for Active; 'I' for Inactive)
REMARK    1  A    between atoms: C1_2  and  C2_3 
REMARK    2  A    between atoms: C2_3  and  C3_4 
ROOT
ATOM      1  C3  UNL d   1       3.729   0.244  -0.700  0.00  0.00    -0.075 A 
ATOM      2  C4  UNL d   1       3.778   1.379   0.123  0.00  0.00     0.002 A 
ATOM      3  C5  UNL d   1       4.905   2.201   0.129  0.00  0.00     0.002 A 
ATOM      4  C6  UNL d   1       5.999   1.895  -0.676  0.00  0.00    -0.004 A 
ATOM      5  C7  UNL d   1       5.969   0.761  -1.485  0.00  0.00     0.002 A 
ATOM      6  C8  UNL d   1       4.840  -0.061  -1.497  0.00  0.00     0.002 A 
ENDROOT
BRANCH   1   7
ATOM      7  C2  UNL d   1       2.501  -0.633  -0.734  0.00  0.00     0.056 C 
BRANCH   7   8
ATOM      8  C1  UNL d   1       2.766  -2.093  -0.350  0.00  0.00     0.007 C 
ATOM      9  C   UNL d   1       1.631  -3.031  -0.737  0.00  0.00     0.009 C 
ENDBRANCH   7   8
ENDBRANCH   1   7
TORSDOF 2
ENDMDL
