MODEL 1
REMARK minimizedAffinity -4.72527266
REMARK minimizedRMSD -1
REMARK  0 active torsions:
REMARK  status: ('A' for Active; 'I' for Inactive)
ROOT
ATOM      1  C4' PXY d   1      -1.171  -1.216  -1.724  0.00  0.00     0.077 C 
ATOM      2  C1' PXY d   1       1.615   2.535   1.679  0.00  0.00     0.077 C 
ATOM      3  C1  PXY d   1       0.891   1.556   0.776  0.00  0.00    -0.082 A 
ATOM      4  C2  PXY d   1      -0.290   1.082   1.139  0.00  0.00     0.003 A 
ATOM      5  C3  PXY d   1      -0.944   0.171   0.350  0.00  0.00     0.003 A 
ATOM      6  C4  PXY d   1      -0.408  -0.218  -0.849  0.00  0.00    -0.082 A 
ATOM      7  C5  PXY d   1       0.791   0.269  -1.231  0.00  0.00     0.003 A 
ATOM      8  C6  PXY d   1       1.458   1.161  -0.396  0.00  0.00     0.003 A 
ENDROOT
TORSDOF 0
ENDMDL
