MODEL 1
REMARK minimizedAffinity -5.46365213
REMARK minimizedRMSD -1
REMARK  0 active torsions:
REMARK  status: ('A' for Active; 'I' for Inactive)
ROOT
ATOM      1  C4' PXY d   1      -0.746  -1.692  -0.525  0.00  0.00     0.077 C 
ATOM      2  C1' PXY d   1       1.755   3.164   1.365  0.00  0.00     0.077 C 
ATOM      3  C1  PXY d   1       1.106   1.892   0.858  0.00  0.00    -0.082 A 
ATOM      4  C2  PXY d   1      -0.045   1.493   1.376  0.00  0.00     0.003 A 
ATOM      5  C3  PXY d   1      -0.630   0.328   0.952  0.00  0.00     0.003 A 
ATOM      6  C4  PXY d   1      -0.059  -0.409  -0.050  0.00  0.00    -0.082 A 
ATOM      7  C5  PXY d   1       1.110  -0.004  -0.591  0.00  0.00     0.003 A 
ATOM      8  C6  PXY d   1       1.709   1.160  -0.118  0.00  0.00     0.003 A 
ENDROOT
TORSDOF 0
ENDMDL
