MODEL 1
REMARK minimizedAffinity -1.16931534
REMARK minimizedRMSD -1
REMARK  0 active torsions:
REMARK  status: ('A' for Active; 'I' for Inactive)
ROOT
ATOM      1  C4' PXY d   1      -0.281   5.652  -4.295  0.00  0.00     0.077 C 
ATOM      2  C1' PXY d   1      -5.997   6.000  -5.085  0.00  0.00     0.077 C 
ATOM      3  C1  PXY d   1      -4.499   5.915  -4.866  0.00  0.00    -0.082 A 
ATOM      4  C2  PXY d   1      -3.692   5.787  -5.907  0.00  0.00     0.003 A 
ATOM      5  C3  PXY d   1      -2.338   5.677  -5.725  0.00  0.00     0.003 A 
ATOM      6  C4  PXY d   1      -1.799   5.751  -4.469  0.00  0.00    -0.082 A 
ATOM      7  C5  PXY d   1      -2.614   5.893  -3.403  0.00  0.00     0.003 A 
ATOM      8  C6  PXY d   1      -3.990   5.961  -3.605  0.00  0.00     0.003 A 
ENDROOT
TORSDOF 0
ENDMDL
