MODEL 1
REMARK minimizedAffinity -3.90063357
REMARK minimizedRMSD -1
REMARK  0 active torsions:
REMARK  status: ('A' for Active; 'I' for Inactive)
ROOT
ATOM      1  C4' PXY d   1      -0.776  -1.695  -0.568  0.00  0.00     0.077 C 
ATOM      2  C1' PXY d   1       1.788   2.915   1.798  0.00  0.00     0.077 C 
ATOM      3  C1  PXY d   1       1.123   1.708   1.166  0.00  0.00    -0.082 A 
ATOM      4  C2  PXY d   1      -0.070   1.322   1.590  0.00  0.00     0.003 A 
ATOM      5  C3  PXY d   1      -0.672   0.213   1.052  0.00  0.00     0.003 A 
ATOM      6  C4  PXY d   1      -0.070  -0.476   0.034  0.00  0.00    -0.082 A 
ATOM      7  C5  PXY d   1       1.142  -0.082  -0.412  0.00  0.00     0.003 A 
ATOM      8  C6  PXY d   1       1.754   1.021   0.176  0.00  0.00     0.003 A 
ENDROOT
TORSDOF 0
ENDMDL
