MODEL 1
REMARK minimizedAffinity -4.26198244
REMARK minimizedRMSD -1
REMARK  0 active torsions:
REMARK  status: ('A' for Active; 'I' for Inactive)
ROOT
ATOM      1  C4' PXY d   1      -1.009  -1.966  -1.063  0.00  0.00     0.077 C 
ATOM      2  C1' PXY d   1       2.869   2.150   0.138  0.00  0.00     0.077 C 
ATOM      3  C1  PXY d   1       1.861   1.064  -0.185  0.00  0.00    -0.082 A 
ATOM      4  C2  PXY d   1       0.567   1.320  -0.077  0.00  0.00     0.003 A 
ATOM      5  C3  PXY d   1      -0.358   0.341  -0.334  0.00  0.00     0.003 A 
ATOM      6  C4  PXY d   1       0.045  -0.898  -0.757  0.00  0.00    -0.082 A 
ATOM      7  C5  PXY d   1       1.362  -1.163  -0.880  0.00  0.00     0.003 A 
ATOM      8  C6  PXY d   1       2.286  -0.168  -0.574  0.00  0.00     0.003 A 
ENDROOT
TORSDOF 0
ENDMDL
