MODEL 1
REMARK minimizedAffinity -3.59162664
REMARK minimizedRMSD -1
REMARK  0 active torsions:
REMARK  status: ('A' for Active; 'I' for Inactive)
ROOT
ATOM      1  C4' PXY d   1      -0.836  -1.168  -0.787  0.00  0.00     0.077 C 
ATOM      2  C1' PXY d   1       2.554   2.719   1.823  0.00  0.00     0.077 C 
ATOM      3  C1  PXY d   1       1.664   1.693   1.149  0.00  0.00    -0.082 A 
ATOM      4  C2  PXY d   1       1.697   1.561  -0.167  0.00  0.00     0.003 A 
ATOM      5  C3  PXY d   1       0.876   0.660  -0.795  0.00  0.00     0.003 A 
ATOM      6  C4  PXY d   1       0.051  -0.152  -0.064  0.00  0.00    -0.082 A 
ATOM      7  C5  PXY d   1       0.019  -0.031   1.280  0.00  0.00     0.003 A 
ATOM      8  C6  PXY d   1       0.831   0.918   1.895  0.00  0.00     0.003 A 
ENDROOT
TORSDOF 0
ENDMDL
