MODEL 1
REMARK minimizedAffinity -3.26324797
REMARK minimizedRMSD -1
REMARK  0 active torsions:
REMARK  status: ('A' for Active; 'I' for Inactive)
ROOT
ATOM      1  C4' PXY d   1       3.206   0.814  -0.230  0.00  0.00     0.077 C 
ATOM      2  C1' PXY d   1      -2.118   0.941   2.019  0.00  0.00     0.077 C 
ATOM      3  C1  PXY d   1      -0.720   0.920   1.434  0.00  0.00    -0.082 A 
ATOM      4  C2  PXY d   1      -0.447   0.113   0.421  0.00  0.00     0.003 A 
ATOM      5  C3  PXY d   1       0.821   0.057  -0.099  0.00  0.00     0.003 A 
ATOM      6  C4  PXY d   1       1.805   0.875   0.386  0.00  0.00    -0.082 A 
ATOM      7  C5  PXY d   1       1.532   1.710   1.412  0.00  0.00     0.003 A 
ATOM      8  C6  PXY d   1       0.250   1.721   1.953  0.00  0.00     0.003 A 
ENDROOT
TORSDOF 0
ENDMDL
