MODEL 1
REMARK minimizedAffinity -4.22246075
REMARK minimizedRMSD -1
REMARK  0 active torsions:
REMARK  status: ('A' for Active; 'I' for Inactive)
ROOT
ATOM      1  C4' PXY d   1       1.825   3.051   1.492  0.00  0.00     0.077 C 
ATOM      2  C1' PXY d   1      -0.177  -1.788  -0.956  0.00  0.00     0.077 C 
ATOM      3  C1  PXY d   1       0.360  -0.522  -0.318  0.00  0.00    -0.082 A 
ATOM      4  C2  PXY d   1      -0.296   0.032   0.688  0.00  0.00     0.003 A 
ATOM      5  C3  PXY d   1       0.158   1.195   1.256  0.00  0.00     0.003 A 
ATOM      6  C4  PXY d   1       1.325   1.767   0.823  0.00  0.00    -0.082 A 
ATOM      7  C5  PXY d   1       2.005   1.202  -0.196  0.00  0.00     0.003 A 
ATOM      8  C6  PXY d   1       1.505   0.044  -0.786  0.00  0.00     0.003 A 
ENDROOT
TORSDOF 0
ENDMDL
