MODEL 1
REMARK minimizedAffinity -2.75138521
REMARK minimizedRMSD -1
REMARK  0 active torsions:
REMARK  status: ('A' for Active; 'I' for Inactive)
ROOT
ATOM      1  C4' PXY d   1      -0.716  -1.866  -0.792  0.00  0.00     0.077 C 
ATOM      2  C1' PXY d   1       0.734   3.325   1.298  0.00  0.00     0.077 C 
ATOM      3  C1  PXY d   1       0.348   1.961   0.761  0.00  0.00    -0.082 A 
ATOM      4  C2  PXY d   1       1.029   1.437  -0.245  0.00  0.00     0.003 A 
ATOM      5  C3  PXY d   1       0.674   0.219  -0.764  0.00  0.00     0.003 A 
ATOM      6  C4  PXY d   1      -0.356  -0.495  -0.212  0.00  0.00    -0.082 A 
ATOM      7  C5  PXY d   1      -1.049   0.028   0.821  0.00  0.00     0.003 A 
ATOM      8  C6  PXY d   1      -0.699   1.284   1.307  0.00  0.00     0.003 A 
ENDROOT
TORSDOF 0
ENDMDL
