MODEL 1
REMARK minimizedAffinity -2.03101516
REMARK minimizedRMSD -1
REMARK  0 active torsions:
REMARK  status: ('A' for Active; 'I' for Inactive)
ROOT
ATOM      1  C4' PXY d   1       2.569  -0.207  -1.317  0.00  0.00     0.077 C 
ATOM      2  C1' PXY d   1      -2.172   0.255   1.958  0.00  0.00     0.077 C 
ATOM      3  C1  PXY d   1      -0.930   0.121   1.099  0.00  0.00    -0.082 A 
ATOM      4  C2  PXY d   1      -0.006   1.067   1.133  0.00  0.00     0.003 A 
ATOM      5  C3  PXY d   1       1.108   0.977   0.338  0.00  0.00     0.003 A 
ATOM      6  C4  PXY d   1       1.303  -0.118  -0.460  0.00  0.00    -0.082 A 
ATOM      7  C5  PXY d   1       0.369  -1.092  -0.492  0.00  0.00     0.003 A 
ATOM      8  C6  PXY d   1      -0.774  -0.962   0.291  0.00  0.00     0.003 A 
ENDROOT
TORSDOF 0
ENDMDL
