MODEL 1
REMARK minimizedAffinity -2.38295031
REMARK minimizedRMSD -1
REMARK  0 active torsions:
REMARK  status: ('A' for Active; 'I' for Inactive)
ROOT
ATOM      1  C4' PXY d   1      -2.897  -1.475  -3.055  0.00  0.00     0.077 C 
ATOM      2  C1' PXY d   1      -5.412  -5.730  -0.057  0.00  0.00     0.077 C 
ATOM      3  C1  PXY d   1      -4.758  -4.618  -0.854  0.00  0.00    -0.082 A 
ATOM      4  C2  PXY d   1      -3.650  -4.054  -0.402  0.00  0.00     0.003 A 
ATOM      5  C3  PXY d   1      -3.063  -3.026  -1.094  0.00  0.00     0.003 A 
ATOM      6  C4  PXY d   1      -3.587  -2.607  -2.288  0.00  0.00    -0.082 A 
ATOM      7  C5  PXY d   1      -4.711  -3.184  -2.761  0.00  0.00     0.003 A 
ATOM      8  C6  PXY d   1      -5.315  -4.198  -2.022  0.00  0.00     0.003 A 
ENDROOT
TORSDOF 0
ENDMDL
