MODEL 1
REMARK minimizedAffinity -4.87167883
REMARK minimizedRMSD -1
REMARK  0 active torsions:
REMARK  status: ('A' for Active; 'I' for Inactive)
ROOT
ATOM      1  C4' PXY d   1       2.362   3.127   1.263  0.00  0.00     0.077 C 
ATOM      2  C1' PXY d   1      -0.916  -1.388  -0.248  0.00  0.00     0.077 C 
ATOM      3  C1  PXY d   1      -0.067  -0.198   0.154  0.00  0.00    -0.082 A 
ATOM      4  C2  PXY d   1       1.061   0.048  -0.492  0.00  0.00     0.003 A 
ATOM      5  C3  PXY d   1       1.857   1.101  -0.121  0.00  0.00     0.003 A 
ATOM      6  C4  PXY d   1       1.468   1.942   0.886  0.00  0.00    -0.082 A 
ATOM      7  C5  PXY d   1       0.313   1.704   1.543  0.00  0.00     0.003 A 
ATOM      8  C6  PXY d   1      -0.460   0.606   1.179  0.00  0.00     0.003 A 
ENDROOT
TORSDOF 0
ENDMDL
