MODEL 1
REMARK minimizedAffinity -3.95772243
REMARK minimizedRMSD -1
REMARK  0 active torsions:
REMARK  status: ('A' for Active; 'I' for Inactive)
ROOT
ATOM      1  C4' PXY d   1      -4.876  -3.775  -0.373  0.00  0.00     0.077 C 
ATOM      2  C1' PXY d   1      -0.854  -0.840  -3.310  0.00  0.00     0.077 C 
ATOM      3  C1  PXY d   1      -1.900  -1.615  -2.532  0.00  0.00    -0.082 A 
ATOM      4  C2  PXY d   1      -3.039  -1.945  -3.118  0.00  0.00     0.003 A 
ATOM      5  C3  PXY d   1      -4.009  -2.617  -2.419  0.00  0.00     0.003 A 
ATOM      6  C4  PXY d   1      -3.788  -3.002  -1.123  0.00  0.00    -0.082 A 
ATOM      7  C5  PXY d   1      -2.624  -2.677  -0.522  0.00  0.00     0.003 A 
ATOM      8  C6  PXY d   1      -1.669  -1.959  -1.236  0.00  0.00     0.003 A 
ENDROOT
TORSDOF 0
ENDMDL
