MODEL 1
REMARK minimizedAffinity -2.8298254
REMARK minimizedRMSD -1
REMARK  0 active torsions:
REMARK  status: ('A' for Active; 'I' for Inactive)
ROOT
ATOM      1  C4' PXY d   1      -1.221  -1.722  -1.015  0.00  0.00     0.077 C 
ATOM      2  C1' PXY d   1       1.092   3.012   1.363  0.00  0.00     0.077 C 
ATOM      3  C1  PXY d   1       0.480   1.767   0.751  0.00  0.00    -0.082 A 
ATOM      4  C2  PXY d   1       1.016   1.243  -0.339  0.00  0.00     0.003 A 
ATOM      5  C3  PXY d   1       0.456   0.136  -0.924  0.00  0.00     0.003 A 
ATOM      6  C4  PXY d   1      -0.632  -0.472  -0.357  0.00  0.00    -0.082 A 
ATOM      7  C5  PXY d   1      -1.178   0.051   0.761  0.00  0.00     0.003 A 
ATOM      8  C6  PXY d   1      -0.620   1.199   1.316  0.00  0.00     0.003 A 
ENDROOT
TORSDOF 0
ENDMDL
