MODEL 1
REMARK minimizedAffinity -4.12407494
REMARK minimizedRMSD -1
REMARK  0 active torsions:
REMARK  status: ('A' for Active; 'I' for Inactive)
ROOT
ATOM      1  C4' PXY d   1      -1.791   1.057   1.154  0.00  0.00     0.077 C 
ATOM      2  C1' PXY d   1       3.889   1.550   0.200  0.00  0.00     0.077 C 
ATOM      3  C1  PXY d   1       2.398   1.416   0.438  0.00  0.00    -0.082 A 
ATOM      4  C2  PXY d   1       1.805   2.194   1.329  0.00  0.00     0.003 A 
ATOM      5  C3  PXY d   1       0.464   2.064   1.580  0.00  0.00     0.003 A 
ATOM      6  C4  PXY d   1      -0.289   1.164   0.874  0.00  0.00    -0.082 A 
ATOM      7  C5  PXY d   1       0.306   0.374  -0.045  0.00  0.00     0.003 A 
ATOM      8  C6  PXY d   1       1.677   0.494  -0.255  0.00  0.00     0.003 A 
ENDROOT
TORSDOF 0
ENDMDL
