MODEL 1
REMARK minimizedAffinity -4.04772663
REMARK minimizedRMSD -1
REMARK  0 active torsions:
REMARK  status: ('A' for Active; 'I' for Inactive)
ROOT
ATOM      1  C4' PXY d   1       0.363   1.217   2.190  0.00  0.00     0.077 C 
ATOM      2  C1' PXY d   1      -1.969  -1.877  -2.099  0.00  0.00     0.077 C 
ATOM      3  C1  PXY d   1      -1.366  -1.056  -0.977  0.00  0.00    -0.082 A 
ATOM      4  C2  PXY d   1      -0.119  -1.284  -0.596  0.00  0.00     0.003 A 
ATOM      5  C3  PXY d   1       0.431  -0.573   0.439  0.00  0.00     0.003 A 
ATOM      6  C4  PXY d   1      -0.284   0.419   1.055  0.00  0.00    -0.082 A 
ATOM      7  C5  PXY d   1      -1.552   0.665   0.666  0.00  0.00     0.003 A 
ATOM      8  C6  PXY d   1      -2.107  -0.096  -0.359  0.00  0.00     0.003 A 
ENDROOT
TORSDOF 0
ENDMDL
