MODEL 1
REMARK minimizedAffinity -1.71335173
REMARK minimizedRMSD -1
REMARK  0 active torsions:
REMARK  status: ('A' for Active; 'I' for Inactive)
ROOT
ATOM      1  C4' PXY d   1       3.585   1.536   1.357  0.00  0.00     0.077 C 
ATOM      2  C1' PXY d   1      -1.423  -0.890  -0.208  0.00  0.00     0.077 C 
ATOM      3  C1  PXY d   1      -0.116  -0.243   0.206  0.00  0.00    -0.082 A 
ATOM      4  C2  PXY d   1       1.013  -0.622  -0.370  0.00  0.00     0.003 A 
ATOM      5  C3  PXY d   1       2.208  -0.070   0.016  0.00  0.00     0.003 A 
ATOM      6  C4  PXY d   1       2.241   0.917   0.963  0.00  0.00    -0.082 A 
ATOM      7  C5  PXY d   1       1.092   1.317   1.548  0.00  0.00     0.003 A 
ATOM      8  C6  PXY d   1      -0.105   0.716   1.172  0.00  0.00     0.003 A 
ENDROOT
TORSDOF 0
ENDMDL
