MODEL 1
REMARK minimizedAffinity -3.54070139
REMARK minimizedRMSD -1
REMARK  0 active torsions:
REMARK  status: ('A' for Active; 'I' for Inactive)
ROOT
ATOM      1  C4' PXY d   1      -1.898  -1.545  -1.877  0.00  0.00     0.077 C 
ATOM      2  C1' PXY d   1       1.308   1.133   2.118  0.00  0.00     0.077 C 
ATOM      3  C1  PXY d   1       0.478   0.430   1.063  0.00  0.00    -0.082 A 
ATOM      4  C2  PXY d   1      -0.839   0.564   1.070  0.00  0.00     0.003 A 
ATOM      5  C3  PXY d   1      -1.608  -0.090   0.142  0.00  0.00     0.003 A 
ATOM      6  C4  PXY d   1      -1.019  -0.846  -0.836  0.00  0.00    -0.082 A 
ATOM      7  C5  PXY d   1       0.324  -0.979  -0.857  0.00  0.00     0.003 A 
ATOM      8  C6  PXY d   1       1.084  -0.341   0.119  0.00  0.00     0.003 A 
ENDROOT
TORSDOF 0
ENDMDL
