MODEL 1
REMARK minimizedAffinity -4.85161877
REMARK minimizedRMSD -1
REMARK  0 active torsions:
REMARK  status: ('A' for Active; 'I' for Inactive)
ROOT
ATOM      1  C4' PXY d   1       3.292   0.056  -0.556  0.00  0.00     0.077 C 
ATOM      2  C1' PXY d   1      -1.877   0.291   2.023  0.00  0.00     0.077 C 
ATOM      3  C1  PXY d   1      -0.519   0.242   1.349  0.00  0.00    -0.082 A 
ATOM      4  C2  PXY d   1      -0.271  -0.692   0.444  0.00  0.00     0.003 A 
ATOM      5  C3  PXY d   1       0.961  -0.770  -0.151  0.00  0.00     0.003 A 
ATOM      6  C4  PXY d   1       1.933   0.149   0.143  0.00  0.00    -0.082 A 
ATOM      7  C5  PXY d   1       1.684   1.111   1.057  0.00  0.00     0.003 A 
ATOM      8  C6  PXY d   1       0.440   1.148   1.680  0.00  0.00     0.003 A 
ENDROOT
TORSDOF 0
ENDMDL
