MODEL 1
REMARK minimizedAffinity -5.20729446
REMARK minimizedRMSD -1
REMARK  0 active torsions:
REMARK  status: ('A' for Active; 'I' for Inactive)
ROOT
ATOM      1  C4' PXY d   1      -2.925  -1.785  -2.735  0.00  0.00     0.077 C 
ATOM      2  C1' PXY d   1       2.431  -0.223  -1.224  0.00  0.00     0.077 C 
ATOM      3  C1  PXY d   1       1.028  -0.626  -1.631  0.00  0.00    -0.082 A 
ATOM      4  C2  PXY d   1       0.134  -0.917  -0.700  0.00  0.00     0.003 A 
ATOM      5  C3  PXY d   1      -1.130  -1.315  -1.052  0.00  0.00     0.003 A 
ATOM      6  C4  PXY d   1      -1.499  -1.363  -2.369  0.00  0.00    -0.082 A 
ATOM      7  C5  PXY d   1      -0.597  -1.057  -3.325  0.00  0.00     0.003 A 
ATOM      8  C6  PXY d   1       0.694  -0.696  -2.948  0.00  0.00     0.003 A 
ENDROOT
TORSDOF 0
ENDMDL
