MODEL 1
REMARK minimizedAffinity -3.47743583
REMARK minimizedRMSD -1
REMARK  1 active torsions:
REMARK  status: ('A' for Active; 'I' for Inactive)
REMARK    1  A    between atoms: C1_2  and  C2_3 
ROOT
ATOM      1  C2  UNL d   1      -1.003  -0.386   0.677  0.00  0.00    -0.073 A 
ATOM      2  C3  UNL d   1      -0.826   0.293  -0.534  0.00  0.00    -0.002 A 
ATOM      3  C4  UNL d   1       0.091   1.340  -0.627  0.00  0.00     0.004 A 
ATOM      4  C5  UNL d   1       0.845   1.715   0.485  0.00  0.00    -0.004 A 
ATOM      5  C6  UNL d   1       0.691   1.041   1.701  0.00  0.00    -0.075 A 
ATOM      6  C7  UNL d   1       1.493   1.433   2.907  0.00  0.00     0.076 C 
ATOM      7  C8  UNL d   1      -0.234  -0.008   1.787  0.00  0.00     0.001 A 
ENDROOT
BRANCH   1   8
ATOM      8  C1  UNL d   1      -1.988  -1.522   0.781  0.00  0.00     0.053 C 
ATOM      9  C   UNL d   1      -1.427  -2.692   1.573  0.00  0.00     0.018 C 
ENDBRANCH   1   8
TORSDOF 1
ENDMDL
