MODEL 1
REMARK minimizedAffinity -5.00828505
REMARK minimizedRMSD -1
REMARK  1 active torsions:
REMARK  status: ('A' for Active; 'I' for Inactive)
REMARK    1  A    between atoms: C1_2  and  C2_3 
ROOT
ATOM      1  C2  UNL d   1      -0.328   0.629  -0.587  0.00  0.00    -0.073 A 
ATOM      2  C3  UNL d   1      -1.636   0.837  -1.040  0.00  0.00    -0.002 A 
ATOM      3  C4  UNL d   1      -2.723   0.508  -0.229  0.00  0.00     0.004 A 
ATOM      4  C5  UNL d   1      -2.515  -0.025   1.042  0.00  0.00    -0.004 A 
ATOM      5  C6  UNL d   1      -1.215  -0.230   1.517  0.00  0.00    -0.075 A 
ATOM      6  C7  UNL d   1      -0.974  -0.805   2.882  0.00  0.00     0.076 C 
ATOM      7  C8  UNL d   1      -0.128   0.101   0.697  0.00  0.00     0.001 A 
ENDROOT
BRANCH   1   8
ATOM      8  C1  UNL d   1       0.850   0.989  -1.456  0.00  0.00     0.053 C 
ATOM      9  C   UNL d   1       1.154  -0.093  -2.480  0.00  0.00     0.018 C 
ENDBRANCH   1   8
TORSDOF 1
ENDMDL
