MODEL 1
REMARK minimizedAffinity -4.91278267
REMARK minimizedRMSD -1
REMARK  1 active torsions:
REMARK  status: ('A' for Active; 'I' for Inactive)
REMARK    1  A    between atoms: C1_2  and  C2_3 
ROOT
ATOM      1  C2  UNL d   1      -1.249   0.223   1.941  0.00  0.00    -0.073 A 
ATOM      2  C3  UNL d   1      -0.055   0.538   2.598  0.00  0.00    -0.002 A 
ATOM      3  C4  UNL d   1       1.130   0.687   1.876  0.00  0.00     0.004 A 
ATOM      4  C5  UNL d   1       1.131   0.530   0.490  0.00  0.00    -0.004 A 
ATOM      5  C6  UNL d   1      -0.055   0.227  -0.187  0.00  0.00    -0.075 A 
ATOM      6  C7  UNL d   1      -0.070   0.053  -1.677  0.00  0.00     0.076 C 
ATOM      7  C8  UNL d   1      -1.240   0.076   0.546  0.00  0.00     0.001 A 
ENDROOT
BRANCH   1   8
ATOM      8  C1  UNL d   1      -2.532   0.067   2.716  0.00  0.00     0.053 C 
ATOM      9  C   UNL d   1      -3.479   1.235   2.491  0.00  0.00     0.018 C 
ENDBRANCH   1   8
TORSDOF 1
ENDMDL
