MODEL 1
REMARK minimizedAffinity -1.39062643
REMARK minimizedRMSD -1
REMARK  1 active torsions:
REMARK  status: ('A' for Active; 'I' for Inactive)
REMARK    1  A    between atoms: C1_2  and  C2_3 
ROOT
ATOM      1  C2  UNL d   1      -0.035   0.403  -0.003  0.00  0.00    -0.073 A 
ATOM      2  C3  UNL d   1       0.901   1.283   0.553  0.00  0.00    -0.002 A 
ATOM      3  C4  UNL d   1       1.138   1.285   1.928  0.00  0.00     0.004 A 
ATOM      4  C5  UNL d   1       0.448   0.403   2.760  0.00  0.00    -0.004 A 
ATOM      5  C6  UNL d   1      -0.483  -0.492   2.222  0.00  0.00    -0.075 A 
ATOM      6  C7  UNL d   1      -1.235  -1.445   3.104  0.00  0.00     0.076 C 
ATOM      7  C8  UNL d   1      -0.717  -0.485   0.841  0.00  0.00     0.001 A 
ENDROOT
BRANCH   1   8
ATOM      8  C1  UNL d   1      -0.290   0.394  -1.488  0.00  0.00     0.053 C 
ATOM      9  C   UNL d   1       0.931  -0.059  -2.272  0.00  0.00     0.018 C 
ENDBRANCH   1   8
TORSDOF 1
ENDMDL
