MODEL 1
REMARK minimizedAffinity -4.74680901
REMARK minimizedRMSD -1
REMARK  1 active torsions:
REMARK  status: ('A' for Active; 'I' for Inactive)
REMARK    1  A    between atoms: C1_2  and  C2_3 
ROOT
ATOM      1  C2  UNL d   1      -0.120   0.415   0.934  0.00  0.00    -0.073 A 
ATOM      2  C3  UNL d   1       0.370  -0.002   2.177  0.00  0.00    -0.002 A 
ATOM      3  C4  UNL d   1      -0.493  -0.550   3.127  0.00  0.00     0.004 A 
ATOM      4  C5  UNL d   1      -1.851  -0.693   2.842  0.00  0.00    -0.004 A 
ATOM      5  C6  UNL d   1      -2.357  -0.293   1.601  0.00  0.00    -0.075 A 
ATOM      6  C7  UNL d   1      -3.816  -0.437   1.280  0.00  0.00     0.076 C 
ATOM      7  C8  UNL d   1      -1.485   0.259   0.654  0.00  0.00     0.001 A 
ENDROOT
BRANCH   1   8
ATOM      8  C1  UNL d   1       0.810   1.001  -0.097  0.00  0.00     0.053 C 
ATOM      9  C   UNL d   1       1.166  -0.004  -1.181  0.00  0.00     0.018 C 
ENDBRANCH   1   8
TORSDOF 1
ENDMDL
