MODEL 1
REMARK minimizedAffinity -5.76701021
REMARK minimizedRMSD -1
REMARK  1 active torsions:
REMARK  status: ('A' for Active; 'I' for Inactive)
REMARK    1  A    between atoms: C1_2  and  C2_3 
ROOT
ATOM      1  C2  UNL d   1      -0.157  -0.098  -1.317  0.00  0.00    -0.073 A 
ATOM      2  C3  UNL d   1      -1.467   0.358  -1.507  0.00  0.00    -0.002 A 
ATOM      3  C4  UNL d   1      -2.220   0.810  -0.422  0.00  0.00     0.004 A 
ATOM      4  C5  UNL d   1      -1.670   0.817   0.860  0.00  0.00    -0.004 A 
ATOM      5  C6  UNL d   1      -0.359   0.377   1.067  0.00  0.00    -0.075 A 
ATOM      6  C7  UNL d   1       0.247   0.377   2.440  0.00  0.00     0.076 C 
ATOM      7  C8  UNL d   1       0.390  -0.078  -0.026  0.00  0.00     0.001 A 
ENDROOT
BRANCH   1   8
ATOM      8  C1  UNL d   1       0.662  -0.581  -2.486  0.00  0.00     0.053 C 
ATOM      9  C   UNL d   1       0.047  -1.804  -3.147  0.00  0.00     0.018 C 
ENDBRANCH   1   8
TORSDOF 1
ENDMDL
