MODEL 1
REMARK minimizedAffinity -3.15354657
REMARK minimizedRMSD -1
REMARK  1 active torsions:
REMARK  status: ('A' for Active; 'I' for Inactive)
REMARK    1  A    between atoms: C1_2  and  C2_3 
ROOT
ATOM      1  C2  UNL d   1      -0.794   0.266   1.308  0.00  0.00    -0.073 A 
ATOM      2  C3  UNL d   1      -2.022   0.747   0.841  0.00  0.00    -0.002 A 
ATOM      3  C4  UNL d   1      -2.237   0.920  -0.527  0.00  0.00     0.004 A 
ATOM      4  C5  UNL d   1      -1.230   0.607  -1.441  0.00  0.00    -0.004 A 
ATOM      5  C6  UNL d   1      -0.001   0.113  -0.994  0.00  0.00    -0.075 A 
ATOM      6  C7  UNL d   1       1.093  -0.226  -1.963  0.00  0.00     0.076 C 
ATOM      7  C8  UNL d   1       0.208  -0.055   0.382  0.00  0.00     0.001 A 
ENDROOT
BRANCH   1   8
ATOM      8  C1  UNL d   1      -0.560   0.072   2.784  0.00  0.00     0.053 C 
ATOM      9  C   UNL d   1      -0.623   1.384   3.549  0.00  0.00     0.018 C 
ENDBRANCH   1   8
TORSDOF 1
ENDMDL
