MODEL 1
REMARK minimizedAffinity 0.821893334
REMARK minimizedRMSD -1
REMARK  1 active torsions:
REMARK  status: ('A' for Active; 'I' for Inactive)
REMARK    1  A    between atoms: C1_2  and  C2_3 
ROOT
ATOM      1  C2  UNL d   1      -1.752   0.945   1.169  0.00  0.00    -0.073 A 
ATOM      2  C3  UNL d   1      -0.878   1.050   2.257  0.00  0.00    -0.002 A 
ATOM      3  C4  UNL d   1       0.494   0.861   2.081  0.00  0.00     0.004 A 
ATOM      4  C5  UNL d   1       1.005   0.571   0.816  0.00  0.00    -0.004 A 
ATOM      5  C6  UNL d   1       0.149   0.473  -0.286  0.00  0.00    -0.075 A 
ATOM      6  C7  UNL d   1       0.684   0.159  -1.652  0.00  0.00     0.076 C 
ATOM      7  C8  UNL d   1      -1.227   0.662  -0.100  0.00  0.00     0.001 A 
ENDROOT
BRANCH   1   8
ATOM      8  C1  UNL d   1      -3.232   1.155   1.353  0.00  0.00     0.053 C 
ATOM      9  C   UNL d   1      -3.565   1.683   2.740  0.00  0.00     0.018 C 
ENDBRANCH   1   8
TORSDOF 1
ENDMDL
