MODEL 1
REMARK minimizedAffinity -5.00803614
REMARK minimizedRMSD -1
REMARK  1 active torsions:
REMARK  status: ('A' for Active; 'I' for Inactive)
REMARK    1  A    between atoms: C1_2  and  C2_3 
ROOT
ATOM      1  C2  UNL d   1      -0.117  -0.016   0.523  0.00  0.00    -0.073 A 
ATOM      2  C3  UNL d   1       1.063   0.433   1.128  0.00  0.00    -0.002 A 
ATOM      3  C4  UNL d   1       1.145   0.542   2.517  0.00  0.00     0.004 A 
ATOM      4  C5  UNL d   1       0.054   0.196   3.314  0.00  0.00    -0.004 A 
ATOM      5  C6  UNL d   1      -1.129  -0.266   2.729  0.00  0.00    -0.075 A 
ATOM      6  C7  UNL d   1      -2.313  -0.639   3.572  0.00  0.00     0.076 C 
ATOM      7  C8  UNL d   1      -1.205  -0.370   1.334  0.00  0.00     0.001 A 
ENDROOT
BRANCH   1   8
ATOM      8  C1  UNL d   1      -0.208  -0.141  -0.976  0.00  0.00     0.053 C 
ATOM      9  C   UNL d   1       1.108   0.198  -1.657  0.00  0.00     0.018 C 
ENDBRANCH   1   8
TORSDOF 1
ENDMDL
