MODEL 1
REMARK minimizedAffinity -1.19957447
REMARK minimizedRMSD -1
REMARK  1 active torsions:
REMARK  status: ('A' for Active; 'I' for Inactive)
REMARK    1  A    between atoms: C1_2  and  C2_3 
ROOT
ATOM      1  C2  UNL d   1      -0.434   0.132  -0.151  0.00  0.00    -0.073 A 
ATOM      2  C3  UNL d   1      -1.560  -0.451   0.441  0.00  0.00    -0.002 A 
ATOM      3  C4  UNL d   1      -1.588  -0.695   1.815  0.00  0.00     0.004 A 
ATOM      4  C5  UNL d   1      -0.495  -0.352   2.611  0.00  0.00    -0.004 A 
ATOM      5  C6  UNL d   1       0.635   0.242   2.039  0.00  0.00    -0.075 A 
ATOM      6  C7  UNL d   1       1.820   0.614   2.881  0.00  0.00     0.076 C 
ATOM      7  C8  UNL d   1       0.656   0.481   0.659  0.00  0.00     0.001 A 
ENDROOT
BRANCH   1   8
ATOM      8  C1  UNL d   1      -0.402   0.403  -1.633  0.00  0.00     0.053 C 
ATOM      9  C   UNL d   1       0.764  -0.295  -2.315  0.00  0.00     0.018 C 
ENDBRANCH   1   8
TORSDOF 1
ENDMDL
