MODEL 1
REMARK minimizedAffinity -2.95983672
REMARK minimizedRMSD -1
REMARK  1 active torsions:
REMARK  status: ('A' for Active; 'I' for Inactive)
REMARK    1  A    between atoms: C1_2  and  C2_3 
ROOT
ATOM      1  C2  UNL d   1       0.019   0.409   0.527  0.00  0.00    -0.073 A 
ATOM      2  C3  UNL d   1       0.538   0.566   1.817  0.00  0.00    -0.002 A 
ATOM      3  C4  UNL d   1      -0.277   0.369   2.933  0.00  0.00     0.004 A 
ATOM      4  C5  UNL d   1      -1.614   0.008   2.771  0.00  0.00    -0.004 A 
ATOM      5  C6  UNL d   1      -2.148  -0.166   1.490  0.00  0.00    -0.075 A 
ATOM      6  C7  UNL d   1      -3.585  -0.553   1.298  0.00  0.00     0.076 C 
ATOM      7  C8  UNL d   1      -1.324   0.036   0.374  0.00  0.00     0.001 A 
ENDROOT
BRANCH   1   8
ATOM      8  C1  UNL d   1       0.897   0.614  -0.681  0.00  0.00     0.053 C 
ATOM      9  C   UNL d   1       0.475  -0.266  -1.848  0.00  0.00     0.018 C 
ENDBRANCH   1   8
TORSDOF 1
ENDMDL
