MODEL 1
REMARK minimizedAffinity -3.064538
REMARK minimizedRMSD -1
REMARK  1 active torsions:
REMARK  status: ('A' for Active; 'I' for Inactive)
REMARK    1  A    between atoms: C1_2  and  C2_3 
ROOT
ATOM      1  C2  UNL d   1      -0.072  -0.593   0.232  0.00  0.00    -0.073 A 
ATOM      2  C3  UNL d   1      -1.074  -1.410   0.768  0.00  0.00    -0.002 A 
ATOM      3  C4  UNL d   1      -1.412  -1.317   2.119  0.00  0.00     0.004 A 
ATOM      4  C5  UNL d   1      -0.758  -0.403   2.945  0.00  0.00    -0.004 A 
ATOM      5  C6  UNL d   1       0.238   0.430   2.425  0.00  0.00    -0.075 A 
ATOM      6  C7  UNL d   1       0.952   1.417   3.301  0.00  0.00     0.076 C 
ATOM      7  C8  UNL d   1       0.573   0.329   1.069  0.00  0.00     0.001 A 
ENDROOT
BRANCH   1   8
ATOM      8  C1  UNL d   1       0.292  -0.686  -1.227  0.00  0.00     0.053 C 
ATOM      9  C   UNL d   1       1.465   0.215  -1.580  0.00  0.00     0.018 C 
ENDBRANCH   1   8
TORSDOF 1
ENDMDL
