MODEL 1
REMARK minimizedAffinity -4.40725231
REMARK minimizedRMSD -1
REMARK  1 active torsions:
REMARK  status: ('A' for Active; 'I' for Inactive)
REMARK    1  A    between atoms: C1_2  and  C2_3 
ROOT
ATOM      1  C2  UNL d   1      -0.678   0.302  -0.345  0.00  0.00    -0.073 A 
ATOM      2  C3  UNL d   1      -2.058   0.524  -0.404  0.00  0.00    -0.002 A 
ATOM      3  C4  UNL d   1      -2.868   0.219   0.691  0.00  0.00     0.004 A 
ATOM      4  C5  UNL d   1      -2.306  -0.303   1.856  0.00  0.00    -0.004 A 
ATOM      5  C6  UNL d   1      -0.927  -0.520   1.938  0.00  0.00    -0.075 A 
ATOM      6  C7  UNL d   1      -0.307  -1.083   3.184  0.00  0.00     0.076 C 
ATOM      7  C8  UNL d   1      -0.121  -0.214   0.834  0.00  0.00     0.001 A 
ENDROOT
BRANCH   1   8
ATOM      8  C1  UNL d   1       0.202   0.636  -1.522  0.00  0.00     0.053 C 
ATOM      9  C   UNL d   1       0.806  -0.608  -2.154  0.00  0.00     0.018 C 
ENDBRANCH   1   8
TORSDOF 1
ENDMDL
