MODEL 1
REMARK minimizedAffinity -2.24317789
REMARK minimizedRMSD -1
REMARK  1 active torsions:
REMARK  status: ('A' for Active; 'I' for Inactive)
REMARK    1  A    between atoms: C1_2  and  C2_3 
ROOT
ATOM      1  C2  UNL d   1       0.121   0.354  -0.624  0.00  0.00    -0.073 A 
ATOM      2  C3  UNL d   1      -1.189   0.610  -1.047  0.00  0.00    -0.002 A 
ATOM      3  C4  UNL d   1      -2.258   0.458  -0.163  0.00  0.00     0.004 A 
ATOM      4  C5  UNL d   1      -2.029   0.057   1.153  0.00  0.00    -0.004 A 
ATOM      5  C6  UNL d   1      -0.726  -0.192   1.598  0.00  0.00    -0.075 A 
ATOM      6  C7  UNL d   1      -0.463  -0.626   3.010  0.00  0.00     0.076 C 
ATOM      7  C8  UNL d   1       0.342  -0.040   0.704  0.00  0.00     0.001 A 
ENDROOT
BRANCH   1   8
ATOM      8  C1  UNL d   1       1.279   0.522  -1.573  0.00  0.00     0.053 C 
ATOM      9  C   UNL d   1       1.196  -0.438  -2.749  0.00  0.00     0.018 C 
ENDBRANCH   1   8
TORSDOF 1
ENDMDL
