MODEL 1
REMARK minimizedAffinity -4.01812172
REMARK minimizedRMSD -1
REMARK  1 active torsions:
REMARK  status: ('A' for Active; 'I' for Inactive)
REMARK    1  A    between atoms: C1_2  and  C2_3 
ROOT
ATOM      1  C2  UNL d   1      -0.240   0.149  -0.663  0.00  0.00    -0.073 A 
ATOM      2  C3  UNL d   1      -1.557   0.587  -0.841  0.00  0.00    -0.002 A 
ATOM      3  C4  UNL d   1      -2.475   0.503   0.206  0.00  0.00     0.004 A 
ATOM      4  C5  UNL d   1      -2.085  -0.012   1.443  0.00  0.00    -0.004 A 
ATOM      5  C6  UNL d   1      -0.770  -0.444   1.644  0.00  0.00    -0.075 A 
ATOM      6  C7  UNL d   1      -0.336  -1.002   2.967  0.00  0.00     0.076 C 
ATOM      7  C8  UNL d   1       0.145  -0.359   0.586  0.00  0.00     0.001 A 
ENDROOT
BRANCH   1   8
ATOM      8  C1  UNL d   1       0.757   0.243  -1.789  0.00  0.00     0.053 C 
ATOM      9  C   UNL d   1       0.881  -1.067  -2.551  0.00  0.00     0.018 C 
ENDBRANCH   1   8
TORSDOF 1
ENDMDL
