MODEL 1
REMARK minimizedAffinity -3.38322592
REMARK minimizedRMSD -1
REMARK  1 active torsions:
REMARK  status: ('A' for Active; 'I' for Inactive)
REMARK    1  A    between atoms: C1_2  and  C2_3 
ROOT
ATOM      1  C2  UNL d   1       0.089  -0.020   0.959  0.00  0.00    -0.073 A 
ATOM      2  C3  UNL d   1      -1.259   0.299   0.761  0.00  0.00    -0.002 A 
ATOM      3  C4  UNL d   1      -1.756   0.490  -0.529  0.00  0.00     0.004 A 
ATOM      4  C5  UNL d   1      -0.913   0.357  -1.633  0.00  0.00    -0.004 A 
ATOM      5  C6  UNL d   1       0.434   0.027  -1.456  0.00  0.00    -0.075 A 
ATOM      6  C7  UNL d   1       1.355  -0.117  -2.632  0.00  0.00     0.076 C 
ATOM      7  C8  UNL d   1       0.926  -0.160  -0.157  0.00  0.00     0.001 A 
ENDROOT
BRANCH   1   8
ATOM      8  C1  UNL d   1       0.629  -0.233   2.350  0.00  0.00     0.053 C 
ATOM      9  C   UNL d   1      -0.480  -0.291   3.389  0.00  0.00     0.018 C 
ENDBRANCH   1   8
TORSDOF 1
ENDMDL
