MODEL 1
REMARK minimizedAffinity 12.5522232
REMARK minimizedRMSD -1
REMARK  0 active torsions:
REMARK  status: ('A' for Active; 'I' for Inactive)
ROOT
ATOM      1  C   UNL d   1       1.729  -2.928  -1.740  0.00  0.00     0.020 A 
ATOM      2  C1  UNL d   1       2.586  -2.731  -0.658  0.00  0.00     0.020 A 
ATOM      3  C2  UNL d   1       3.073  -1.454  -0.377  0.00  0.00     0.034 A 
ATOM      4  C3  UNL d   1       2.704  -0.367  -1.178  0.00  0.00     0.017 A 
ATOM      5  C4  UNL d   1       1.844  -0.565  -2.264  0.00  0.00     0.017 A 
ATOM      6  C5  UNL d   1       1.359  -1.847  -2.541  0.00  0.00     0.034 A 
ATOM      7 Cl   UNL d   1       1.344   0.726  -3.298  0.00  0.00    -0.070 Cl
ATOM      8 Cl1  UNL d   1       3.345   1.185  -0.772  0.00  0.00    -0.070 Cl
ENDROOT
TORSDOF 0
ENDMDL
