MODEL 1
REMARK minimizedAffinity 10.0707912
REMARK minimizedRMSD -1
REMARK  0 active torsions:
REMARK  status: ('A' for Active; 'I' for Inactive)
ROOT
ATOM      1  C   UNL d   1       2.763  -2.685  -1.092  0.00  0.00     0.020 A 
ATOM      2  C1  UNL d   1       2.165  -2.719  -2.351  0.00  0.00     0.020 A 
ATOM      3  C2  UNL d   1       1.838  -1.526  -3.001  0.00  0.00     0.034 A 
ATOM      4  C3  UNL d   1       2.109  -0.296  -2.391  0.00  0.00     0.017 A 
ATOM      5  C4  UNL d   1       2.709  -0.263  -1.127  0.00  0.00     0.017 A 
ATOM      6  C5  UNL d   1       3.034  -1.460  -0.481  0.00  0.00     0.034 A 
ATOM      7 Cl   UNL d   1       3.074   1.216  -0.312  0.00  0.00    -0.070 Cl
ATOM      8 Cl1  UNL d   1       1.679   1.139  -3.252  0.00  0.00    -0.070 Cl
ENDROOT
TORSDOF 0
ENDMDL
