MODEL 1
REMARK minimizedAffinity 13.1611013
REMARK minimizedRMSD -1
REMARK  0 active torsions:
REMARK  status: ('A' for Active; 'I' for Inactive)
ROOT
ATOM      1  C   UNL d   1       1.677  -2.916  -1.588  0.00  0.00     0.020 A 
ATOM      2  C1  UNL d   1       2.464  -2.570  -0.491  0.00  0.00     0.020 A 
ATOM      3  C2  UNL d   1       2.858  -1.243  -0.305  0.00  0.00     0.034 A 
ATOM      4  C3  UNL d   1       2.465  -0.258  -1.219  0.00  0.00     0.017 A 
ATOM      5  C4  UNL d   1       1.675  -0.607  -2.320  0.00  0.00     0.017 A 
ATOM      6  C5  UNL d   1       1.283  -1.937  -2.500  0.00  0.00     0.034 A 
ATOM      7 Cl   UNL d   1       1.150   0.553  -3.489  0.00  0.00    -0.070 Cl
ATOM      8 Cl1  UNL d   1       2.989   1.363  -0.927  0.00  0.00    -0.070 Cl
ENDROOT
TORSDOF 0
ENDMDL
