MODEL 1
REMARK minimizedAffinity 15.7445707
REMARK minimizedRMSD -1
REMARK  0 active torsions:
REMARK  status: ('A' for Active; 'I' for Inactive)
ROOT
ATOM      1  C   UNL d   1      -3.546  -0.539   1.853  0.00  0.00     0.020 A 
ATOM      2  C1  UNL d   1      -3.236   0.815   1.979  0.00  0.00     0.020 A 
ATOM      3  C2  UNL d   1      -3.052   1.374   3.245  0.00  0.00     0.034 A 
ATOM      4  C3  UNL d   1      -3.177   0.579   4.391  0.00  0.00     0.017 A 
ATOM      5  C4  UNL d   1      -3.488  -0.780   4.263  0.00  0.00     0.017 A 
ATOM      6  C5  UNL d   1      -3.671  -1.334   2.992  0.00  0.00     0.034 A 
ATOM      7 Cl   UNL d   1      -3.659  -1.824   5.630  0.00  0.00    -0.070 Cl
ATOM      8 Cl1  UNL d   1      -2.936   1.337   5.925  0.00  0.00    -0.070 Cl
ENDROOT
TORSDOF 0
ENDMDL
