MODEL 1
REMARK minimizedAffinity 12.2820501
REMARK minimizedRMSD -1
REMARK  0 active torsions:
REMARK  status: ('A' for Active; 'I' for Inactive)
ROOT
ATOM      1  C   UNL d   1       1.871  -3.348  -1.961  0.00  0.00     0.020 A 
ATOM      2  C1  UNL d   1       2.470  -3.023  -0.745  0.00  0.00     0.020 A 
ATOM      3  C2  UNL d   1       2.743  -1.689  -0.435  0.00  0.00     0.034 A 
ATOM      4  C3  UNL d   1       2.418  -0.675  -1.342  0.00  0.00     0.017 A 
ATOM      5  C4  UNL d   1       1.817  -1.001  -2.563  0.00  0.00     0.017 A 
ATOM      6  C5  UNL d   1       1.545  -2.339  -2.869  0.00  0.00     0.034 A 
ATOM      7 Cl   UNL d   1       1.386   0.195  -3.734  0.00  0.00    -0.070 Cl
ATOM      8 Cl1  UNL d   1       2.784   0.953  -0.894  0.00  0.00    -0.070 Cl
ENDROOT
TORSDOF 0
ENDMDL
