MODEL 1
REMARK minimizedAffinity -3.61150479
REMARK minimizedRMSD -1
REMARK  0 active torsions:
REMARK  status: ('A' for Active; 'I' for Inactive)
ROOT
ATOM      1  C   UNL d   1       4.051  -3.759  -5.999  0.00  0.00     0.020 A 
ATOM      2  C1  UNL d   1       5.066  -4.663  -5.688  0.00  0.00     0.020 A 
ATOM      3  C2  UNL d   1       5.142  -5.213  -4.407  0.00  0.00     0.034 A 
ATOM      4  C3  UNL d   1       4.202  -4.860  -3.432  0.00  0.00     0.017 A 
ATOM      5  C4  UNL d   1       3.184  -3.952  -3.745  0.00  0.00     0.017 A 
ATOM      6  C5  UNL d   1       3.112  -3.404  -5.030  0.00  0.00     0.034 A 
ATOM      7 Cl   UNL d   1       1.988  -3.468  -2.595  0.00  0.00    -0.070 Cl
ATOM      8 Cl1  UNL d   1       4.357  -5.579  -1.869  0.00  0.00    -0.070 Cl
ENDROOT
TORSDOF 0
ENDMDL
