MODEL 1
REMARK minimizedAffinity 19.4512939
REMARK minimizedRMSD -1
REMARK  0 active torsions:
REMARK  status: ('A' for Active; 'I' for Inactive)
ROOT
ATOM      1  C   UNL d   1       1.443   1.739   5.424  0.00  0.00     0.020 A 
ATOM      2  C1  UNL d   1       1.508   1.441   4.063  0.00  0.00     0.020 A 
ATOM      3  C2  UNL d   1       0.356   1.510   3.277  0.00  0.00     0.034 A 
ATOM      4  C3  UNL d   1      -0.866   1.878   3.852  0.00  0.00     0.017 A 
ATOM      5  C4  UNL d   1      -0.931   2.176   5.217  0.00  0.00     0.017 A 
ATOM      6  C5  UNL d   1       0.226   2.106   6.000  0.00  0.00     0.034 A 
ATOM      7 Cl   UNL d   1      -2.403   2.637   5.997  0.00  0.00    -0.070 Cl
ATOM      8 Cl1  UNL d   1      -2.251   1.943   2.820  0.00  0.00    -0.070 Cl
ENDROOT
TORSDOF 0
ENDMDL
