MODEL 1
REMARK minimizedAffinity 7.11257505
REMARK minimizedRMSD -1
REMARK  0 active torsions:
REMARK  status: ('A' for Active; 'I' for Inactive)
ROOT
ATOM      1  C   UNL d   1       2.206  -3.571  -4.340  0.00  0.00     0.020 A 
ATOM      2  C1  UNL d   1       1.805  -3.731  -3.015  0.00  0.00     0.020 A 
ATOM      3  C2  UNL d   1       2.702  -4.231  -2.069  0.00  0.00     0.034 A 
ATOM      4  C3  UNL d   1       4.005  -4.574  -2.448  0.00  0.00     0.017 A 
ATOM      5  C4  UNL d   1       4.407  -4.414  -3.779  0.00  0.00     0.017 A 
ATOM      6  C5  UNL d   1       3.505  -3.912  -4.721  0.00  0.00     0.034 A 
ATOM      7 Cl   UNL d   1       5.999  -4.815  -4.321  0.00  0.00    -0.070 Cl
ATOM      8 Cl1  UNL d   1       5.062  -5.187  -1.226  0.00  0.00    -0.070 Cl
ENDROOT
TORSDOF 0
ENDMDL
