MODEL 1
REMARK minimizedAffinity 16.1810665
REMARK minimizedRMSD -1
REMARK  0 active torsions:
REMARK  status: ('A' for Active; 'I' for Inactive)
ROOT
ATOM      1  C   UNL d   1      -5.994  -2.274   4.116  0.00  0.00     0.020 A 
ATOM      2  C1  UNL d   1      -5.446  -1.803   2.923  0.00  0.00     0.020 A 
ATOM      3  C2  UNL d   1      -4.229  -2.312   2.465  0.00  0.00     0.034 A 
ATOM      4  C3  UNL d   1      -3.556  -3.294   3.200  0.00  0.00     0.017 A 
ATOM      5  C4  UNL d   1      -4.106  -3.765   4.398  0.00  0.00     0.017 A 
ATOM      6  C5  UNL d   1      -5.325  -3.253   4.851  0.00  0.00     0.034 A 
ATOM      7 Cl   UNL d   1      -3.334  -4.976   5.360  0.00  0.00    -0.070 Cl
ATOM      8 Cl1  UNL d   1      -2.055  -3.878   2.575  0.00  0.00    -0.070 Cl
ENDROOT
TORSDOF 0
ENDMDL
