MODEL 1
REMARK minimizedAffinity 1.3861444
REMARK minimizedRMSD -1
REMARK  0 active torsions:
REMARK  status: ('A' for Active; 'I' for Inactive)
ROOT
ATOM      1  C   UNL d   1       3.672  -4.458  -3.822  0.00  0.00     0.020 A 
ATOM      2  C1  UNL d   1       2.854  -3.343  -3.652  0.00  0.00     0.020 A 
ATOM      3  C2  UNL d   1       2.672  -2.798  -2.379  0.00  0.00     0.034 A 
ATOM      4  C3  UNL d   1       3.311  -3.368  -1.272  0.00  0.00     0.017 A 
ATOM      5  C4  UNL d   1       4.132  -4.488  -1.444  0.00  0.00     0.017 A 
ATOM      6  C5  UNL d   1       4.310  -5.029  -2.721  0.00  0.00     0.034 A 
ATOM      7 Cl   UNL d   1       4.953  -5.247  -0.126  0.00  0.00    -0.070 Cl
ATOM      8 Cl1  UNL d   1       3.042  -2.642   0.273  0.00  0.00    -0.070 Cl
ENDROOT
TORSDOF 0
ENDMDL
