MODEL 1
REMARK minimizedAffinity 13.3052692
REMARK minimizedRMSD -1
REMARK  0 active torsions:
REMARK  status: ('A' for Active; 'I' for Inactive)
ROOT
ATOM      1  C   UNL d   1      -2.828   1.102   2.500  0.00  0.00     0.020 A 
ATOM      2  C1  UNL d   1      -3.377   1.411   3.744  0.00  0.00     0.020 A 
ATOM      3  C2  UNL d   1      -2.542   1.749   4.811  0.00  0.00     0.034 A 
ATOM      4  C3  UNL d   1      -1.154   1.780   4.636  0.00  0.00     0.017 A 
ATOM      5  C4  UNL d   1      -0.604   1.469   3.387  0.00  0.00     0.017 A 
ATOM      6  C5  UNL d   1      -1.444   1.131   2.322  0.00  0.00     0.034 A 
ATOM      7 Cl   UNL d   1       1.100   1.485   3.095  0.00  0.00    -0.070 Cl
ATOM      8 Cl1  UNL d   1      -0.182   2.207   5.999  0.00  0.00    -0.070 Cl
ENDROOT
TORSDOF 0
ENDMDL
