MODEL 1
REMARK minimizedAffinity 8.79027081
REMARK minimizedRMSD -1
REMARK  0 active torsions:
REMARK  status: ('A' for Active; 'I' for Inactive)
ROOT
ATOM      1  C   UNL d   1       2.273  -1.505  -0.497  0.00  0.00     0.020 A 
ATOM      2  C1  UNL d   1       2.758  -2.639  -1.149  0.00  0.00     0.020 A 
ATOM      3  C2  UNL d   1       2.788  -2.682  -2.544  0.00  0.00     0.034 A 
ATOM      4  C3  UNL d   1       2.333  -1.590  -3.292  0.00  0.00     0.017 A 
ATOM      5  C4  UNL d   1       1.847  -0.453  -2.637  0.00  0.00     0.017 A 
ATOM      6  C5  UNL d   1       1.819  -0.415  -1.239  0.00  0.00     0.034 A 
ATOM      7 Cl   UNL d   1       1.269   0.933  -3.492  0.00  0.00    -0.070 Cl
ATOM      8 Cl1  UNL d   1       2.400  -1.712  -5.014  0.00  0.00    -0.070 Cl
ENDROOT
TORSDOF 0
ENDMDL
