MODEL 1
REMARK minimizedAffinity 7.32783651
REMARK minimizedRMSD -1
REMARK  0 active torsions:
REMARK  status: ('A' for Active; 'I' for Inactive)
ROOT
ATOM      1  C   UNL d   1       0.968   5.118   0.395  0.00  0.00     0.020 A 
ATOM      2  C1  UNL d   1       1.242   4.651  -0.890  0.00  0.00     0.020 A 
ATOM      3  C2  UNL d   1       1.724   3.353  -1.073  0.00  0.00     0.034 A 
ATOM      4  C3  UNL d   1       1.935   2.519   0.031  0.00  0.00     0.017 A 
ATOM      5  C4  UNL d   1       1.659   2.989   1.320  0.00  0.00     0.017 A 
ATOM      6  C5  UNL d   1       1.176   4.289   1.497  0.00  0.00     0.034 A 
ATOM      7 Cl   UNL d   1       1.893   2.017   2.731  0.00  0.00    -0.070 Cl
ATOM      8 Cl1  UNL d   1       2.533   0.925  -0.269  0.00  0.00    -0.070 Cl
ENDROOT
TORSDOF 0
ENDMDL
