MODEL 1
REMARK minimizedAffinity 12.0002661
REMARK minimizedRMSD -1
REMARK  0 active torsions:
REMARK  status: ('A' for Active; 'I' for Inactive)
ROOT
ATOM      1  C   UNL d   1      -2.980   1.253   5.999  0.00  0.00     0.020 A 
ATOM      2  C1  UNL d   1      -3.201   2.147   4.952  0.00  0.00     0.020 A 
ATOM      3  C2  UNL d   1      -3.486   1.667   3.672  0.00  0.00     0.034 A 
ATOM      4  C3  UNL d   1      -3.550   0.289   3.436  0.00  0.00     0.017 A 
ATOM      5  C4  UNL d   1      -3.327  -0.608   4.488  0.00  0.00     0.017 A 
ATOM      6  C5  UNL d   1      -3.043  -0.121   5.767  0.00  0.00     0.034 A 
ATOM      7 Cl   UNL d   1      -3.390  -2.322   4.273  0.00  0.00    -0.070 Cl
ATOM      8 Cl1  UNL d   1      -3.906  -0.235   1.828  0.00  0.00    -0.070 Cl
ENDROOT
TORSDOF 0
ENDMDL
