MODEL 1
REMARK minimizedAffinity 1.76182091
REMARK minimizedRMSD -1
REMARK  0 active torsions:
REMARK  status: ('A' for Active; 'I' for Inactive)
ROOT
ATOM      1  C   UNL d   1       2.497  -3.672  -3.801  0.00  0.00     0.020 A 
ATOM      2  C1  UNL d   1       3.263  -4.835  -3.875  0.00  0.00     0.020 A 
ATOM      3  C2  UNL d   1       3.964  -5.281  -2.753  0.00  0.00     0.034 A 
ATOM      4  C3  UNL d   1       3.901  -4.565  -1.552  0.00  0.00     0.017 A 
ATOM      5  C4  UNL d   1       3.133  -3.397  -1.479  0.00  0.00     0.017 A 
ATOM      6  C5  UNL d   1       2.432  -2.955  -2.606  0.00  0.00     0.034 A 
ATOM      7 Cl   UNL d   1       3.006  -2.460  -0.033  0.00  0.00    -0.070 Cl
ATOM      8 Cl1  UNL d   1       4.793  -5.175  -0.204  0.00  0.00    -0.070 Cl
ENDROOT
TORSDOF 0
ENDMDL
