MODEL 1
REMARK minimizedAffinity 8.62150192
REMARK minimizedRMSD -1
REMARK  0 active torsions:
REMARK  status: ('A' for Active; 'I' for Inactive)
ROOT
ATOM      1  C   UNL d   1      -0.299   0.982   4.458  0.00  0.00     0.020 A 
ATOM      2  C1  UNL d   1      -0.146   0.084   3.402  0.00  0.00     0.020 A 
ATOM      3  C2  UNL d   1      -1.231  -0.212   2.575  0.00  0.00     0.034 A 
ATOM      4  C3  UNL d   1      -2.474   0.390   2.801  0.00  0.00     0.017 A 
ATOM      5  C4  UNL d   1      -2.627   1.292   3.861  0.00  0.00     0.017 A 
ATOM      6  C5  UNL d   1      -1.537   1.585   4.686  0.00  0.00     0.034 A 
ATOM      7 Cl   UNL d   1      -4.129   2.075   4.202  0.00  0.00    -0.070 Cl
ATOM      8 Cl1  UNL d   1      -3.772  -0.022   1.738  0.00  0.00    -0.070 Cl
ENDROOT
TORSDOF 0
ENDMDL
