MODEL 1
REMARK minimizedAffinity 9.42687893
REMARK minimizedRMSD -1
REMARK  0 active torsions:
REMARK  status: ('A' for Active; 'I' for Inactive)
ROOT
ATOM      1  C   UNL d   1       1.538   1.421   4.020  0.00  0.00     0.020 A 
ATOM      2  C1  UNL d   1       1.417   1.449   5.409  0.00  0.00     0.020 A 
ATOM      3  C2  UNL d   1       0.153   1.518   5.998  0.00  0.00     0.034 A 
ATOM      4  C3  UNL d   1      -0.995   1.560   5.199  0.00  0.00     0.017 A 
ATOM      5  C4  UNL d   1      -0.873   1.532   3.805  0.00  0.00     0.017 A 
ATOM      6  C5  UNL d   1       0.396   1.462   3.220  0.00  0.00     0.034 A 
ATOM      7 Cl   UNL d   1      -2.243   1.581   2.753  0.00  0.00    -0.070 Cl
ATOM      8 Cl1  UNL d   1      -2.526   1.646   5.995  0.00  0.00    -0.070 Cl
ENDROOT
TORSDOF 0
ENDMDL
