MODEL 1
REMARK minimizedAffinity 8.78437328
REMARK minimizedRMSD -1
REMARK  3 active torsions:
REMARK  status: ('A' for Active; 'I' for Inactive)
REMARK    1  A    between atoms: C3'_2  and  C2'_3 
REMARK    2  A    between atoms: C2'_3  and  C1'_4 
REMARK    3  A    between atoms: C1'_4  and  C1_5 
ROOT
ATOM      1  C1  N4B d   1      -4.229   1.760  -3.856  0.00  0.00    -0.075 A 
ATOM      2  C2  N4B d   1      -5.117   1.531  -2.782  0.00  0.00     0.002 A 
ATOM      3  C3  N4B d   1      -6.000   2.511  -2.399  0.00  0.00     0.002 A 
ATOM      4  C4  N4B d   1      -5.999   3.730  -3.060  0.00  0.00    -0.004 A 
ATOM      5  C5  N4B d   1      -5.156   3.935  -4.112  0.00  0.00     0.002 A 
ATOM      6  C6  N4B d   1      -4.266   2.957  -4.510  0.00  0.00     0.002 A 
ENDROOT
BRANCH   1   7
ATOM      7  C1' N4B d   1      -3.188   0.751  -4.255  0.00  0.00     0.057 C 
BRANCH   7   8
ATOM      8  C2' N4B d   1      -2.090   0.718  -3.196  0.00  0.00     0.009 C 
BRANCH   8   9
ATOM      9  C3' N4B d   1      -2.344  -0.353  -2.148  0.00  0.00     0.004 C 
ATOM     10  C4' N4B d   1      -1.816   0.022  -0.795  0.00  0.00     0.003 C 
ENDBRANCH   8   9
ENDBRANCH   7   8
ENDBRANCH   1   7
TORSDOF 3
ENDMDL
