MODEL 1
REMARK minimizedAffinity -3.85759091
REMARK minimizedRMSD -1
REMARK  3 active torsions:
REMARK  status: ('A' for Active; 'I' for Inactive)
REMARK    1  A    between atoms: C3'_2  and  C2'_3 
REMARK    2  A    between atoms: C2'_3  and  C1'_4 
REMARK    3  A    between atoms: C1'_4  and  C1_5 
ROOT
ATOM      1  C1  N4B d   1       4.525   3.036   4.425  0.00  0.00    -0.075 A 
ATOM      2  C2  N4B d   1       3.697   4.175   4.535  0.00  0.00     0.002 A 
ATOM      3  C3  N4B d   1       2.576   4.135   5.326  0.00  0.00     0.002 A 
ATOM      4  C4  N4B d   1       2.253   2.967   6.000  0.00  0.00    -0.004 A 
ATOM      5  C5  N4B d   1       3.071   1.879   5.909  0.00  0.00     0.002 A 
ATOM      6  C6  N4B d   1       4.204   1.906   5.120  0.00  0.00     0.002 A 
ENDROOT
BRANCH   1   7
ATOM      7  C1' N4B d   1       5.714   3.004   3.504  0.00  0.00     0.057 C 
BRANCH   7   8
ATOM      8  C2' N4B d   1       5.248   3.266   2.075  0.00  0.00     0.009 C 
BRANCH   8   9
ATOM      9  C3' N4B d   1       4.112   2.342   1.670  0.00  0.00     0.004 C 
ATOM     10  C4' N4B d   1       3.734   2.486   0.226  0.00  0.00     0.003 C 
ENDBRANCH   8   9
ENDBRANCH   7   8
ENDBRANCH   1   7
TORSDOF 3
ENDMDL
