MODEL 1
REMARK minimizedAffinity 1.88095796
REMARK minimizedRMSD -1
REMARK  3 active torsions:
REMARK  status: ('A' for Active; 'I' for Inactive)
REMARK    1  A    between atoms: C3'_2  and  C2'_3 
REMARK    2  A    between atoms: C2'_3  and  C1'_4 
REMARK    3  A    between atoms: C1'_4  and  C1_5 
ROOT
ATOM      1  C1  N4B d   1       3.717  -0.080   0.224  0.00  0.00    -0.075 A 
ATOM      2  C2  N4B d   1       4.932   0.264   0.857  0.00  0.00     0.002 A 
ATOM      3  C3  N4B d   1       5.603   1.402   0.483  0.00  0.00     0.002 A 
ATOM      4  C4  N4B d   1       5.091   2.198  -0.531  0.00  0.00    -0.004 A 
ATOM      5  C5  N4B d   1       3.904   1.873  -1.120  0.00  0.00     0.002 A 
ATOM      6  C6  N4B d   1       3.217   0.734  -0.750  0.00  0.00     0.002 A 
ENDROOT
BRANCH   1   7
ATOM      7  C1' N4B d   1       2.992  -1.359   0.540  0.00  0.00     0.057 C 
BRANCH   7   8
ATOM      8  C2' N4B d   1       1.962  -1.633  -0.551  0.00  0.00     0.009 C 
BRANCH   8   9
ATOM      9  C3' N4B d   1       2.276  -2.904  -1.323  0.00  0.00     0.004 C 
ATOM     10  C4' N4B d   1       2.754  -2.633  -2.718  0.00  0.00     0.003 C 
ENDBRANCH   8   9
ENDBRANCH   7   8
ENDBRANCH   1   7
TORSDOF 3
ENDMDL
