MODEL 1
REMARK minimizedAffinity 8.03550339
REMARK minimizedRMSD -1
REMARK  3 active torsions:
REMARK  status: ('A' for Active; 'I' for Inactive)
REMARK    1  A    between atoms: C3'_2  and  C2'_3 
REMARK    2  A    between atoms: C2'_3  and  C1'_4 
REMARK    3  A    between atoms: C1'_4  and  C1_5 
ROOT
ATOM      1  C1  N4B d   1       0.652  -3.313   4.001  0.00  0.00    -0.075 A 
ATOM      2  C2  N4B d   1      -0.713  -3.671   3.953  0.00  0.00     0.002 A 
ATOM      3  C3  N4B d   1      -1.246  -4.477   4.929  0.00  0.00     0.002 A 
ATOM      4  C4  N4B d   1      -0.432  -4.951   5.947  0.00  0.00    -0.004 A 
ATOM      5  C5  N4B d   1       0.880  -4.580   5.999  0.00  0.00     0.002 A 
ATOM      6  C6  N4B d   1       1.428  -3.767   5.028  0.00  0.00     0.002 A 
ENDROOT
BRANCH   1   7
ATOM      7  C1' N4B d   1       1.299  -2.504   2.910  0.00  0.00     0.057 C 
BRANCH   7   8
ATOM      8  C2' N4B d   1       1.073  -1.020   3.186  0.00  0.00     0.009 C 
BRANCH   8   9
ATOM      9  C3' N4B d   1      -0.093  -0.789   4.132  0.00  0.00     0.004 C 
ATOM     10  C4' N4B d   1       0.328  -0.740   5.570  0.00  0.00     0.003 C 
ENDBRANCH   8   9
ENDBRANCH   7   8
ENDBRANCH   1   7
TORSDOF 3
ENDMDL
