MODEL 1
REMARK minimizedAffinity 1.95833993
REMARK minimizedRMSD -1
REMARK  3 active torsions:
REMARK  status: ('A' for Active; 'I' for Inactive)
REMARK    1  A    between atoms: C3'_2  and  C2'_3 
REMARK    2  A    between atoms: C2'_3  and  C1'_4 
REMARK    3  A    between atoms: C1'_4  and  C1_5 
ROOT
ATOM      1  C1  N4B d   1       3.279   3.531   5.761  0.00  0.00    -0.075 A 
ATOM      2  C2  N4B d   1       4.335   4.439   5.526  0.00  0.00     0.002 A 
ATOM      3  C3  N4B d   1       5.621   3.977   5.393  0.00  0.00     0.002 A 
ATOM      4  C4  N4B d   1       5.878   2.619   5.509  0.00  0.00    -0.004 A 
ATOM      5  C5  N4B d   1       4.849   1.746   5.711  0.00  0.00     0.002 A 
ATOM      6  C6  N4B d   1       3.551   2.196   5.843  0.00  0.00     0.002 A 
ENDROOT
BRANCH   1   7
ATOM      7  C1' N4B d   1       1.869   3.997   5.999  0.00  0.00     0.057 C 
BRANCH   7   8
ATOM      8  C2' N4B d   1       1.734   5.443   5.532  0.00  0.00     0.009 C 
BRANCH   8   9
ATOM      9  C3' N4B d   1       0.315   5.962   5.693  0.00  0.00     0.004 C 
ATOM     10  C4' N4B d   1      -0.440   5.999   4.398  0.00  0.00     0.003 C 
ENDBRANCH   8   9
ENDBRANCH   7   8
ENDBRANCH   1   7
TORSDOF 3
ENDMDL
