MODEL 1
REMARK minimizedAffinity 4.25670719
REMARK minimizedRMSD -1
REMARK  3 active torsions:
REMARK  status: ('A' for Active; 'I' for Inactive)
REMARK    1  A    between atoms: C3'_2  and  C2'_3 
REMARK    2  A    between atoms: C2'_3  and  C1'_4 
REMARK    3  A    between atoms: C1'_4  and  C1_5 
ROOT
ATOM      1  C1  N4B d   1       4.867   2.988   3.248  0.00  0.00    -0.075 A 
ATOM      2  C2  N4B d   1       5.765   2.286   4.083  0.00  0.00     0.002 A 
ATOM      3  C3  N4B d   1       5.645   2.375   5.448  0.00  0.00     0.002 A 
ATOM      4  C4  N4B d   1       4.652   3.171   5.999  0.00  0.00    -0.004 A 
ATOM      5  C5  N4B d   1       3.773   3.825   5.186  0.00  0.00     0.002 A 
ATOM      6  C6  N4B d   1       3.879   3.742   3.812  0.00  0.00     0.002 A 
ENDROOT
BRANCH   1   7
ATOM      7  C1' N4B d   1       5.012   2.990   1.751  0.00  0.00     0.057 C 
BRANCH   7   8
ATOM      8  C2' N4B d   1       3.651   2.719   1.116  0.00  0.00     0.009 C 
BRANCH   8   9
ATOM      9  C3' N4B d   1       3.745   1.723  -0.027  0.00  0.00     0.004 C 
ATOM     10  C4' N4B d   1       2.673   0.676   0.025  0.00  0.00     0.003 C 
ENDBRANCH   8   9
ENDBRANCH   7   8
ENDBRANCH   1   7
TORSDOF 3
ENDMDL
