MODEL 1
REMARK minimizedAffinity -3.01908135
REMARK minimizedRMSD -1
REMARK  0 active torsions:
REMARK  status: ('A' for Active; 'I' for Inactive)
ROOT
ATOM      1  C   UNL d   1      -3.367  -3.504  -1.125  0.00  0.00     0.023 A 
ATOM      2  C1  UNL d   1      -2.644  -3.052  -2.229  0.00  0.00     0.003 A 
ATOM      3  C2  UNL d   1      -1.640  -2.096  -2.064  0.00  0.00     0.048 A 
ATOM      4  C3  UNL d   1      -1.363  -1.597  -0.791  0.00  0.00     0.023 A 
ATOM      5  C4  UNL d   1      -2.083  -2.048   0.316  0.00  0.00     0.048 A 
ATOM      6  C5  UNL d   1      -3.087  -3.003   0.146  0.00  0.00     0.003 A 
ATOM      7  I   UNL d   1       0.132  -0.175  -0.543  0.00  0.00    -0.146 I 
ENDROOT
TORSDOF 0
ENDMDL
