MODEL 1
REMARK minimizedAffinity -2.05871201
REMARK minimizedRMSD -1
REMARK  0 active torsions:
REMARK  status: ('A' for Active; 'I' for Inactive)
ROOT
ATOM      1  C   UNL d   1      -3.798  -3.698  -1.532  0.00  0.00     0.023 A 
ATOM      2  C1  UNL d   1      -3.541  -3.105  -0.296  0.00  0.00     0.003 A 
ATOM      3  C2  UNL d   1      -2.597  -2.081  -0.194  0.00  0.00     0.048 A 
ATOM      4  C3  UNL d   1      -1.915  -1.653  -1.333  0.00  0.00     0.023 A 
ATOM      5  C4  UNL d   1      -2.170  -2.243  -2.572  0.00  0.00     0.048 A 
ATOM      6  C5  UNL d   1      -3.114  -3.267  -2.668  0.00  0.00     0.003 A 
ATOM      7  I   UNL d   1      -0.511  -0.128  -1.184  0.00  0.00    -0.146 I 
ENDROOT
TORSDOF 0
ENDMDL
