MODEL 1
REMARK minimizedAffinity -0.184147269
REMARK minimizedRMSD -1
REMARK  0 active torsions:
REMARK  status: ('A' for Active; 'I' for Inactive)
ROOT
ATOM      1  C   UNL d   1      -2.495  -3.536  -3.388  0.00  0.00     0.023 A 
ATOM      2  C1  UNL d   1      -2.433  -2.207  -3.807  0.00  0.00     0.003 A 
ATOM      3  C2  UNL d   1      -1.932  -1.225  -2.950  0.00  0.00     0.048 A 
ATOM      4  C3  UNL d   1      -1.493  -1.580  -1.675  0.00  0.00     0.023 A 
ATOM      5  C4  UNL d   1      -1.552  -2.909  -1.251  0.00  0.00     0.048 A 
ATOM      6  C5  UNL d   1      -2.055  -3.886  -2.112  0.00  0.00     0.003 A 
ATOM      7  I   UNL d   1      -0.746  -0.121  -0.397  0.00  0.00    -0.146 I 
ENDROOT
TORSDOF 0
ENDMDL
