MODEL 1
REMARK minimizedAffinity -1.44155931
REMARK minimizedRMSD -1
REMARK  0 active torsions:
REMARK  status: ('A' for Active; 'I' for Inactive)
ROOT
ATOM      1  C   UNL d   1      -2.951  -3.676  -3.100  0.00  0.00     0.023 A 
ATOM      2  C1  UNL d   1      -2.427  -4.090  -1.875  0.00  0.00     0.003 A 
ATOM      3  C2  UNL d   1      -1.828  -3.161  -1.021  0.00  0.00     0.048 A 
ATOM      4  C3  UNL d   1      -1.758  -1.820  -1.397  0.00  0.00     0.023 A 
ATOM      5  C4  UNL d   1      -2.282  -1.402  -2.622  0.00  0.00     0.048 A 
ATOM      6  C5  UNL d   1      -2.878  -2.334  -3.473  0.00  0.00     0.003 A 
ATOM      7  I   UNL d   1      -0.867  -0.437  -0.128  0.00  0.00    -0.146 I 
ENDROOT
TORSDOF 0
ENDMDL
