MODEL 1
REMARK minimizedAffinity 0.220495626
REMARK minimizedRMSD -1
REMARK  0 active torsions:
REMARK  status: ('A' for Active; 'I' for Inactive)
ROOT
ATOM      1  C   UNL d   1      -4.230  -2.839  -1.217  0.00  0.00     0.023 A 
ATOM      2  C1  UNL d   1      -3.065  -3.133  -1.926  0.00  0.00     0.003 A 
ATOM      3  C2  UNL d   1      -1.866  -2.498  -1.595  0.00  0.00     0.048 A 
ATOM      4  C3  UNL d   1      -1.839  -1.572  -0.553  0.00  0.00     0.023 A 
ATOM      5  C4  UNL d   1      -3.002  -1.275   0.159  0.00  0.00     0.048 A 
ATOM      6  C5  UNL d   1      -4.198  -1.911  -0.176  0.00  0.00     0.003 A 
ATOM      7  I   UNL d   1      -0.055  -0.626  -0.059  0.00  0.00    -0.146 I 
ENDROOT
TORSDOF 0
ENDMDL
