MODEL 1
REMARK minimizedAffinity 4.64119434
REMARK minimizedRMSD -1
REMARK  0 active torsions:
REMARK  status: ('A' for Active; 'I' for Inactive)
ROOT
ATOM      1  C   UNL d   1      -0.580   0.404  -1.090  0.00  0.00     0.023 A 
ATOM      2  C1  UNL d   1      -0.099  -0.671  -0.343  0.00  0.00     0.003 A 
ATOM      3  C2  UNL d   1      -0.568  -0.888   0.954  0.00  0.00     0.048 A 
ATOM      4  C3  UNL d   1      -1.520  -0.027   1.498  0.00  0.00     0.023 A 
ATOM      5  C4  UNL d   1      -2.006   1.050   0.754  0.00  0.00     0.048 A 
ATOM      6  C5  UNL d   1      -1.532   1.264  -0.542  0.00  0.00     0.003 A 
ATOM      7  I   UNL d   1      -2.221  -0.348   3.428  0.00  0.00    -0.146 I 
ENDROOT
TORSDOF 0
ENDMDL
