MODEL 1
REMARK minimizedAffinity 4.67624855
REMARK minimizedRMSD -1
REMARK  0 active torsions:
REMARK  status: ('A' for Active; 'I' for Inactive)
ROOT
ATOM      1  C   UNL d   1      -3.376   2.585   4.032  0.00  0.00     0.023 A 
ATOM      2  C1  UNL d   1      -3.747   2.262   2.727  0.00  0.00     0.003 A 
ATOM      3  C2  UNL d   1      -4.289   3.241   1.891  0.00  0.00     0.048 A 
ATOM      4  C3  UNL d   1      -4.456   4.541   2.368  0.00  0.00     0.023 A 
ATOM      5  C4  UNL d   1      -4.085   4.869   3.673  0.00  0.00     0.048 A 
ATOM      6  C5  UNL d   1      -3.544   3.886   4.504  0.00  0.00     0.003 A 
ATOM      7  I   UNL d   1      -5.262   6.000   1.126  0.00  0.00    -0.146 I 
ENDROOT
TORSDOF 0
ENDMDL
