MODEL 1
REMARK minimizedAffinity 1.4216938
REMARK minimizedRMSD -1
REMARK  0 active torsions:
REMARK  status: ('A' for Active; 'I' for Inactive)
ROOT
ATOM      1  C   UNL d   1      -2.759  -2.638  -3.171  0.00  0.00     0.023 A 
ATOM      2  C1  UNL d   1      -2.964  -3.992  -3.439  0.00  0.00     0.003 A 
ATOM      3  C2  UNL d   1      -3.889  -4.721  -2.690  0.00  0.00     0.048 A 
ATOM      4  C3  UNL d   1      -4.607  -4.090  -1.674  0.00  0.00     0.023 A 
ATOM      5  C4  UNL d   1      -4.406  -2.736  -1.403  0.00  0.00     0.048 A 
ATOM      6  C5  UNL d   1      -3.479  -2.011  -2.154  0.00  0.00     0.003 A 
ATOM      7  I   UNL d   1      -5.986  -5.174  -0.558  0.00  0.00    -0.146 I 
ENDROOT
TORSDOF 0
ENDMDL
