MODEL 1
REMARK minimizedAffinity 10.3244238
REMARK minimizedRMSD -1
REMARK  0 active torsions:
REMARK  status: ('A' for Active; 'I' for Inactive)
ROOT
ATOM      1  C   UNL d   1      -3.198  -3.704  -4.081  0.00  0.00     0.023 A 
ATOM      2  C1  UNL d   1      -2.590  -2.493  -4.412  0.00  0.00     0.003 A 
ATOM      3  C2  UNL d   1      -2.075  -1.672  -3.407  0.00  0.00     0.048 A 
ATOM      4  C3  UNL d   1      -2.170  -2.068  -2.073  0.00  0.00     0.023 A 
ATOM      5  C4  UNL d   1      -2.777  -3.280  -1.738  0.00  0.00     0.048 A 
ATOM      6  C5  UNL d   1      -3.291  -4.097  -2.746  0.00  0.00     0.003 A 
ATOM      7  I   UNL d   1      -1.403  -0.848  -0.576  0.00  0.00    -0.146 I 
ENDROOT
TORSDOF 0
ENDMDL
