MODEL 1
REMARK minimizedAffinity 6.32135725
REMARK minimizedRMSD -1
REMARK  0 active torsions:
REMARK  status: ('A' for Active; 'I' for Inactive)
ROOT
ATOM      1  C   UNL d   1      -3.141   0.808   3.834  0.00  0.00     0.023 A 
ATOM      2  C1  UNL d   1      -2.338  -0.331   3.907  0.00  0.00     0.003 A 
ATOM      3  C2  UNL d   1      -1.712  -0.819   2.758  0.00  0.00     0.048 A 
ATOM      4  C3  UNL d   1      -1.893  -0.164   1.541  0.00  0.00     0.023 A 
ATOM      5  C4  UNL d   1      -2.694   0.976   1.464  0.00  0.00     0.048 A 
ATOM      6  C5  UNL d   1      -3.319   1.460   2.615  0.00  0.00     0.003 A 
ATOM      7  I   UNL d   1      -0.962  -0.889  -0.171  0.00  0.00    -0.146 I 
ENDROOT
TORSDOF 0
ENDMDL
