MODEL 1
REMARK minimizedAffinity -3.55723572
REMARK minimizedRMSD -1
REMARK  0 active torsions:
REMARK  status: ('A' for Active; 'I' for Inactive)
ROOT
ATOM      1  C   UNL d   1      -4.142  -1.857   5.466  0.00  0.00     0.023 A 
ATOM      2  C1  UNL d   1      -3.025  -1.112   5.843  0.00  0.00     0.003 A 
ATOM      3  C2  UNL d   1      -3.127   0.272   5.996  0.00  0.00     0.048 A 
ATOM      4  C3  UNL d   1      -4.349   0.904   5.772  0.00  0.00     0.023 A 
ATOM      5  C4  UNL d   1      -5.470   0.163   5.396  0.00  0.00     0.048 A 
ATOM      6  C5  UNL d   1      -5.363  -1.221   5.243  0.00  0.00     0.003 A 
ATOM      7  I   UNL d   1      -4.503   2.965   6.000  0.00  0.00    -0.146 I 
ENDROOT
TORSDOF 0
ENDMDL
