MODEL 1
REMARK minimizedAffinity 8.47121716
REMARK minimizedRMSD -1
REMARK  0 active torsions:
REMARK  status: ('A' for Active; 'I' for Inactive)
ROOT
ATOM      1  C   UNL d   1      -5.303   5.628   0.414  0.00  0.00     0.023 A 
ATOM      2  C1  UNL d   1      -5.998   6.000   1.564  0.00  0.00     0.003 A 
ATOM      3  C2  UNL d   1      -5.494   5.670   2.824  0.00  0.00     0.048 A 
ATOM      4  C3  UNL d   1      -4.292   4.970   2.926  0.00  0.00     0.023 A 
ATOM      5  C4  UNL d   1      -3.592   4.596   1.777  0.00  0.00     0.048 A 
ATOM      6  C5  UNL d   1      -4.101   4.927   0.520  0.00  0.00     0.003 A 
ATOM      7  I   UNL d   1      -3.539   4.479   4.800  0.00  0.00    -0.146 I 
ENDROOT
TORSDOF 0
ENDMDL
