MODEL 1
REMARK minimizedAffinity -1.78718626
REMARK minimizedRMSD -1
REMARK  0 active torsions:
REMARK  status: ('A' for Active; 'I' for Inactive)
ROOT
ATOM      1  C   UNL d   1      -4.550   4.097   5.842  0.00  0.00     0.023 A 
ATOM      2  C1  UNL d   1      -4.550   3.290   4.704  0.00  0.00     0.003 A 
ATOM      3  C2  UNL d   1      -4.877   3.834   3.460  0.00  0.00     0.048 A 
ATOM      4  C3  UNL d   1      -5.202   5.187   3.361  0.00  0.00     0.023 A 
ATOM      5  C4  UNL d   1      -5.202   5.998   4.497  0.00  0.00     0.048 A 
ATOM      6  C5  UNL d   1      -4.876   5.450   5.738  0.00  0.00     0.003 A 
ATOM      7  I   UNL d   1      -5.688   5.999   1.511  0.00  0.00    -0.146 I 
ENDROOT
TORSDOF 0
ENDMDL
