MODEL 1
REMARK minimizedAffinity -3.40861821
REMARK minimizedRMSD -1
REMARK  0 active torsions:
REMARK  status: ('A' for Active; 'I' for Inactive)
ROOT
ATOM      1  C   UNL d   1      -5.223   5.477   4.918  0.00  0.00     0.023 A 
ATOM      2  C1  UNL d   1      -4.662   5.315   3.651  0.00  0.00     0.003 A 
ATOM      3  C2  UNL d   1      -4.214   4.058   3.239  0.00  0.00     0.048 A 
ATOM      4  C3  UNL d   1      -4.331   2.967   4.099  0.00  0.00     0.023 A 
ATOM      5  C4  UNL d   1      -4.893   3.124   5.368  0.00  0.00     0.048 A 
ATOM      6  C5  UNL d   1      -5.339   4.383   5.775  0.00  0.00     0.003 A 
ATOM      7  I   UNL d   1      -3.666   1.095   3.489  0.00  0.00    -0.146 I 
ENDROOT
TORSDOF 0
ENDMDL
