MODEL 1
REMARK minimizedAffinity -1.39810276
REMARK minimizedRMSD -1
REMARK  0 active torsions:
REMARK  status: ('A' for Active; 'I' for Inactive)
ROOT
ATOM      1  C   UNL d   1      -4.545   5.014   5.888  0.00  0.00     0.023 A 
ATOM      2  C1  UNL d   1      -5.586   5.881   5.555  0.00  0.00     0.003 A 
ATOM      3  C2  UNL d   1      -5.999   6.000   4.226  0.00  0.00     0.048 A 
ATOM      4  C3  UNL d   1      -5.367   5.248   3.236  0.00  0.00     0.023 A 
ATOM      5  C4  UNL d   1      -4.325   4.379   3.565  0.00  0.00     0.048 A 
ATOM      6  C5  UNL d   1      -3.916   4.264   4.894  0.00  0.00     0.003 A 
ATOM      7  I   UNL d   1      -5.979   5.424   1.257  0.00  0.00    -0.146 I 
ENDROOT
TORSDOF 0
ENDMDL
