MODEL 1
REMARK minimizedAffinity 9.48841095
REMARK minimizedRMSD -1
REMARK  1 active torsions:
REMARK  status: ('A' for Active; 'I' for Inactive)
REMARK    1  A    between atoms: C1_2  and  C2_3 
ROOT
ATOM      1  C2  UNL d   1       2.687   1.264  -0.067  0.00  0.00    -0.076 A 
ATOM      2  C3  UNL d   1       3.865   1.973   0.227  0.00  0.00     0.004 A 
ATOM      3  C4  UNL d   1       4.379   2.912  -0.666  0.00  0.00    -0.003 A 
ATOM      4  C5  UNL d   1       3.723   3.158  -1.867  0.00  0.00     0.000 A 
ATOM      5  C6  UNL d   1       2.544   2.477  -2.167  0.00  0.00     0.000 A 
ATOM      6  C7  UNL d   1       2.003   1.539  -1.271  0.00  0.00    -0.073 A 
ATOM      7  C8  UNL d   1       0.732   0.829  -1.648  0.00  0.00     0.078 C 
ENDROOT
BRANCH   1   8
ATOM      8  C1  UNL d   1       2.192   0.239   0.927  0.00  0.00     0.053 C 
ATOM      9  C   UNL d   1       3.250  -0.798   1.272  0.00  0.00     0.018 C 
ENDBRANCH   1   8
TORSDOF 1
ENDMDL
