MODEL 1
REMARK minimizedAffinity 18.746273
REMARK minimizedRMSD -1
REMARK  1 active torsions:
REMARK  status: ('A' for Active; 'I' for Inactive)
REMARK    1  A    between atoms: C1_2  and  C2_3 
ROOT
ATOM      1  C2  UNL d   1      -0.899  -5.949  -0.763  0.00  0.00    -0.076 A 
ATOM      2  C3  UNL d   1      -1.103  -5.909  -2.153  0.00  0.00     0.004 A 
ATOM      3  C4  UNL d   1      -2.390  -5.920  -2.690  0.00  0.00    -0.003 A 
ATOM      4  C5  UNL d   1      -3.493  -5.969  -1.845  0.00  0.00     0.000 A 
ATOM      5  C6  UNL d   1      -3.309  -5.992  -0.462  0.00  0.00     0.000 A 
ATOM      6  C7  UNL d   1      -2.019  -5.965   0.095  0.00  0.00    -0.073 A 
ATOM      7  C8  UNL d   1      -1.879  -5.997   1.592  0.00  0.00     0.078 C 
ENDROOT
BRANCH   1   8
ATOM      8  C1  UNL d   1       0.519  -5.963  -0.240  0.00  0.00     0.053 C 
ATOM      9  C   UNL d   1       1.144  -4.577  -0.212  0.00  0.00     0.018 C 
ENDBRANCH   1   8
TORSDOF 1
ENDMDL
