MODEL 1
REMARK minimizedAffinity 20.8842659
REMARK minimizedRMSD -1
REMARK  1 active torsions:
REMARK  status: ('A' for Active; 'I' for Inactive)
REMARK    1  A    between atoms: C1_2  and  C2_3 
ROOT
ATOM      1  C2  UNL d   1       4.247   2.388   0.614  0.00  0.00    -0.076 A 
ATOM      2  C3  UNL d   1       3.565   1.327   1.234  0.00  0.00     0.004 A 
ATOM      3  C4  UNL d   1       2.684   0.522   0.514  0.00  0.00    -0.003 A 
ATOM      4  C5  UNL d   1       2.471   0.764  -0.839  0.00  0.00     0.000 A 
ATOM      5  C6  UNL d   1       3.152   1.802  -1.474  0.00  0.00     0.000 A 
ATOM      6  C7  UNL d   1       4.056   2.612  -0.767  0.00  0.00    -0.073 A 
ATOM      7  C8  UNL d   1       4.760   3.721  -1.501  0.00  0.00     0.078 C 
ENDROOT
BRANCH   1   8
ATOM      8  C1  UNL d   1       5.169   3.244   1.451  0.00  0.00     0.053 C 
ATOM      9  C   UNL d   1       4.604   3.528   2.835  0.00  0.00     0.018 C 
ENDBRANCH   1   8
TORSDOF 1
ENDMDL
