MODEL 1
REMARK minimizedAffinity 14.6907921
REMARK minimizedRMSD -1
REMARK  1 active torsions:
REMARK  status: ('A' for Active; 'I' for Inactive)
REMARK    1  A    between atoms: C1_2  and  C2_3 
ROOT
ATOM      1  C2  UNL d   1       3.279  -0.224   0.690  0.00  0.00    -0.076 A 
ATOM      2  C3  UNL d   1       2.854  -1.494   1.119  0.00  0.00     0.004 A 
ATOM      3  C4  UNL d   1       1.884  -2.203   0.413  0.00  0.00    -0.003 A 
ATOM      4  C5  UNL d   1       1.324  -1.655  -0.736  0.00  0.00     0.000 A 
ATOM      5  C6  UNL d   1       1.747  -0.404  -1.187  0.00  0.00     0.000 A 
ATOM      6  C7  UNL d   1       2.735   0.317  -0.495  0.00  0.00    -0.073 A 
ATOM      7  C8  UNL d   1       3.149   1.663  -1.023  0.00  0.00     0.078 C 
ENDROOT
BRANCH   1   8
ATOM      8  C1  UNL d   1       4.314   0.509   1.512  0.00  0.00     0.053 C 
ATOM      9  C   UNL d   1       5.475  -0.384   1.920  0.00  0.00     0.018 C 
ENDBRANCH   1   8
TORSDOF 1
ENDMDL
