MODEL 1
REMARK minimizedAffinity 11.1620798
REMARK minimizedRMSD -1
REMARK  1 active torsions:
REMARK  status: ('A' for Active; 'I' for Inactive)
REMARK    1  A    between atoms: C1_2  and  C2_3 
ROOT
ATOM      1  C2  UNL d   1       3.435   1.021  -1.068  0.00  0.00    -0.076 A 
ATOM      2  C3  UNL d   1       2.793  -0.066  -1.688  0.00  0.00     0.004 A 
ATOM      3  C4  UNL d   1       2.281  -1.121  -0.935  0.00  0.00    -0.003 A 
ATOM      4  C5  UNL d   1       2.401  -1.106   0.450  0.00  0.00     0.000 A 
ATOM      5  C6  UNL d   1       3.019  -0.028   1.083  0.00  0.00     0.000 A 
ATOM      6  C7  UNL d   1       3.527   1.051   0.340  0.00  0.00    -0.073 A 
ATOM      7  C8  UNL d   1       4.189   2.185   1.074  0.00  0.00     0.078 C 
ENDROOT
BRANCH   1   8
ATOM      8  C1  UNL d   1       3.995   2.123  -1.938  0.00  0.00     0.053 C 
ATOM      9  C   UNL d   1       4.882   1.592  -3.054  0.00  0.00     0.018 C 
ENDBRANCH   1   8
TORSDOF 1
ENDMDL
