MODEL 1
REMARK minimizedAffinity 10.9791527
REMARK minimizedRMSD -1
REMARK  1 active torsions:
REMARK  status: ('A' for Active; 'I' for Inactive)
REMARK    1  A    between atoms: C1_2  and  C2_3 
ROOT
ATOM      1  C2  UNL d   1       4.890   2.247  -0.998  0.00  0.00    -0.076 A 
ATOM      2  C3  UNL d   1       4.075   1.495  -1.862  0.00  0.00     0.004 A 
ATOM      3  C4  UNL d   1       3.054   0.688  -1.363  0.00  0.00    -0.003 A 
ATOM      4  C5  UNL d   1       2.830   0.621   0.008  0.00  0.00     0.000 A 
ATOM      5  C6  UNL d   1       3.618   1.373   0.878  0.00  0.00     0.000 A 
ATOM      6  C7  UNL d   1       4.641   2.205   0.391  0.00  0.00    -0.073 A 
ATOM      7  C8  UNL d   1       5.464   2.990   1.375  0.00  0.00     0.078 C 
ENDROOT
BRANCH   1   8
ATOM      8  C1  UNL d   1       6.000   3.083  -1.594  0.00  0.00     0.053 C 
ATOM      9  C   UNL d   1       5.991   4.515  -1.080  0.00  0.00     0.018 C 
ENDBRANCH   1   8
TORSDOF 1
ENDMDL
