MODEL 1
REMARK minimizedAffinity 2.62604237
REMARK minimizedRMSD -1
REMARK  1 active torsions:
REMARK  status: ('A' for Active; 'I' for Inactive)
REMARK    1  A    between atoms: C1_2  and  C2_3 
ROOT
ATOM      1  C2  UNL d   1       2.922  -0.938  -0.469  0.00  0.00    -0.076 A 
ATOM      2  C3  UNL d   1       2.886   0.327   0.143  0.00  0.00     0.004 A 
ATOM      3  C4  UNL d   1       3.285   1.470  -0.547  0.00  0.00    -0.003 A 
ATOM      4  C5  UNL d   1       3.725   1.368  -1.862  0.00  0.00     0.000 A 
ATOM      5  C6  UNL d   1       3.751   0.124  -2.491  0.00  0.00     0.000 A 
ATOM      6  C7  UNL d   1       3.337  -1.037  -1.815  0.00  0.00    -0.073 A 
ATOM      7  C8  UNL d   1       3.391  -2.353  -2.540  0.00  0.00     0.078 C 
ENDROOT
BRANCH   1   8
ATOM      8  C1  UNL d   1       2.504  -2.146   0.337  0.00  0.00     0.053 C 
ATOM      9  C   UNL d   1       1.147  -2.688  -0.086  0.00  0.00     0.018 C 
ENDBRANCH   1   8
TORSDOF 1
ENDMDL
