MODEL 1
REMARK minimizedAffinity 7.39754581
REMARK minimizedRMSD -1
REMARK  1 active torsions:
REMARK  status: ('A' for Active; 'I' for Inactive)
REMARK    1  A    between atoms: C1_2  and  C2_3 
ROOT
ATOM      1  C2  UNL d   1      -4.948   2.178   0.808  0.00  0.00    -0.076 A 
ATOM      2  C3  UNL d   1      -5.837   1.089   0.784  0.00  0.00     0.004 A 
ATOM      3  C4  UNL d   1      -5.964   0.291  -0.352  0.00  0.00    -0.003 A 
ATOM      4  C5  UNL d   1      -5.203   0.569  -1.482  0.00  0.00     0.000 A 
ATOM      5  C6  UNL d   1      -4.304   1.634  -1.471  0.00  0.00     0.000 A 
ATOM      6  C7  UNL d   1      -4.152   2.439  -0.328  0.00  0.00    -0.073 A 
ATOM      7  C8  UNL d   1      -3.171   3.578  -0.373  0.00  0.00     0.078 C 
ENDROOT
BRANCH   1   8
ATOM      8  C1  UNL d   1      -4.873   3.025   2.058  0.00  0.00     0.053 C 
ATOM      9  C   UNL d   1      -5.999   4.044   2.140  0.00  0.00     0.018 C 
ENDBRANCH   1   8
TORSDOF 1
ENDMDL
