MODEL 1
REMARK minimizedAffinity 16.1709709
REMARK minimizedRMSD -1
REMARK  1 active torsions:
REMARK  status: ('A' for Active; 'I' for Inactive)
REMARK    1  A    between atoms: C1_2  and  C2_3 
ROOT
ATOM      1  C2  UNL d   1      -5.358   2.042  -1.990  0.00  0.00    -0.076 A 
ATOM      2  C3  UNL d   1      -5.229   0.702  -1.586  0.00  0.00     0.004 A 
ATOM      3  C4  UNL d   1      -4.623   0.372  -0.375  0.00  0.00    -0.003 A 
ATOM      4  C5  UNL d   1      -4.137   1.378   0.453  0.00  0.00     0.000 A 
ATOM      5  C6  UNL d   1      -4.273   2.714   0.077  0.00  0.00     0.000 A 
ATOM      6  C7  UNL d   1      -4.896   3.064  -1.133  0.00  0.00    -0.073 A 
ATOM      7  C8  UNL d   1      -5.009   4.520  -1.491  0.00  0.00     0.078 C 
ENDROOT
BRANCH   1   8
ATOM      8  C1  UNL d   1      -6.000   2.338  -3.326  0.00  0.00     0.053 C 
ATOM      9  C   UNL d   1      -5.998   1.132  -4.253  0.00  0.00     0.018 C 
ENDBRANCH   1   8
TORSDOF 1
ENDMDL
