MODEL 1
REMARK minimizedAffinity 11.740654
REMARK minimizedRMSD -1
REMARK  1 active torsions:
REMARK  status: ('A' for Active; 'I' for Inactive)
REMARK    1  A    between atoms: C1_2  and  C2_3 
ROOT
ATOM      1  C2  UNL d   1      -4.809   0.244  -2.267  0.00  0.00    -0.076 A 
ATOM      2  C3  UNL d   1      -5.997   0.526  -1.570  0.00  0.00     0.004 A 
ATOM      3  C4  UNL d   1      -5.999   0.662  -0.183  0.00  0.00    -0.003 A 
ATOM      4  C5  UNL d   1      -4.814   0.517   0.530  0.00  0.00     0.000 A 
ATOM      5  C6  UNL d   1      -3.624   0.254  -0.147  0.00  0.00     0.000 A 
ATOM      6  C7  UNL d   1      -3.601   0.130  -1.547  0.00  0.00    -0.073 A 
ATOM      7  C8  UNL d   1      -2.290  -0.160  -2.225  0.00  0.00     0.078 C 
ENDROOT
BRANCH   1   8
ATOM      8  C1  UNL d   1      -4.873   0.081  -3.769  0.00  0.00     0.053 C 
ATOM      9  C   UNL d   1      -5.999  -0.842  -4.208  0.00  0.00     0.018 C 
ENDBRANCH   1   8
TORSDOF 1
ENDMDL
