MODEL 1
REMARK minimizedAffinity -2.71456599
REMARK minimizedRMSD -1
REMARK  0 active torsions:
REMARK  status: ('A' for Active; 'I' for Inactive)
ROOT
ATOM      1  C1  BNZ d   1      -0.883   0.593   2.278  0.00  0.00     0.000 A 
ATOM      2  C2  BNZ d   1      -1.679  -0.089   1.397  0.00  0.00     0.000 A 
ATOM      3  C3  BNZ d   1      -1.235  -0.390   0.140  0.00  0.00     0.000 A 
ATOM      4  C4  BNZ d   1      -0.012   0.026  -0.248  0.00  0.00     0.000 A 
ATOM      5  C5  BNZ d   1       0.799   0.722   0.625  0.00  0.00     0.000 A 
ATOM      6  C6  BNZ d   1       0.364   0.990   1.903  0.00  0.00     0.000 A 
ENDROOT
TORSDOF 0
ENDMDL
