MODEL 1
REMARK minimizedAffinity -4.33916521
REMARK minimizedRMSD -1
REMARK  0 active torsions:
REMARK  status: ('A' for Active; 'I' for Inactive)
ROOT
ATOM      1  C1  BNZ d   1       0.635   0.330   0.327  0.00  0.00     0.000 A 
ATOM      2  C2  BNZ d   1       0.252   1.081   1.406  0.00  0.00     0.000 A 
ATOM      3  C3  BNZ d   1      -1.041   1.063   1.849  0.00  0.00     0.000 A 
ATOM      4  C4  BNZ d   1      -1.957   0.325   1.189  0.00  0.00     0.000 A 
ATOM      5  C5  BNZ d   1      -1.589  -0.431   0.094  0.00  0.00     0.000 A 
ATOM      6  C6  BNZ d   1      -0.278  -0.440  -0.326  0.00  0.00     0.000 A 
ENDROOT
TORSDOF 0
ENDMDL
