MODEL 1
REMARK minimizedAffinity -4.49516106
REMARK minimizedRMSD -1
REMARK  0 active torsions:
REMARK  status: ('A' for Active; 'I' for Inactive)
ROOT
ATOM      1  C1  BNZ d   1       0.663   0.832   0.734  0.00  0.00     0.000 A 
ATOM      2  C2  BNZ d   1       0.312   1.447   1.906  0.00  0.00     0.000 A 
ATOM      3  C3  BNZ d   1      -0.914   1.230   2.470  0.00  0.00     0.000 A 
ATOM      4  C4  BNZ d   1      -1.801   0.431   1.843  0.00  0.00     0.000 A 
ATOM      5  C5  BNZ d   1      -1.465  -0.190   0.656  0.00  0.00     0.000 A 
ATOM      6  C6  BNZ d   1      -0.216   0.001   0.110  0.00  0.00     0.000 A 
ENDROOT
TORSDOF 0
ENDMDL
