MODEL 1
REMARK minimizedAffinity -3.28127885
REMARK minimizedRMSD -1
REMARK  0 active torsions:
REMARK  status: ('A' for Active; 'I' for Inactive)
ROOT
ATOM      1  C1  BNZ d   1      -2.102   0.510   1.116  0.00  0.00     0.000 A 
ATOM      2  C2  BNZ d   1      -1.456   0.007   0.018  0.00  0.00     0.000 A 
ATOM      3  C3  BNZ d   1      -0.090  -0.027  -0.035  0.00  0.00     0.000 A 
ATOM      4  C4  BNZ d   1       0.626   0.477   0.991  0.00  0.00     0.000 A 
ATOM      5  C5  BNZ d   1      -0.011   0.996   2.100  0.00  0.00     0.000 A 
ATOM      6  C6  BNZ d   1      -1.386   0.993   2.167  0.00  0.00     0.000 A 
ENDROOT
TORSDOF 0
ENDMDL
