MODEL 1
REMARK minimizedAffinity -3.02344656
REMARK minimizedRMSD -1
REMARK  0 active torsions:
REMARK  status: ('A' for Active; 'I' for Inactive)
ROOT
ATOM      1  C1  BNZ d   1      -0.704   0.958   0.730  0.00  0.00     0.000 A 
ATOM      2  C2  BNZ d   1      -0.402   1.537   1.933  0.00  0.00     0.000 A 
ATOM      3  C3  BNZ d   1      -1.022   1.130   3.081  0.00  0.00     0.000 A 
ATOM      4  C4  BNZ d   1      -1.970   0.173   3.019  0.00  0.00     0.000 A 
ATOM      5  C5  BNZ d   1      -2.293  -0.414   1.812  0.00  0.00     0.000 A 
ATOM      6  C6  BNZ d   1      -1.639  -0.028   0.664  0.00  0.00     0.000 A 
ENDROOT
TORSDOF 0
ENDMDL
