MODEL 1
REMARK minimizedAffinity -3.80177975
REMARK minimizedRMSD -1
REMARK  0 active torsions:
REMARK  status: ('A' for Active; 'I' for Inactive)
ROOT
ATOM      1  C1  BNZ d   1      -1.912   0.314   2.094  0.00  0.00     0.000 A 
ATOM      2  C2  BNZ d   1      -1.750  -0.125   0.807  0.00  0.00     0.000 A 
ATOM      3  C3  BNZ d   1      -0.766   0.392   0.010  0.00  0.00     0.000 A 
ATOM      4  C4  BNZ d   1       0.026   1.374   0.487  0.00  0.00     0.000 A 
ATOM      5  C5  BNZ d   1      -0.131   1.833   1.780  0.00  0.00     0.000 A 
ATOM      6  C6  BNZ d   1      -1.096   1.283   2.592  0.00  0.00     0.000 A 
ENDROOT
TORSDOF 0
ENDMDL
