MODEL 1
REMARK minimizedAffinity -4.30689907
REMARK minimizedRMSD -1
REMARK  0 active torsions:
REMARK  status: ('A' for Active; 'I' for Inactive)
ROOT
ATOM      1  C1  BNZ d   1      -0.013   0.121   0.188  0.00  0.00     0.000 A 
ATOM      2  C2  BNZ d   1       0.820   0.411   1.235  0.00  0.00     0.000 A 
ATOM      3  C3  BNZ d   1       0.369   1.123   2.312  0.00  0.00     0.000 A 
ATOM      4  C4  BNZ d   1      -0.901   1.578   2.321  0.00  0.00     0.000 A 
ATOM      5  C5  BNZ d   1      -1.750   1.302   1.268  0.00  0.00     0.000 A 
ATOM      6  C6  BNZ d   1      -1.304   0.552   0.204  0.00  0.00     0.000 A 
ENDROOT
TORSDOF 0
ENDMDL
