MODEL 1
REMARK minimizedAffinity -4.43790102
REMARK minimizedRMSD -1
REMARK  0 active torsions:
REMARK  status: ('A' for Active; 'I' for Inactive)
ROOT
ATOM      1  C1  BNZ d   1      -1.596   0.281   0.503  0.00  0.00     0.000 A 
ATOM      2  C2  BNZ d   1      -1.614   0.991   1.674  0.00  0.00     0.000 A 
ATOM      3  C3  BNZ d   1      -0.452   1.430   2.244  0.00  0.00     0.000 A 
ATOM      4  C4  BNZ d   1       0.727   1.125   1.665  0.00  0.00     0.000 A 
ATOM      5  C5  BNZ d   1       0.763   0.403   0.489  0.00  0.00     0.000 A 
ATOM      6  C6  BNZ d   1      -0.411  -0.004  -0.102  0.00  0.00     0.000 A 
ENDROOT
TORSDOF 0
ENDMDL
