MODEL 1
REMARK minimizedAffinity 10.0499096
REMARK minimizedRMSD -1
REMARK  0 active torsions:
REMARK  status: ('A' for Active; 'I' for Inactive)
ROOT
ATOM      1  C   UNL d   1       1.565   2.635   0.390  0.00  0.00     0.124 A 
ATOM      2  C1  UNL d   1       1.178   1.378   0.836  0.00  0.00     0.062 A 
ATOM      3  C2  UNL d   1       1.009   0.335  -0.070  0.00  0.00     0.162 A 
ATOM      4  C3  UNL d   1       1.229   0.543  -1.431  0.00  0.00    -0.034 A 
ATOM      5  C4  UNL d   1       1.617   1.810  -1.873  0.00  0.00     0.162 A 
ATOM      6  C5  UNL d   1       1.784   2.849  -0.963  0.00  0.00     0.062 A 
ATOM      7  F   UNL d   1       2.158   4.062  -1.396  0.00  0.00    -0.097 F 
ATOM      8  F1  UNL d   1       1.837   2.044  -3.175  0.00  0.00    -0.096 F 
ATOM      9  I   UNL d   1       0.978  -1.014  -2.789  0.00  0.00    -0.060 I 
ATOM     10  F2  UNL d   1       0.635  -0.868   0.389  0.00  0.00    -0.096 F 
ATOM     11  F3  UNL d   1       0.965   1.169   2.143  0.00  0.00    -0.097 F 
ATOM     12  F4  UNL d   1       1.726   3.637   1.264  0.00  0.00    -0.092 F 
ENDROOT
TORSDOF 0
ENDMDL
