MODEL 1
REMARK minimizedAffinity 12.6796656
REMARK minimizedRMSD -1
REMARK  0 active torsions:
REMARK  status: ('A' for Active; 'I' for Inactive)
ROOT
ATOM      1  C   UNL d   1      -4.086   1.136   2.598  0.00  0.00     0.124 A 
ATOM      2  C1  UNL d   1      -3.315   1.346   3.733  0.00  0.00     0.062 A 
ATOM      3  C2  UNL d   1      -2.540   2.496   3.851  0.00  0.00     0.162 A 
ATOM      4  C3  UNL d   1      -2.533   3.447   2.831  0.00  0.00    -0.034 A 
ATOM      5  C4  UNL d   1      -3.311   3.230   1.692  0.00  0.00     0.162 A 
ATOM      6  C5  UNL d   1      -4.083   2.078   1.579  0.00  0.00     0.062 A 
ATOM      7  F   UNL d   1      -4.827   1.878   0.482  0.00  0.00    -0.097 F 
ATOM      8  F1  UNL d   1      -3.327   4.124   0.692  0.00  0.00    -0.096 F 
ATOM      9  I   UNL d   1      -1.376   5.169   3.003  0.00  0.00    -0.060 I 
ATOM     10  F2  UNL d   1      -1.804   2.672   4.959  0.00  0.00    -0.096 F 
ATOM     11  F3  UNL d   1      -3.315   0.437   4.719  0.00  0.00    -0.097 F 
ATOM     12  F4  UNL d   1      -4.829   0.028   2.487  0.00  0.00    -0.092 F 
ENDROOT
TORSDOF 0
ENDMDL
