MODEL 1
REMARK minimizedAffinity 13.0905371
REMARK minimizedRMSD -1
REMARK  0 active torsions:
REMARK  status: ('A' for Active; 'I' for Inactive)
ROOT
ATOM      1  C   UNL d   1      -0.192   1.765  -0.271  0.00  0.00     0.124 A 
ATOM      2  C1  UNL d   1       0.211   0.883  -1.264  0.00  0.00     0.062 A 
ATOM      3  C2  UNL d   1       1.433   0.225  -1.162  0.00  0.00     0.162 A 
ATOM      4  C3  UNL d   1       2.261   0.446  -0.061  0.00  0.00    -0.034 A 
ATOM      5  C4  UNL d   1       1.849   1.334   0.933  0.00  0.00     0.162 A 
ATOM      6  C5  UNL d   1       0.627   1.990   0.827  0.00  0.00     0.062 A 
ATOM      7  F   UNL d   1       0.239   2.841   1.787  0.00  0.00    -0.097 F 
ATOM      8  F1  UNL d   1       2.621   1.570   2.005  0.00  0.00    -0.096 F 
ATOM      9  I   UNL d   1       4.090  -0.536   0.096  0.00  0.00    -0.060 I 
ATOM     10  F2  UNL d   1       1.798  -0.621  -2.136  0.00  0.00    -0.096 F 
ATOM     11  F3  UNL d   1      -0.578   0.665  -2.326  0.00  0.00    -0.097 F 
ATOM     12  F4  UNL d   1      -1.368   2.397  -0.372  0.00  0.00    -0.092 F 
ENDROOT
TORSDOF 0
ENDMDL
