MODEL 1
REMARK minimizedAffinity 11.3088999
REMARK minimizedRMSD -1
REMARK  0 active torsions:
REMARK  status: ('A' for Active; 'I' for Inactive)
ROOT
ATOM      1  C   UNL d   1       1.127   0.953  -2.347  0.00  0.00     0.124 A 
ATOM      2  C1  UNL d   1       0.823  -0.251  -1.727  0.00  0.00     0.062 A 
ATOM      3  C2  UNL d   1       0.829  -0.345  -0.339  0.00  0.00     0.162 A 
ATOM      4  C3  UNL d   1       1.140   0.770   0.440  0.00  0.00    -0.034 A 
ATOM      5  C4  UNL d   1       1.445   1.977  -0.190  0.00  0.00     0.162 A 
ATOM      6  C5  UNL d   1       1.438   2.066  -1.578  0.00  0.00     0.062 A 
ATOM      7  F   UNL d   1       1.732   3.230  -2.176  0.00  0.00    -0.097 F 
ATOM      8  F1  UNL d   1       1.748   3.068   0.529  0.00  0.00    -0.096 F 
ATOM      9  I   UNL d   1       1.150   0.634   2.517  0.00  0.00    -0.060 I 
ATOM     10  F2  UNL d   1       0.531  -1.521   0.233  0.00  0.00    -0.096 F 
ATOM     11  F3  UNL d   1       0.523  -1.328  -2.468  0.00  0.00    -0.097 F 
ATOM     12  F4  UNL d   1       1.121   1.040  -3.684  0.00  0.00    -0.092 F 
ENDROOT
TORSDOF 0
ENDMDL
