MODEL 1
REMARK minimizedAffinity 9.41751766
REMARK minimizedRMSD -1
REMARK  0 active torsions:
REMARK  status: ('A' for Active; 'I' for Inactive)
ROOT
ATOM      1  C   UNL d   1       0.765   1.185  -1.571  0.00  0.00     0.124 A 
ATOM      2  C1  UNL d   1       0.676  -0.082  -1.010  0.00  0.00     0.062 A 
ATOM      3  C2  UNL d   1       0.930  -0.266   0.346  0.00  0.00     0.162 A 
ATOM      4  C3  UNL d   1       1.274   0.820   1.152  0.00  0.00    -0.034 A 
ATOM      5  C4  UNL d   1       1.362   2.090   0.580  0.00  0.00     0.162 A 
ATOM      6  C5  UNL d   1       1.108   2.269  -0.776  0.00  0.00     0.062 A 
ATOM      7  F   UNL d   1       1.194   3.494  -1.316  0.00  0.00    -0.097 F 
ATOM      8  F1  UNL d   1       1.691   3.156   1.325  0.00  0.00    -0.096 F 
ATOM      9  I   UNL d   1       1.655   0.549   3.180  0.00  0.00    -0.060 I 
ATOM     10  F2  UNL d   1       0.837  -1.501   0.862  0.00  0.00    -0.096 F 
ATOM     11  F3  UNL d   1       0.346  -1.131  -1.776  0.00  0.00    -0.097 F 
ATOM     12  F4  UNL d   1       0.521   1.359  -2.876  0.00  0.00    -0.092 F 
ENDROOT
TORSDOF 0
ENDMDL
