MODEL 1
REMARK minimizedAffinity 14.1456709
REMARK minimizedRMSD -1
REMARK  0 active torsions:
REMARK  status: ('A' for Active; 'I' for Inactive)
ROOT
ATOM      1  C   UNL d   1       0.936   0.275  -1.219  0.00  0.00     0.124 A 
ATOM      2  C1  UNL d   1       1.153  -0.047   0.113  0.00  0.00     0.062 A 
ATOM      3  C2  UNL d   1       1.481   0.948   1.029  0.00  0.00     0.162 A 
ATOM      4  C3  UNL d   1       1.592   2.276   0.616  0.00  0.00    -0.034 A 
ATOM      5  C4  UNL d   1       1.373   2.592  -0.726  0.00  0.00     0.162 A 
ATOM      6  C5  UNL d   1       1.046   1.594  -1.637  0.00  0.00     0.062 A 
ATOM      7  F   UNL d   1       0.836   1.907  -2.924  0.00  0.00    -0.097 F 
ATOM      8  F1  UNL d   1       1.472   3.858  -1.156  0.00  0.00    -0.096 F 
ATOM      9  I   UNL d   1       2.082   3.767   1.983  0.00  0.00    -0.060 I 
ATOM     10  F2  UNL d   1       1.685   0.608   2.311  0.00  0.00    -0.096 F 
ATOM     11  F3  UNL d   1       1.048  -1.320   0.520  0.00  0.00    -0.097 F 
ATOM     12  F4  UNL d   1       0.621  -0.685  -2.099  0.00  0.00    -0.092 F 
ENDROOT
TORSDOF 0
ENDMDL
