MODEL 1
REMARK minimizedAffinity 14.5382242
REMARK minimizedRMSD -1
REMARK  0 active torsions:
REMARK  status: ('A' for Active; 'I' for Inactive)
ROOT
ATOM      1  C   UNL d   1       0.775  -0.126  -1.650  0.00  0.00     0.124 A 
ATOM      2  C1  UNL d   1       0.782  -0.559  -0.331  0.00  0.00     0.062 A 
ATOM      3  C2  UNL d   1       1.126   0.320   0.693  0.00  0.00     0.162 A 
ATOM      4  C3  UNL d   1       1.466   1.641   0.402  0.00  0.00    -0.034 A 
ATOM      5  C4  UNL d   1       1.457   2.069  -0.927  0.00  0.00     0.162 A 
ATOM      6  C5  UNL d   1       1.113   1.187  -1.946  0.00  0.00     0.062 A 
ATOM      7  F   UNL d   1       1.107   1.607  -3.220  0.00  0.00    -0.097 F 
ATOM      8  F1  UNL d   1       1.779   3.332  -1.242  0.00  0.00    -0.096 F 
ATOM      9  I   UNL d   1       1.981   2.957   1.929  0.00  0.00    -0.060 I 
ATOM     10  F2  UNL d   1       1.124  -0.126   1.958  0.00  0.00    -0.096 F 
ATOM     11  F3  UNL d   1       0.456  -1.827  -0.041  0.00  0.00    -0.097 F 
ATOM     12  F4  UNL d   1       0.444  -0.973  -2.632  0.00  0.00    -0.092 F 
ENDROOT
TORSDOF 0
ENDMDL
