MODEL 1
REMARK minimizedAffinity 8.16388226
REMARK minimizedRMSD -1
REMARK  0 active torsions:
REMARK  status: ('A' for Active; 'I' for Inactive)
ROOT
ATOM      1  C   UNL d   1       1.287  -0.744  -0.709  0.00  0.00     0.124 A 
ATOM      2  C1  UNL d   1       2.587  -0.681  -0.226  0.00  0.00     0.062 A 
ATOM      3  C2  UNL d   1       2.980   0.375   0.590  0.00  0.00     0.162 A 
ATOM      4  C3  UNL d   1       2.072   1.377   0.931  0.00  0.00    -0.034 A 
ATOM      5  C4  UNL d   1       0.767   1.308   0.441  0.00  0.00     0.162 A 
ATOM      6  C5  UNL d   1       0.378   0.251  -0.375  0.00  0.00     0.062 A 
ATOM      7  F   UNL d   1      -0.878   0.192  -0.841  0.00  0.00    -0.097 F 
ATOM      8  F1  UNL d   1      -0.132   2.255   0.749  0.00  0.00    -0.096 F 
ATOM      9  I   UNL d   1       2.656   2.958   2.152  0.00  0.00    -0.060 I 
ATOM     10  F2  UNL d   1       4.243   0.409   1.042  0.00  0.00    -0.096 F 
ATOM     11  F3  UNL d   1       3.467  -1.640  -0.548  0.00  0.00    -0.097 F 
ATOM     12  F4  UNL d   1       0.911  -1.760  -1.496  0.00  0.00    -0.092 F 
ENDROOT
TORSDOF 0
ENDMDL
