MODEL 1
REMARK minimizedAffinity 9.39753819
REMARK minimizedRMSD -1
REMARK  0 active torsions:
REMARK  status: ('A' for Active; 'I' for Inactive)
ROOT
ATOM      1  C   UNL d   1      -0.170   1.761  -0.052  0.00  0.00     0.124 A 
ATOM      2  C1  UNL d   1       0.748   2.033   0.953  0.00  0.00     0.062 A 
ATOM      3  C2  UNL d   1       1.878   1.235   1.103  0.00  0.00     0.162 A 
ATOM      4  C3  UNL d   1       2.098   0.157   0.245  0.00  0.00    -0.034 A 
ATOM      5  C4  UNL d   1       1.170  -0.110  -0.763  0.00  0.00     0.162 A 
ATOM      6  C5  UNL d   1       0.042   0.690  -0.909  0.00  0.00     0.062 A 
ATOM      7  F   UNL d   1      -0.844   0.426  -1.880  0.00  0.00    -0.097 F 
ATOM      8  F1  UNL d   1       1.350  -1.138  -1.605  0.00  0.00    -0.096 F 
ATOM      9  I   UNL d   1       3.787  -1.038   0.466  0.00  0.00    -0.060 I 
ATOM     10  F2  UNL d   1       2.749   1.521   2.083  0.00  0.00    -0.096 F 
ATOM     11  F3  UNL d   1       0.545   3.066   1.783  0.00  0.00    -0.097 F 
ATOM     12  F4  UNL d   1      -1.257   2.530  -0.193  0.00  0.00    -0.092 F 
ENDROOT
TORSDOF 0
ENDMDL
