MODEL 1
REMARK minimizedAffinity 13.7620668
REMARK minimizedRMSD -1
REMARK  0 active torsions:
REMARK  status: ('A' for Active; 'I' for Inactive)
ROOT
ATOM      1  C   UNL d   1       1.368   2.220  -1.166  0.00  0.00     0.124 A 
ATOM      2  C1  UNL d   1       1.366   1.913   0.187  0.00  0.00     0.062 A 
ATOM      3  C2  UNL d   1       1.034   0.630   0.613  0.00  0.00     0.162 A 
ATOM      4  C3  UNL d   1       0.702  -0.356  -0.316  0.00  0.00    -0.034 A 
ATOM      5  C4  UNL d   1       0.705  -0.039  -1.675  0.00  0.00     0.162 A 
ATOM      6  C5  UNL d   1       1.038   1.244  -2.096  0.00  0.00     0.062 A 
ATOM      7  F   UNL d   1       1.039   1.540  -3.404  0.00  0.00    -0.097 F 
ATOM      8  F1  UNL d   1       0.391  -0.963  -2.596  0.00  0.00    -0.096 F 
ATOM      9  I   UNL d   1       0.205  -2.276   0.317  0.00  0.00    -0.060 I 
ATOM     10  F2  UNL d   1       1.040   0.360   1.927  0.00  0.00    -0.096 F 
ATOM     11  F3  UNL d   1       1.683   2.854   1.088  0.00  0.00    -0.097 F 
ATOM     12  F4  UNL d   1       1.686   3.456  -1.573  0.00  0.00    -0.092 F 
ENDROOT
TORSDOF 0
ENDMDL
