MODEL 1
REMARK minimizedAffinity 13.3104801
REMARK minimizedRMSD -1
REMARK  0 active torsions:
REMARK  status: ('A' for Active; 'I' for Inactive)
ROOT
ATOM      1  C   UNL d   1       0.171  -2.230  -0.818  0.00  0.00     0.124 A 
ATOM      2  C1  UNL d   1      -0.569  -1.130  -1.229  0.00  0.00     0.062 A 
ATOM      3  C2  UNL d   1      -0.245   0.143  -0.770  0.00  0.00     0.162 A 
ATOM      4  C3  UNL d   1       0.825   0.324   0.106  0.00  0.00    -0.034 A 
ATOM      5  C4  UNL d   1       1.565  -0.787   0.516  0.00  0.00     0.162 A 
ATOM      6  C5  UNL d   1       1.237  -2.058   0.054  0.00  0.00     0.062 A 
ATOM      7  F   UNL d   1       1.953  -3.119   0.453  0.00  0.00    -0.097 F 
ATOM      8  F1  UNL d   1       2.600  -0.649   1.357  0.00  0.00    -0.096 F 
ATOM      9  I   UNL d   1       1.313   2.226   0.795  0.00  0.00    -0.060 I 
ATOM     10  F2  UNL d   1      -0.978   1.188  -1.184  0.00  0.00    -0.096 F 
ATOM     11  F3  UNL d   1      -1.600  -1.295  -2.070  0.00  0.00    -0.097 F 
ATOM     12  F4  UNL d   1      -0.144  -3.454  -1.260  0.00  0.00    -0.092 F 
ENDROOT
TORSDOF 0
ENDMDL
