MODEL 1
REMARK minimizedAffinity -4.13983059
REMARK minimizedRMSD -1
REMARK  0 active torsions:
REMARK  status: ('A' for Active; 'I' for Inactive)
ROOT
ATOM      1  C   UNL d   1      -0.386   0.272  -0.251  0.00  0.00     0.172 C 
ATOM      2  N   UNL d   1       0.091  -0.779   0.616  0.00  0.00    -0.070 N 
ATOM      3  C1  UNL d   1       1.284  -1.440   0.488  0.00  0.00    -0.004 A 
ATOM      4  C2  UNL d   1       1.366  -2.364   1.506  0.00  0.00    -0.047 A 
ATOM      5  C3  UNL d   1       0.181  -2.256   2.273  0.00  0.00    -0.047 A 
ATOM      6  C4  UNL d   1      -0.590  -1.268   1.699  0.00  0.00    -0.004 A 
ENDROOT
TORSDOF 0
ENDMDL
