MODEL 1
REMARK minimizedAffinity -3.69459391
REMARK minimizedRMSD -1
REMARK  0 active torsions:
REMARK  status: ('A' for Active; 'I' for Inactive)
ROOT
ATOM      1  C   UNL d   1      -0.270   0.309  -0.081  0.00  0.00     0.172 C 
ATOM      2  N   UNL d   1      -0.021  -0.810   0.797  0.00  0.00    -0.070 N 
ATOM      3  C1  UNL d   1      -0.783  -1.160   1.880  0.00  0.00    -0.004 A 
ATOM      4  C2  UNL d   1      -0.215  -2.279   2.450  0.00  0.00    -0.047 A 
ATOM      5  C3  UNL d   1       0.927  -2.612   1.684  0.00  0.00    -0.047 A 
ATOM      6  C4  UNL d   1       1.023  -1.687   0.667  0.00  0.00    -0.004 A 
ENDROOT
TORSDOF 0
ENDMDL
