MODEL 1
REMARK minimizedAffinity -3.55991244
REMARK minimizedRMSD -1
REMARK  0 active torsions:
REMARK  status: ('A' for Active; 'I' for Inactive)
ROOT
ATOM      1  C   UNL d   1      -1.762  -1.429   3.021  0.00  0.00     0.172 C 
ATOM      2  N   UNL d   1      -0.665  -1.589   2.095  0.00  0.00    -0.070 N 
ATOM      3  C1  UNL d   1       0.445  -2.364   2.299  0.00  0.00    -0.004 A 
ATOM      4  C2  UNL d   1       1.250  -2.249   1.187  0.00  0.00    -0.047 A 
ATOM      5  C3  UNL d   1       0.601  -1.375   0.283  0.00  0.00    -0.047 A 
ATOM      6  C4  UNL d   1      -0.582  -0.981   0.870  0.00  0.00    -0.004 A 
ENDROOT
TORSDOF 0
ENDMDL
