MODEL 1
REMARK minimizedAffinity -4.08029509
REMARK minimizedRMSD -1
REMARK  0 active torsions:
REMARK  status: ('A' for Active; 'I' for Inactive)
ROOT
ATOM      1  C   UNL d   1      -0.679   0.711   0.307  0.00  0.00     0.172 C 
ATOM      2  N   UNL d   1      -0.124  -0.540   0.769  0.00  0.00    -0.070 N 
ATOM      3  C1  UNL d   1       0.902  -1.226   0.176  0.00  0.00    -0.004 A 
ATOM      4  C2  UNL d   1       1.133  -2.364   0.918  0.00  0.00    -0.047 A 
ATOM      5  C3  UNL d   1       0.213  -2.363   1.994  0.00  0.00    -0.047 A 
ATOM      6  C4  UNL d   1      -0.553  -1.222   1.877  0.00  0.00    -0.004 A 
ENDROOT
TORSDOF 0
ENDMDL
