MODEL 1
REMARK minimizedAffinity -2.60546231
REMARK minimizedRMSD -1
REMARK  0 active torsions:
REMARK  status: ('A' for Active; 'I' for Inactive)
ROOT
ATOM      1  C   UNL d   1      -1.720  -1.470   3.184  0.00  0.00     0.172 C 
ATOM      2  N   UNL d   1      -0.627  -1.906   2.346  0.00  0.00    -0.070 N 
ATOM      3  C1  UNL d   1       0.498  -2.558   2.777  0.00  0.00    -0.004 A 
ATOM      4  C2  UNL d   1       1.293  -2.799   1.677  0.00  0.00    -0.047 A 
ATOM      5  C3  UNL d   1       0.623  -2.273   0.547  0.00  0.00    -0.047 A 
ATOM      6  C4  UNL d   1      -0.563  -1.727   0.990  0.00  0.00    -0.004 A 
ENDROOT
TORSDOF 0
ENDMDL
