MODEL 1
REMARK minimizedAffinity -4.12234068
REMARK minimizedRMSD -1
REMARK  0 active torsions:
REMARK  status: ('A' for Active; 'I' for Inactive)
ROOT
ATOM      1  C   UNL d   1      -0.657   0.326   0.050  0.00  0.00     0.172 C 
ATOM      2  N   UNL d   1      -0.151  -0.887   0.650  0.00  0.00    -0.070 N 
ATOM      3  C1  UNL d   1      -0.536  -1.400   1.860  0.00  0.00    -0.004 A 
ATOM      4  C2  UNL d   1       0.176  -2.561   2.071  0.00  0.00    -0.047 A 
ATOM      5  C3  UNL d   1       1.018  -2.752   0.950  0.00  0.00    -0.047 A 
ATOM      6  C4  UNL d   1       0.796  -1.701   0.086  0.00  0.00    -0.004 A 
ENDROOT
TORSDOF 0
ENDMDL
