MODEL 1
REMARK minimizedAffinity -4.01307964
REMARK minimizedRMSD -1
REMARK  0 active torsions:
REMARK  status: ('A' for Active; 'I' for Inactive)
ROOT
ATOM      1  C   UNL d   1      -0.673   0.870  -0.051  0.00  0.00     0.172 C 
ATOM      2  N   UNL d   1       0.205  -0.249   0.201  0.00  0.00    -0.070 N 
ATOM      3  C1  UNL d   1      -0.118  -1.371   0.916  0.00  0.00    -0.004 A 
ATOM      4  C2  UNL d   1       0.985  -2.197   0.926  0.00  0.00    -0.047 A 
ATOM      5  C3  UNL d   1       2.007  -1.548   0.192  0.00  0.00    -0.047 A 
ATOM      6  C4  UNL d   1       1.496  -0.344  -0.246  0.00  0.00    -0.004 A 
ENDROOT
TORSDOF 0
ENDMDL
