MODEL 1
REMARK minimizedAffinity -3.92461371
REMARK minimizedRMSD -1
REMARK  0 active torsions:
REMARK  status: ('A' for Active; 'I' for Inactive)
ROOT
ATOM      1  C   UNL d   1      -0.635   0.584  -0.026  0.00  0.00     0.172 C 
ATOM      2  N   UNL d   1       0.240  -0.523   0.281  0.00  0.00    -0.070 N 
ATOM      3  C1  UNL d   1      -0.065  -1.578   1.099  0.00  0.00    -0.004 A 
ATOM      4  C2  UNL d   1       1.028  -2.416   1.131  0.00  0.00    -0.047 A 
ATOM      5  C3  UNL d   1       2.025  -1.845   0.305  0.00  0.00    -0.047 A 
ATOM      6  C4  UNL d   1       1.510  -0.673  -0.209  0.00  0.00    -0.004 A 
ENDROOT
TORSDOF 0
ENDMDL
