MODEL 1
REMARK minimizedAffinity -4.21870041
REMARK minimizedRMSD -1
REMARK  0 active torsions:
REMARK  status: ('A' for Active; 'I' for Inactive)
ROOT
ATOM      1  C   UNL d   1      -0.423   0.172   0.233  0.00  0.00     0.172 C 
ATOM      2  N   UNL d   1       0.067  -0.989   0.938  0.00  0.00    -0.070 N 
ATOM      3  C1  UNL d   1       1.093  -1.799   0.527  0.00  0.00    -0.004 A 
ATOM      4  C2  UNL d   1       1.252  -2.790   1.472  0.00  0.00    -0.047 A 
ATOM      5  C3  UNL d   1       0.289  -2.569   2.484  0.00  0.00    -0.047 A 
ATOM      6  C4  UNL d   1      -0.431  -1.448   2.129  0.00  0.00    -0.004 A 
ENDROOT
TORSDOF 0
ENDMDL
