MODEL 1
REMARK minimizedAffinity -3.43705201
REMARK minimizedRMSD -1
REMARK  0 active torsions:
REMARK  status: ('A' for Active; 'I' for Inactive)
ROOT
ATOM      1  C   UNL d   1      -1.476  -1.513   3.187  0.00  0.00     0.172 C 
ATOM      2  N   UNL d   1      -0.419  -1.559   2.205  0.00  0.00    -0.070 N 
ATOM      3  C1  UNL d   1      -0.387  -0.854   1.032  0.00  0.00    -0.004 A 
ATOM      4  C2  UNL d   1       0.784  -1.172   0.379  0.00  0.00    -0.047 A 
ATOM      5  C3  UNL d   1       1.480  -2.102   1.188  0.00  0.00    -0.047 A 
ATOM      6  C4  UNL d   1       0.713  -2.324   2.312  0.00  0.00    -0.004 A 
ENDROOT
TORSDOF 0
ENDMDL
