MODEL 1
REMARK minimizedAffinity -3.98699093
REMARK minimizedRMSD -1
REMARK  0 active torsions:
REMARK  status: ('A' for Active; 'I' for Inactive)
ROOT
ATOM      1  C   UNL d   1      -0.016   0.412  -0.012  0.00  0.00     0.172 C 
ATOM      2  N   UNL d   1       0.522  -0.834   0.484  0.00  0.00    -0.070 N 
ATOM      3  C1  UNL d   1       1.614  -1.488  -0.019  0.00  0.00    -0.004 A 
ATOM      4  C2  UNL d   1       1.801  -2.632   0.726  0.00  0.00    -0.047 A 
ATOM      5  C3  UNL d   1       0.785  -2.667   1.711  0.00  0.00    -0.047 A 
ATOM      6  C4  UNL d   1       0.007  -1.542   1.538  0.00  0.00    -0.004 A 
ENDROOT
TORSDOF 0
ENDMDL
