MODEL 1
REMARK minimizedAffinity -3.63721323
REMARK minimizedRMSD -1
REMARK  0 active torsions:
REMARK  status: ('A' for Active; 'I' for Inactive)
ROOT
ATOM      1  C   UNL d   1       1.365   0.164  -0.784  0.00  0.00     0.172 C 
ATOM      2  N   UNL d   1       1.087  -0.866   0.189  0.00  0.00    -0.070 N 
ATOM      3  C1  UNL d   1      -0.087  -1.018   0.878  0.00  0.00    -0.004 A 
ATOM      4  C2  UNL d   1       0.047  -2.113   1.704  0.00  0.00    -0.047 A 
ATOM      5  C3  UNL d   1       1.347  -2.637   1.505  0.00  0.00    -0.047 A 
ATOM      6  C4  UNL d   1       1.969  -1.846   0.562  0.00  0.00    -0.004 A 
ENDROOT
TORSDOF 0
ENDMDL
