MODEL 1
REMARK minimizedAffinity -4.12197971
REMARK minimizedRMSD -1
REMARK  0 active torsions:
REMARK  status: ('A' for Active; 'I' for Inactive)
ROOT
ATOM      1  C   UNL d   1      -0.426   0.267   0.278  0.00  0.00     0.172 C 
ATOM      2  N   UNL d   1       0.238  -0.869   0.872  0.00  0.00    -0.070 N 
ATOM      3  C1  UNL d   1       1.482  -1.333   0.536  0.00  0.00    -0.004 A 
ATOM      4  C2  UNL d   1       1.753  -2.428   1.327  0.00  0.00    -0.047 A 
ATOM      5  C3  UNL d   1       0.632  -2.631   2.167  0.00  0.00    -0.047 A 
ATOM      6  C4  UNL d   1      -0.291  -1.652   1.864  0.00  0.00    -0.004 A 
ENDROOT
TORSDOF 0
ENDMDL
