MODEL 1
REMARK minimizedAffinity -3.88956141
REMARK minimizedRMSD -1
REMARK  0 active torsions:
REMARK  status: ('A' for Active; 'I' for Inactive)
ROOT
ATOM      1  C   UNL d   1      -0.729   0.700  -0.273  0.00  0.00     0.172 C 
ATOM      2  N   UNL d   1       0.183  -0.372   0.045  0.00  0.00    -0.070 N 
ATOM      3  C1  UNL d   1      -0.096  -1.448   0.846  0.00  0.00    -0.004 A 
ATOM      4  C2  UNL d   1       1.030  -2.240   0.898  0.00  0.00    -0.047 A 
ATOM      5  C3  UNL d   1       2.022  -1.618   0.102  0.00  0.00    -0.047 A 
ATOM      6  C4  UNL d   1       1.471  -0.464  -0.414  0.00  0.00    -0.004 A 
ENDROOT
TORSDOF 0
ENDMDL
