MODEL 1
REMARK minimizedAffinity -2.49895024
REMARK minimizedRMSD -1
REMARK  0 active torsions:
REMARK  status: ('A' for Active; 'I' for Inactive)
ROOT
ATOM      1  C   UNL d   1      -0.946  -2.095   3.161  0.00  0.00     0.172 C 
ATOM      2  N   UNL d   1       0.008  -2.045   2.079  0.00  0.00    -0.070 N 
ATOM      3  C1  UNL d   1      -0.117  -1.298   0.938  0.00  0.00    -0.004 A 
ATOM      4  C2  UNL d   1       0.998  -1.525   0.160  0.00  0.00    -0.047 A 
ATOM      5  C3  UNL d   1       1.821  -2.442   0.857  0.00  0.00    -0.047 A 
ATOM      6  C4  UNL d   1       1.184  -2.747   2.041  0.00  0.00    -0.004 A 
ENDROOT
TORSDOF 0
ENDMDL
