MODEL 1
REMARK minimizedAffinity -3.81088233
REMARK minimizedRMSD -1
REMARK  0 active torsions:
REMARK  status: ('A' for Active; 'I' for Inactive)
ROOT
ATOM      1  C   UNL d   1      -0.010   0.140  -0.113  0.00  0.00     0.172 C 
ATOM      2  N   UNL d   1       0.460  -0.970   0.682  0.00  0.00    -0.070 N 
ATOM      3  C1  UNL d   1       1.640  -1.640   0.498  0.00  0.00    -0.004 A 
ATOM      4  C2  UNL d   1       1.719  -2.627   1.457  0.00  0.00    -0.047 A 
ATOM      5  C3  UNL d   1       0.545  -2.548   2.243  0.00  0.00    -0.047 A 
ATOM      6  C4  UNL d   1      -0.217  -1.514   1.741  0.00  0.00    -0.004 A 
ENDROOT
TORSDOF 0
ENDMDL
