MODEL 1
REMARK minimizedAffinity 10.3950338
REMARK minimizedRMSD -1
REMARK  0 active torsions:
REMARK  status: ('A' for Active; 'I' for Inactive)
ROOT
ATOM      1  N1  IND d   1       2.983  -1.850  -5.303  0.00  0.00    -0.196 N 
ATOM      2  C2  IND d   1       3.567  -1.044  -4.365  0.00  0.00     0.054 A 
ATOM      3  C3  IND d   1       2.715  -0.822  -3.340  0.00  0.00    -0.031 A 
ATOM      4  C4  IND d   1       0.352  -1.763  -2.943  0.00  0.00     0.051 A 
ATOM      5  C5  IND d   1      -0.622  -2.515  -3.538  0.00  0.00    -0.031 A 
ATOM      6  C6  IND d   1      -0.440  -3.097  -4.776  0.00  0.00     0.015 A 
ATOM      7  C7  IND d   1       0.733  -2.958  -5.462  0.00  0.00    -0.016 A 
ATOM      8  C8  IND d   1       1.722  -2.190  -4.864  0.00  0.00    -0.047 A 
ATOM      9  C9  IND d   1       1.527  -1.562  -3.627  0.00  0.00    -0.096 A 
ATOM     10  HN1 IND d   1       3.343  -2.102  -6.042  0.00  0.00     0.298 HD
ENDROOT
TORSDOF 0
ENDMDL
