MODEL 1
REMARK minimizedAffinity -1.55456948
REMARK minimizedRMSD -1
REMARK  0 active torsions:
REMARK  status: ('A' for Active; 'I' for Inactive)
ROOT
ATOM      1  N1  IND d   1       2.182  -5.962   5.166  0.00  0.00    -0.196 N 
ATOM      2  C2  IND d   1       1.089  -5.924   5.985  0.00  0.00     0.054 A 
ATOM      3  C3  IND d   1      -0.047  -5.890   5.253  0.00  0.00    -0.031 A 
ATOM      4  C4  IND d   1      -0.350  -5.992   2.699  0.00  0.00     0.051 A 
ATOM      5  C5  IND d   1       0.358  -5.997   1.529  0.00  0.00    -0.031 A 
ATOM      6  C6  IND d   1       1.738  -5.993   1.512  0.00  0.00     0.015 A 
ATOM      7  C7  IND d   1       2.464  -5.996   2.669  0.00  0.00    -0.016 A 
ATOM      8  C8  IND d   1       1.749  -5.984   3.858  0.00  0.00    -0.047 A 
ATOM      9  C9  IND d   1       0.349  -5.945   3.882  0.00  0.00    -0.096 A 
ATOM     10  HN1 IND d   1       3.002  -5.971   5.424  0.00  0.00     0.298 HD
ENDROOT
TORSDOF 0
ENDMDL
