MODEL 1
REMARK minimizedAffinity 7.69251537
REMARK minimizedRMSD -1
REMARK  0 active torsions:
REMARK  status: ('A' for Active; 'I' for Inactive)
ROOT
ATOM      1  N1  IND d   1      -2.695  -3.699  -3.611  0.00  0.00    -0.196 N 
ATOM      2  C2  IND d   1      -1.741  -3.988  -4.547  0.00  0.00     0.054 A 
ATOM      3  C3  IND d   1      -0.929  -2.923  -4.735  0.00  0.00    -0.031 A 
ATOM      4  C4  IND d   1      -0.920  -0.642  -3.542  0.00  0.00     0.051 A 
ATOM      5  C5  IND d   1      -1.622   0.103  -2.636  0.00  0.00    -0.031 A 
ATOM      6  C6  IND d   1      -2.738  -0.392  -1.994  0.00  0.00     0.015 A 
ATOM      7  C7  IND d   1      -3.190  -1.661  -2.227  0.00  0.00    -0.016 A 
ATOM      8  C8  IND d   1      -2.484  -2.417  -3.151  0.00  0.00    -0.047 A 
ATOM      9  C9  IND d   1      -1.375  -1.906  -3.837  0.00  0.00    -0.096 A 
ATOM     10  HN1 IND d   1      -3.321  -4.228  -3.353  0.00  0.00     0.298 HD
ENDROOT
TORSDOF 0
ENDMDL
