MODEL 1
REMARK minimizedAffinity 0.126753703
REMARK minimizedRMSD -1
REMARK  0 active torsions:
REMARK  status: ('A' for Active; 'I' for Inactive)
ROOT
ATOM      1  N1  IND d   1       0.101  -5.995   5.218  0.00  0.00    -0.196 N 
ATOM      2  C2  IND d   1       1.293  -5.991   5.887  0.00  0.00     0.054 A 
ATOM      3  C3  IND d   1       2.323  -6.000   5.012  0.00  0.00    -0.031 A 
ATOM      4  C4  IND d   1       2.285  -5.919   2.439  0.00  0.00     0.051 A 
ATOM      5  C5  IND d   1       1.430  -5.949   1.373  0.00  0.00    -0.031 A 
ATOM      6  C6  IND d   1       0.061  -5.994   1.538  0.00  0.00     0.015 A 
ATOM      7  C7  IND d   1      -0.508  -5.999   2.780  0.00  0.00    -0.016 A 
ATOM      8  C8  IND d   1       0.357  -5.976   3.865  0.00  0.00    -0.047 A 
ATOM      9  C9  IND d   1       1.749  -5.973   3.704  0.00  0.00    -0.096 A 
ATOM     10  HN1 IND d   1      -0.678  -6.008   5.581  0.00  0.00     0.298 HD
ENDROOT
TORSDOF 0
ENDMDL
