MODEL 1
REMARK minimizedAffinity 7.06767797
REMARK minimizedRMSD -1
REMARK  0 active torsions:
REMARK  status: ('A' for Active; 'I' for Inactive)
ROOT
ATOM      1  N1  IND d   1      -0.230  -5.940   4.557  0.00  0.00    -0.196 N 
ATOM      2  C2  IND d   1       0.160  -5.943   5.867  0.00  0.00     0.054 A 
ATOM      3  C3  IND d   1       1.508  -5.982   5.957  0.00  0.00    -0.031 A 
ATOM      4  C4  IND d   1       3.274  -5.942   4.084  0.00  0.00     0.051 A 
ATOM      5  C5  IND d   1       3.403  -5.976   2.724  0.00  0.00    -0.031 A 
ATOM      6  C6  IND d   1       2.305  -5.998   1.888  0.00  0.00     0.015 A 
ATOM      7  C7  IND d   1       1.032  -5.975   2.384  0.00  0.00    -0.016 A 
ATOM      8  C8  IND d   1       0.897  -5.947   3.764  0.00  0.00    -0.047 A 
ATOM      9  C9  IND d   1       2.008  -5.968   4.619  0.00  0.00    -0.096 A 
ATOM     10  HN1 IND d   1      -1.042  -5.935   4.275  0.00  0.00     0.298 HD
ENDROOT
TORSDOF 0
ENDMDL
