MODEL 1
REMARK minimizedAffinity 4.33062935
REMARK minimizedRMSD -1
REMARK  0 active torsions:
REMARK  status: ('A' for Active; 'I' for Inactive)
ROOT
ATOM      1  N1  IND d   1      -2.349  -2.635   3.020  0.00  0.00    -0.196 N 
ATOM      2  C2  IND d   1      -2.401  -1.914   1.859  0.00  0.00     0.054 A 
ATOM      3  C3  IND d   1      -1.813  -2.599   0.853  0.00  0.00    -0.031 A 
ATOM      4  C4  IND d   1      -0.792  -4.962   0.862  0.00  0.00     0.051 A 
ATOM      5  C5  IND d   1      -0.480  -5.998   1.698  0.00  0.00    -0.031 A 
ATOM      6  C6  IND d   1      -0.785  -5.966   3.043  0.00  0.00     0.015 A 
ATOM      7  C7  IND d   1      -1.425  -4.897   3.604  0.00  0.00    -0.016 A 
ATOM      8  C8  IND d   1      -1.736  -3.841   2.760  0.00  0.00    -0.047 A 
ATOM      9  C9  IND d   1      -1.392  -3.849   1.402  0.00  0.00    -0.096 A 
ATOM     10  HN1 IND d   1      -2.649  -2.378   3.784  0.00  0.00     0.298 HD
ENDROOT
TORSDOF 0
ENDMDL
