MODEL 1
REMARK minimizedAffinity 8.16049767
REMARK minimizedRMSD -1
REMARK  0 active torsions:
REMARK  status: ('A' for Active; 'I' for Inactive)
ROOT
ATOM      1  N1  IND d   1      -0.608  -2.288   1.847  0.00  0.00    -0.196 N 
ATOM      2  C2  IND d   1      -1.275  -2.113   3.027  0.00  0.00     0.054 A 
ATOM      3  C3  IND d   1      -1.141  -0.840   3.460  0.00  0.00    -0.031 A 
ATOM      4  C4  IND d   1       0.044   1.152   2.338  0.00  0.00     0.051 A 
ATOM      5  C5  IND d   1       0.827   1.474   1.265  0.00  0.00    -0.031 A 
ATOM      6  C6  IND d   1       1.176   0.541   0.311  0.00  0.00     0.015 A 
ATOM      7  C7  IND d   1       0.744  -0.753   0.388  0.00  0.00    -0.016 A 
ATOM      8  C8  IND d   1      -0.045  -1.086   1.480  0.00  0.00    -0.047 A 
ATOM      9  C9  IND d   1      -0.368  -0.153   2.474  0.00  0.00    -0.096 A 
ATOM     10  HN1 IND d   1      -0.550  -3.025   1.408  0.00  0.00     0.298 HD
ENDROOT
TORSDOF 0
ENDMDL
