MODEL 1
REMARK minimizedAffinity 7.18165445
REMARK minimizedRMSD -1
REMARK  0 active torsions:
REMARK  status: ('A' for Active; 'I' for Inactive)
ROOT
ATOM      1  N1  IND d   1      -0.091   1.221  -0.330  0.00  0.00    -0.196 N 
ATOM      2  C2  IND d   1       0.208   0.824   0.944  0.00  0.00     0.054 A 
ATOM      3  C3  IND d   1      -0.570  -0.222   1.305  0.00  0.00    -0.031 A 
ATOM      4  C4  IND d   1      -2.326  -1.506  -0.070  0.00  0.00     0.051 A 
ATOM      5  C5  IND d   1      -2.974  -1.490  -1.274  0.00  0.00    -0.031 A 
ATOM      6  C6  IND d   1      -2.686  -0.553  -2.245  0.00  0.00     0.015 A 
ATOM      7  C7  IND d   1      -1.727   0.401  -2.052  0.00  0.00    -0.016 A 
ATOM      8  C8  IND d   1      -1.073   0.393  -0.828  0.00  0.00    -0.047 A 
ATOM      9  C9  IND d   1      -1.391  -0.530   0.177  0.00  0.00    -0.096 A 
ATOM     10  HN1 IND d   1       0.273   1.878  -0.749  0.00  0.00     0.298 HD
ENDROOT
TORSDOF 0
ENDMDL
