MODEL 1
REMARK minimizedAffinity 6.11633253
REMARK minimizedRMSD -1
REMARK  0 active torsions:
REMARK  status: ('A' for Active; 'I' for Inactive)
ROOT
ATOM      1  N1  IND d   1       2.882  -1.135   1.810  0.00  0.00    -0.196 N 
ATOM      2  C2  IND d   1       3.675  -0.059   2.098  0.00  0.00     0.054 A 
ATOM      3  C3  IND d   1       2.930   1.066   2.183  0.00  0.00    -0.031 A 
ATOM      4  C4  IND d   1       0.380   1.357   1.987  0.00  0.00     0.051 A 
ATOM      5  C5  IND d   1      -0.764   0.669   1.693  0.00  0.00    -0.031 A 
ATOM      6  C6  IND d   1      -0.751  -0.684   1.420  0.00  0.00     0.015 A 
ATOM      7  C7  IND d   1       0.410  -1.404   1.443  0.00  0.00    -0.016 A 
ATOM      8  C8  IND d   1       1.574  -0.707   1.734  0.00  0.00    -0.047 A 
ATOM      9  C9  IND d   1       1.573   0.674   1.970  0.00  0.00    -0.096 A 
ATOM     10  HN1 IND d   1       3.153  -1.942   1.696  0.00  0.00     0.298 HD
ENDROOT
TORSDOF 0
ENDMDL
