MODEL 1
REMARK minimizedAffinity -0.309779227
REMARK minimizedRMSD -1
REMARK  0 active torsions:
REMARK  status: ('A' for Active; 'I' for Inactive)
ROOT
ATOM      1  N1  IND d   1      -0.184  -0.417   0.655  0.00  0.00    -0.196 N 
ATOM      2  C2  IND d   1       0.021   0.749   1.337  0.00  0.00     0.054 A 
ATOM      3  C3  IND d   1      -0.659   0.736   2.506  0.00  0.00    -0.031 A 
ATOM      4  C4  IND d   1      -2.089  -1.135   3.545  0.00  0.00     0.051 A 
ATOM      5  C5  IND d   1      -2.600  -2.375   3.279  0.00  0.00    -0.031 A 
ATOM      6  C6  IND d   1      -2.324  -3.040   2.102  0.00  0.00     0.015 A 
ATOM      7  C7  IND d   1      -1.514  -2.492   1.147  0.00  0.00    -0.016 A 
ATOM      8  C8  IND d   1      -0.999  -1.231   1.411  0.00  0.00    -0.047 A 
ATOM      9  C9  IND d   1      -1.310  -0.533   2.586  0.00  0.00    -0.096 A 
ATOM     10  HN1 IND d   1       0.140  -0.610  -0.118  0.00  0.00     0.298 HD
ENDROOT
TORSDOF 0
ENDMDL
