MODEL 1
REMARK minimizedAffinity 6.37353468
REMARK minimizedRMSD -1
REMARK  0 active torsions:
REMARK  status: ('A' for Active; 'I' for Inactive)
ROOT
ATOM      1  N1  IND d   1      -5.156   2.355   5.980  0.00  0.00    -0.196 N 
ATOM      2  C2  IND d   1      -5.402   3.272   4.996  0.00  0.00     0.054 A 
ATOM      3  C3  IND d   1      -5.537   2.654   3.801  0.00  0.00    -0.031 A 
ATOM      4  C4  IND d   1      -5.493   0.141   3.245  0.00  0.00     0.051 A 
ATOM      5  C5  IND d   1      -5.263  -1.083   3.808  0.00  0.00    -0.031 A 
ATOM      6  C6  IND d   1      -4.984  -1.227   5.152  0.00  0.00     0.015 A 
ATOM      7  C7  IND d   1      -4.934  -0.148   5.988  0.00  0.00    -0.016 A 
ATOM      8  C8  IND d   1      -5.159   1.098   5.419  0.00  0.00    -0.047 A 
ATOM      9  C9  IND d   1      -5.402   1.253   4.048  0.00  0.00    -0.096 A 
ATOM     10  HN1 IND d   1      -5.022   2.535   6.810  0.00  0.00     0.298 HD
ENDROOT
TORSDOF 0
ENDMDL
