MODEL 1
REMARK minimizedAffinity 1.67458582
REMARK minimizedRMSD -1
REMARK  0 active torsions:
REMARK  status: ('A' for Active; 'I' for Inactive)
ROOT
ATOM      1  N1  IND d   1      -1.930  -5.997   1.720  0.00  0.00    -0.196 N 
ATOM      2  C2  IND d   1      -1.512  -6.000   3.022  0.00  0.00     0.054 A 
ATOM      3  C3  IND d   1      -2.574  -5.964   3.857  0.00  0.00    -0.031 A 
ATOM      4  C4  IND d   1      -5.089  -6.000   3.307  0.00  0.00     0.051 A 
ATOM      5  C5  IND d   1      -5.963  -5.961   2.257  0.00  0.00    -0.031 A 
ATOM      6  C6  IND d   1      -5.528  -5.934   0.947  0.00  0.00     0.015 A 
ATOM      7  C7  IND d   1      -4.197  -5.956   0.638  0.00  0.00    -0.016 A 
ATOM      8  C8  IND d   1      -3.307  -5.989   1.702  0.00  0.00    -0.047 A 
ATOM      9  C9  IND d   1      -3.742  -5.974   3.034  0.00  0.00    -0.096 A 
ATOM     10  HN1 IND d   1      -1.418  -5.999   1.029  0.00  0.00     0.298 HD
ENDROOT
TORSDOF 0
ENDMDL
