MODEL 1
REMARK minimizedAffinity -0.346989214
REMARK minimizedRMSD -1
REMARK  0 active torsions:
REMARK  status: ('A' for Active; 'I' for Inactive)
ROOT
ATOM      1  N1  IND d   1      -3.028   1.915   3.086  0.00  0.00    -0.196 N 
ATOM      2  C2  IND d   1      -4.109   1.211   3.540  0.00  0.00     0.054 A 
ATOM      3  C3  IND d   1      -3.859  -0.117   3.494  0.00  0.00    -0.031 A 
ATOM      4  C4  IND d   1      -1.709  -1.353   2.805  0.00  0.00     0.051 A 
ATOM      5  C5  IND d   1      -0.465  -1.141   2.282  0.00  0.00    -0.031 A 
ATOM      6  C6  IND d   1      -0.000   0.127   1.997  0.00  0.00     0.015 A 
ATOM      7  C7  IND d   1      -0.763   1.236   2.236  0.00  0.00    -0.016 A 
ATOM      8  C8  IND d   1      -2.030   1.023   2.761  0.00  0.00    -0.047 A 
ATOM      9  C9  IND d   1      -2.522  -0.264   3.012  0.00  0.00    -0.096 A 
ATOM     10  HN1 IND d   1      -2.980   2.770   3.016  0.00  0.00     0.298 HD
ENDROOT
TORSDOF 0
ENDMDL
