MODEL 1
REMARK minimizedAffinity 0.756636381
REMARK minimizedRMSD -1
REMARK  0 active torsions:
REMARK  status: ('A' for Active; 'I' for Inactive)
ROOT
ATOM      1  N1  IND d   1      -5.997  -0.458   5.996  0.00  0.00    -0.196 N 
ATOM      2  C2  IND d   1      -5.472  -1.394   5.150  0.00  0.00     0.054 A 
ATOM      3  C3  IND d   1      -4.842  -0.792   4.115  0.00  0.00    -0.031 A 
ATOM      4  C4  IND d   1      -4.465   1.714   3.665  0.00  0.00     0.051 A 
ATOM      5  C5  IND d   1      -4.791   2.954   4.138  0.00  0.00    -0.031 A 
ATOM      6  C6  IND d   1      -5.548   3.124   5.279  0.00  0.00     0.015 A 
ATOM      7  C7  IND d   1      -6.000   2.055   5.999  0.00  0.00    -0.016 A 
ATOM      8  C8  IND d   1      -5.678   0.794   5.518  0.00  0.00    -0.047 A 
ATOM      9  C9  IND d   1      -4.946   0.615   4.337  0.00  0.00    -0.096 A 
ATOM     10  HN1 IND d   1      -6.451  -0.623   6.708  0.00  0.00     0.298 HD
ENDROOT
TORSDOF 0
ENDMDL
