MODEL 1
REMARK minimizedAffinity 0.880167663
REMARK minimizedRMSD -1
REMARK  0 active torsions:
REMARK  status: ('A' for Active; 'I' for Inactive)
ROOT
ATOM      1  N1  IND d   1      -0.239  -5.999   4.167  0.00  0.00    -0.196 N 
ATOM      2  C2  IND d   1       0.703  -5.053   4.460  0.00  0.00     0.054 A 
ATOM      3  C3  IND d   1       0.437  -3.904   3.799  0.00  0.00    -0.031 A 
ATOM      4  C4  IND d   1      -1.546  -3.321   2.265  0.00  0.00     0.051 A 
ATOM      5  C5  IND d   1      -2.645  -3.872   1.668  0.00  0.00    -0.031 A 
ATOM      6  C6  IND d   1      -3.007  -5.187   1.880  0.00  0.00     0.015 A 
ATOM      7  C7  IND d   1      -2.287  -5.999   2.710  0.00  0.00    -0.016 A 
ATOM      8  C8  IND d   1      -1.166  -5.445   3.312  0.00  0.00    -0.047 A 
ATOM      9  C9  IND d   1      -0.769  -4.124   3.067  0.00  0.00    -0.096 A 
ATOM     10  HN1 IND d   1      -0.251  -6.805   4.466  0.00  0.00     0.298 HD
ENDROOT
TORSDOF 0
ENDMDL
