MODEL 1
REMARK minimizedAffinity 6.33550596
REMARK minimizedRMSD -1
REMARK  0 active torsions:
REMARK  status: ('A' for Active; 'I' for Inactive)
ROOT
ATOM      1  N1  IND d   1       0.085  -3.082  -4.716  0.00  0.00    -0.196 N 
ATOM      2  C2  IND d   1       1.121  -2.203  -4.573  0.00  0.00     0.054 A 
ATOM      3  C3  IND d   1       0.726  -1.120  -3.867  0.00  0.00    -0.031 A 
ATOM      4  C4  IND d   1      -1.548  -0.628  -2.763  0.00  0.00     0.051 A 
ATOM      5  C5  IND d   1      -2.819  -1.118  -2.650  0.00  0.00    -0.031 A 
ATOM      6  C6  IND d   1      -3.194  -2.313  -3.229  0.00  0.00     0.015 A 
ATOM      7  C7  IND d   1      -2.304  -3.072  -3.937  0.00  0.00    -0.016 A 
ATOM      8  C8  IND d   1      -1.015  -2.574  -4.060  0.00  0.00    -0.047 A 
ATOM      9  C9  IND d   1      -0.640  -1.341  -3.510  0.00  0.00    -0.096 A 
ATOM     10  HN1 IND d   1       0.114  -3.827  -5.144  0.00  0.00     0.298 HD
ENDROOT
TORSDOF 0
ENDMDL
