MODEL 1
REMARK minimizedAffinity 3.07010007
REMARK minimizedRMSD -1
REMARK  0 active torsions:
REMARK  status: ('A' for Active; 'I' for Inactive)
ROOT
ATOM      1  N1  IND d   1      -4.365  -0.127   4.445  0.00  0.00    -0.196 N 
ATOM      2  C2  IND d   1      -5.109   1.016   4.348  0.00  0.00     0.054 A 
ATOM      3  C3  IND d   1      -4.372   2.011   3.804  0.00  0.00    -0.031 A 
ATOM      4  C4  IND d   1      -1.960   1.957   2.906  0.00  0.00     0.051 A 
ATOM      5  C5  IND d   1      -0.864   1.146   2.811  0.00  0.00    -0.031 A 
ATOM      6  C6  IND d   1      -0.880  -0.158   3.262  0.00  0.00     0.015 A 
ATOM      7  C7  IND d   1      -2.002  -0.705   3.817  0.00  0.00    -0.016 A 
ATOM      8  C8  IND d   1      -3.115   0.117   3.922  0.00  0.00    -0.047 A 
ATOM      9  C9  IND d   1      -3.091   1.454   3.505  0.00  0.00    -0.096 A 
ATOM     10  HN1 IND d   1      -4.634  -0.873   4.777  0.00  0.00     0.298 HD
ENDROOT
TORSDOF 0
ENDMDL
