MODEL 1
REMARK minimizedAffinity -3.99771428
REMARK minimizedRMSD -1
REMARK  0 active torsions:
REMARK  status: ('A' for Active; 'I' for Inactive)
ROOT
ATOM      1  C4' PXY d   1      -1.274  -0.052   1.744  0.00  0.00     0.077 C 
ATOM      2  C1' PXY d   1       2.399  -0.772  -2.661  0.00  0.00     0.077 C 
ATOM      3  C1  PXY d   1       1.441  -0.572  -1.503  0.00  0.00    -0.082 A 
ATOM      4  C2  PXY d   1       0.870  -1.623  -0.937  0.00  0.00     0.003 A 
ATOM      5  C3  PXY d   1      -0.023  -1.457   0.090  0.00  0.00     0.003 A 
ATOM      6  C4  PXY d   1      -0.294  -0.207   0.579  0.00  0.00    -0.082 A 
ATOM      7  C5  PXY d   1       0.293   0.869   0.014  0.00  0.00     0.003 A 
ATOM      8  C6  PXY d   1       1.165   0.683  -1.055  0.00  0.00     0.003 A 
ENDROOT
TORSDOF 0
ENDMDL
