MODEL 1
REMARK minimizedAffinity -5.20558167
REMARK minimizedRMSD -1
REMARK  0 active torsions:
REMARK  status: ('A' for Active; 'I' for Inactive)
ROOT
ATOM      1  C4' PXY d   1      -1.364   0.130   1.336  0.00  0.00     0.077 C 
ATOM      2  C1' PXY d   1       2.092   0.112  -3.298  0.00  0.00     0.077 C 
ATOM      3  C1  PXY d   1       1.193   0.126  -2.078  0.00  0.00    -0.082 A 
ATOM      4  C2  PXY d   1       0.479  -0.948  -1.778  0.00  0.00     0.003 A 
ATOM      5  C3  PXY d   1      -0.363  -0.941  -0.696  0.00  0.00     0.003 A 
ATOM      6  C4  PXY d   1      -0.436   0.157   0.118  0.00  0.00    -0.082 A 
ATOM      7  C5  PXY d   1       0.297   1.252  -0.174  0.00  0.00     0.003 A 
ATOM      8  C6  PXY d   1       1.115   1.240  -1.300  0.00  0.00     0.003 A 
ENDROOT
TORSDOF 0
ENDMDL
