MODEL 1
REMARK minimizedAffinity -5.45452833
REMARK minimizedRMSD -1
REMARK  0 active torsions:
REMARK  status: ('A' for Active; 'I' for Inactive)
ROOT
ATOM      1  C4' PXY d   1      -1.667   0.504   1.932  0.00  0.00     0.077 C 
ATOM      2  C1' PXY d   1       1.634   0.128  -2.799  0.00  0.00     0.077 C 
ATOM      3  C1  PXY d   1       0.776   0.236  -1.553  0.00  0.00    -0.082 A 
ATOM      4  C2  PXY d   1       0.011  -0.783  -1.196  0.00  0.00     0.003 A 
ATOM      5  C3  PXY d   1      -0.795  -0.690  -0.091  0.00  0.00     0.003 A 
ATOM      6  C4  PXY d   1      -0.778   0.436   0.687  0.00  0.00    -0.082 A 
ATOM      7  C5  PXY d   1       0.009   1.476   0.335  0.00  0.00     0.003 A 
ATOM      8  C6  PXY d   1       0.788   1.378  -0.813  0.00  0.00     0.003 A 
ENDROOT
TORSDOF 0
ENDMDL
