MODEL 1
REMARK minimizedAffinity -5.05918646
REMARK minimizedRMSD -1
REMARK  0 active torsions:
REMARK  status: ('A' for Active; 'I' for Inactive)
ROOT
ATOM      1  C4' PXY d   1      -0.362   1.518   0.655  0.00  0.00     0.077 C 
ATOM      2  C1' PXY d   1       2.771  -1.417  -3.216  0.00  0.00     0.077 C 
ATOM      3  C1  PXY d   1       1.938  -0.652  -2.206  0.00  0.00    -0.082 A 
ATOM      4  C2  PXY d   1       2.446   0.419  -1.617  0.00  0.00     0.003 A 
ATOM      5  C3  PXY d   1       1.719   1.104  -0.677  0.00  0.00     0.003 A 
ATOM      6  C4  PXY d   1       0.439   0.720  -0.377  0.00  0.00    -0.082 A 
ATOM      7  C5  PXY d   1      -0.090  -0.364  -0.983  0.00  0.00     0.003 A 
ATOM      8  C6  PXY d   1       0.680  -1.070  -1.903  0.00  0.00     0.003 A 
ENDROOT
TORSDOF 0
ENDMDL
