MODEL 1
REMARK minimizedAffinity -4.53542805
REMARK minimizedRMSD -1
REMARK  0 active torsions:
REMARK  status: ('A' for Active; 'I' for Inactive)
ROOT
ATOM      1  C4' PXY d   1       1.971  -0.509  -3.059  0.00  0.00     0.077 C 
ATOM      2  C1' PXY d   1      -0.806   0.425   1.924  0.00  0.00     0.077 C 
ATOM      3  C1  PXY d   1      -0.078   0.193   0.615  0.00  0.00    -0.082 A 
ATOM      4  C2  PXY d   1      -0.144  -0.993   0.031  0.00  0.00     0.003 A 
ATOM      5  C3  PXY d   1       0.534  -1.229  -1.137  0.00  0.00     0.003 A 
ATOM      6  C4  PXY d   1       1.244  -0.227  -1.741  0.00  0.00    -0.082 A 
ATOM      7  C5  PXY d   1       1.308   0.989  -1.157  0.00  0.00     0.003 A 
ATOM      8  C6  PXY d   1       0.646   1.197   0.049  0.00  0.00     0.003 A 
ENDROOT
TORSDOF 0
ENDMDL
