MODEL 1
REMARK minimizedAffinity -2.86378574
REMARK minimizedRMSD -1
REMARK  0 active torsions:
REMARK  status: ('A' for Active; 'I' for Inactive)
ROOT
ATOM      1  C4' PXY d   1       1.075   2.318   0.884  0.00  0.00     0.077 C 
ATOM      2  C1' PXY d   1      -0.131  -2.922  -1.238  0.00  0.00     0.077 C 
ATOM      3  C1  PXY d   1       0.196  -1.547  -0.689  0.00  0.00    -0.082 A 
ATOM      4  C2  PXY d   1      -0.245  -1.199   0.509  0.00  0.00     0.003 A 
ATOM      5  C3  PXY d   1       0.014   0.051   1.007  0.00  0.00     0.003 A 
ATOM      6  C4  PXY d   1       0.777   0.937   0.294  0.00  0.00    -0.082 A 
ATOM      7  C5  PXY d   1       1.239   0.586  -0.925  0.00  0.00     0.003 A 
ATOM      8  C6  PXY d   1       0.930  -0.674  -1.430  0.00  0.00     0.003 A 
ENDROOT
TORSDOF 0
ENDMDL
