MODEL 1
REMARK minimizedAffinity -5.1001153
REMARK minimizedRMSD -1
REMARK  0 active torsions:
REMARK  status: ('A' for Active; 'I' for Inactive)
ROOT
ATOM      1  C4' PXY d   1      -2.752   0.230   1.182  0.00  0.00     0.077 C 
ATOM      2  C1' PXY d   1       2.142   0.738  -1.853  0.00  0.00     0.077 C 
ATOM      3  C1  PXY d   1       0.865   0.599  -1.047  0.00  0.00    -0.082 A 
ATOM      4  C2  PXY d   1      -0.301   0.561  -1.671  0.00  0.00     0.003 A 
ATOM      5  C3  PXY d   1      -1.467   0.468  -0.956  0.00  0.00     0.003 A 
ATOM      6  C4  PXY d   1      -1.437   0.360   0.409  0.00  0.00    -0.082 A 
ATOM      7  C5  PXY d   1      -0.250   0.387   1.052  0.00  0.00     0.003 A 
ATOM      8  C6  PXY d   1       0.920   0.523   0.311  0.00  0.00     0.003 A 
ENDROOT
TORSDOF 0
ENDMDL
