MODEL 1
REMARK minimizedAffinity -5.31611538
REMARK minimizedRMSD -1
REMARK  0 active torsions:
REMARK  status: ('A' for Active; 'I' for Inactive)
ROOT
ATOM      1  C4' PXY d   1      -1.662   0.382   1.657  0.00  0.00     0.077 C 
ATOM      2  C1' PXY d   1       1.752   0.066  -2.996  0.00  0.00     0.077 C 
ATOM      3  C1  PXY d   1       0.867   0.153  -1.769  0.00  0.00    -0.082 A 
ATOM      4  C2  PXY d   1      -0.220  -0.597  -1.692  0.00  0.00     0.003 A 
ATOM      5  C3  PXY d   1      -1.049  -0.508  -0.603  0.00  0.00     0.003 A 
ATOM      6  C4  PXY d   1      -0.734   0.320   0.441  0.00  0.00    -0.082 A 
ATOM      7  C5  PXY d   1       0.379   1.081   0.375  0.00  0.00     0.003 A 
ATOM      8  C6  PXY d   1       1.186   1.005  -0.757  0.00  0.00     0.003 A 
ENDROOT
TORSDOF 0
ENDMDL
