MODEL 1
REMARK minimizedAffinity -4.87826967
REMARK minimizedRMSD -1
REMARK  0 active torsions:
REMARK  status: ('A' for Active; 'I' for Inactive)
ROOT
ATOM      1  C4' PXY d   1      -1.780  -0.027   1.528  0.00  0.00     0.077 C 
ATOM      2  C1' PXY d   1       1.848   0.623  -2.925  0.00  0.00     0.077 C 
ATOM      3  C1  PXY d   1       0.906   0.459  -1.749  0.00  0.00    -0.082 A 
ATOM      4  C2  PXY d   1      -0.007  -0.498  -1.772  0.00  0.00     0.003 A 
ATOM      5  C3  PXY d   1      -0.889  -0.641  -0.732  0.00  0.00     0.003 A 
ATOM      6  C4  PXY d   1      -0.801   0.171   0.367  0.00  0.00    -0.082 A 
ATOM      7  C5  PXY d   1       0.135   1.143   0.403  0.00  0.00     0.003 A 
ATOM      8  C6  PXY d   1       0.994   1.297  -0.681  0.00  0.00     0.003 A 
ENDROOT
TORSDOF 0
ENDMDL
