MODEL 1
REMARK minimizedAffinity -3.27872586
REMARK minimizedRMSD -1
REMARK  0 active torsions:
REMARK  status: ('A' for Active; 'I' for Inactive)
ROOT
ATOM      1  C4' PXY d   1      -1.358   0.362   2.292  0.00  0.00     0.077 C 
ATOM      2  C1' PXY d   1       1.758   0.564  -2.573  0.00  0.00     0.077 C 
ATOM      3  C1  PXY d   1       0.934   0.501  -1.302  0.00  0.00    -0.082 A 
ATOM      4  C2  PXY d   1       0.832   1.574  -0.535  0.00  0.00     0.003 A 
ATOM      5  C3  PXY d   1       0.117   1.525   0.634  0.00  0.00     0.003 A 
ATOM      6  C4  PXY d   1      -0.544   0.382   0.995  0.00  0.00    -0.082 A 
ATOM      7  C5  PXY d   1      -0.454  -0.714   0.212  0.00  0.00     0.003 A 
ATOM      8  C6  PXY d   1       0.310  -0.656  -0.950  0.00  0.00     0.003 A 
ENDROOT
TORSDOF 0
ENDMDL
