MODEL 1
REMARK minimizedAffinity -1.45800197
REMARK minimizedRMSD -1
REMARK  0 active torsions:
REMARK  status: ('A' for Active; 'I' for Inactive)
ROOT
ATOM      1  C4' PXY d   1       0.297  -1.826  -2.949  0.00  0.00     0.077 C 
ATOM      2  C1' PXY d   1       0.821   2.333   1.032  0.00  0.00     0.077 C 
ATOM      3  C1  PXY d   1       0.692   1.249  -0.020  0.00  0.00    -0.082 A 
ATOM      4  C2  PXY d   1      -0.370   0.460  -0.018  0.00  0.00     0.003 A 
ATOM      5  C3  PXY d   1      -0.488  -0.546  -0.943  0.00  0.00     0.003 A 
ATOM      6  C4  PXY d   1       0.465  -0.712  -1.912  0.00  0.00    -0.082 A 
ATOM      7  C5  PXY d   1       1.546   0.097  -1.926  0.00  0.00     0.003 A 
ATOM      8  C6  PXY d   1       1.667   1.085  -0.954  0.00  0.00     0.003 A 
ENDROOT
TORSDOF 0
ENDMDL
