MODEL 1
REMARK minimizedAffinity -4.18623734
REMARK minimizedRMSD -1
REMARK  0 active torsions:
REMARK  status: ('A' for Active; 'I' for Inactive)
ROOT
ATOM      1  C4' PXY d   1      -0.977   0.271   1.877  0.00  0.00     0.077 C 
ATOM      2  C1' PXY d   1       1.866  -0.152  -3.138  0.00  0.00     0.077 C 
ATOM      3  C1  PXY d   1       1.129  -0.032  -1.819  0.00  0.00    -0.082 A 
ATOM      4  C2  PXY d   1       0.399  -1.046  -1.383  0.00  0.00     0.003 A 
ATOM      5  C3  PXY d   1      -0.300  -0.943  -0.207  0.00  0.00     0.003 A 
ATOM      6  C4  PXY d   1      -0.208   0.191   0.556  0.00  0.00    -0.082 A 
ATOM      7  C5  PXY d   1       0.543   1.226   0.123  0.00  0.00     0.003 A 
ATOM      8  C6  PXY d   1       1.211   1.116  -1.093  0.00  0.00     0.003 A 
ENDROOT
TORSDOF 0
ENDMDL
