MODEL 1
REMARK minimizedAffinity -1.79297972
REMARK minimizedRMSD -1
REMARK  0 active torsions:
REMARK  status: ('A' for Active; 'I' for Inactive)
ROOT
ATOM      1  C4' PXY d   1      -0.082  -2.066  -0.051  0.00  0.00     0.077 C 
ATOM      2  C1' PXY d   1      -4.106   1.501   2.071  0.00  0.00     0.077 C 
ATOM      3  C1  PXY d   1      -3.042   0.576   1.514  0.00  0.00    -0.082 A 
ATOM      4  C2  PXY d   1      -3.402  -0.519   0.863  0.00  0.00     0.003 A 
ATOM      5  C3  PXY d   1      -2.453  -1.383   0.381  0.00  0.00     0.003 A 
ATOM      6  C4  PXY d   1      -1.121  -1.097   0.520  0.00  0.00    -0.082 A 
ATOM      7  C5  PXY d   1      -0.746   0.022   1.174  0.00  0.00     0.003 A 
ATOM      8  C6  PXY d   1      -1.724   0.866   1.692  0.00  0.00     0.003 A 
ENDROOT
TORSDOF 0
ENDMDL
