MODEL 1
REMARK minimizedAffinity -4.35473871
REMARK minimizedRMSD -1
REMARK  0 active torsions:
REMARK  status: ('A' for Active; 'I' for Inactive)
ROOT
ATOM      1  C4' PXY d   1       1.493  -0.254  -3.859  0.00  0.00     0.077 C 
ATOM      2  C1' PXY d   1      -0.130   0.200   1.670  0.00  0.00     0.077 C 
ATOM      3  C1  PXY d   1       0.297   0.094   0.219  0.00  0.00    -0.082 A 
ATOM      4  C2  PXY d   1      -0.075  -0.954  -0.497  0.00  0.00     0.003 A 
ATOM      5  C3  PXY d   1       0.329  -1.082  -1.801  0.00  0.00     0.003 A 
ATOM      6  C4  PXY d   1       1.077  -0.100  -2.394  0.00  0.00    -0.082 A 
ATOM      7  C5  PXY d   1       1.452   0.978  -1.673  0.00  0.00     0.003 A 
ATOM      8  C6  PXY d   1       1.066   1.069  -0.338  0.00  0.00     0.003 A 
ENDROOT
TORSDOF 0
ENDMDL
