MODEL 1
REMARK minimizedAffinity -1.68844891
REMARK minimizedRMSD -1
REMARK  0 active torsions:
REMARK  status: ('A' for Active; 'I' for Inactive)
ROOT
ATOM      1  C4' PXY d   1       1.882  -0.084  -2.315  0.00  0.00     0.077 C 
ATOM      2  C1' PXY d   1      -1.627   0.094   2.276  0.00  0.00     0.077 C 
ATOM      3  C1  PXY d   1      -0.708   0.035   1.071  0.00  0.00    -0.082 A 
ATOM      4  C2  PXY d   1       0.159   1.012   0.861  0.00  0.00     0.003 A 
ATOM      5  C3  PXY d   1       0.975   0.990  -0.241  0.00  0.00     0.003 A 
ATOM      6  C4  PXY d   1       0.941  -0.070  -1.107  0.00  0.00    -0.082 A 
ATOM      7  C5  PXY d   1       0.067  -1.076  -0.893  0.00  0.00     0.003 A 
ATOM      8  C6  PXY d   1      -0.782  -1.014   0.208  0.00  0.00     0.003 A 
ENDROOT
TORSDOF 0
ENDMDL
