MODEL 1
REMARK minimizedAffinity -3.83451915
REMARK minimizedRMSD -1
REMARK  0 active torsions:
REMARK  status: ('A' for Active; 'I' for Inactive)
ROOT
ATOM      1  C4' PXY d   1      -0.763  -0.742   0.966  0.00  0.00     0.077 C 
ATOM      2  C1' PXY d   1       2.750  -1.082  -3.612  0.00  0.00     0.077 C 
ATOM      3  C1  PXY d   1       1.824  -1.005  -2.414  0.00  0.00    -0.082 A 
ATOM      4  C2  PXY d   1       1.447   0.177  -1.953  0.00  0.00     0.003 A 
ATOM      5  C3  PXY d   1       0.636   0.266  -0.851  0.00  0.00     0.003 A 
ATOM      6  C4  PXY d   1       0.163  -0.868  -0.247  0.00  0.00    -0.082 A 
ATOM      7  C5  PXY d   1       0.534  -2.077  -0.717  0.00  0.00     0.003 A 
ATOM      8  C6  PXY d   1       1.391  -2.145  -1.812  0.00  0.00     0.003 A 
ENDROOT
TORSDOF 0
ENDMDL
