MODEL 1
REMARK minimizedAffinity -2.99883866
REMARK minimizedRMSD -1
REMARK  0 active torsions:
REMARK  status: ('A' for Active; 'I' for Inactive)
ROOT
ATOM      1  C4' PXY d   1      -1.644   0.523   1.990  0.00  0.00     0.077 C 
ATOM      2  C1' PXY d   1       1.438   0.076  -2.879  0.00  0.00     0.077 C 
ATOM      3  C1  PXY d   1       0.629   0.180  -1.601  0.00  0.00    -0.082 A 
ATOM      4  C2  PXY d   1      -0.052   1.286  -1.347  0.00  0.00     0.003 A 
ATOM      5  C3  PXY d   1      -0.764   1.409  -0.181  0.00  0.00     0.003 A 
ATOM      6  C4  PXY d   1      -0.821   0.370   0.709  0.00  0.00    -0.082 A 
ATOM      7  C5  PXY d   1      -0.137  -0.765   0.451  0.00  0.00     0.003 A 
ATOM      8  C6  PXY d   1       0.612  -0.855  -0.718  0.00  0.00     0.003 A 
ENDROOT
TORSDOF 0
ENDMDL
