MODEL 1
REMARK minimizedAffinity -4.40991592
REMARK minimizedRMSD -1
REMARK  0 active torsions:
REMARK  status: ('A' for Active; 'I' for Inactive)
ROOT
ATOM      1  C4' PXY d   1      -0.817   0.727   1.401  0.00  0.00     0.077 C 
ATOM      2  C1' PXY d   1       2.133  -1.490  -3.049  0.00  0.00     0.077 C 
ATOM      3  C1  PXY d   1       1.367  -0.898  -1.882  0.00  0.00    -0.082 A 
ATOM      4  C2  PXY d   1       0.676  -1.694  -1.082  0.00  0.00     0.003 A 
ATOM      5  C3  PXY d   1      -0.048  -1.172  -0.041  0.00  0.00     0.003 A 
ATOM      6  C4  PXY d   1      -0.022   0.173   0.216  0.00  0.00    -0.082 A 
ATOM      7  C5  PXY d   1       0.690   0.990  -0.589  0.00  0.00     0.003 A 
ATOM      8  C6  PXY d   1       1.385   0.445  -1.665  0.00  0.00     0.003 A 
ENDROOT
TORSDOF 0
ENDMDL
