MODEL 1
REMARK minimizedAffinity -4.6348176
REMARK minimizedRMSD -1
REMARK  0 active torsions:
REMARK  status: ('A' for Active; 'I' for Inactive)
ROOT
ATOM      1  C4' PXY d   1      -0.684  -0.028   2.113  0.00  0.00     0.077 C 
ATOM      2  C1' PXY d   1       1.389   0.175  -3.279  0.00  0.00     0.077 C 
ATOM      3  C1  PXY d   1       0.853   0.132  -1.862  0.00  0.00    -0.082 A 
ATOM      4  C2  PXY d   1       0.370  -1.002  -1.379  0.00  0.00     0.003 A 
ATOM      5  C3  PXY d   1      -0.148  -1.050  -0.111  0.00  0.00     0.003 A 
ATOM      6  C4  PXY d   1      -0.123   0.060   0.691  0.00  0.00    -0.082 A 
ATOM      7  C5  PXY d   1       0.378   1.217   0.209  0.00  0.00     0.003 A 
ATOM      8  C6  PXY d   1       0.861   1.256  -1.095  0.00  0.00     0.003 A 
ENDROOT
TORSDOF 0
ENDMDL
