MODEL 1
REMARK minimizedAffinity -3.19799519
REMARK minimizedRMSD -1
REMARK  0 active torsions:
REMARK  status: ('A' for Active; 'I' for Inactive)
ROOT
ATOM      1  O1  BZF d   1       4.207  -0.601  -4.440  0.00  0.00    -0.204 OA
ATOM      2  C2  BZF d   1       4.534   0.741  -4.460  0.00  0.00     0.174 A 
ATOM      3  C3  BZF d   1       3.523   1.487  -3.971  0.00  0.00    -0.012 A 
ATOM      4  C3A BZF d   1       2.536   0.546  -3.538  0.00  0.00    -0.107 A 
ATOM      5  C4  BZF d   1       1.310   0.674  -2.950  0.00  0.00     0.055 A 
ATOM      6  C5  BZF d   1       0.566  -0.440  -2.722  0.00  0.00    -0.016 A 
ATOM      7  C6  BZF d   1       1.015  -1.696  -3.074  0.00  0.00     0.022 A 
ATOM      8  C7  BZF d   1       2.226  -1.875  -3.656  0.00  0.00     0.029 A 
ATOM      9  C7A BZF d   1       2.994  -0.754  -3.857  0.00  0.00     0.058 A 
ENDROOT
TORSDOF 0
ENDMDL
