MODEL 1
REMARK minimizedAffinity -6.54030466
REMARK minimizedRMSD -1
REMARK  0 active torsions:
REMARK  status: ('A' for Active; 'I' for Inactive)
ROOT
ATOM      1  O1  BZF d   1      -0.970   0.409  -0.527  0.00  0.00    -0.204 OA
ATOM      2  C2  BZF d   1       0.408   0.485  -0.573  0.00  0.00     0.174 A 
ATOM      3  C3  BZF d   1       0.936   0.339   0.660  0.00  0.00    -0.012 A 
ATOM      4  C3A BZF d   1      -0.177   0.069   1.517  0.00  0.00    -0.107 A 
ATOM      5  C4  BZF d   1      -0.293  -0.182   2.854  0.00  0.00     0.055 A 
ATOM      6  C5  BZF d   1      -1.532  -0.331   3.393  0.00  0.00    -0.016 A 
ATOM      7  C6  BZF d   1      -2.674  -0.231   2.626  0.00  0.00     0.022 A 
ATOM      8  C7  BZF d   1      -2.609   0.013   1.294  0.00  0.00     0.029 A 
ATOM      9  C7A BZF d   1      -1.358   0.131   0.741  0.00  0.00     0.058 A 
ENDROOT
TORSDOF 0
ENDMDL
