MODEL 1
REMARK minimizedAffinity -5.02863026
REMARK minimizedRMSD -1
REMARK  0 active torsions:
REMARK  status: ('A' for Active; 'I' for Inactive)
ROOT
ATOM      1  O1  BZF d   1      -0.979   0.094  -0.960  0.00  0.00    -0.204 OA
ATOM      2  C2  BZF d   1       0.363   0.403  -1.074  0.00  0.00     0.174 A 
ATOM      3  C3  BZF d   1       0.943   0.471   0.141  0.00  0.00    -0.012 A 
ATOM      4  C3A BZF d   1      -0.080   0.095   1.068  0.00  0.00    -0.107 A 
ATOM      5  C4  BZF d   1      -0.111  -0.043   2.426  0.00  0.00     0.055 A 
ATOM      6  C5  BZF d   1      -1.287  -0.353   3.032  0.00  0.00    -0.016 A 
ATOM      7  C6  BZF d   1      -2.451  -0.528   2.311  0.00  0.00     0.022 A 
ATOM      8  C7  BZF d   1      -2.468  -0.406   0.962  0.00  0.00     0.029 A 
ATOM      9  C7A BZF d   1      -1.274  -0.125   0.344  0.00  0.00     0.058 A 
ENDROOT
TORSDOF 0
ENDMDL
