MODEL 1
REMARK minimizedAffinity -2.27865624
REMARK minimizedRMSD -1
REMARK  0 active torsions:
REMARK  status: ('A' for Active; 'I' for Inactive)
ROOT
ATOM      1  O1  BZF d   1       4.749   1.537  -5.992  0.00  0.00    -0.204 OA
ATOM      2  C2  BZF d   1       4.553   2.875  -5.706  0.00  0.00     0.174 A 
ATOM      3  C3  BZF d   1       3.644   3.025  -4.721  0.00  0.00    -0.012 A 
ATOM      4  C3A BZF d   1       3.317   1.695  -4.305  0.00  0.00    -0.107 A 
ATOM      5  C4  BZF d   1       2.483   1.189  -3.350  0.00  0.00     0.055 A 
ATOM      6  C5  BZF d   1       2.336  -0.158  -3.248  0.00  0.00    -0.016 A 
ATOM      7  C6  BZF d   1       3.003  -1.027  -4.087  0.00  0.00     0.022 A 
ATOM      8  C7  BZF d   1       3.845  -0.572  -5.047  0.00  0.00     0.029 A 
ATOM      9  C7A BZF d   1       4.021   0.788  -5.130  0.00  0.00     0.058 A 
ENDROOT
TORSDOF 0
ENDMDL
