MODEL 1
REMARK minimizedAffinity -2.29680872
REMARK minimizedRMSD -1
REMARK  0 active torsions:
REMARK  status: ('A' for Active; 'I' for Inactive)
ROOT
ATOM      1  O1  BZF d   1       1.234   1.085  -0.276  0.00  0.00    -0.204 OA
ATOM      2  C2  BZF d   1       0.734   0.690  -1.502  0.00  0.00     0.174 A 
ATOM      3  C3  BZF d   1      -0.327  -0.128  -1.345  0.00  0.00    -0.012 A 
ATOM      4  C3A BZF d   1      -0.558  -0.178   0.067  0.00  0.00    -0.107 A 
ATOM      5  C4  BZF d   1      -1.484  -0.813   0.845  0.00  0.00     0.055 A 
ATOM      6  C5  BZF d   1      -1.389  -0.714   2.197  0.00  0.00    -0.016 A 
ATOM      7  C6  BZF d   1      -0.380   0.005   2.804  0.00  0.00     0.022 A 
ATOM      8  C7  BZF d   1       0.558   0.656   2.073  0.00  0.00     0.029 A 
ATOM      9  C7A BZF d   1       0.446   0.586   0.706  0.00  0.00     0.058 A 
ENDROOT
TORSDOF 0
ENDMDL
