MODEL 1
REMARK minimizedAffinity -3.51528692
REMARK minimizedRMSD -1
REMARK  0 active torsions:
REMARK  status: ('A' for Active; 'I' for Inactive)
ROOT
ATOM      1  O1  BZF d   1      -1.403   0.520  -0.948  0.00  0.00    -0.204 OA
ATOM      2  C2  BZF d   1      -0.332   0.647  -1.811  0.00  0.00     0.174 A 
ATOM      3  C3  BZF d   1       0.835   0.599  -1.136  0.00  0.00    -0.012 A 
ATOM      4  C3A BZF d   1       0.472   0.339   0.223  0.00  0.00    -0.107 A 
ATOM      5  C4  BZF d   1       1.193   0.167   1.371  0.00  0.00     0.055 A 
ATOM      6  C5  BZF d   1       0.532   0.002   2.547  0.00  0.00    -0.016 A 
ATOM      7  C6  BZF d   1      -0.846   0.009   2.613  0.00  0.00     0.022 A 
ATOM      8  C7  BZF d   1      -1.603   0.171   1.501  0.00  0.00     0.029 A 
ATOM      9  C7A BZF d   1      -0.939   0.305   0.306  0.00  0.00     0.058 A 
ENDROOT
TORSDOF 0
ENDMDL
