MODEL 1
REMARK minimizedAffinity -1.94432366
REMARK minimizedRMSD -1
REMARK  0 active torsions:
REMARK  status: ('A' for Active; 'I' for Inactive)
ROOT
ATOM      1  O1  BZF d   1       0.430   0.293   2.951  0.00  0.00    -0.204 OA
ATOM      2  C2  BZF d   1      -0.676  -0.466   3.281  0.00  0.00     0.174 A 
ATOM      3  C3  BZF d   1      -1.372  -0.803   2.176  0.00  0.00    -0.012 A 
ATOM      4  C3A BZF d   1      -0.605  -0.296   1.079  0.00  0.00    -0.107 A 
ATOM      5  C4  BZF d   1      -0.770  -0.328  -0.276  0.00  0.00     0.055 A 
ATOM      6  C5  BZF d   1       0.122   0.325  -1.066  0.00  0.00    -0.016 A 
ATOM      7  C6  BZF d   1       1.186   1.024  -0.535  0.00  0.00     0.022 A 
ATOM      8  C7  BZF d   1       1.394   1.081   0.803  0.00  0.00     0.029 A 
ATOM      9  C7A BZF d   1       0.513   0.394   1.602  0.00  0.00     0.058 A 
ENDROOT
TORSDOF 0
ENDMDL
