MODEL 1
REMARK minimizedAffinity -4.46585321
REMARK minimizedRMSD -1
REMARK  0 active torsions:
REMARK  status: ('A' for Active; 'I' for Inactive)
ROOT
ATOM      1  O1  BZF d   1      -0.591   0.449  -1.481  0.00  0.00    -0.204 OA
ATOM      2  C2  BZF d   1       0.788   0.392  -1.528  0.00  0.00     0.174 A 
ATOM      3  C3  BZF d   1       1.309   0.371  -0.284  0.00  0.00    -0.012 A 
ATOM      4  C3A BZF d   1       0.182   0.324   0.595  0.00  0.00    -0.107 A 
ATOM      5  C4  BZF d   1       0.052   0.271   1.954  0.00  0.00     0.055 A 
ATOM      6  C5  BZF d   1      -1.192   0.310   2.500  0.00  0.00    -0.016 A 
ATOM      7  C6  BZF d   1      -2.325   0.407   1.720  0.00  0.00     0.022 A 
ATOM      8  C7  BZF d   1      -2.247   0.458   0.368  0.00  0.00     0.029 A 
ATOM      9  C7A BZF d   1      -0.994   0.385  -0.189  0.00  0.00     0.058 A 
ENDROOT
TORSDOF 0
ENDMDL
