MODEL 1
REMARK minimizedAffinity -4.86956024
REMARK minimizedRMSD -1
REMARK  0 active torsions:
REMARK  status: ('A' for Active; 'I' for Inactive)
ROOT
ATOM      1  O1  BZF d   1      -2.070   0.539   1.116  0.00  0.00    -0.204 OA
ATOM      2  C2  BZF d   1      -2.788   0.521   2.297  0.00  0.00     0.174 A 
ATOM      3  C3  BZF d   1      -2.044   0.017   3.302  0.00  0.00    -0.012 A 
ATOM      4  C3A BZF d   1      -0.752  -0.215   2.734  0.00  0.00    -0.107 A 
ATOM      5  C4  BZF d   1       0.423  -0.694   3.238  0.00  0.00     0.055 A 
ATOM      6  C5  BZF d   1       1.480  -0.865   2.401  0.00  0.00    -0.016 A 
ATOM      7  C6  BZF d   1       1.396  -0.574   1.056  0.00  0.00     0.022 A 
ATOM      8  C7  BZF d   1       0.253  -0.091   0.510  0.00  0.00     0.029 A 
ATOM      9  C7A BZF d   1      -0.807   0.114   1.360  0.00  0.00     0.058 A 
ENDROOT
TORSDOF 0
ENDMDL
