MODEL 1
REMARK minimizedAffinity -2.87180495
REMARK minimizedRMSD -1
REMARK  0 active torsions:
REMARK  status: ('A' for Active; 'I' for Inactive)
ROOT
ATOM      1  O1  BZF d   1      -0.070   1.173  -0.728  0.00  0.00    -0.204 OA
ATOM      2  C2  BZF d   1       0.694   0.781   0.355  0.00  0.00     0.174 A 
ATOM      3  C3  BZF d   1       1.469  -0.275   0.036  0.00  0.00    -0.012 A 
ATOM      4  C3A BZF d   1       1.239  -0.504  -1.357  0.00  0.00    -0.107 A 
ATOM      5  C4  BZF d   1       1.734  -1.407  -2.254  0.00  0.00     0.055 A 
ATOM      6  C5  BZF d   1       1.249  -1.410  -3.524  0.00  0.00    -0.016 A 
ATOM      7  C6  BZF d   1       0.268  -0.529  -3.929  0.00  0.00     0.022 A 
ATOM      8  C7  BZF d   1      -0.250   0.388  -3.076  0.00  0.00     0.029 A 
ATOM      9  C7A BZF d   1       0.261   0.415  -1.801  0.00  0.00     0.058 A 
ENDROOT
TORSDOF 0
ENDMDL
