MODEL 1
REMARK minimizedAffinity -4.08743286
REMARK minimizedRMSD -1
REMARK  0 active torsions:
REMARK  status: ('A' for Active; 'I' for Inactive)
ROOT
ATOM      1  O1  BZF d   1       1.189   0.244  -0.656  0.00  0.00    -0.204 OA
ATOM      2  C2  BZF d   1       0.259  -0.100  -1.618  0.00  0.00     0.174 A 
ATOM      3  C3  BZF d   1      -0.846  -0.623  -1.048  0.00  0.00    -0.012 A 
ATOM      4  C3A BZF d   1      -0.628  -0.520   0.362  0.00  0.00    -0.107 A 
ATOM      5  C4  BZF d   1      -1.374  -0.857   1.455  0.00  0.00     0.055 A 
ATOM      6  C5  BZF d   1      -0.841  -0.694   2.695  0.00  0.00    -0.016 A 
ATOM      7  C6  BZF d   1       0.435  -0.201   2.877  0.00  0.00     0.022 A 
ATOM      8  C7  BZF d   1       1.211   0.152   1.824  0.00  0.00     0.029 A 
ATOM      9  C7A BZF d   1       0.663   0.019   0.571  0.00  0.00     0.058 A 
ENDROOT
TORSDOF 0
ENDMDL
