MODEL 1
REMARK minimizedAffinity -2.04756284
REMARK minimizedRMSD -1
REMARK  0 active torsions:
REMARK  status: ('A' for Active; 'I' for Inactive)
ROOT
ATOM      1  O1  BZF d   1      -0.608   0.235  -1.326  0.00  0.00    -0.204 OA
ATOM      2  C2  BZF d   1       0.722   0.509  -1.579  0.00  0.00     0.174 A 
ATOM      3  C3  BZF d   1       1.434   0.519  -0.434  0.00  0.00    -0.012 A 
ATOM      4  C3A BZF d   1       0.507   0.143   0.589  0.00  0.00    -0.107 A 
ATOM      5  C4  BZF d   1       0.620  -0.039   1.938  0.00  0.00     0.055 A 
ATOM      6  C5  BZF d   1      -0.492  -0.335   2.660  0.00  0.00    -0.016 A 
ATOM      7  C6  BZF d   1      -1.733  -0.451   2.068  0.00  0.00     0.022 A 
ATOM      8  C7  BZF d   1      -1.894  -0.284   0.732  0.00  0.00     0.029 A 
ATOM      9  C7A BZF d   1      -0.766  -0.018  -0.005  0.00  0.00     0.058 A 
ENDROOT
TORSDOF 0
ENDMDL
