MODEL 1
REMARK minimizedAffinity -5.45767975
REMARK minimizedRMSD -1
REMARK  0 active torsions:
REMARK  status: ('A' for Active; 'I' for Inactive)
ROOT
ATOM      1  O1  BZF d   1      -1.121   0.762  -1.306  0.00  0.00    -0.204 OA
ATOM      2  C2  BZF d   1       0.242   0.539  -1.272  0.00  0.00     0.174 A 
ATOM      3  C3  BZF d   1       0.620   0.065  -0.067  0.00  0.00    -0.012 A 
ATOM      4  C3A BZF d   1      -0.595  -0.101   0.670  0.00  0.00    -0.107 A 
ATOM      5  C4  BZF d   1      -0.877  -0.553   1.927  0.00  0.00     0.055 A 
ATOM      6  C5  BZF d   1      -2.161  -0.519   2.369  0.00  0.00    -0.016 A 
ATOM      7  C6  BZF d   1      -3.187  -0.036   1.584  0.00  0.00     0.022 A 
ATOM      8  C7  BZF d   1      -2.958   0.419   0.328  0.00  0.00     0.029 A 
ATOM      9  C7A BZF d   1      -1.666   0.356  -0.134  0.00  0.00     0.058 A 
ENDROOT
TORSDOF 0
ENDMDL
