MODEL 1
REMARK minimizedAffinity -6.00634909
REMARK minimizedRMSD -1
REMARK  0 active torsions:
REMARK  status: ('A' for Active; 'I' for Inactive)
ROOT
ATOM      1  O1  BZF d   1      -0.692   0.232  -0.790  0.00  0.00    -0.204 OA
ATOM      2  C2  BZF d   1       0.690   0.211  -0.790  0.00  0.00     0.174 A 
ATOM      3  C3  BZF d   1       1.167   0.120   0.469  0.00  0.00    -0.012 A 
ATOM      4  C3A BZF d   1       0.010  -0.011   1.301  0.00  0.00    -0.107 A 
ATOM      5  C4  BZF d   1      -0.166  -0.156   2.647  0.00  0.00     0.055 A 
ATOM      6  C5  BZF d   1      -1.428  -0.182   3.149  0.00  0.00    -0.016 A 
ATOM      7  C6  BZF d   1      -2.536  -0.061   2.336  0.00  0.00     0.022 A 
ATOM      8  C7  BZF d   1      -2.412   0.079   0.993  0.00  0.00     0.029 A 
ATOM      9  C7A BZF d   1      -1.138   0.073   0.480  0.00  0.00     0.058 A 
ENDROOT
TORSDOF 0
ENDMDL
