MODEL 1
REMARK minimizedAffinity -4.33202648
REMARK minimizedRMSD -1
REMARK  0 active torsions:
REMARK  status: ('A' for Active; 'I' for Inactive)
ROOT
ATOM      1  O1  BZF d   1      -0.538   0.085  -0.605  0.00  0.00    -0.204 OA
ATOM      2  C2  BZF d   1       0.829   0.280  -0.568  0.00  0.00     0.174 A 
ATOM      3  C3  BZF d   1       1.280   0.267   0.702  0.00  0.00    -0.012 A 
ATOM      4  C3A BZF d   1       0.136  -0.040   1.505  0.00  0.00    -0.107 A 
ATOM      5  C4  BZF d   1      -0.052  -0.208   2.847  0.00  0.00     0.055 A 
ATOM      6  C5  BZF d   1      -1.308  -0.429   3.315  0.00  0.00    -0.016 A 
ATOM      7  C6  BZF d   1      -2.399  -0.484   2.472  0.00  0.00     0.022 A 
ATOM      8  C7  BZF d   1      -2.261  -0.329   1.133  0.00  0.00     0.029 A 
ATOM      9  C7A BZF d   1      -0.988  -0.138   0.653  0.00  0.00     0.058 A 
ENDROOT
TORSDOF 0
ENDMDL
