MODEL 1
REMARK minimizedAffinity -3.20463943
REMARK minimizedRMSD -1
REMARK  0 active torsions:
REMARK  status: ('A' for Active; 'I' for Inactive)
ROOT
ATOM      1  O1  BZF d   1      -1.201   0.317  -0.948  0.00  0.00    -0.204 OA
ATOM      2  C2  BZF d   1       0.131  -0.015  -1.103  0.00  0.00     0.174 A 
ATOM      3  C3  BZF d   1       0.692  -0.310   0.087  0.00  0.00    -0.012 A 
ATOM      4  C3A BZF d   1      -0.377  -0.243   1.035  0.00  0.00    -0.107 A 
ATOM      5  C4  BZF d   1      -0.452  -0.451   2.382  0.00  0.00     0.055 A 
ATOM      6  C5  BZF d   1      -1.632  -0.232   3.020  0.00  0.00    -0.016 A 
ATOM      7  C6  BZF d   1      -2.754   0.199   2.343  0.00  0.00     0.022 A 
ATOM      8  C7  BZF d   1      -2.730   0.415   1.005  0.00  0.00     0.029 A 
ATOM      9  C7A BZF d   1      -1.548   0.163   0.353  0.00  0.00     0.058 A 
ENDROOT
TORSDOF 0
ENDMDL
