MODEL 1
REMARK minimizedAffinity -5.15862894
REMARK minimizedRMSD -1
REMARK  0 active torsions:
REMARK  status: ('A' for Active; 'I' for Inactive)
ROOT
ATOM      1  O1  BZF d   1      -1.012   0.360  -0.734  0.00  0.00    -0.204 OA
ATOM      2  C2  BZF d   1       0.342   0.145  -0.904  0.00  0.00     0.174 A 
ATOM      3  C3  BZF d   1       0.945  -0.074   0.282  0.00  0.00    -0.012 A 
ATOM      4  C3A BZF d   1      -0.112  -0.081   1.246  0.00  0.00    -0.107 A 
ATOM      5  C4  BZF d   1      -0.149  -0.266   2.598  0.00  0.00     0.055 A 
ATOM      6  C5  BZF d   1      -1.334  -0.139   3.251  0.00  0.00    -0.016 A 
ATOM      7  C6  BZF d   1      -2.500   0.177   2.584  0.00  0.00     0.022 A 
ATOM      8  C7  BZF d   1      -2.514   0.364   1.242  0.00  0.00     0.029 A 
ATOM      9  C7A BZF d   1      -1.324   0.204   0.575  0.00  0.00     0.058 A 
ENDROOT
TORSDOF 0
ENDMDL
