MODEL 1
REMARK minimizedAffinity 7.79811716
REMARK minimizedRMSD -1
REMARK  1 active torsions:
REMARK  status: ('A' for Active; 'I' for Inactive)
REMARK    1  A    between atoms: C1_2  and  C2_3 
ROOT
ATOM      1  C2  UNL d   1       3.263  -3.123   3.321  0.00  0.00    -0.076 A 
ATOM      2  C3  UNL d   1       3.197  -2.107   2.353  0.00  0.00     0.004 A 
ATOM      3  C4  UNL d   1       2.031  -1.365   2.170  0.00  0.00    -0.003 A 
ATOM      4  C5  UNL d   1       0.913  -1.627   2.953  0.00  0.00     0.000 A 
ATOM      5  C6  UNL d   1       0.966  -2.620   3.931  0.00  0.00     0.000 A 
ATOM      6  C7  UNL d   1       2.139  -3.366   4.139  0.00  0.00    -0.073 A 
ATOM      7  C8  UNL d   1       2.138  -4.429   5.203  0.00  0.00     0.078 C 
ENDROOT
BRANCH   1   8
ATOM      8  C1  UNL d   1       4.545  -3.913   3.456  0.00  0.00     0.053 C 
ATOM      9  C   UNL d   1       5.784  -3.043   3.310  0.00  0.00     0.018 C 
ENDBRANCH   1   8
TORSDOF 1
ENDMDL
