MODEL 1
REMARK minimizedAffinity 20.5213737
REMARK minimizedRMSD -1
REMARK  1 active torsions:
REMARK  status: ('A' for Active; 'I' for Inactive)
REMARK    1  A    between atoms: C1_2  and  C2_3 
ROOT
ATOM      1  C2  UNL d   1      -3.854   2.530  -1.017  0.00  0.00    -0.076 A 
ATOM      2  C3  UNL d   1      -5.128   2.990  -1.395  0.00  0.00     0.004 A 
ATOM      3  C4  UNL d   1      -6.000   3.539  -0.455  0.00  0.00    -0.003 A 
ATOM      4  C5  UNL d   1      -5.612   3.636   0.876  0.00  0.00     0.000 A 
ATOM      5  C6  UNL d   1      -4.346   3.200   1.265  0.00  0.00     0.000 A 
ATOM      6  C7  UNL d   1      -3.448   2.660   0.328  0.00  0.00    -0.073 A 
ATOM      7  C8  UNL d   1      -2.097   2.201   0.804  0.00  0.00     0.078 C 
ENDROOT
BRANCH   1   8
ATOM      8  C1  UNL d   1      -2.962   1.920  -2.075  0.00  0.00     0.053 C 
ATOM      9  C   UNL d   1      -3.733   1.052  -3.057  0.00  0.00     0.018 C 
ENDBRANCH   1   8
TORSDOF 1
ENDMDL
