MODEL 1
REMARK minimizedAffinity 4.3273778
REMARK minimizedRMSD -1
REMARK  1 active torsions:
REMARK  status: ('A' for Active; 'I' for Inactive)
REMARK    1  A    between atoms: C1_2  and  C2_3 
ROOT
ATOM      1  C2  UNL d   1       3.390  -5.945  -3.944  0.00  0.00    -0.076 A 
ATOM      2  C3  UNL d   1       2.390  -5.912  -2.956  0.00  0.00     0.004 A 
ATOM      3  C4  UNL d   1       2.721  -5.886  -1.602  0.00  0.00    -0.003 A 
ATOM      4  C5  UNL d   1       4.056  -5.892  -1.214  0.00  0.00     0.000 A 
ATOM      5  C6  UNL d   1       5.061  -5.906  -2.181  0.00  0.00     0.000 A 
ATOM      6  C7  UNL d   1       4.745  -5.916  -3.550  0.00  0.00    -0.073 A 
ATOM      7  C8  UNL d   1       5.869  -5.937  -4.550  0.00  0.00     0.078 C 
ENDROOT
BRANCH   1   8
ATOM      8  C1  UNL d   1       2.972  -5.999  -5.396  0.00  0.00     0.053 C 
ATOM      9  C   UNL d   1       1.460  -5.994  -5.567  0.00  0.00     0.018 C 
ENDBRANCH   1   8
TORSDOF 1
ENDMDL
