MODEL 1
REMARK minimizedAffinity 10.3984194
REMARK minimizedRMSD -1
REMARK  1 active torsions:
REMARK  status: ('A' for Active; 'I' for Inactive)
REMARK    1  A    between atoms: C1_2  and  C2_3 
ROOT
ATOM      1  C2  UNL d   1       1.581  -3.621   4.161  0.00  0.00    -0.076 A 
ATOM      2  C3  UNL d   1       0.912  -2.513   4.709  0.00  0.00     0.004 A 
ATOM      3  C4  UNL d   1       1.054  -1.242   4.154  0.00  0.00    -0.003 A 
ATOM      4  C5  UNL d   1       1.867  -1.060   3.041  0.00  0.00     0.000 A 
ATOM      5  C6  UNL d   1       2.525  -2.151   2.474  0.00  0.00     0.000 A 
ATOM      6  C7  UNL d   1       2.380  -3.441   3.012  0.00  0.00    -0.073 A 
ATOM      7  C8  UNL d   1       3.117  -4.581   2.364  0.00  0.00     0.078 C 
ENDROOT
BRANCH   1   8
ATOM      8  C1  UNL d   1       1.410  -4.970   4.823  0.00  0.00     0.053 C 
ATOM      9  C   UNL d   1       0.267  -4.987   5.825  0.00  0.00     0.018 C 
ENDBRANCH   1   8
TORSDOF 1
ENDMDL
