MODEL 1
REMARK minimizedAffinity 10.4140968
REMARK minimizedRMSD -1
REMARK  1 active torsions:
REMARK  status: ('A' for Active; 'I' for Inactive)
REMARK    1  A    between atoms: C1_2  and  C2_3 
ROOT
ATOM      1  C2  UNL d   1      -2.419  -1.986  -1.229  0.00  0.00    -0.076 A 
ATOM      2  C3  UNL d   1      -2.310  -0.708  -1.802  0.00  0.00     0.004 A 
ATOM      3  C4  UNL d   1      -2.915  -0.415  -3.024  0.00  0.00    -0.003 A 
ATOM      4  C5  UNL d   1      -3.638  -1.397  -3.692  0.00  0.00     0.000 A 
ATOM      5  C6  UNL d   1      -3.771  -2.666  -3.129  0.00  0.00     0.000 A 
ATOM      6  C7  UNL d   1      -3.181  -2.973  -1.890  0.00  0.00    -0.073 A 
ATOM      7  C8  UNL d   1      -3.352  -4.359  -1.333  0.00  0.00     0.078 C 
ENDROOT
BRANCH   1   8
ATOM      8  C1  UNL d   1      -1.719  -2.253   0.085  0.00  0.00     0.053 C 
ATOM      9  C   UNL d   1      -0.245  -2.582  -0.096  0.00  0.00     0.018 C 
ENDBRANCH   1   8
TORSDOF 1
ENDMDL
