MODEL 1
REMARK minimizedAffinity 3.16562819
REMARK minimizedRMSD -1
REMARK  0 active torsions:
REMARK  status: ('A' for Active; 'I' for Inactive)
ROOT
ATOM      1  C   UNL d   1      -2.074   0.912  -4.558  0.00  0.00     0.023 A 
ATOM      2  C1  UNL d   1      -1.852   1.520  -5.794  0.00  0.00     0.003 A 
ATOM      3  C2  UNL d   1      -2.234   2.847  -6.000  0.00  0.00     0.048 A 
ATOM      4  C3  UNL d   1      -2.836   3.562  -4.965  0.00  0.00     0.023 A 
ATOM      5  C4  UNL d   1      -3.059   2.958  -3.726  0.00  0.00     0.048 A 
ATOM      6  C5  UNL d   1      -2.677   1.631  -3.526  0.00  0.00     0.003 A 
ATOM      7  I   UNL d   1      -3.405   5.537  -5.269  0.00  0.00    -0.146 I 
ENDROOT
TORSDOF 0
ENDMDL
