MODEL 1
REMARK minimizedAffinity 8.65026569
REMARK minimizedRMSD -1
REMARK  0 active torsions:
REMARK  status: ('A' for Active; 'I' for Inactive)
ROOT
ATOM      1  C   UNL d   1       5.995  -3.021   3.720  0.00  0.00     0.023 A 
ATOM      2  C1  UNL d   1       5.623  -3.532   4.964  0.00  0.00     0.003 A 
ATOM      3  C2  UNL d   1       4.484  -3.045   5.608  0.00  0.00     0.048 A 
ATOM      4  C3  UNL d   1       3.721  -2.047   5.003  0.00  0.00     0.023 A 
ATOM      5  C4  UNL d   1       4.089  -1.534   3.758  0.00  0.00     0.048 A 
ATOM      6  C5  UNL d   1       5.229  -2.024   3.118  0.00  0.00     0.003 A 
ATOM      7  I   UNL d   1       2.025  -1.321   5.959  0.00  0.00    -0.146 I 
ENDROOT
TORSDOF 0
ENDMDL
