MODEL 1
REMARK minimizedAffinity 11.3193684
REMARK minimizedRMSD -1
REMARK  0 active torsions:
REMARK  status: ('A' for Active; 'I' for Inactive)
ROOT
ATOM      1  C   UNL d   1      -0.336   3.008   0.681  0.00  0.00     0.023 A 
ATOM      2  C1  UNL d   1       1.058   2.998   0.711  0.00  0.00     0.003 A 
ATOM      3  C2  UNL d   1       1.782   3.855  -0.120  0.00  0.00     0.048 A 
ATOM      4  C3  UNL d   1       1.105   4.722  -0.977  0.00  0.00     0.023 A 
ATOM      5  C4  UNL d   1      -0.290   4.736  -1.010  0.00  0.00     0.048 A 
ATOM      6  C5  UNL d   1      -1.010   3.876  -0.179  0.00  0.00     0.003 A 
ATOM      7  I   UNL d   1       2.181   6.000  -2.214  0.00  0.00    -0.146 I 
ENDROOT
TORSDOF 0
ENDMDL
