MODEL 1
REMARK minimizedAffinity 14.3051195
REMARK minimizedRMSD -1
REMARK  0 active torsions:
REMARK  status: ('A' for Active; 'I' for Inactive)
ROOT
ATOM      1  C   UNL d   1      -6.000   5.327   2.006  0.00  0.00     0.023 A 
ATOM      2  C1  UNL d   1      -5.980   4.028   1.498  0.00  0.00     0.003 A 
ATOM      3  C2  UNL d   1      -4.763   3.400   1.230  0.00  0.00     0.048 A 
ATOM      4  C3  UNL d   1      -3.568   4.076   1.474  0.00  0.00     0.023 A 
ATOM      5  C4  UNL d   1      -3.582   5.375   1.983  0.00  0.00     0.048 A 
ATOM      6  C5  UNL d   1      -4.802   6.000   2.248  0.00  0.00     0.003 A 
ATOM      7  I   UNL d   1      -1.754   3.142   1.077  0.00  0.00    -0.146 I 
ENDROOT
TORSDOF 0
ENDMDL
