MODEL 1
REMARK minimizedAffinity 3.62663794
REMARK minimizedRMSD -1
REMARK  0 active torsions:
REMARK  status: ('A' for Active; 'I' for Inactive)
ROOT
ATOM      1  C   UNL d   1      -0.255   2.468   0.614  0.00  0.00     0.023 A 
ATOM      2  C1  UNL d   1      -0.809   3.582  -0.017  0.00  0.00     0.003 A 
ATOM      3  C2  UNL d   1       0.019   4.597  -0.500  0.00  0.00     0.048 A 
ATOM      4  C3  UNL d   1       1.401   4.491  -0.351  0.00  0.00     0.023 A 
ATOM      5  C4  UNL d   1       1.961   3.378   0.279  0.00  0.00     0.048 A 
ATOM      6  C5  UNL d   1       1.129   2.366   0.761  0.00  0.00     0.003 A 
ATOM      7  I   UNL d   1       2.637   6.000  -1.070  0.00  0.00    -0.146 I 
ENDROOT
TORSDOF 0
ENDMDL
