MODEL 1
REMARK minimizedAffinity 2.10458684
REMARK minimizedRMSD -1
REMARK  0 active torsions:
REMARK  status: ('A' for Active; 'I' for Inactive)
ROOT
ATOM      1  C   UNL d   1       5.621  -2.861   3.217  0.00  0.00     0.023 A 
ATOM      2  C1  UNL d   1       5.464  -2.890   1.831  0.00  0.00     0.003 A 
ATOM      3  C2  UNL d   1       4.378  -2.244   1.236  0.00  0.00     0.048 A 
ATOM      4  C3  UNL d   1       3.453  -1.571   2.033  0.00  0.00     0.023 A 
ATOM      5  C4  UNL d   1       3.606  -1.538   3.420  0.00  0.00     0.048 A 
ATOM      6  C5  UNL d   1       4.693  -2.186   4.010  0.00  0.00     0.003 A 
ATOM      7  I   UNL d   1       1.837  -0.608   1.150  0.00  0.00    -0.146 I 
ENDROOT
TORSDOF 0
ENDMDL
