MODEL 1
REMARK minimizedAffinity 9.48699188
REMARK minimizedRMSD -1
REMARK  0 active torsions:
REMARK  status: ('A' for Active; 'I' for Inactive)
ROOT
ATOM      1  C   UNL d   1      -0.677   3.315  -0.347  0.00  0.00     0.023 A 
ATOM      2  C1  UNL d   1       0.245   2.333  -0.709  0.00  0.00     0.003 A 
ATOM      3  C2  UNL d   1       0.040   1.571  -1.861  0.00  0.00     0.048 A 
ATOM      4  C3  UNL d   1      -1.088   1.798  -2.648  0.00  0.00     0.023 A 
ATOM      5  C4  UNL d   1      -2.013   2.780  -2.291  0.00  0.00     0.048 A 
ATOM      6  C5  UNL d   1      -1.805   3.539  -1.137  0.00  0.00     0.003 A 
ATOM      7  I   UNL d   1      -1.396   0.665  -4.363  0.00  0.00    -0.146 I 
ENDROOT
TORSDOF 0
ENDMDL
