MODEL 1
REMARK minimizedAffinity 12.1872683
REMARK minimizedRMSD -1
REMARK  0 active torsions:
REMARK  status: ('A' for Active; 'I' for Inactive)
ROOT
ATOM      1  C   UNL d   1      -0.634   2.145   0.053  0.00  0.00     0.023 A 
ATOM      2  C1  UNL d   1      -1.310   3.102  -0.705  0.00  0.00     0.003 A 
ATOM      3  C2  UNL d   1      -0.624   4.209  -1.207  0.00  0.00     0.048 A 
ATOM      4  C3  UNL d   1       0.739   4.353  -0.949  0.00  0.00     0.023 A 
ATOM      5  C4  UNL d   1       1.420   3.397  -0.193  0.00  0.00     0.048 A 
ATOM      6  C5  UNL d   1       0.729   2.293   0.308  0.00  0.00     0.003 A 
ATOM      7  I   UNL d   1       1.763   6.000  -1.696  0.00  0.00    -0.146 I 
ENDROOT
TORSDOF 0
ENDMDL
