MODEL 1
REMARK minimizedAffinity 13.843586
REMARK minimizedRMSD -1
REMARK  0 active torsions:
REMARK  status: ('A' for Active; 'I' for Inactive)
ROOT
ATOM      1  C   UNL d   1      -1.033   0.851   1.856  0.00  0.00     0.124 A 
ATOM      2  C1  UNL d   1      -0.695   0.478   3.150  0.00  0.00     0.062 A 
ATOM      3  C2  UNL d   1      -1.677   0.031   4.029  0.00  0.00     0.162 A 
ATOM      4  C3  UNL d   1      -3.008  -0.046   3.618  0.00  0.00    -0.034 A 
ATOM      5  C4  UNL d   1      -3.341   0.332   2.316  0.00  0.00     0.162 A 
ATOM      6  C5  UNL d   1      -2.355   0.778   1.441  0.00  0.00     0.062 A 
ATOM      7  F   UNL d   1      -2.684   1.138   0.191  0.00  0.00    -0.097 F 
ATOM      8  F1  UNL d   1      -4.610   0.271   1.887  0.00  0.00    -0.096 F 
ATOM      9  I   UNL d   1      -4.479  -0.713   4.929  0.00  0.00    -0.060 I 
ATOM     10  F2  UNL d   1      -1.321  -0.323   5.273  0.00  0.00    -0.096 F 
ATOM     11  F3  UNL d   1       0.581   0.549   3.554  0.00  0.00    -0.097 F 
ATOM     12  F4  UNL d   1      -0.086   1.282   1.013  0.00  0.00    -0.092 F 
ENDROOT
TORSDOF 0
ENDMDL
