MODEL 1
REMARK minimizedAffinity 19.0056648
REMARK minimizedRMSD -1
REMARK  0 active torsions:
REMARK  status: ('A' for Active; 'I' for Inactive)
ROOT
ATOM      1  C   UNL d   1      -4.196   0.467   1.917  0.00  0.00     0.124 A 
ATOM      2  C1  UNL d   1      -3.924   0.147   3.240  0.00  0.00     0.062 A 
ATOM      3  C2  UNL d   1      -2.608  -0.011   3.665  0.00  0.00     0.162 A 
ATOM      4  C3  UNL d   1      -1.554   0.153   2.767  0.00  0.00    -0.034 A 
ATOM      5  C4  UNL d   1      -1.835   0.474   1.438  0.00  0.00     0.162 A 
ATOM      6  C5  UNL d   1      -3.152   0.630   1.017  0.00  0.00     0.062 A 
ATOM      7  F   UNL d   1      -3.413   0.939  -0.261  0.00  0.00    -0.097 F 
ATOM      8  F1  UNL d   1      -0.845   0.638   0.548  0.00  0.00    -0.096 F 
ATOM      9  I   UNL d   1       0.415  -0.081   3.399  0.00  0.00    -0.060 I 
ATOM     10  F2  UNL d   1      -2.375  -0.320   4.949  0.00  0.00    -0.096 F 
ATOM     11  F3  UNL d   1      -4.931  -0.012   4.110  0.00  0.00    -0.097 F 
ATOM     12  F4  UNL d   1      -5.463   0.616   1.510  0.00  0.00    -0.092 F 
ENDROOT
TORSDOF 0
ENDMDL
