MODEL 1
REMARK minimizedAffinity 15.0512486
REMARK minimizedRMSD -1
REMARK  0 active torsions:
REMARK  status: ('A' for Active; 'I' for Inactive)
ROOT
ATOM      1  C   UNL d   1      -1.290   1.469   1.117  0.00  0.00     0.124 A 
ATOM      2  C1  UNL d   1      -0.635   2.345   1.972  0.00  0.00     0.062 A 
ATOM      3  C2  UNL d   1      -1.350   3.332   2.644  0.00  0.00     0.162 A 
ATOM      4  C3  UNL d   1      -2.728   3.449   2.464  0.00  0.00    -0.034 A 
ATOM      5  C4  UNL d   1      -3.379   2.565   1.602  0.00  0.00     0.162 A 
ATOM      6  C5  UNL d   1      -2.661   1.580   0.933  0.00  0.00     0.062 A 
ATOM      7  F   UNL d   1      -3.295   0.735   0.107  0.00  0.00    -0.097 F 
ATOM      8  F1  UNL d   1      -4.704   2.649   1.406  0.00  0.00    -0.096 F 
ATOM      9  I   UNL d   1      -3.801   4.924   3.467  0.00  0.00    -0.060 I 
ATOM     10  F2  UNL d   1      -0.692   4.165   3.464  0.00  0.00    -0.096 F 
ATOM     11  F3  UNL d   1       0.689   2.240   2.151  0.00  0.00    -0.097 F 
ATOM     12  F4  UNL d   1      -0.599   0.520   0.471  0.00  0.00    -0.092 F 
ENDROOT
TORSDOF 0
ENDMDL
