MODEL 1
REMARK minimizedAffinity 9.10825539
REMARK minimizedRMSD -1
REMARK  0 active torsions:
REMARK  status: ('A' for Active; 'I' for Inactive)
ROOT
ATOM      1  C   UNL d   1      -0.950  -2.682  -5.992  0.00  0.00     0.124 A 
ATOM      2  C1  UNL d   1      -2.062  -1.851  -5.994  0.00  0.00     0.062 A 
ATOM      3  C2  UNL d   1      -3.343  -2.396  -5.996  0.00  0.00     0.162 A 
ATOM      4  C3  UNL d   1      -3.519  -3.779  -5.995  0.00  0.00    -0.034 A 
ATOM      5  C4  UNL d   1      -2.397  -4.609  -5.995  0.00  0.00     0.162 A 
ATOM      6  C5  UNL d   1      -1.118  -4.060  -5.993  0.00  0.00     0.062 A 
ATOM      7  F   UNL d   1      -0.046  -4.864  -5.991  0.00  0.00    -0.097 F 
ATOM      8  F1  UNL d   1      -2.530  -5.944  -5.994  0.00  0.00    -0.096 F 
ATOM      9  I   UNL d   1      -5.433  -4.597  -5.998  0.00  0.00    -0.060 I 
ATOM     10  F2  UNL d   1      -4.399  -1.569  -5.998  0.00  0.00    -0.096 F 
ATOM     11  F3  UNL d   1      -1.902  -0.520  -5.995  0.00  0.00    -0.097 F 
ATOM     12  F4  UNL d   1       0.281  -2.156  -5.991  0.00  0.00    -0.092 F 
ENDROOT
TORSDOF 0
ENDMDL
