MODEL 1
REMARK minimizedAffinity 38.4141388
REMARK minimizedRMSD -1
REMARK  0 active torsions:
REMARK  status: ('A' for Active; 'I' for Inactive)
ROOT
ATOM      1  C   UNL d   1       2.171   1.991  -1.745  0.00  0.00     0.124 A 
ATOM      2  C1  UNL d   1       2.517   1.145  -2.789  0.00  0.00     0.062 A 
ATOM      3  C2  UNL d   1       3.243   1.632  -3.873  0.00  0.00     0.162 A 
ATOM      4  C3  UNL d   1       3.628   2.972  -3.917  0.00  0.00    -0.034 A 
ATOM      5  C4  UNL d   1       3.275   3.817  -2.863  0.00  0.00     0.162 A 
ATOM      6  C5  UNL d   1       2.549   3.325  -1.782  0.00  0.00     0.062 A 
ATOM      7  F   UNL d   1       2.215   4.143  -0.774  0.00  0.00    -0.097 F 
ATOM      8  F1  UNL d   1       3.629   5.110  -2.873  0.00  0.00    -0.096 F 
ATOM      9  I   UNL d   1       4.713   3.704  -5.535  0.00  0.00    -0.060 I 
ATOM     10  F2  UNL d   1       3.564   0.793  -4.868  0.00  0.00    -0.096 F 
ATOM     11  F3  UNL d   1       2.152  -0.144  -2.756  0.00  0.00    -0.097 F 
ATOM     12  F4  UNL d   1       1.472   1.519  -0.704  0.00  0.00    -0.092 F 
ENDROOT
TORSDOF 0
ENDMDL
