MODEL 1
REMARK minimizedAffinity 11.7538996
REMARK minimizedRMSD -1
REMARK  0 active torsions:
REMARK  status: ('A' for Active; 'I' for Inactive)
ROOT
ATOM      1  C   UNL d   1      -3.742  -1.991  -5.817  0.00  0.00     0.124 A 
ATOM      2  C1  UNL d   1      -4.333  -3.245  -5.880  0.00  0.00     0.062 A 
ATOM      3  C2  UNL d   1      -3.543  -4.390  -5.931  0.00  0.00     0.162 A 
ATOM      4  C3  UNL d   1      -2.152  -4.286  -5.919  0.00  0.00    -0.034 A 
ATOM      5  C4  UNL d   1      -1.565  -3.021  -5.856  0.00  0.00     0.162 A 
ATOM      6  C5  UNL d   1      -2.359  -1.880  -5.805  0.00  0.00     0.062 A 
ATOM      7  F   UNL d   1      -1.785  -0.669  -5.744  0.00  0.00    -0.097 F 
ATOM      8  F1  UNL d   1      -0.230  -2.885  -5.843  0.00  0.00    -0.096 F 
ATOM      9  I   UNL d   1      -0.967  -5.995  -5.996  0.00  0.00    -0.060 I 
ATOM     10  F2  UNL d   1      -4.142  -5.588  -5.992  0.00  0.00    -0.096 F 
ATOM     11  F3  UNL d   1      -5.670  -3.355  -5.892  0.00  0.00    -0.097 F 
ATOM     12  F4  UNL d   1      -4.504  -0.891  -5.768  0.00  0.00    -0.092 F 
ENDROOT
TORSDOF 0
ENDMDL
