MODEL 1
REMARK minimizedAffinity 19.9779186
REMARK minimizedRMSD -1
REMARK  0 active torsions:
REMARK  status: ('A' for Active; 'I' for Inactive)
ROOT
ATOM      1  C   UNL d   1      -5.104  -0.967   2.492  0.00  0.00     0.124 A 
ATOM      2  C1  UNL d   1      -4.881   0.375   2.215  0.00  0.00     0.062 A 
ATOM      3  C2  UNL d   1      -5.033   1.331   3.215  0.00  0.00     0.162 A 
ATOM      4  C3  UNL d   1      -5.411   0.949   4.502  0.00  0.00    -0.034 A 
ATOM      5  C4  UNL d   1      -5.635  -0.402   4.773  0.00  0.00     0.162 A 
ATOM      6  C5  UNL d   1      -5.481  -1.353   3.771  0.00  0.00     0.062 A 
ATOM      7  F   UNL d   1      -5.698  -2.649   4.040  0.00  0.00    -0.097 F 
ATOM      8  F1  UNL d   1      -5.999  -0.803   6.000  0.00  0.00    -0.096 F 
ATOM      9  I   UNL d   1      -5.640   2.376   6.000  0.00  0.00    -0.060 I 
ATOM     10  F2  UNL d   1      -4.810   2.620   2.918  0.00  0.00    -0.096 F 
ATOM     11  F3  UNL d   1      -4.517   0.751   0.980  0.00  0.00    -0.097 F 
ATOM     12  F4  UNL d   1      -4.957  -1.885   1.528  0.00  0.00    -0.092 F 
ENDROOT
TORSDOF 0
ENDMDL
