MODEL 1
REMARK minimizedAffinity 37.3045692
REMARK minimizedRMSD -1
REMARK  0 active torsions:
REMARK  status: ('A' for Active; 'I' for Inactive)
ROOT
ATOM      1  C   UNL d   1      -2.209  -1.218  -5.661  0.00  0.00     0.124 A 
ATOM      2  C1  UNL d   1      -1.564  -2.442  -5.776  0.00  0.00     0.062 A 
ATOM      3  C2  UNL d   1      -2.304  -3.617  -5.869  0.00  0.00     0.162 A 
ATOM      4  C3  UNL d   1      -3.698  -3.574  -5.849  0.00  0.00    -0.034 A 
ATOM      5  C4  UNL d   1      -4.340  -2.340  -5.732  0.00  0.00     0.162 A 
ATOM      6  C5  UNL d   1      -3.595  -1.168  -5.639  0.00  0.00     0.062 A 
ATOM      7  F   UNL d   1      -4.220   0.013  -5.528  0.00  0.00    -0.097 F 
ATOM      8  F1  UNL d   1      -5.679  -2.262  -5.709  0.00  0.00    -0.096 F 
ATOM      9  I   UNL d   1      -4.809  -5.329  -5.988  0.00  0.00    -0.060 I 
ATOM     10  F2  UNL d   1      -1.655  -4.786  -5.979  0.00  0.00    -0.096 F 
ATOM     11  F3  UNL d   1      -0.225  -2.493  -5.797  0.00  0.00    -0.097 F 
ATOM     12  F4  UNL d   1      -1.494  -0.089  -5.571  0.00  0.00    -0.092 F 
ENDROOT
TORSDOF 0
ENDMDL
