MODEL 1
REMARK minimizedAffinity 3.48718476
REMARK minimizedRMSD -1
REMARK  0 active torsions:
REMARK  status: ('A' for Active; 'I' for Inactive)
ROOT
ATOM      1  C   UNL d   1      -0.332   1.604   3.765  0.00  0.00     0.124 A 
ATOM      2  C1  UNL d   1      -0.166   0.324   3.257  0.00  0.00     0.062 A 
ATOM      3  C2  UNL d   1      -1.106  -0.208   2.379  0.00  0.00     0.162 A 
ATOM      4  C3  UNL d   1      -2.222   0.541   2.004  0.00  0.00    -0.034 A 
ATOM      5  C4  UNL d   1      -2.382   1.828   2.521  0.00  0.00     0.162 A 
ATOM      6  C5  UNL d   1      -1.440   2.355   3.397  0.00  0.00     0.062 A 
ATOM      7  F   UNL d   1      -1.602   3.592   3.888  0.00  0.00    -0.097 F 
ATOM      8  F1  UNL d   1      -3.443   2.575   2.181  0.00  0.00    -0.096 F 
ATOM      9  I   UNL d   1      -3.630  -0.252   0.692  0.00  0.00    -0.060 I 
ATOM     10  F2  UNL d   1      -0.920  -1.449   1.903  0.00  0.00    -0.096 F 
ATOM     11  F3  UNL d   1       0.903  -0.404   3.612  0.00  0.00    -0.097 F 
ATOM     12  F4  UNL d   1       0.574   2.114   4.610  0.00  0.00    -0.092 F 
ENDROOT
TORSDOF 0
ENDMDL
