MODEL 1
REMARK minimizedAffinity 21.1987438
REMARK minimizedRMSD -1
REMARK  0 active torsions:
REMARK  status: ('A' for Active; 'I' for Inactive)
ROOT
ATOM      1  C   UNL d   1       3.637  -4.848   1.834  0.00  0.00     0.124 A 
ATOM      2  C1  UNL d   1       4.346  -3.677   2.063  0.00  0.00     0.062 A 
ATOM      3  C2  UNL d   1       3.681  -2.525   2.471  0.00  0.00     0.162 A 
ATOM      4  C3  UNL d   1       2.298  -2.537   2.654  0.00  0.00    -0.034 A 
ATOM      5  C4  UNL d   1       1.592  -3.719   2.420  0.00  0.00     0.162 A 
ATOM      6  C5  UNL d   1       2.261  -4.868   2.012  0.00  0.00     0.062 A 
ATOM      7  F   UNL d   1       1.574  -5.998   1.791  0.00  0.00    -0.097 F 
ATOM      8  F1  UNL d   1       0.262  -3.766   2.586  0.00  0.00    -0.096 F 
ATOM      9  I   UNL d   1       1.300  -0.816   3.264  0.00  0.00    -0.060 I 
ATOM     10  F2  UNL d   1       4.392  -1.407   2.685  0.00  0.00    -0.096 F 
ATOM     11  F3  UNL d   1       5.676  -3.655   1.890  0.00  0.00    -0.097 F 
ATOM     12  F4  UNL d   1       4.280  -5.955   1.440  0.00  0.00    -0.092 F 
ENDROOT
TORSDOF 0
ENDMDL
