MODEL 1
REMARK minimizedAffinity 20.104311
REMARK minimizedRMSD -1
REMARK  0 active torsions:
REMARK  status: ('A' for Active; 'I' for Inactive)
ROOT
ATOM      1  C   UNL d   1      -3.564  -1.529   0.446  0.00  0.00     0.124 A 
ATOM      2  C1  UNL d   1      -3.375  -0.203   0.813  0.00  0.00     0.062 A 
ATOM      3  C2  UNL d   1      -2.220   0.178   1.489  0.00  0.00     0.162 A 
ATOM      4  C3  UNL d   1      -1.244  -0.767   1.804  0.00  0.00    -0.034 A 
ATOM      5  C4  UNL d   1      -1.442  -2.098   1.434  0.00  0.00     0.162 A 
ATOM      6  C5  UNL d   1      -2.597  -2.475   0.757  0.00  0.00     0.062 A 
ATOM      7  F   UNL d   1      -2.778  -3.756   0.404  0.00  0.00    -0.097 F 
ATOM      8  F1  UNL d   1      -0.523  -3.033   1.720  0.00  0.00    -0.096 F 
ATOM      9  I   UNL d   1       0.484  -0.200   2.816  0.00  0.00    -0.060 I 
ATOM     10  F2  UNL d   1      -2.064   1.466   1.831  0.00  0.00    -0.096 F 
ATOM     11  F3  UNL d   1      -4.308   0.713   0.514  0.00  0.00    -0.097 F 
ATOM     12  F4  UNL d   1      -4.676  -1.893  -0.204  0.00  0.00    -0.092 F 
ENDROOT
TORSDOF 0
ENDMDL
