MODEL 1
REMARK minimizedAffinity 20.8235893
REMARK minimizedRMSD -1
REMARK  0 active torsions:
REMARK  status: ('A' for Active; 'I' for Inactive)
ROOT
ATOM      1  C   UNL d   1       0.873   2.306   2.624  0.00  0.00     0.124 A 
ATOM      2  C1  UNL d   1       0.686   1.043   3.168  0.00  0.00     0.062 A 
ATOM      3  C2  UNL d   1      -0.561   0.427   3.097  0.00  0.00     0.162 A 
ATOM      4  C3  UNL d   1      -1.631   1.074   2.479  0.00  0.00    -0.034 A 
ATOM      5  C4  UNL d   1      -1.436   2.345   1.935  0.00  0.00     0.162 A 
ATOM      6  C5  UNL d   1      -0.188   2.956   2.008  0.00  0.00     0.062 A 
ATOM      7  F   UNL d   1      -0.009   4.176   1.482  0.00  0.00    -0.097 F 
ATOM      8  F1  UNL d   1      -2.443   2.995   1.334  0.00  0.00    -0.096 F 
ATOM      9  I   UNL d   1      -3.496   0.157   2.372  0.00  0.00    -0.060 I 
ATOM     10  F2  UNL d   1      -0.712  -0.794   3.632  0.00  0.00    -0.096 F 
ATOM     11  F3  UNL d   1       1.709   0.413   3.764  0.00  0.00    -0.097 F 
ATOM     12  F4  UNL d   1       2.073   2.896   2.694  0.00  0.00    -0.092 F 
ENDROOT
TORSDOF 0
ENDMDL
