MODEL 1
REMARK minimizedAffinity 28.0040531
REMARK minimizedRMSD -1
REMARK  0 active torsions:
REMARK  status: ('A' for Active; 'I' for Inactive)
ROOT
ATOM      1  C   UNL d   1       1.927   0.351  -2.167  0.00  0.00     0.124 A 
ATOM      2  C1  UNL d   1       2.592   1.568  -2.101  0.00  0.00     0.062 A 
ATOM      3  C2  UNL d   1       3.324   2.027  -3.192  0.00  0.00     0.162 A 
ATOM      4  C3  UNL d   1       3.394   1.269  -4.361  0.00  0.00    -0.034 A 
ATOM      5  C4  UNL d   1       2.724   0.046  -4.421  0.00  0.00     0.162 A 
ATOM      6  C5  UNL d   1       1.994  -0.408  -3.327  0.00  0.00     0.062 A 
ATOM      7  F   UNL d   1       1.352  -1.584  -3.393  0.00  0.00    -0.097 F 
ATOM      8  F1  UNL d   1       2.770  -0.708  -5.529  0.00  0.00    -0.096 F 
ATOM      9  I   UNL d   1       4.487   1.952  -5.995  0.00  0.00    -0.060 I 
ATOM     10  F2  UNL d   1       3.956   3.206  -3.099  0.00  0.00    -0.096 F 
ATOM     11  F3  UNL d   1       2.530   2.303  -0.981  0.00  0.00    -0.097 F 
ATOM     12  F4  UNL d   1       1.225  -0.088  -1.115  0.00  0.00    -0.092 F 
ENDROOT
TORSDOF 0
ENDMDL
