MODEL 1
REMARK minimizedAffinity 13.7867308
REMARK minimizedRMSD -1
REMARK  0 active torsions:
REMARK  status: ('A' for Active; 'I' for Inactive)
ROOT
ATOM      1  C   UNL d   1      -4.190  -1.101   0.500  0.00  0.00     0.124 A 
ATOM      2  C1  UNL d   1      -4.033   0.212   0.923  0.00  0.00     0.062 A 
ATOM      3  C2  UNL d   1      -2.849   0.613   1.535  0.00  0.00     0.162 A 
ATOM      4  C3  UNL d   1      -1.812  -0.299   1.727  0.00  0.00    -0.034 A 
ATOM      5  C4  UNL d   1      -1.977  -1.618   1.301  0.00  0.00     0.162 A 
ATOM      6  C5  UNL d   1      -3.163  -2.015   0.690  0.00  0.00     0.062 A 
ATOM      7  F   UNL d   1      -3.313  -3.283   0.282  0.00  0.00    -0.097 F 
ATOM      8  F1  UNL d   1      -1.000  -2.521   1.471  0.00  0.00    -0.096 F 
ATOM      9  I   UNL d   1      -0.040   0.297   2.642  0.00  0.00    -0.060 I 
ATOM     10  F2  UNL d   1      -2.725   1.888   1.933  0.00  0.00    -0.096 F 
ATOM     11  F3  UNL d   1      -5.024   1.096   0.742  0.00  0.00    -0.097 F 
ATOM     12  F4  UNL d   1      -5.330  -1.485  -0.087  0.00  0.00    -0.092 F 
ENDROOT
TORSDOF 0
ENDMDL
