MODEL 1
REMARK minimizedAffinity 13.0106916
REMARK minimizedRMSD -1
REMARK  0 active torsions:
REMARK  status: ('A' for Active; 'I' for Inactive)
ROOT
ATOM      1  C   UNL d   1      -3.426  -1.381   0.187  0.00  0.00     0.124 A 
ATOM      2  C1  UNL d   1      -3.414  -0.064   0.624  0.00  0.00     0.062 A 
ATOM      3  C2  UNL d   1      -2.283   0.456   1.247  0.00  0.00     0.162 A 
ATOM      4  C3  UNL d   1      -1.154  -0.341   1.436  0.00  0.00    -0.034 A 
ATOM      5  C4  UNL d   1      -1.174  -1.665   0.994  0.00  0.00     0.162 A 
ATOM      6  C5  UNL d   1      -2.307  -2.181   0.372  0.00  0.00     0.062 A 
ATOM      7  F   UNL d   1      -2.317  -3.454  -0.049  0.00  0.00    -0.097 F 
ATOM      8  F1  UNL d   1      -0.106  -2.459   1.160  0.00  0.00    -0.096 F 
ATOM      9  I   UNL d   1       0.538   0.433   2.367  0.00  0.00    -0.060 I 
ATOM     10  F2  UNL d   1      -2.299   1.732   1.659  0.00  0.00    -0.096 F 
ATOM     11  F3  UNL d   1      -4.494   0.710   0.446  0.00  0.00    -0.097 F 
ATOM     12  F4  UNL d   1      -4.516  -1.880  -0.412  0.00  0.00    -0.092 F 
ENDROOT
TORSDOF 0
ENDMDL
