MODEL 1
REMARK minimizedAffinity 16.0488873
REMARK minimizedRMSD -1
REMARK  0 active torsions:
REMARK  status: ('A' for Active; 'I' for Inactive)
ROOT
ATOM      1  C   UNL d   1      -1.093  -2.060  -5.994  0.00  0.00     0.124 A 
ATOM      2  C1  UNL d   1      -2.026  -1.033  -5.994  0.00  0.00     0.062 A 
ATOM      3  C2  UNL d   1      -3.388  -1.323  -5.996  0.00  0.00     0.162 A 
ATOM      4  C3  UNL d   1      -3.825  -2.648  -5.997  0.00  0.00    -0.034 A 
ATOM      5  C4  UNL d   1      -2.880  -3.676  -5.998  0.00  0.00     0.162 A 
ATOM      6  C5  UNL d   1      -1.521  -3.380  -5.996  0.00  0.00     0.062 A 
ATOM      7  F   UNL d   1      -0.621  -4.375  -5.997  0.00  0.00    -0.097 F 
ATOM      8  F1  UNL d   1      -3.266  -4.961  -5.999  0.00  0.00    -0.096 F 
ATOM      9  I   UNL d   1      -5.859  -3.086  -6.000  0.00  0.00    -0.060 I 
ATOM     10  F2  UNL d   1      -4.267  -0.310  -5.996  0.00  0.00    -0.096 F 
ATOM     11  F3  UNL d   1      -1.616   0.244  -5.993  0.00  0.00    -0.097 F 
ATOM     12  F4  UNL d   1       0.216  -1.778  -5.994  0.00  0.00    -0.092 F 
ENDROOT
TORSDOF 0
ENDMDL
