MODEL 1
REMARK minimizedAffinity 12.444272
REMARK minimizedRMSD -1
REMARK  0 active torsions:
REMARK  status: ('A' for Active; 'I' for Inactive)
ROOT
ATOM      1  C   UNL d   1      -4.573   0.893   1.883  0.00  0.00     0.124 A 
ATOM      2  C1  UNL d   1      -3.499   0.979   1.008  0.00  0.00     0.062 A 
ATOM      3  C2  UNL d   1      -2.226   0.598   1.424  0.00  0.00     0.162 A 
ATOM      4  C3  UNL d   1      -2.020   0.127   2.720  0.00  0.00    -0.034 A 
ATOM      5  C4  UNL d   1      -3.106   0.045   3.595  0.00  0.00     0.162 A 
ATOM      6  C5  UNL d   1      -4.376   0.427   3.175  0.00  0.00     0.062 A 
ATOM      7  F   UNL d   1      -5.412   0.343   4.021  0.00  0.00    -0.097 F 
ATOM      8  F1  UNL d   1      -2.943  -0.404   4.848  0.00  0.00    -0.096 F 
ATOM      9  I   UNL d   1      -0.119  -0.443   3.345  0.00  0.00    -0.060 I 
ATOM     10  F2  UNL d   1      -1.207   0.692   0.557  0.00  0.00    -0.096 F 
ATOM     11  F3  UNL d   1      -3.687   1.431  -0.240  0.00  0.00    -0.097 F 
ATOM     12  F4  UNL d   1      -5.797   1.261   1.481  0.00  0.00    -0.092 F 
ENDROOT
TORSDOF 0
ENDMDL
