MODEL 1
REMARK minimizedAffinity 24.8886833
REMARK minimizedRMSD -1
REMARK  0 active torsions:
REMARK  status: ('A' for Active; 'I' for Inactive)
ROOT
ATOM      1  C   UNL d   1      -4.703   0.896   1.991  0.00  0.00     0.124 A 
ATOM      2  C1  UNL d   1      -3.734   1.224   1.052  0.00  0.00     0.062 A 
ATOM      3  C2  UNL d   1      -2.385   1.053   1.350  0.00  0.00     0.162 A 
ATOM      4  C3  UNL d   1      -1.996   0.550   2.591  0.00  0.00    -0.034 A 
ATOM      5  C4  UNL d   1      -2.976   0.224   3.530  0.00  0.00     0.162 A 
ATOM      6  C5  UNL d   1      -4.323   0.396   3.229  0.00  0.00     0.062 A 
ATOM      7  F   UNL d   1      -5.257   0.078   4.137  0.00  0.00    -0.097 F 
ATOM      8  F1  UNL d   1      -2.637  -0.262   4.734  0.00  0.00    -0.096 F 
ATOM      9  I   UNL d   1       0.020   0.294   3.039  0.00  0.00    -0.060 I 
ATOM     10  F2  UNL d   1      -1.471   1.379   0.424  0.00  0.00    -0.096 F 
ATOM     11  F3  UNL d   1      -4.098   1.708  -0.144  0.00  0.00    -0.097 F 
ATOM     12  F4  UNL d   1      -6.000   1.062   1.703  0.00  0.00    -0.092 F 
ENDROOT
TORSDOF 0
ENDMDL
