MODEL 1
REMARK minimizedAffinity 8.64638042
REMARK minimizedRMSD -1
REMARK  0 active torsions:
REMARK  status: ('A' for Active; 'I' for Inactive)
ROOT
ATOM      1  C   UNL d   1       0.854   1.695   3.555  0.00  0.00     0.124 A 
ATOM      2  C1  UNL d   1       1.067   0.751   2.560  0.00  0.00     0.062 A 
ATOM      3  C2  UNL d   1      -0.003   0.267   1.814  0.00  0.00     0.162 A 
ATOM      4  C3  UNL d   1      -1.297   0.728   2.059  0.00  0.00    -0.034 A 
ATOM      5  C4  UNL d   1      -1.503   1.676   3.062  0.00  0.00     0.162 A 
ATOM      6  C5  UNL d   1      -0.430   2.156   3.805  0.00  0.00     0.062 A 
ATOM      7  F   UNL d   1      -0.638   3.068   4.766  0.00  0.00    -0.097 F 
ATOM      8  F1  UNL d   1      -2.734   2.140   3.324  0.00  0.00    -0.096 F 
ATOM      9  I   UNL d   1      -2.901   0.007   0.945  0.00  0.00    -0.060 I 
ATOM     10  F2  UNL d   1       0.232  -0.644   0.858  0.00  0.00    -0.096 F 
ATOM     11  F3  UNL d   1       2.307   0.303   2.317  0.00  0.00    -0.097 F 
ATOM     12  F4  UNL d   1       1.886   2.158   4.273  0.00  0.00    -0.092 F 
ENDROOT
TORSDOF 0
ENDMDL
