MODEL 1
REMARK minimizedAffinity -2.25061584
REMARK minimizedRMSD -1
REMARK  0 active torsions:
REMARK  status: ('A' for Active; 'I' for Inactive)
ROOT
ATOM      1  C2' OXE d   1       0.844  -2.981   1.959  0.00  0.00     0.078 C 
ATOM      2  C1' OXE d   1       2.812  -0.993   1.718  0.00  0.00     0.078 C 
ATOM      3  C1  OXE d   1       1.461  -0.723   1.105  0.00  0.00    -0.078 A 
ATOM      4  C2  OXE d   1       0.519  -1.720   1.187  0.00  0.00    -0.078 A 
ATOM      5  C3  OXE d   1      -0.762  -1.502   0.687  0.00  0.00     0.003 A 
ATOM      6  C4  OXE d   1      -1.051  -0.337  -0.034  0.00  0.00    -0.002 A 
ATOM      7  C5  OXE d   1      -0.094   0.675  -0.164  0.00  0.00    -0.002 A 
ATOM      8  C6  OXE d   1       1.151   0.516   0.435  0.00  0.00     0.003 A 
ENDROOT
TORSDOF 0
ENDMDL
