MODEL 1
REMARK minimizedAffinity -1.91530275
REMARK minimizedRMSD -1
REMARK  0 active torsions:
REMARK  status: ('A' for Active; 'I' for Inactive)
ROOT
ATOM      1  C2' OXE d   1       0.755  -2.161   1.823  0.00  0.00     0.078 C 
ATOM      2  C1' OXE d   1       2.518   0.020   1.692  0.00  0.00     0.078 C 
ATOM      3  C1  OXE d   1       1.230   0.109   0.913  0.00  0.00    -0.078 A 
ATOM      4  C2  OXE d   1       0.395  -0.982   0.945  0.00  0.00    -0.078 A 
ATOM      5  C3  OXE d   1      -0.831  -0.931   0.289  0.00  0.00     0.003 A 
ATOM      6  C4  OXE d   1      -1.153   0.159  -0.529  0.00  0.00    -0.002 A 
ATOM      7  C5  OXE d   1      -0.298   1.263  -0.608  0.00  0.00    -0.002 A 
ATOM      8  C6  OXE d   1       0.875   1.272   0.139  0.00  0.00     0.003 A 
ENDROOT
TORSDOF 0
ENDMDL
