MODEL 1
REMARK minimizedAffinity -4.30629873
REMARK minimizedRMSD -1
REMARK  0 active torsions:
REMARK  status: ('A' for Active; 'I' for Inactive)
ROOT
ATOM      1  C2' OXE d   1       0.748  -2.583   0.130  0.00  0.00     0.078 C 
ATOM      2  C1' OXE d   1      -1.256  -0.621   0.263  0.00  0.00     0.078 C 
ATOM      3  C1  OXE d   1       0.167  -0.193   0.521  0.00  0.00    -0.078 A 
ATOM      4  C2  OXE d   1       1.135  -1.168   0.500  0.00  0.00    -0.078 A 
ATOM      5  C3  OXE d   1       2.471  -0.818   0.678  0.00  0.00     0.003 A 
ATOM      6  C4  OXE d   1       2.819   0.492   1.030  0.00  0.00    -0.002 A 
ATOM      7  C5  OXE d   1       1.844   1.493   1.096  0.00  0.00    -0.002 A 
ATOM      8  C6  OXE d   1       0.522   1.176   0.803  0.00  0.00     0.003 A 
ENDROOT
TORSDOF 0
ENDMDL
