MODEL 1
REMARK minimizedAffinity -2.79265547
REMARK minimizedRMSD -1
REMARK  0 active torsions:
REMARK  status: ('A' for Active; 'I' for Inactive)
ROOT
ATOM      1  C2' OXE d   1      -1.222  -0.412   0.035  0.00  0.00     0.078 C 
ATOM      2  C1' OXE d   1      -0.214   2.073   0.863  0.00  0.00     0.078 C 
ATOM      3  C1  OXE d   1       0.727   0.895   0.870  0.00  0.00    -0.078 A 
ATOM      4  C2  OXE d   1       0.213  -0.327   0.508  0.00  0.00    -0.078 A 
ATOM      5  C3  OXE d   1       1.051  -1.436   0.444  0.00  0.00     0.003 A 
ATOM      6  C4  OXE d   1       2.375  -1.351   0.892  0.00  0.00    -0.002 A 
ATOM      7  C5  OXE d   1       2.908  -0.125   1.303  0.00  0.00    -0.002 A 
ATOM      8  C6  OXE d   1       2.111   1.014   1.257  0.00  0.00     0.003 A 
ENDROOT
TORSDOF 0
ENDMDL
