MODEL 1
REMARK minimizedAffinity -6.41286087
REMARK minimizedRMSD -1
REMARK  0 active torsions:
REMARK  status: ('A' for Active; 'I' for Inactive)
ROOT
ATOM      1  C2' OXE d   1       0.411  -2.781   2.215  0.00  0.00     0.078 C 
ATOM      2  C1' OXE d   1      -0.729  -0.662   0.770  0.00  0.00     0.078 C 
ATOM      3  C1  OXE d   1       0.765  -0.652   0.972  0.00  0.00    -0.078 A 
ATOM      4  C2  OXE d   1       1.309  -1.668   1.721  0.00  0.00    -0.078 A 
ATOM      5  C3  OXE d   1       2.689  -1.736   1.892  0.00  0.00     0.003 A 
ATOM      6  C4  OXE d   1       3.511  -0.697   1.439  0.00  0.00    -0.002 A 
ATOM      7  C5  OXE d   1       2.973   0.368   0.709  0.00  0.00    -0.002 A 
ATOM      8  C6  OXE d   1       1.611   0.384   0.431  0.00  0.00     0.003 A 
ENDROOT
TORSDOF 0
ENDMDL
