MODEL 1
REMARK minimizedAffinity -5.14518595
REMARK minimizedRMSD -1
REMARK  0 active torsions:
REMARK  status: ('A' for Active; 'I' for Inactive)
ROOT
ATOM      1  C2' OXE d   1      -0.386   0.507  -0.096  0.00  0.00     0.078 C 
ATOM      2  C1' OXE d   1      -1.302  -1.860   1.103  0.00  0.00     0.078 C 
ATOM      3  C1  OXE d   1       0.113  -1.427   1.393  0.00  0.00    -0.078 A 
ATOM      4  C2  OXE d   1       0.568  -0.293   0.765  0.00  0.00    -0.078 A 
ATOM      5  C3  OXE d   1       1.848   0.181   1.040  0.00  0.00     0.003 A 
ATOM      6  C4  OXE d   1       2.728  -0.570   1.829  0.00  0.00    -0.002 A 
ATOM      7  C5  OXE d   1       2.297  -1.749   2.446  0.00  0.00    -0.002 A 
ATOM      8  C6  OXE d   1       0.983  -2.168   2.273  0.00  0.00     0.003 A 
ENDROOT
TORSDOF 0
ENDMDL
