MODEL 1
REMARK minimizedAffinity 1.3680768
REMARK minimizedRMSD -1
REMARK  0 active torsions:
REMARK  status: ('A' for Active; 'I' for Inactive)
ROOT
ATOM      1  C   UNL d   1       2.792  -0.233   2.880  0.00  0.00     0.078 C 
ATOM      2  C1  UNL d   1       1.355  -0.557   2.602  0.00  0.00    -0.077 A 
ATOM      3  C2  UNL d   1       0.529  -1.090   3.599  0.00  0.00    -0.001 A 
ATOM      4  C3  UNL d   1      -0.804  -1.396   3.323  0.00  0.00     0.003 A 
ATOM      5  C4  UNL d   1      -1.324  -1.173   2.050  0.00  0.00    -0.005 A 
ATOM      6  C5  UNL d   1      -0.510  -0.645   1.050  0.00  0.00     0.003 A 
ATOM      7  C6  UNL d   1       0.824  -0.338   1.324  0.00  0.00    -0.001 A 
ENDROOT
TORSDOF 0
ENDMDL
