MODEL 1
REMARK minimizedAffinity 7.48875713
REMARK minimizedRMSD -1
REMARK  0 active torsions:
REMARK  status: ('A' for Active; 'I' for Inactive)
ROOT
ATOM      1  C   UNL d   1       4.919  -1.655   5.771  0.00  0.00     0.078 C 
ATOM      2  C1  UNL d   1       4.850  -3.153   5.770  0.00  0.00    -0.077 A 
ATOM      3  C2  UNL d   1       5.993  -3.927   5.537  0.00  0.00    -0.001 A 
ATOM      4  C3  UNL d   1       5.912  -5.321   5.529  0.00  0.00     0.003 A 
ATOM      5  C4  UNL d   1       4.690  -5.952   5.752  0.00  0.00    -0.005 A 
ATOM      6  C5  UNL d   1       3.547  -5.189   5.983  0.00  0.00     0.003 A 
ATOM      7  C6  UNL d   1       3.626  -3.796   5.991  0.00  0.00    -0.001 A 
ENDROOT
TORSDOF 0
ENDMDL
