MODEL 1
REMARK minimizedAffinity 3.07170701
REMARK minimizedRMSD -1
REMARK  0 active torsions:
REMARK  status: ('A' for Active; 'I' for Inactive)
ROOT
ATOM      1  C   UNL d   1       5.467  -0.375  -2.876  0.00  0.00     0.078 C 
ATOM      2  C1  UNL d   1       4.321   0.098  -2.032  0.00  0.00    -0.077 A 
ATOM      3  C2  UNL d   1       3.433  -0.813  -1.447  0.00  0.00    -0.001 A 
ATOM      4  C3  UNL d   1       2.365  -0.359  -0.671  0.00  0.00     0.003 A 
ATOM      5  C4  UNL d   1       2.175   1.008  -0.475  0.00  0.00    -0.005 A 
ATOM      6  C5  UNL d   1       3.053   1.921  -1.054  0.00  0.00     0.003 A 
ATOM      7  C6  UNL d   1       4.121   1.469  -1.830  0.00  0.00    -0.001 A 
ENDROOT
TORSDOF 0
ENDMDL
