MODEL 1
REMARK minimizedAffinity 4.78628397
REMARK minimizedRMSD -1
REMARK  0 active torsions:
REMARK  status: ('A' for Active; 'I' for Inactive)
ROOT
ATOM      1  C   UNL d   1       2.302  -0.337   0.177  0.00  0.00     0.078 C 
ATOM      2  C1  UNL d   1       1.006  -0.786   0.783  0.00  0.00    -0.077 A 
ATOM      3  C2  UNL d   1       0.310  -1.886   0.267  0.00  0.00    -0.001 A 
ATOM      4  C3  UNL d   1      -0.900  -2.287   0.836  0.00  0.00     0.003 A 
ATOM      5  C4  UNL d   1      -1.426  -1.592   1.923  0.00  0.00    -0.005 A 
ATOM      6  C5  UNL d   1      -0.742  -0.495   2.443  0.00  0.00     0.003 A 
ATOM      7  C6  UNL d   1       0.468  -0.093   1.875  0.00  0.00    -0.001 A 
ENDROOT
TORSDOF 0
ENDMDL
