MODEL 1
REMARK minimizedAffinity 1.09210098
REMARK minimizedRMSD -1
REMARK  0 active torsions:
REMARK  status: ('A' for Active; 'I' for Inactive)
ROOT
ATOM      1  C   UNL d   1       3.068   0.059   1.949  0.00  0.00     0.078 C 
ATOM      2  C1  UNL d   1       1.625  -0.339   2.040  0.00  0.00    -0.077 A 
ATOM      3  C2  UNL d   1       0.946  -0.316   3.265  0.00  0.00    -0.001 A 
ATOM      4  C3  UNL d   1      -0.394  -0.699   3.337  0.00  0.00     0.003 A 
ATOM      5  C4  UNL d   1      -1.067  -1.108   2.188  0.00  0.00    -0.005 A 
ATOM      6  C5  UNL d   1      -0.400  -1.136   0.965  0.00  0.00     0.003 A 
ATOM      7  C6  UNL d   1       0.940  -0.754   0.891  0.00  0.00    -0.001 A 
ENDROOT
TORSDOF 0
ENDMDL
