MODEL 1
REMARK minimizedAffinity 4.93448067
REMARK minimizedRMSD -1
REMARK  0 active torsions:
REMARK  status: ('A' for Active; 'I' for Inactive)
ROOT
ATOM      1  C   UNL d   1      -1.919   5.823  -2.144  0.00  0.00     0.078 C 
ATOM      2  C1  UNL d   1      -1.740   4.562  -2.935  0.00  0.00    -0.077 A 
ATOM      3  C2  UNL d   1      -0.464   4.042  -3.185  0.00  0.00    -0.001 A 
ATOM      4  C3  UNL d   1      -0.312   2.872  -3.931  0.00  0.00     0.003 A 
ATOM      5  C4  UNL d   1      -1.432   2.212  -4.434  0.00  0.00    -0.005 A 
ATOM      6  C5  UNL d   1      -2.705   2.723  -4.191  0.00  0.00     0.003 A 
ATOM      7  C6  UNL d   1      -2.859   3.893  -3.446  0.00  0.00    -0.001 A 
ENDROOT
TORSDOF 0
ENDMDL
