MODEL 1
REMARK minimizedAffinity 5.07972813
REMARK minimizedRMSD -1
REMARK  0 active torsions:
REMARK  status: ('A' for Active; 'I' for Inactive)
ROOT
ATOM      1  C   UNL d   1      -1.045   5.999  -2.309  0.00  0.00     0.078 C 
ATOM      2  C1  UNL d   1      -0.861   4.722  -3.073  0.00  0.00    -0.077 A 
ATOM      3  C2  UNL d   1       0.392   4.103  -3.151  0.00  0.00    -0.001 A 
ATOM      4  C3  UNL d   1       0.551   2.919  -3.874  0.00  0.00     0.003 A 
ATOM      5  C4  UNL d   1      -0.539   2.344  -4.524  0.00  0.00    -0.005 A 
ATOM      6  C5  UNL d   1      -1.790   2.954  -4.454  0.00  0.00     0.003 A 
ATOM      7  C6  UNL d   1      -1.951   4.138  -3.732  0.00  0.00    -0.001 A 
ENDROOT
TORSDOF 0
ENDMDL
