MODEL 1
REMARK minimizedAffinity 2.82502174
REMARK minimizedRMSD -1
REMARK  0 active torsions:
REMARK  status: ('A' for Active; 'I' for Inactive)
ROOT
ATOM      1  C   UNL d   1      -1.457  -1.660   4.329  0.00  0.00     0.078 C 
ATOM      2  C1  UNL d   1      -0.928  -1.558   2.930  0.00  0.00    -0.077 A 
ATOM      3  C2  UNL d   1      -1.420  -2.383   1.911  0.00  0.00    -0.001 A 
ATOM      4  C3  UNL d   1      -0.911  -2.284   0.615  0.00  0.00     0.003 A 
ATOM      5  C4  UNL d   1       0.093  -1.361   0.326  0.00  0.00    -0.005 A 
ATOM      6  C5  UNL d   1       0.590  -0.538   1.334  0.00  0.00     0.003 A 
ATOM      7  C6  UNL d   1       0.082  -0.636   2.631  0.00  0.00    -0.001 A 
ENDROOT
TORSDOF 0
ENDMDL
