MODEL 1
REMARK minimizedAffinity 10.5067186
REMARK minimizedRMSD -1
REMARK  0 active torsions:
REMARK  status: ('A' for Active; 'I' for Inactive)
ROOT
ATOM      1  C   UNL d   1      -1.108   5.302  -2.515  0.00  0.00     0.078 C 
ATOM      2  C1  UNL d   1      -0.904   4.135  -3.435  0.00  0.00    -0.077 A 
ATOM      3  C2  UNL d   1       0.377   3.776  -3.871  0.00  0.00    -0.001 A 
ATOM      4  C3  UNL d   1       0.551   2.694  -4.735  0.00  0.00     0.003 A 
ATOM      5  C4  UNL d   1      -0.552   1.963  -5.172  0.00  0.00    -0.005 A 
ATOM      6  C5  UNL d   1      -1.831   2.315  -4.746  0.00  0.00     0.003 A 
ATOM      7  C6  UNL d   1      -2.007   3.396  -3.881  0.00  0.00    -0.001 A 
ENDROOT
TORSDOF 0
ENDMDL
