MODEL 1
REMARK minimizedAffinity 7.38253975
REMARK minimizedRMSD -1
REMARK  0 active torsions:
REMARK  status: ('A' for Active; 'I' for Inactive)
ROOT
ATOM      1  C   UNL d   1      -2.635  -4.820  -1.886  0.00  0.00     0.078 C 
ATOM      2  C1  UNL d   1      -1.502  -5.221  -2.783  0.00  0.00    -0.077 A 
ATOM      3  C2  UNL d   1      -1.664  -5.263  -4.173  0.00  0.00    -0.001 A 
ATOM      4  C3  UNL d   1      -0.603  -5.648  -4.996  0.00  0.00     0.003 A 
ATOM      5  C4  UNL d   1       0.625  -5.995  -4.437  0.00  0.00    -0.005 A 
ATOM      6  C5  UNL d   1       0.794  -5.959  -3.054  0.00  0.00     0.003 A 
ATOM      7  C6  UNL d   1      -0.265  -5.574  -2.231  0.00  0.00    -0.001 A 
ENDROOT
TORSDOF 0
ENDMDL
