MODEL 1
REMARK minimizedAffinity 0.627631783
REMARK minimizedRMSD -1
REMARK  0 active torsions:
REMARK  status: ('A' for Active; 'I' for Inactive)
ROOT
ATOM      1  C   UNL d   1       5.631   0.038  -2.810  0.00  0.00     0.078 C 
ATOM      2  C1  UNL d   1       4.386   0.208  -1.990  0.00  0.00    -0.077 A 
ATOM      3  C2  UNL d   1       3.832   1.476  -1.775  0.00  0.00    -0.001 A 
ATOM      4  C3  UNL d   1       2.679   1.620  -1.002  0.00  0.00     0.003 A 
ATOM      5  C4  UNL d   1       2.071   0.501  -0.437  0.00  0.00    -0.005 A 
ATOM      6  C5  UNL d   1       2.616  -0.765  -0.644  0.00  0.00     0.003 A 
ATOM      7  C6  UNL d   1       3.769  -0.911  -1.417  0.00  0.00    -0.001 A 
ENDROOT
TORSDOF 0
ENDMDL
