MODEL 1
REMARK minimizedAffinity 8.92297077
REMARK minimizedRMSD -1
REMARK  0 active torsions:
REMARK  status: ('A' for Active; 'I' for Inactive)
ROOT
ATOM      1  C   UNL d   1      -0.355  -0.563   1.493  0.00  0.00     0.078 C 
ATOM      2  C1  UNL d   1      -1.441  -1.408   0.897  0.00  0.00    -0.077 A 
ATOM      3  C2  UNL d   1      -1.196  -2.213  -0.223  0.00  0.00    -0.001 A 
ATOM      4  C3  UNL d   1      -2.219  -2.987  -0.773  0.00  0.00     0.003 A 
ATOM      5  C4  UNL d   1      -3.494  -2.963  -0.211  0.00  0.00    -0.005 A 
ATOM      6  C5  UNL d   1      -3.748  -2.164   0.901  0.00  0.00     0.003 A 
ATOM      7  C6  UNL d   1      -2.726  -1.389   1.453  0.00  0.00    -0.001 A 
ENDROOT
TORSDOF 0
ENDMDL
