MODEL 1
REMARK minimizedAffinity 12.1514111
REMARK minimizedRMSD -1
REMARK  0 active torsions:
REMARK  status: ('A' for Active; 'I' for Inactive)
ROOT
ATOM      1  C   UNL d   1      -1.005  -1.702   5.070  0.00  0.00     0.078 C 
ATOM      2  C1  UNL d   1      -0.598  -1.275   3.691  0.00  0.00    -0.077 A 
ATOM      3  C2  UNL d   1      -1.427  -1.513   2.589  0.00  0.00    -0.001 A 
ATOM      4  C3  UNL d   1      -1.032  -1.119   1.310  0.00  0.00     0.003 A 
ATOM      5  C4  UNL d   1       0.194  -0.484   1.121  0.00  0.00    -0.005 A 
ATOM      6  C5  UNL d   1       1.027  -0.244   2.212  0.00  0.00     0.003 A 
ATOM      7  C6  UNL d   1       0.633  -0.638   3.492  0.00  0.00    -0.001 A 
ENDROOT
TORSDOF 0
ENDMDL
