MODEL 1
REMARK minimizedAffinity 4.33763885
REMARK minimizedRMSD -1
REMARK  0 active torsions:
REMARK  status: ('A' for Active; 'I' for Inactive)
ROOT
ATOM      1  C   UNL d   1       1.919   0.626   0.091  0.00  0.00     0.078 C 
ATOM      2  C1  UNL d   1       0.889  -0.211   0.789  0.00  0.00    -0.077 A 
ATOM      3  C2  UNL d   1       0.282  -1.295   0.143  0.00  0.00    -0.001 A 
ATOM      4  C3  UNL d   1      -0.682  -2.060   0.802  0.00  0.00     0.003 A 
ATOM      5  C4  UNL d   1      -1.048  -1.749   2.110  0.00  0.00    -0.005 A 
ATOM      6  C5  UNL d   1      -0.451  -0.671   2.760  0.00  0.00     0.003 A 
ATOM      7  C6  UNL d   1       0.513   0.095   2.103  0.00  0.00    -0.001 A 
ENDROOT
TORSDOF 0
ENDMDL
