MODEL 1
REMARK minimizedAffinity 3.02698517
REMARK minimizedRMSD -1
REMARK  0 active torsions:
REMARK  status: ('A' for Active; 'I' for Inactive)
ROOT
ATOM      1  C   UNL d   1       1.705  -5.992   4.174  0.00  0.00     0.078 C 
ATOM      2  C1  UNL d   1       3.185  -5.999   4.417  0.00  0.00    -0.077 A 
ATOM      3  C2  UNL d   1       3.702  -5.993   5.719  0.00  0.00    -0.001 A 
ATOM      4  C3  UNL d   1       5.081  -5.990   5.930  0.00  0.00     0.003 A 
ATOM      5  C4  UNL d   1       5.956  -5.992   4.846  0.00  0.00    -0.005 A 
ATOM      6  C5  UNL d   1       5.451  -5.996   3.547  0.00  0.00     0.003 A 
ATOM      7  C6  UNL d   1       4.071  -5.999   3.333  0.00  0.00    -0.001 A 
ENDROOT
TORSDOF 0
ENDMDL
