MODEL 1
REMARK minimizedAffinity 2.96789265
REMARK minimizedRMSD -1
REMARK  0 active torsions:
REMARK  status: ('A' for Active; 'I' for Inactive)
ROOT
ATOM      1  C   UNL d   1       3.156  -0.669   1.520  0.00  0.00     0.078 C 
ATOM      2  C1  UNL d   1       1.685  -0.957   1.486  0.00  0.00    -0.077 A 
ATOM      3  C2  UNL d   1       0.746   0.082   1.493  0.00  0.00    -0.001 A 
ATOM      4  C3  UNL d   1      -0.620  -0.200   1.471  0.00  0.00     0.003 A 
ATOM      5  C4  UNL d   1      -1.061  -1.522   1.443  0.00  0.00    -0.005 A 
ATOM      6  C5  UNL d   1      -0.135  -2.563   1.438  0.00  0.00     0.003 A 
ATOM      7  C6  UNL d   1       1.232  -2.282   1.460  0.00  0.00    -0.001 A 
ENDROOT
TORSDOF 0
ENDMDL
