MODEL 1
REMARK minimizedAffinity 9.98466969
REMARK minimizedRMSD -1
REMARK  0 active torsions:
REMARK  status: ('A' for Active; 'I' for Inactive)
ROOT
ATOM      1  C   UNL d   1      -1.107   5.999  -1.878  0.00  0.00     0.078 C 
ATOM      2  C1  UNL d   1      -1.055   4.835  -2.821  0.00  0.00    -0.077 A 
ATOM      3  C2  UNL d   1      -2.213   4.115  -3.143  0.00  0.00    -0.001 A 
ATOM      4  C3  UNL d   1      -2.149   3.027  -4.014  0.00  0.00     0.003 A 
ATOM      5  C4  UNL d   1      -0.929   2.648  -4.571  0.00  0.00    -0.005 A 
ATOM      6  C5  UNL d   1       0.228   3.356  -4.256  0.00  0.00     0.003 A 
ATOM      7  C6  UNL d   1       0.166   4.444  -3.384  0.00  0.00    -0.001 A 
ENDROOT
TORSDOF 0
ENDMDL
