MODEL 1
REMARK minimizedAffinity 10.5557432
REMARK minimizedRMSD -1
REMARK  1 active torsions:
REMARK  status: ('A' for Active; 'I' for Inactive)
REMARK    1  A    between atoms: C1_2  and  C2_3 
ROOT
ATOM      1  C2  UNL d   1       3.791   2.239   0.605  0.00  0.00    -0.073 A 
ATOM      2  C3  UNL d   1       3.339   2.054   1.916  0.00  0.00    -0.002 A 
ATOM      3  C4  UNL d   1       3.751   2.918   2.932  0.00  0.00     0.004 A 
ATOM      4  C5  UNL d   1       4.612   3.978   2.646  0.00  0.00    -0.004 A 
ATOM      5  C6  UNL d   1       5.065   4.186   1.339  0.00  0.00    -0.075 A 
ATOM      6  C7  UNL d   1       5.993   5.320   1.016  0.00  0.00     0.076 C 
ATOM      7  C8  UNL d   1       4.649   3.313   0.325  0.00  0.00     0.001 A 
ENDROOT
BRANCH   1   8
ATOM      8  C1  UNL d   1       3.344   1.313  -0.497  0.00  0.00     0.053 C 
ATOM      9  C   UNL d   1       2.995  -0.071   0.029  0.00  0.00     0.018 C 
ENDBRANCH   1   8
TORSDOF 1
ENDMDL
