MODEL 1
REMARK minimizedAffinity 17.1112862
REMARK minimizedRMSD -1
REMARK  1 active torsions:
REMARK  status: ('A' for Active; 'I' for Inactive)
REMARK    1  A    between atoms: C1_2  and  C2_3 
ROOT
ATOM      1  C2  UNL d   1      -5.817   3.944   3.219  0.00  0.00    -0.073 A 
ATOM      2  C3  UNL d   1      -5.934   5.331   3.077  0.00  0.00    -0.002 A 
ATOM      3  C4  UNL d   1      -5.998   5.907   1.808  0.00  0.00     0.004 A 
ATOM      4  C5  UNL d   1      -5.953   5.102   0.669  0.00  0.00    -0.004 A 
ATOM      5  C6  UNL d   1      -5.848   3.713   0.791  0.00  0.00    -0.075 A 
ATOM      6  C7  UNL d   1      -5.795   2.834  -0.424  0.00  0.00     0.076 C 
ATOM      7  C8  UNL d   1      -5.781   3.142   2.069  0.00  0.00     0.001 A 
ENDROOT
BRANCH   1   8
ATOM      8  C1  UNL d   1      -5.754   3.317   4.588  0.00  0.00     0.053 C 
ATOM      9  C   UNL d   1      -5.985   4.336   5.693  0.00  0.00     0.018 C 
ENDBRANCH   1   8
TORSDOF 1
ENDMDL
