MODEL 1
REMARK minimizedAffinity 9.1394701
REMARK minimizedRMSD -1
REMARK  1 active torsions:
REMARK  status: ('A' for Active; 'I' for Inactive)
REMARK    1  A    between atoms: C1_2  and  C2_3 
ROOT
ATOM      1  C2  UNL d   1      -4.501   3.798   1.748  0.00  0.00    -0.073 A 
ATOM      2  C3  UNL d   1      -5.774   3.813   2.330  0.00  0.00    -0.002 A 
ATOM      3  C4  UNL d   1      -5.998   4.514   3.516  0.00  0.00     0.004 A 
ATOM      4  C5  UNL d   1      -4.957   5.213   4.126  0.00  0.00    -0.004 A 
ATOM      5  C6  UNL d   1      -3.681   5.220   3.553  0.00  0.00    -0.075 A 
ATOM      6  C7  UNL d   1      -2.549   5.964   4.199  0.00  0.00     0.076 C 
ATOM      7  C8  UNL d   1      -3.463   4.511   2.364  0.00  0.00     0.001 A 
ENDROOT
BRANCH   1   8
ATOM      8  C1  UNL d   1      -4.256   3.048   0.464  0.00  0.00     0.053 C 
ATOM      9  C   UNL d   1      -3.898   1.592   0.715  0.00  0.00     0.018 C 
ENDBRANCH   1   8
TORSDOF 1
ENDMDL
