MODEL 1
REMARK minimizedAffinity 0.667174816
REMARK minimizedRMSD -1
REMARK  1 active torsions:
REMARK  status: ('A' for Active; 'I' for Inactive)
REMARK    1  A    between atoms: C1_2  and  C2_3 
ROOT
ATOM      1  C2  UNL d   1       3.227   0.833  -0.611  0.00  0.00    -0.073 A 
ATOM      2  C3  UNL d   1       3.906   0.690   0.604  0.00  0.00    -0.002 A 
ATOM      3  C4  UNL d   1       3.770  -0.480   1.353  0.00  0.00     0.004 A 
ATOM      4  C5  UNL d   1       2.961  -1.519   0.893  0.00  0.00    -0.004 A 
ATOM      5  C6  UNL d   1       2.284  -1.399  -0.325  0.00  0.00    -0.075 A 
ATOM      6  C7  UNL d   1       1.408  -2.506  -0.833  0.00  0.00     0.076 C 
ATOM      7  C8  UNL d   1       2.423  -0.220  -1.070  0.00  0.00     0.001 A 
ENDROOT
BRANCH   1   8
ATOM      8  C1  UNL d   1       3.376   2.092  -1.427  0.00  0.00     0.053 C 
ATOM      9  C   UNL d   1       4.820   2.343  -1.829  0.00  0.00     0.018 C 
ENDBRANCH   1   8
TORSDOF 1
ENDMDL
