MODEL 1
REMARK minimizedAffinity -3.11727881
REMARK minimizedRMSD -1
REMARK  0 active torsions:
REMARK  status: ('A' for Active; 'I' for Inactive)
ROOT
ATOM      1  C   UNL d   1      -0.955   1.621   2.553  0.00  0.00     0.078 C 
ATOM      2  C1  UNL d   1      -0.546   0.846   1.336  0.00  0.00    -0.077 A 
ATOM      3  C2  UNL d   1      -1.492   0.444   0.385  0.00  0.00    -0.001 A 
ATOM      4  C3  UNL d   1      -1.098  -0.285  -0.738  0.00  0.00     0.003 A 
ATOM      5  C4  UNL d   1       0.243  -0.620  -0.920  0.00  0.00    -0.005 A 
ATOM      6  C5  UNL d   1       1.191  -0.226   0.022  0.00  0.00     0.003 A 
ATOM      7  C6  UNL d   1       0.799   0.503   1.146  0.00  0.00    -0.001 A 
ENDROOT
TORSDOF 0
ENDMDL
