MODEL 1
REMARK minimizedAffinity -2.82663083
REMARK minimizedRMSD -1
REMARK  0 active torsions:
REMARK  status: ('A' for Active; 'I' for Inactive)
ROOT
ATOM      1  C   UNL d   1      -0.369   1.640   2.122  0.00  0.00     0.078 C 
ATOM      2  C1  UNL d   1       0.063   0.717   1.022  0.00  0.00    -0.077 A 
ATOM      3  C2  UNL d   1      -0.772   0.458  -0.071  0.00  0.00    -0.001 A 
ATOM      4  C3  UNL d   1      -0.361  -0.412  -1.083  0.00  0.00     0.003 A 
ATOM      5  C4  UNL d   1       0.886  -1.030  -1.011  0.00  0.00    -0.005 A 
ATOM      6  C5  UNL d   1       1.723  -0.780   0.075  0.00  0.00     0.003 A 
ATOM      7  C6  UNL d   1       1.313   0.089   1.088  0.00  0.00    -0.001 A 
ENDROOT
TORSDOF 0
ENDMDL
