MODEL 1
REMARK minimizedAffinity -4.04811668
REMARK minimizedRMSD -1
REMARK  0 active torsions:
REMARK  status: ('A' for Active; 'I' for Inactive)
ROOT
ATOM      1  C   UNL d   1      -0.375  -0.761  -0.976  0.00  0.00     0.078 C 
ATOM      2  C1  UNL d   1      -0.733   0.335  -0.017  0.00  0.00    -0.077 A 
ATOM      3  C2  UNL d   1      -0.815   1.667  -0.442  0.00  0.00    -0.001 A 
ATOM      4  C3  UNL d   1      -1.140   2.678   0.464  0.00  0.00     0.003 A 
ATOM      5  C4  UNL d   1      -1.386   2.368   1.800  0.00  0.00    -0.005 A 
ATOM      6  C5  UNL d   1      -1.305   1.046   2.232  0.00  0.00     0.003 A 
ATOM      7  C6  UNL d   1      -0.980   0.034   1.328  0.00  0.00    -0.001 A 
ENDROOT
TORSDOF 0
ENDMDL
