MODEL 1
REMARK minimizedAffinity -4.35789204
REMARK minimizedRMSD -1
REMARK  0 active torsions:
REMARK  status: ('A' for Active; 'I' for Inactive)
ROOT
ATOM      1  C   UNL d   1      -0.842   1.831   2.482  0.00  0.00     0.078 C 
ATOM      2  C1  UNL d   1      -0.607   0.839   1.383  0.00  0.00    -0.077 A 
ATOM      3  C2  UNL d   1       0.664   0.296   1.160  0.00  0.00    -0.001 A 
ATOM      4  C3  UNL d   1       0.870  -0.619   0.127  0.00  0.00     0.003 A 
ATOM      5  C4  UNL d   1      -0.191  -0.999  -0.693  0.00  0.00    -0.005 A 
ATOM      6  C5  UNL d   1      -1.459  -0.462  -0.481  0.00  0.00     0.003 A 
ATOM      7  C6  UNL d   1      -1.667   0.453   0.552  0.00  0.00    -0.001 A 
ENDROOT
TORSDOF 0
ENDMDL
