MODEL 1
REMARK minimizedAffinity -1.28603256
REMARK minimizedRMSD -1
REMARK  0 active torsions:
REMARK  status: ('A' for Active; 'I' for Inactive)
ROOT
ATOM      1  C   UNL d   1      -1.214   1.224   2.696  0.00  0.00     0.078 C 
ATOM      2  C1  UNL d   1      -0.576   0.562   1.511  0.00  0.00    -0.077 A 
ATOM      3  C2  UNL d   1      -1.249   0.469   0.287  0.00  0.00    -0.001 A 
ATOM      4  C3  UNL d   1      -0.647  -0.159  -0.804  0.00  0.00     0.003 A 
ATOM      5  C4  UNL d   1       0.631  -0.700  -0.682  0.00  0.00    -0.005 A 
ATOM      6  C5  UNL d   1       1.308  -0.615   0.533  0.00  0.00     0.003 A 
ATOM      7  C6  UNL d   1       0.707   0.013   1.625  0.00  0.00    -0.001 A 
ENDROOT
TORSDOF 0
ENDMDL
