MODEL 1
REMARK minimizedAffinity -3.49713206
REMARK minimizedRMSD -1
REMARK  0 active torsions:
REMARK  status: ('A' for Active; 'I' for Inactive)
ROOT
ATOM      1  C   UNL d   1       0.346   0.614  -1.135  0.00  0.00     0.078 C 
ATOM      2  C1  UNL d   1      -0.216   0.932   0.218  0.00  0.00    -0.077 A 
ATOM      3  C2  UNL d   1      -1.425   0.371   0.647  0.00  0.00    -0.001 A 
ATOM      4  C3  UNL d   1      -1.942   0.684   1.905  0.00  0.00     0.003 A 
ATOM      5  C4  UNL d   1      -1.256   1.559   2.745  0.00  0.00    -0.005 A 
ATOM      6  C5  UNL d   1      -0.053   2.124   2.327  0.00  0.00     0.003 A 
ATOM      7  C6  UNL d   1       0.465   1.812   1.069  0.00  0.00    -0.001 A 
ENDROOT
TORSDOF 0
ENDMDL
