MODEL 1
REMARK minimizedAffinity 12.7719593
REMARK minimizedRMSD -1
REMARK  0 active torsions:
REMARK  status: ('A' for Active; 'I' for Inactive)
ROOT
ATOM      1  C   UNL d   1      -1.183   0.940   1.356  0.00  0.00     0.023 A 
ATOM      2  C1  UNL d   1      -0.243   0.330   2.187  0.00  0.00     0.003 A 
ATOM      3  C2  UNL d   1       1.029   0.025   1.698  0.00  0.00     0.048 A 
ATOM      4  C3  UNL d   1       1.354   0.334   0.378  0.00  0.00     0.023 A 
ATOM      5  C4  UNL d   1       0.417   0.945  -0.457  0.00  0.00     0.048 A 
ATOM      6  C5  UNL d   1      -0.854   1.247   0.036  0.00  0.00     0.003 A 
ATOM      7  I   UNL d   1       3.247  -0.118  -0.352  0.00  0.00    -0.146 I 
ENDROOT
TORSDOF 0
ENDMDL
