MODEL 1
REMARK minimizedAffinity 4.33700895
REMARK minimizedRMSD -1
REMARK  0 active torsions:
REMARK  status: ('A' for Active; 'I' for Inactive)
ROOT
ATOM      1  C   UNL d   1       4.227  -0.172  -0.740  0.00  0.00     0.023 A 
ATOM      2  C1  UNL d   1       3.306   0.843  -0.480  0.00  0.00     0.003 A 
ATOM      3  C2  UNL d   1       3.730   2.172  -0.418  0.00  0.00     0.048 A 
ATOM      4  C3  UNL d   1       5.075   2.479  -0.619  0.00  0.00     0.023 A 
ATOM      5  C4  UNL d   1       6.000   1.466  -0.881  0.00  0.00     0.048 A 
ATOM      6  C5  UNL d   1       5.572   0.139  -0.940  0.00  0.00     0.003 A 
ATOM      7  I   UNL d   1       5.708   4.457  -0.529  0.00  0.00    -0.146 I 
ENDROOT
TORSDOF 0
ENDMDL
