MODEL 1
REMARK minimizedAffinity 8.62605286
REMARK minimizedRMSD -1
REMARK  0 active torsions:
REMARK  status: ('A' for Active; 'I' for Inactive)
ROOT
ATOM      1  C   UNL d   1       3.606  -0.491  -0.901  0.00  0.00     0.023 A 
ATOM      2  C1  UNL d   1       3.941   0.653  -0.177  0.00  0.00     0.003 A 
ATOM      3  C2  UNL d   1       2.962   1.332   0.551  0.00  0.00     0.048 A 
ATOM      4  C3  UNL d   1       1.650   0.861   0.551  0.00  0.00     0.023 A 
ATOM      5  C4  UNL d   1       1.310  -0.284  -0.171  0.00  0.00     0.048 A 
ATOM      6  C5  UNL d   1       2.292  -0.959  -0.898  0.00  0.00     0.003 A 
ATOM      7  I   UNL d   1       0.191   1.869   1.635  0.00  0.00    -0.146 I 
ENDROOT
TORSDOF 0
ENDMDL
