MODEL 1
REMARK minimizedAffinity 13.1303825
REMARK minimizedRMSD -1
REMARK  0 active torsions:
REMARK  status: ('A' for Active; 'I' for Inactive)
ROOT
ATOM      1  C   UNL d   1      -0.825   0.946   1.235  0.00  0.00     0.023 A 
ATOM      2  C1  UNL d   1      -0.637   1.133  -0.135  0.00  0.00     0.003 A 
ATOM      3  C2  UNL d   1       0.621   0.922  -0.703  0.00  0.00     0.048 A 
ATOM      4  C3  UNL d   1       1.686   0.523   0.103  0.00  0.00     0.023 A 
ATOM      5  C4  UNL d   1       1.503   0.333   1.474  0.00  0.00     0.048 A 
ATOM      6  C5  UNL d   1       0.244   0.547   2.038  0.00  0.00     0.003 A 
ATOM      7  I   UNL d   1       3.559   0.208  -0.741  0.00  0.00    -0.146 I 
ENDROOT
TORSDOF 0
ENDMDL
