MODEL 1
REMARK minimizedAffinity 16.445219
REMARK minimizedRMSD -1
REMARK  0 active torsions:
REMARK  status: ('A' for Active; 'I' for Inactive)
ROOT
ATOM      1  C   UNL d   1      -0.297   1.640   1.263  0.00  0.00     0.023 A 
ATOM      2  C1  UNL d   1      -0.263   1.522  -0.126  0.00  0.00     0.003 A 
ATOM      3  C2  UNL d   1       0.829   0.913  -0.750  0.00  0.00     0.048 A 
ATOM      4  C3  UNL d   1       1.882   0.425   0.022  0.00  0.00     0.023 A 
ATOM      5  C4  UNL d   1       1.852   0.540   1.413  0.00  0.00     0.048 A 
ATOM      6  C5  UNL d   1       0.759   1.150   2.032  0.00  0.00     0.003 A 
ATOM      7  I   UNL d   1       3.507  -0.482  -0.904  0.00  0.00    -0.146 I 
ENDROOT
TORSDOF 0
ENDMDL
