MODEL 1
REMARK minimizedAffinity 4.11006641
REMARK minimizedRMSD -1
REMARK  0 active torsions:
REMARK  status: ('A' for Active; 'I' for Inactive)
ROOT
ATOM      1  C   UNL d   1      -3.290   1.522  -4.948  0.00  0.00     0.023 A 
ATOM      2  C1  UNL d   1      -4.523   2.043  -4.555  0.00  0.00     0.003 A 
ATOM      3  C2  UNL d   1      -4.969   1.872  -3.243  0.00  0.00     0.048 A 
ATOM      4  C3  UNL d   1      -4.176   1.180  -2.328  0.00  0.00     0.023 A 
ATOM      5  C4  UNL d   1      -2.941   0.658  -2.716  0.00  0.00     0.048 A 
ATOM      6  C5  UNL d   1      -2.500   0.831  -4.029  0.00  0.00     0.003 A 
ATOM      7  I   UNL d   1      -4.838   0.925  -0.374  0.00  0.00    -0.146 I 
ENDROOT
TORSDOF 0
ENDMDL
