MODEL 1
REMARK minimizedAffinity 11.1494246
REMARK minimizedRMSD -1
REMARK  0 active torsions:
REMARK  status: ('A' for Active; 'I' for Inactive)
ROOT
ATOM      1  C   UNL d   1       5.932   1.169   0.729  0.00  0.00     0.023 A 
ATOM      2  C1  UNL d   1       5.907   2.275   1.578  0.00  0.00     0.003 A 
ATOM      3  C2  UNL d   1       5.924   3.566   1.046  0.00  0.00     0.048 A 
ATOM      4  C3  UNL d   1       5.966   3.744  -0.336  0.00  0.00     0.023 A 
ATOM      5  C4  UNL d   1       5.991   2.640  -1.190  0.00  0.00     0.048 A 
ATOM      6  C5  UNL d   1       5.974   1.351  -0.653  0.00  0.00     0.003 A 
ATOM      7  I   UNL d   1       5.992   5.665  -1.130  0.00  0.00    -0.146 I 
ENDROOT
TORSDOF 0
ENDMDL
