MODEL 1
REMARK minimizedAffinity 9.70181847
REMARK minimizedRMSD -1
REMARK  0 active torsions:
REMARK  status: ('A' for Active; 'I' for Inactive)
ROOT
ATOM      1  C   UNL d   1       6.000   0.282  -0.382  0.00  0.00     0.023 A 
ATOM      2  C1  UNL d   1       5.229  -0.827  -0.032  0.00  0.00     0.003 A 
ATOM      3  C2  UNL d   1       3.836  -0.735  -0.019  0.00  0.00     0.048 A 
ATOM      4  C3  UNL d   1       3.220   0.469  -0.359  0.00  0.00     0.023 A 
ATOM      5  C4  UNL d   1       3.987   1.581  -0.711  0.00  0.00     0.048 A 
ATOM      6  C5  UNL d   1       5.379   1.484  -0.721  0.00  0.00     0.003 A 
ATOM      7  I   UNL d   1       1.146   0.609  -0.341  0.00  0.00    -0.146 I 
ENDROOT
TORSDOF 0
ENDMDL
