MODEL 1
REMARK minimizedAffinity 14.1968546
REMARK minimizedRMSD -1
REMARK  0 active torsions:
REMARK  status: ('A' for Active; 'I' for Inactive)
ROOT
ATOM      1  C   UNL d   1       2.250  -2.025  -0.864  0.00  0.00     0.023 A 
ATOM      2  C1  UNL d   1       1.289  -1.993  -1.875  0.00  0.00     0.003 A 
ATOM      3  C2  UNL d   1       0.321  -2.996  -1.952  0.00  0.00     0.048 A 
ATOM      4  C3  UNL d   1       0.317  -4.027  -1.014  0.00  0.00     0.023 A 
ATOM      5  C4  UNL d   1       1.276  -4.063   0.000  0.00  0.00     0.048 A 
ATOM      6  C5  UNL d   1       2.243  -3.059   0.072  0.00  0.00     0.003 A 
ATOM      7  I   UNL d   1      -1.124  -5.521  -1.126  0.00  0.00    -0.146 I 
ENDROOT
TORSDOF 0
ENDMDL
