MODEL 1
REMARK minimizedAffinity 8.6906662
REMARK minimizedRMSD -1
REMARK  0 active torsions:
REMARK  status: ('A' for Active; 'I' for Inactive)
ROOT
ATOM      1  C   UNL d   1      -1.928  -0.016  -3.754  0.00  0.00     0.023 A 
ATOM      2  C1  UNL d   1      -2.273   0.772  -4.853  0.00  0.00     0.003 A 
ATOM      3  C2  UNL d   1      -3.442   1.536  -4.825  0.00  0.00     0.048 A 
ATOM      4  C3  UNL d   1      -4.259   1.509  -3.696  0.00  0.00     0.023 A 
ATOM      5  C4  UNL d   1      -3.917   0.723  -2.594  0.00  0.00     0.048 A 
ATOM      6  C5  UNL d   1      -2.748  -0.040  -2.627  0.00  0.00     0.003 A 
ATOM      7  I   UNL d   1      -5.998   2.646  -3.652  0.00  0.00    -0.146 I 
ENDROOT
TORSDOF 0
ENDMDL
