MODEL 1
REMARK minimizedAffinity 12.2605228
REMARK minimizedRMSD -1
REMARK  0 active torsions:
REMARK  status: ('A' for Active; 'I' for Inactive)
ROOT
ATOM      1  C   UNL d   1       2.512   6.000  -4.202  0.00  0.00     0.020 A 
ATOM      2  C1  UNL d   1       2.399   5.710  -5.561  0.00  0.00     0.020 A 
ATOM      3  C2  UNL d   1       2.461   4.386  -6.000  0.00  0.00     0.034 A 
ATOM      4  C3  UNL d   1       2.638   3.347  -5.079  0.00  0.00     0.017 A 
ATOM      5  C4  UNL d   1       2.751   3.639  -3.715  0.00  0.00     0.017 A 
ATOM      6  C5  UNL d   1       2.688   4.966  -3.281  0.00  0.00     0.034 A 
ATOM      7 Cl   UNL d   1       2.971   2.410  -2.519  0.00  0.00    -0.070 Cl
ATOM      8 Cl1  UNL d   1       2.706   1.733  -5.692  0.00  0.00    -0.070 Cl
ENDROOT
TORSDOF 0
ENDMDL
