MODEL 1
REMARK minimizedAffinity 0.155641705
REMARK minimizedRMSD -1
REMARK  0 active torsions:
REMARK  status: ('A' for Active; 'I' for Inactive)
ROOT
ATOM      1  C   UNL d   1      -2.084  -1.859  -3.006  0.00  0.00     0.020 A 
ATOM      2  C1  UNL d   1      -1.599  -3.056  -3.532  0.00  0.00     0.020 A 
ATOM      3  C2  UNL d   1      -0.824  -3.904  -2.737  0.00  0.00     0.034 A 
ATOM      4  C3  UNL d   1      -0.532  -3.556  -1.414  0.00  0.00     0.017 A 
ATOM      5  C4  UNL d   1      -1.019  -2.355  -0.887  0.00  0.00     0.017 A 
ATOM      6  C5  UNL d   1      -1.794  -1.509  -1.687  0.00  0.00     0.034 A 
ATOM      7 Cl   UNL d   1      -0.700  -1.858   0.737  0.00  0.00    -0.070 Cl
ATOM      8 Cl1  UNL d   1       0.432  -4.653  -0.489  0.00  0.00    -0.070 Cl
ENDROOT
TORSDOF 0
ENDMDL
