MODEL 1
REMARK minimizedAffinity 7.08784962
REMARK minimizedRMSD -1
REMARK  0 active torsions:
REMARK  status: ('A' for Active; 'I' for Inactive)
ROOT
ATOM      1  C   UNL d   1      -2.916  -2.877  -5.999  0.00  0.00     0.020 A 
ATOM      2  C1  UNL d   1      -1.595  -2.518  -5.735  0.00  0.00     0.020 A 
ATOM      3  C2  UNL d   1      -1.110  -2.555  -4.426  0.00  0.00     0.034 A 
ATOM      4  C3  UNL d   1      -1.945  -2.951  -3.376  0.00  0.00     0.017 A 
ATOM      5  C4  UNL d   1      -3.272  -3.312  -3.642  0.00  0.00     0.017 A 
ATOM      6  C5  UNL d   1      -3.753  -3.273  -4.954  0.00  0.00     0.034 A 
ATOM      7 Cl   UNL d   1      -4.363  -3.812  -2.398  0.00  0.00    -0.070 Cl
ATOM      8 Cl1  UNL d   1      -1.278  -2.974  -1.783  0.00  0.00    -0.070 Cl
ENDROOT
TORSDOF 0
ENDMDL
