MODEL 1
REMARK minimizedAffinity 5.76503277
REMARK minimizedRMSD -1
REMARK  0 active torsions:
REMARK  status: ('A' for Active; 'I' for Inactive)
ROOT
ATOM      1  C   UNL d   1      -2.540  -1.825  -1.599  0.00  0.00     0.020 A 
ATOM      2  C1  UNL d   1      -1.842  -2.727  -2.402  0.00  0.00     0.020 A 
ATOM      3  C2  UNL d   1      -0.988  -3.665  -1.818  0.00  0.00     0.034 A 
ATOM      4  C3  UNL d   1      -0.828  -3.702  -0.428  0.00  0.00     0.017 A 
ATOM      5  C4  UNL d   1      -1.529  -2.796   0.377  0.00  0.00     0.017 A 
ATOM      6  C5  UNL d   1      -2.383  -1.859  -0.213  0.00  0.00     0.034 A 
ATOM      7 Cl   UNL d   1      -1.384  -2.780   2.099  0.00  0.00    -0.070 Cl
ATOM      8 Cl1  UNL d   1       0.245  -4.888   0.227  0.00  0.00    -0.070 Cl
ENDROOT
TORSDOF 0
ENDMDL
