MODEL 1
REMARK minimizedAffinity -0.718618274
REMARK minimizedRMSD -1
REMARK  0 active torsions:
REMARK  status: ('A' for Active; 'I' for Inactive)
ROOT
ATOM      1  C   UNL d   1       3.900  -2.375  -5.361  0.00  0.00     0.020 A 
ATOM      2  C1  UNL d   1       5.285  -2.280  -5.235  0.00  0.00     0.020 A 
ATOM      3  C2  UNL d   1       5.912  -1.037  -5.344  0.00  0.00     0.034 A 
ATOM      4  C3  UNL d   1       5.154   0.115  -5.580  0.00  0.00     0.017 A 
ATOM      5  C4  UNL d   1       3.764   0.019  -5.707  0.00  0.00     0.017 A 
ATOM      6  C5  UNL d   1       3.141  -1.228  -5.597  0.00  0.00     0.034 A 
ATOM      7 Cl   UNL d   1       2.762   1.396  -5.999  0.00  0.00    -0.070 Cl
ATOM      8 Cl1  UNL d   1       5.996   1.619  -5.704  0.00  0.00    -0.070 Cl
ENDROOT
TORSDOF 0
ENDMDL
