MODEL 1
REMARK minimizedAffinity 7.4207077
REMARK minimizedRMSD -1
REMARK  0 active torsions:
REMARK  status: ('A' for Active; 'I' for Inactive)
ROOT
ATOM      1  C   UNL d   1      -0.656  -1.128   4.484  0.00  0.00     0.020 A 
ATOM      2  C1  UNL d   1      -1.765  -1.788   3.957  0.00  0.00     0.020 A 
ATOM      3  C2  UNL d   1      -1.937  -1.870   2.574  0.00  0.00     0.034 A 
ATOM      4  C3  UNL d   1      -0.997  -1.293   1.712  0.00  0.00     0.017 A 
ATOM      5  C4  UNL d   1       0.117  -0.631   2.242  0.00  0.00     0.017 A 
ATOM      6  C5  UNL d   1       0.283  -0.551   3.628  0.00  0.00     0.034 A 
ATOM      7 Cl   UNL d   1       1.319   0.107   1.243  0.00  0.00    -0.070 Cl
ATOM      8 Cl1  UNL d   1      -1.272  -1.433   0.012  0.00  0.00    -0.070 Cl
ENDROOT
TORSDOF 0
ENDMDL
