MODEL 1
REMARK minimizedAffinity 7.31529474
REMARK minimizedRMSD -1
REMARK  0 active torsions:
REMARK  status: ('A' for Active; 'I' for Inactive)
ROOT
ATOM      1  C   UNL d   1       3.361   5.678  -5.422  0.00  0.00     0.020 A 
ATOM      2  C1  UNL d   1       3.220   5.999  -4.072  0.00  0.00     0.020 A 
ATOM      3  C2  UNL d   1       2.267   5.338  -3.294  0.00  0.00     0.034 A 
ATOM      4  C3  UNL d   1       1.451   4.354  -3.864  0.00  0.00     0.017 A 
ATOM      5  C4  UNL d   1       1.594   4.033  -5.219  0.00  0.00     0.017 A 
ATOM      6  C5  UNL d   1       2.550   4.698  -5.994  0.00  0.00     0.034 A 
ATOM      7 Cl   UNL d   1       0.624   2.831  -5.994  0.00  0.00    -0.070 Cl
ATOM      8 Cl1  UNL d   1       0.294   3.578  -2.843  0.00  0.00    -0.070 Cl
ENDROOT
TORSDOF 0
ENDMDL
