MODEL 1
REMARK minimizedAffinity 7.48130035
REMARK minimizedRMSD -1
REMARK  0 active torsions:
REMARK  status: ('A' for Active; 'I' for Inactive)
ROOT
ATOM      1  C   UNL d   1       2.163   3.416   1.455  0.00  0.00     0.020 A 
ATOM      2  C1  UNL d   1       1.237   4.424   1.187  0.00  0.00     0.020 A 
ATOM      3  C2  UNL d   1      -0.083   4.292   1.623  0.00  0.00     0.034 A 
ATOM      4  C3  UNL d   1      -0.481   3.151   2.328  0.00  0.00     0.017 A 
ATOM      5  C4  UNL d   1       0.449   2.140   2.596  0.00  0.00     0.017 A 
ATOM      6  C5  UNL d   1       1.770   2.277   2.158  0.00  0.00     0.034 A 
ATOM      7 Cl   UNL d   1       0.032   0.703   3.461  0.00  0.00    -0.070 Cl
ATOM      8 Cl1  UNL d   1      -2.130   3.056   2.837  0.00  0.00    -0.070 Cl
ENDROOT
TORSDOF 0
ENDMDL
