MODEL 1
REMARK minimizedAffinity 3.35454011
REMARK minimizedRMSD -1
REMARK  0 active torsions:
REMARK  status: ('A' for Active; 'I' for Inactive)
ROOT
ATOM      1  C   UNL d   1       3.423   0.834   0.771  0.00  0.00     0.020 A 
ATOM      2  C1  UNL d   1       3.338   1.895  -0.130  0.00  0.00     0.020 A 
ATOM      3  C2  UNL d   1       2.452   2.947   0.112  0.00  0.00     0.034 A 
ATOM      4  C3  UNL d   1       1.649   2.941   1.258  0.00  0.00     0.017 A 
ATOM      5  C4  UNL d   1       1.735   1.876   2.162  0.00  0.00     0.017 A 
ATOM      6  C5  UNL d   1       2.623   0.825   1.914  0.00  0.00     0.034 A 
ATOM      7 Cl   UNL d   1       0.776   1.799   3.597  0.00  0.00    -0.070 Cl
ATOM      8 Cl1  UNL d   1       0.577   4.276   1.494  0.00  0.00    -0.070 Cl
ENDROOT
TORSDOF 0
ENDMDL
