MODEL 1
REMARK minimizedAffinity 5.64615059
REMARK minimizedRMSD -1
REMARK  0 active torsions:
REMARK  status: ('A' for Active; 'I' for Inactive)
ROOT
ATOM      1  C   UNL d   1       2.884   5.999  -5.322  0.00  0.00     0.020 A 
ATOM      2  C1  UNL d   1       4.095   5.308  -5.317  0.00  0.00     0.020 A 
ATOM      3  C2  UNL d   1       4.112   3.927  -5.524  0.00  0.00     0.034 A 
ATOM      4  C3  UNL d   1       2.915   3.233  -5.736  0.00  0.00     0.017 A 
ATOM      5  C4  UNL d   1       1.700   3.927  -5.741  0.00  0.00     0.017 A 
ATOM      6  C5  UNL d   1       1.689   5.310  -5.533  0.00  0.00     0.034 A 
ATOM      7 Cl   UNL d   1       0.183   3.139  -5.996  0.00  0.00    -0.070 Cl
ATOM      8 Cl1  UNL d   1       3.011   1.525  -5.986  0.00  0.00    -0.070 Cl
ENDROOT
TORSDOF 0
ENDMDL
