MODEL 1
REMARK minimizedAffinity 5.24028969
REMARK minimizedRMSD -1
REMARK  0 active torsions:
REMARK  status: ('A' for Active; 'I' for Inactive)
ROOT
ATOM      1  C   UNL d   1       3.251   6.000  -5.742  0.00  0.00     0.020 A 
ATOM      2  C1  UNL d   1       1.882   5.951  -6.000  0.00  0.00     0.020 A 
ATOM      3  C2  UNL d   1       1.037   5.234  -5.150  0.00  0.00     0.034 A 
ATOM      4  C3  UNL d   1       1.560   4.563  -4.039  0.00  0.00     0.017 A 
ATOM      5  C4  UNL d   1       2.935   4.612  -3.782  0.00  0.00     0.017 A 
ATOM      6  C5  UNL d   1       3.777   5.332  -4.635  0.00  0.00     0.034 A 
ATOM      7 Cl   UNL d   1       3.654   3.809  -2.431  0.00  0.00    -0.070 Cl
ATOM      8 Cl1  UNL d   1       0.457   3.695  -3.031  0.00  0.00    -0.070 Cl
ENDROOT
TORSDOF 0
ENDMDL
