MODEL 1
REMARK minimizedAffinity 8.58238506
REMARK minimizedRMSD -1
REMARK  0 active torsions:
REMARK  status: ('A' for Active; 'I' for Inactive)
ROOT
ATOM      1  C   UNL d   1       2.815  -2.850  -5.262  0.00  0.00     0.020 A 
ATOM      2  C1  UNL d   1       3.892  -3.124  -4.420  0.00  0.00     0.020 A 
ATOM      3  C2  UNL d   1       4.701  -2.083  -3.959  0.00  0.00     0.034 A 
ATOM      4  C3  UNL d   1       4.434  -0.763  -4.340  0.00  0.00     0.017 A 
ATOM      5  C4  UNL d   1       3.353  -0.489  -5.186  0.00  0.00     0.017 A 
ATOM      6  C5  UNL d   1       2.547  -1.535  -5.644  0.00  0.00     0.034 A 
ATOM      7 Cl   UNL d   1       2.962   1.115  -5.699  0.00  0.00    -0.070 Cl
ATOM      8 Cl1  UNL d   1       5.476   0.475  -3.732  0.00  0.00    -0.070 Cl
ENDROOT
TORSDOF 0
ENDMDL
