MODEL 1
REMARK minimizedAffinity 12.1282368
REMARK minimizedRMSD -1
REMARK  0 active torsions:
REMARK  status: ('A' for Active; 'I' for Inactive)
ROOT
ATOM      1  C   UNL d   1      -1.220   4.355   2.029  0.00  0.00     0.020 A 
ATOM      2  C1  UNL d   1      -1.485   3.173   2.721  0.00  0.00     0.020 A 
ATOM      3  C2  UNL d   1      -0.508   2.178   2.803  0.00  0.00     0.034 A 
ATOM      4  C3  UNL d   1       0.738   2.363   2.192  0.00  0.00     0.017 A 
ATOM      5  C4  UNL d   1       1.002   3.549   1.498  0.00  0.00     0.017 A 
ATOM      6  C5  UNL d   1       0.021   4.542   1.419  0.00  0.00     0.034 A 
ATOM      7 Cl   UNL d   1       2.516   3.850   0.719  0.00  0.00    -0.070 Cl
ATOM      8 Cl1  UNL d   1       1.899   1.091   2.333  0.00  0.00    -0.070 Cl
ENDROOT
TORSDOF 0
ENDMDL
