MODEL 1
REMARK minimizedAffinity 11.2990885
REMARK minimizedRMSD -1
REMARK  0 active torsions:
REMARK  status: ('A' for Active; 'I' for Inactive)
ROOT
ATOM      1  C   UNL d   1      -0.059   0.831   3.489  0.00  0.00     0.020 A 
ATOM      2  C1  UNL d   1      -0.448   0.211   4.675  0.00  0.00     0.020 A 
ATOM      3  C2  UNL d   1      -1.154  -0.993   4.635  0.00  0.00     0.034 A 
ATOM      4  C3  UNL d   1      -1.473  -1.581   3.406  0.00  0.00     0.017 A 
ATOM      5  C4  UNL d   1      -1.082  -0.958   2.215  0.00  0.00     0.017 A 
ATOM      6  C5  UNL d   1      -0.376   0.248   2.261  0.00  0.00     0.034 A 
ATOM      7 Cl   UNL d   1      -1.439  -1.623   0.660  0.00  0.00    -0.070 Cl
ATOM      8 Cl1  UNL d   1      -2.348  -3.071   3.431  0.00  0.00    -0.070 Cl
ENDROOT
TORSDOF 0
ENDMDL
