MODEL 1
REMARK minimizedAffinity 8.17883682
REMARK minimizedRMSD -1
REMARK  0 active torsions:
REMARK  status: ('A' for Active; 'I' for Inactive)
ROOT
ATOM      1  C   UNL d   1      -3.276  -1.501  -0.500  0.00  0.00     0.020 A 
ATOM      2  C1  UNL d   1      -2.398  -1.745  -1.555  0.00  0.00     0.020 A 
ATOM      3  C2  UNL d   1      -1.179  -2.382  -1.316  0.00  0.00     0.034 A 
ATOM      4  C3  UNL d   1      -0.833  -2.776  -0.018  0.00  0.00     0.017 A 
ATOM      5  C4  UNL d   1      -1.715  -2.531   1.040  0.00  0.00     0.017 A 
ATOM      6  C5  UNL d   1      -2.935  -1.893   0.795  0.00  0.00     0.034 A 
ATOM      7 Cl   UNL d   1      -1.359  -2.988   2.668  0.00  0.00    -0.070 Cl
ATOM      8 Cl1  UNL d   1       0.691  -3.559   0.204  0.00  0.00    -0.070 Cl
ENDROOT
TORSDOF 0
ENDMDL
