MODEL 1
REMARK minimizedAffinity 4.44697857
REMARK minimizedRMSD -1
REMARK  0 active torsions:
REMARK  status: ('A' for Active; 'I' for Inactive)
ROOT
ATOM      1  C   UNL d   1      -2.626  -3.035  -4.028  0.00  0.00     0.020 A 
ATOM      2  C1  UNL d   1      -3.770  -3.832  -3.986  0.00  0.00     0.020 A 
ATOM      3  C2  UNL d   1      -4.568  -3.847  -2.841  0.00  0.00     0.034 A 
ATOM      4  C3  UNL d   1      -4.225  -3.064  -1.733  0.00  0.00     0.017 A 
ATOM      5  C4  UNL d   1      -3.077  -2.264  -1.776  0.00  0.00     0.017 A 
ATOM      6  C5  UNL d   1      -2.281  -2.253  -2.926  0.00  0.00     0.034 A 
ATOM      7 Cl   UNL d   1      -2.589  -1.271  -0.449  0.00  0.00    -0.070 Cl
ATOM      8 Cl1  UNL d   1      -5.258  -3.131  -0.350  0.00  0.00    -0.070 Cl
ENDROOT
TORSDOF 0
ENDMDL
