MODEL 1
REMARK minimizedAffinity 5.5247674
REMARK minimizedRMSD -1
REMARK  0 active torsions:
REMARK  status: ('A' for Active; 'I' for Inactive)
ROOT
ATOM      1  C   UNL d   1       0.342   4.036  -5.977  0.00  0.00     0.020 A 
ATOM      2  C1  UNL d   1       0.506   5.421  -5.986  0.00  0.00     0.020 A 
ATOM      3  C2  UNL d   1       1.790   5.971  -5.992  0.00  0.00     0.034 A 
ATOM      4  C3  UNL d   1       2.914   5.137  -5.989  0.00  0.00     0.017 A 
ATOM      5  C4  UNL d   1       2.748   3.748  -5.980  0.00  0.00     0.017 A 
ATOM      6  C5  UNL d   1       1.461   3.201  -5.973  0.00  0.00     0.034 A 
ATOM      7 Cl   UNL d   1       4.086   2.654  -5.975  0.00  0.00    -0.070 Cl
ATOM      8 Cl1  UNL d   1       4.470   5.887  -5.997  0.00  0.00    -0.070 Cl
ENDROOT
TORSDOF 0
ENDMDL
