MODEL 1
REMARK minimizedAffinity 6.23027992
REMARK minimizedRMSD -1
REMARK  0 active torsions:
REMARK  status: ('A' for Active; 'I' for Inactive)
ROOT
ATOM      1  C   UNL d   1       2.118   5.998  -4.152  0.00  0.00     0.020 A 
ATOM      2  C1  UNL d   1       2.596   5.807  -5.448  0.00  0.00     0.020 A 
ATOM      3  C2  UNL d   1       2.625   4.524  -5.999  0.00  0.00     0.034 A 
ATOM      4  C3  UNL d   1       2.175   3.428  -5.255  0.00  0.00     0.017 A 
ATOM      5  C4  UNL d   1       1.696   3.621  -3.954  0.00  0.00     0.017 A 
ATOM      6  C5  UNL d   1       1.669   4.907  -3.407  0.00  0.00     0.034 A 
ATOM      7 Cl   UNL d   1       1.124   2.317  -2.974  0.00  0.00    -0.070 Cl
ATOM      8 Cl1  UNL d   1       2.240   1.870  -6.000  0.00  0.00    -0.070 Cl
ENDROOT
TORSDOF 0
ENDMDL
