MODEL 1
REMARK minimizedAffinity 8.52159405
REMARK minimizedRMSD -1
REMARK  0 active torsions:
REMARK  status: ('A' for Active; 'I' for Inactive)
ROOT
ATOM      1  C   UNL d   1      -2.690  -3.841  -6.000  0.00  0.00     0.020 A 
ATOM      2  C1  UNL d   1      -1.582  -3.060  -5.673  0.00  0.00     0.020 A 
ATOM      3  C2  UNL d   1      -1.459  -2.527  -4.388  0.00  0.00     0.034 A 
ATOM      4  C3  UNL d   1      -2.445  -2.773  -3.426  0.00  0.00     0.017 A 
ATOM      5  C4  UNL d   1      -3.556  -3.557  -3.755  0.00  0.00     0.017 A 
ATOM      6  C5  UNL d   1      -3.675  -4.089  -5.043  0.00  0.00     0.034 A 
ATOM      7 Cl   UNL d   1      -4.814  -3.905  -2.621  0.00  0.00    -0.070 Cl
ATOM      8 Cl1  UNL d   1      -2.227  -2.082  -1.857  0.00  0.00    -0.070 Cl
ENDROOT
TORSDOF 0
ENDMDL
