MODEL 1
REMARK minimizedAffinity 4.45441103
REMARK minimizedRMSD -1
REMARK  0 active torsions:
REMARK  status: ('A' for Active; 'I' for Inactive)
ROOT
ATOM      1  C   UNL d   1      -0.635   4.567  -1.389  0.00  0.00     0.020 A 
ATOM      2  C1  UNL d   1      -0.929   5.226  -0.196  0.00  0.00     0.020 A 
ATOM      3  C2  UNL d   1       0.022   5.277   0.826  0.00  0.00     0.034 A 
ATOM      4  C3  UNL d   1       1.271   4.668   0.657  0.00  0.00     0.017 A 
ATOM      5  C4  UNL d   1       1.564   4.007  -0.541  0.00  0.00     0.017 A 
ATOM      6  C5  UNL d   1       0.609   3.959  -1.561  0.00  0.00     0.034 A 
ATOM      7 Cl   UNL d   1       3.083   3.232  -0.823  0.00  0.00    -0.070 Cl
ATOM      8 Cl1  UNL d   1       2.398   4.772   1.962  0.00  0.00    -0.070 Cl
ENDROOT
TORSDOF 0
ENDMDL
