MODEL 1
REMARK minimizedAffinity 11.2097054
REMARK minimizedRMSD -1
REMARK  2 active torsions:
REMARK  status: ('A' for Active; 'I' for Inactive)
REMARK    1  A    between atoms: C1_2  and  C2_3 
REMARK    2  A    between atoms: C2_3  and  C3_4 
ROOT
ATOM      1  C3  UNL d   1      -0.373   2.136   3.797  0.00  0.00    -0.075 A 
ATOM      2  C4  UNL d   1       0.607   1.132   3.801  0.00  0.00     0.002 A 
ATOM      3  C5  UNL d   1       1.453   0.973   4.899  0.00  0.00     0.002 A 
ATOM      4  C6  UNL d   1       1.338   1.819   6.000  0.00  0.00    -0.004 A 
ATOM      5  C7  UNL d   1       0.380   2.830   5.999  0.00  0.00     0.002 A 
ATOM      6  C8  UNL d   1      -0.471   2.989   4.904  0.00  0.00     0.002 A 
ENDROOT
BRANCH   1   7
ATOM      7  C2  UNL d   1      -1.311   2.295   2.625  0.00  0.00     0.056 C 
BRANCH   7   8
ATOM      8  C1  UNL d   1      -2.269   1.115   2.429  0.00  0.00     0.007 C 
ATOM      9  C   UNL d   1      -3.448   1.132   3.393  0.00  0.00     0.009 C 
ENDBRANCH   7   8
ENDBRANCH   1   7
TORSDOF 2
ENDMDL
