MODEL 1
REMARK minimizedAffinity 7.89841747
REMARK minimizedRMSD -1
REMARK  2 active torsions:
REMARK  status: ('A' for Active; 'I' for Inactive)
REMARK    1  A    between atoms: C1_2  and  C2_3 
REMARK    2  A    between atoms: C2_3  and  C3_4 
ROOT
ATOM      1  C3  UNL d   1      -4.166  -0.253   3.262  0.00  0.00    -0.075 A 
ATOM      2  C4  UNL d   1      -5.123  -0.602   2.298  0.00  0.00     0.002 A 
ATOM      3  C5  UNL d   1      -5.566  -1.920   2.184  0.00  0.00     0.002 A 
ATOM      4  C6  UNL d   1      -5.053  -2.905   3.024  0.00  0.00    -0.004 A 
ATOM      5  C7  UNL d   1      -4.089  -2.574   3.974  0.00  0.00     0.002 A 
ATOM      6  C8  UNL d   1      -3.647  -1.255   4.093  0.00  0.00     0.002 A 
ENDROOT
BRANCH   1   7
ATOM      7  C2  UNL d   1      -3.704   1.177   3.410  0.00  0.00     0.056 C 
BRANCH   7   8
ATOM      8  C1  UNL d   1      -2.491   1.533   2.543  0.00  0.00     0.007 C 
ATOM      9  C   UNL d   1      -1.560   0.353   2.300  0.00  0.00     0.009 C 
ENDBRANCH   7   8
ENDBRANCH   1   7
TORSDOF 2
ENDMDL
