MODEL 1
REMARK minimizedAffinity 9.45556927
REMARK minimizedRMSD -1
REMARK  2 active torsions:
REMARK  status: ('A' for Active; 'I' for Inactive)
REMARK    1  A    between atoms: C1_2  and  C2_3 
REMARK    2  A    between atoms: C2_3  and  C3_4 
ROOT
ATOM      1  C3  UNL d   1      -3.122  -4.096  -4.306  0.00  0.00    -0.075 A 
ATOM      2  C4  UNL d   1      -3.592  -2.776  -4.345  0.00  0.00     0.002 A 
ATOM      3  C5  UNL d   1      -4.650  -2.425  -5.184  0.00  0.00     0.002 A 
ATOM      4  C6  UNL d   1      -5.244  -3.385  -6.000  0.00  0.00    -0.004 A 
ATOM      5  C7  UNL d   1      -4.774  -4.697  -5.981  0.00  0.00     0.002 A 
ATOM      6  C8  UNL d   1      -3.719  -5.051  -5.140  0.00  0.00     0.002 A 
ENDROOT
BRANCH   1   7
ATOM      7  C2  UNL d   1      -1.997  -4.489  -3.378  0.00  0.00     0.056 C 
BRANCH   7   8
ATOM      8  C1  UNL d   1      -2.266  -5.767  -2.578  0.00  0.00     0.007 C 
ATOM      9  C   UNL d   1      -3.025  -5.516  -1.281  0.00  0.00     0.009 C 
ENDBRANCH   7   8
ENDBRANCH   1   7
TORSDOF 2
ENDMDL
