MODEL 1
REMARK minimizedAffinity 10.350626
REMARK minimizedRMSD -1
REMARK  2 active torsions:
REMARK  status: ('A' for Active; 'I' for Inactive)
REMARK    1  A    between atoms: C1_2  and  C2_3 
REMARK    2  A    between atoms: C2_3  and  C3_4 
ROOT
ATOM      1  C3  UNL d   1      -1.444  -1.929  -3.168  0.00  0.00    -0.075 A 
ATOM      2  C4  UNL d   1      -2.723  -2.322  -3.588  0.00  0.00     0.002 A 
ATOM      3  C5  UNL d   1      -3.110  -3.661  -3.520  0.00  0.00     0.002 A 
ATOM      4  C6  UNL d   1      -2.223  -4.623  -3.043  0.00  0.00    -0.004 A 
ATOM      5  C7  UNL d   1      -0.944  -4.246  -2.638  0.00  0.00     0.002 A 
ATOM      6  C8  UNL d   1      -0.555  -2.906  -2.701  0.00  0.00     0.002 A 
ENDROOT
BRANCH   1   7
ATOM      7  C2  UNL d   1      -1.029  -0.478  -3.211  0.00  0.00     0.056 C 
BRANCH   7   8
ATOM      8  C1  UNL d   1      -2.197   0.508  -3.107  0.00  0.00     0.007 C 
ATOM      9  C   UNL d   1      -1.927   1.835  -3.806  0.00  0.00     0.009 C 
ENDBRANCH   7   8
ENDBRANCH   1   7
TORSDOF 2
ENDMDL
