MODEL 1
REMARK minimizedAffinity 7.99230576
REMARK minimizedRMSD -1
REMARK  2 active torsions:
REMARK  status: ('A' for Active; 'I' for Inactive)
REMARK    1  A    between atoms: C1_2  and  C2_3 
REMARK    2  A    between atoms: C2_3  and  C3_4 
ROOT
ATOM      1  C3  UNL d   1      -3.553  -4.055  -4.080  0.00  0.00    -0.075 A 
ATOM      2  C4  UNL d   1      -3.320  -5.037  -3.106  0.00  0.00     0.002 A 
ATOM      3  C5  UNL d   1      -2.032  -5.258  -2.616  0.00  0.00     0.002 A 
ATOM      4  C6  UNL d   1      -0.962  -4.509  -3.101  0.00  0.00    -0.004 A 
ATOM      5  C7  UNL d   1      -1.179  -3.542  -4.080  0.00  0.00     0.002 A 
ATOM      6  C8  UNL d   1      -2.467  -3.316  -4.568  0.00  0.00     0.002 A 
ENDROOT
BRANCH   1   7
ATOM      7  C2  UNL d   1      -4.949  -3.791  -4.592  0.00  0.00     0.056 C 
BRANCH   7   8
ATOM      8  C1  UNL d   1      -5.210  -4.336  -6.000  0.00  0.00     0.007 C 
ATOM      9  C   UNL d   1      -5.794  -5.742  -6.000  0.00  0.00     0.009 C 
ENDBRANCH   7   8
ENDBRANCH   1   7
TORSDOF 2
ENDMDL
