MODEL 1
REMARK minimizedAffinity 13.7254009
REMARK minimizedRMSD -1
REMARK  2 active torsions:
REMARK  status: ('A' for Active; 'I' for Inactive)
REMARK    1  A    between atoms: C1_2  and  C2_3 
REMARK    2  A    between atoms: C2_3  and  C3_4 
ROOT
ATOM      1  C3  UNL d   1       2.873   0.017  -1.928  0.00  0.00    -0.075 A 
ATOM      2  C4  UNL d   1       3.496   1.274  -1.896  0.00  0.00     0.002 A 
ATOM      3  C5  UNL d   1       4.423   1.579  -0.898  0.00  0.00     0.002 A 
ATOM      4  C6  UNL d   1       4.730   0.638   0.083  0.00  0.00    -0.004 A 
ATOM      5  C7  UNL d   1       4.105  -0.607   0.069  0.00  0.00     0.002 A 
ATOM      6  C8  UNL d   1       3.181  -0.916  -0.930  0.00  0.00     0.002 A 
ENDROOT
BRANCH   1   7
ATOM      7  C2  UNL d   1       1.891  -0.330  -3.022  0.00  0.00     0.056 C 
BRANCH   7   8
ATOM      8  C1  UNL d   1       2.226   0.293  -4.381  0.00  0.00     0.007 C 
ATOM      9  C   UNL d   1       2.204  -0.713  -5.525  0.00  0.00     0.009 C 
ENDBRANCH   7   8
ENDBRANCH   1   7
TORSDOF 2
ENDMDL
