MODEL 1
REMARK minimizedAffinity 5.14011478
REMARK minimizedRMSD -1
REMARK  2 active torsions:
REMARK  status: ('A' for Active; 'I' for Inactive)
REMARK    1  A    between atoms: C1_2  and  C2_3 
REMARK    2  A    between atoms: C2_3  and  C3_4 
ROOT
ATOM      1  C3  UNL d   1       1.552   1.151  -0.032  0.00  0.00    -0.075 A 
ATOM      2  C4  UNL d   1       2.291   1.778  -1.046  0.00  0.00     0.002 A 
ATOM      3  C5  UNL d   1       2.720   1.055  -2.160  0.00  0.00     0.002 A 
ATOM      4  C6  UNL d   1       2.424  -0.301  -2.270  0.00  0.00    -0.004 A 
ATOM      5  C7  UNL d   1       1.704  -0.938  -1.262  0.00  0.00     0.002 A 
ATOM      6  C8  UNL d   1       1.270  -0.217  -0.148  0.00  0.00     0.002 A 
ENDROOT
BRANCH   1   7
ATOM      7  C2  UNL d   1       1.060   1.933   1.162  0.00  0.00     0.056 C 
BRANCH   7   8
ATOM      8  C1  UNL d   1       0.348   1.080   2.217  0.00  0.00     0.007 C 
ATOM      9  C   UNL d   1      -0.763   1.827   2.944  0.00  0.00     0.009 C 
ENDBRANCH   7   8
ENDBRANCH   1   7
TORSDOF 2
ENDMDL
