MODEL 1
REMARK minimizedAffinity 14.8812952
REMARK minimizedRMSD -1
REMARK  2 active torsions:
REMARK  status: ('A' for Active; 'I' for Inactive)
REMARK    1  A    between atoms: C1_2  and  C2_3 
REMARK    2  A    between atoms: C2_3  and  C3_4 
ROOT
ATOM      1  C3  UNL d   1      -0.802  -2.683  -2.984  0.00  0.00    -0.075 A 
ATOM      2  C4  UNL d   1      -0.399  -3.814  -2.260  0.00  0.00     0.002 A 
ATOM      3  C5  UNL d   1      -1.317  -4.816  -1.941  0.00  0.00     0.002 A 
ATOM      4  C6  UNL d   1      -2.648  -4.694  -2.332  0.00  0.00    -0.004 A 
ATOM      5  C7  UNL d   1      -3.063  -3.567  -3.038  0.00  0.00     0.002 A 
ATOM      6  C8  UNL d   1      -2.146  -2.566  -3.362  0.00  0.00     0.002 A 
ENDROOT
BRANCH   1   7
ATOM      7  C2  UNL d   1       0.193  -1.610  -3.358  0.00  0.00     0.056 C 
BRANCH   7   8
ATOM      8  C1  UNL d   1       0.828  -1.803  -4.740  0.00  0.00     0.007 C 
ATOM      9  C   UNL d   1       1.912  -0.779  -5.050  0.00  0.00     0.009 C 
ENDBRANCH   7   8
ENDBRANCH   1   7
TORSDOF 2
ENDMDL
