MODEL 1
REMARK minimizedAffinity 11.1044073
REMARK minimizedRMSD -1
REMARK  2 active torsions:
REMARK  status: ('A' for Active; 'I' for Inactive)
REMARK    1  A    between atoms: C1_2  and  C2_3 
REMARK    2  A    between atoms: C2_3  and  C3_4 
ROOT
ATOM      1  C3  UNL d   1      -1.301   5.180  -4.043  0.00  0.00    -0.075 A 
ATOM      2  C4  UNL d   1      -1.593   3.809  -4.043  0.00  0.00     0.002 A 
ATOM      3  C5  UNL d   1      -2.427   3.262  -5.019  0.00  0.00     0.002 A 
ATOM      4  C6  UNL d   1      -2.986   4.078  -6.000  0.00  0.00    -0.004 A 
ATOM      5  C7  UNL d   1      -2.716   5.445  -6.000  0.00  0.00     0.002 A 
ATOM      6  C8  UNL d   1      -1.879   5.994  -5.027  0.00  0.00     0.002 A 
ENDROOT
BRANCH   1   7
ATOM      7  C2  UNL d   1      -0.377   5.773  -3.007  0.00  0.00     0.056 C 
BRANCH   7   8
ATOM      8  C1  UNL d   1       0.569   4.756  -2.360  0.00  0.00     0.007 C 
ATOM      9  C   UNL d   1       1.133   5.225  -1.025  0.00  0.00     0.009 C 
ENDBRANCH   7   8
ENDBRANCH   1   7
TORSDOF 2
ENDMDL
