MODEL 1
REMARK minimizedAffinity 11.126606
REMARK minimizedRMSD -1
REMARK  2 active torsions:
REMARK  status: ('A' for Active; 'I' for Inactive)
REMARK    1  A    between atoms: C1_2  and  C2_3 
REMARK    2  A    between atoms: C2_3  and  C3_4 
ROOT
ATOM      1  C3  UNL d   1      -1.869   3.929  -5.795  0.00  0.00    -0.075 A 
ATOM      2  C4  UNL d   1      -1.912   5.330  -5.846  0.00  0.00     0.002 A 
ATOM      3  C5  UNL d   1      -3.132   5.999  -5.943  0.00  0.00     0.002 A 
ATOM      4  C6  UNL d   1      -4.323   5.278  -6.000  0.00  0.00    -0.004 A 
ATOM      5  C7  UNL d   1      -4.292   3.885  -5.967  0.00  0.00     0.002 A 
ATOM      6  C8  UNL d   1      -3.072   3.214  -5.866  0.00  0.00     0.002 A 
ENDROOT
BRANCH   1   7
ATOM      7  C2  UNL d   1      -0.554   3.200  -5.662  0.00  0.00     0.056 C 
BRANCH   7   8
ATOM      8  C1  UNL d   1      -0.251   2.716  -4.240  0.00  0.00     0.007 C 
ATOM      9  C   UNL d   1       1.117   2.059  -4.107  0.00  0.00     0.009 C 
ENDBRANCH   7   8
ENDBRANCH   1   7
TORSDOF 2
ENDMDL
