MODEL 1
REMARK minimizedAffinity 20.3884869
REMARK minimizedRMSD -1
REMARK  2 active torsions:
REMARK  status: ('A' for Active; 'I' for Inactive)
REMARK    1  A    between atoms: C1_2  and  C2_3 
REMARK    2  A    between atoms: C2_3  and  C3_4 
ROOT
ATOM      1  C3  UNL d   1       2.595   3.235  -0.226  0.00  0.00    -0.075 A 
ATOM      2  C4  UNL d   1       2.013   4.110   0.703  0.00  0.00     0.002 A 
ATOM      3  C5  UNL d   1       1.491   5.336   0.290  0.00  0.00     0.002 A 
ATOM      4  C6  UNL d   1       1.554   5.708  -1.051  0.00  0.00    -0.004 A 
ATOM      5  C7  UNL d   1       2.145   4.853  -1.980  0.00  0.00     0.002 A 
ATOM      6  C8  UNL d   1       2.663   3.624  -1.570  0.00  0.00     0.002 A 
ENDROOT
BRANCH   1   7
ATOM      7  C2  UNL d   1       3.134   1.893   0.209  0.00  0.00     0.056 C 
BRANCH   7   8
ATOM      8  C1  UNL d   1       3.121   0.828  -0.892  0.00  0.00     0.007 C 
ATOM      9  C   UNL d   1       2.477  -0.480  -0.455  0.00  0.00     0.009 C 
ENDBRANCH   7   8
ENDBRANCH   1   7
TORSDOF 2
ENDMDL
