MODEL 1
REMARK minimizedAffinity 17.7407932
REMARK minimizedRMSD -1
REMARK  2 active torsions:
REMARK  status: ('A' for Active; 'I' for Inactive)
REMARK    1  A    between atoms: C1_2  and  C2_3 
REMARK    2  A    between atoms: C2_3  and  C3_4 
ROOT
ATOM      1  C3  UNL d   1      -0.730  -5.039  -2.634  0.00  0.00    -0.075 A 
ATOM      2  C4  UNL d   1      -2.101  -5.279  -2.464  0.00  0.00     0.002 A 
ATOM      3  C5  UNL d   1      -3.046  -4.410  -3.010  0.00  0.00     0.002 A 
ATOM      4  C6  UNL d   1      -2.633  -3.288  -3.724  0.00  0.00    -0.004 A 
ATOM      5  C7  UNL d   1      -1.273  -3.030  -3.886  0.00  0.00     0.002 A 
ATOM      6  C8  UNL d   1      -0.326  -3.900  -3.344  0.00  0.00     0.002 A 
ENDROOT
BRANCH   1   7
ATOM      7  C2  UNL d   1       0.298  -5.991  -2.070  0.00  0.00     0.056 C 
BRANCH   7   8
ATOM      8  C1  UNL d   1       1.629  -5.993  -2.829  0.00  0.00     0.007 C 
ATOM      9  C   UNL d   1       2.843  -5.993  -1.910  0.00  0.00     0.009 C 
ENDBRANCH   7   8
ENDBRANCH   1   7
TORSDOF 2
ENDMDL
