MODEL 1
REMARK minimizedAffinity 11.9786272
REMARK minimizedRMSD -1
REMARK  2 active torsions:
REMARK  status: ('A' for Active; 'I' for Inactive)
REMARK    1  A    between atoms: C1_2  and  C2_3 
REMARK    2  A    between atoms: C2_3  and  C3_4 
ROOT
ATOM      1  C3  UNL d   1      -2.364   0.331   2.846  0.00  0.00    -0.075 A 
ATOM      2  C4  UNL d   1      -1.386  -0.566   3.299  0.00  0.00     0.002 A 
ATOM      3  C5  UNL d   1      -0.040  -0.197   3.319  0.00  0.00     0.002 A 
ATOM      4  C6  UNL d   1       0.345   1.066   2.877  0.00  0.00    -0.004 A 
ATOM      5  C7  UNL d   1      -0.616   1.960   2.409  0.00  0.00     0.002 A 
ATOM      6  C8  UNL d   1      -1.963   1.595   2.392  0.00  0.00     0.002 A 
ENDROOT
BRANCH   1   7
ATOM      7  C2  UNL d   1      -3.824  -0.052   2.850  0.00  0.00     0.056 C 
BRANCH   7   8
ATOM      8  C1  UNL d   1      -4.077  -1.547   3.070  0.00  0.00     0.007 C 
ATOM      9  C   UNL d   1      -5.388  -2.030   2.465  0.00  0.00     0.009 C 
ENDBRANCH   7   8
ENDBRANCH   1   7
TORSDOF 2
ENDMDL
