MODEL 1
REMARK minimizedAffinity 1.72571087
REMARK minimizedRMSD -1
REMARK  2 active torsions:
REMARK  status: ('A' for Active; 'I' for Inactive)
REMARK    1  A    between atoms: C1_2  and  C2_3 
REMARK    2  A    between atoms: C2_3  and  C3_4 
ROOT
ATOM      1  C3  UNL d   1      -3.724  -4.910  -5.246  0.00  0.00    -0.075 A 
ATOM      2  C4  UNL d   1      -2.767  -4.050  -5.805  0.00  0.00     0.002 A 
ATOM      3  C5  UNL d   1      -1.565  -3.802  -5.141  0.00  0.00     0.002 A 
ATOM      4  C6  UNL d   1      -1.310  -4.399  -3.909  0.00  0.00    -0.004 A 
ATOM      5  C7  UNL d   1      -2.260  -5.242  -3.337  0.00  0.00     0.002 A 
ATOM      6  C8  UNL d   1      -3.462  -5.496  -4.001  0.00  0.00     0.002 A 
ENDROOT
BRANCH   1   7
ATOM      7  C2  UNL d   1      -5.014  -5.206  -5.973  0.00  0.00     0.056 C 
BRANCH   7   8
ATOM      8  C1  UNL d   1      -6.000  -4.034  -5.998  0.00  0.00     0.007 C 
ATOM      9  C   UNL d   1      -5.868  -3.113  -4.792  0.00  0.00     0.009 C 
ENDBRANCH   7   8
ENDBRANCH   1   7
TORSDOF 2
ENDMDL
