MODEL 1
REMARK minimizedAffinity 10.8037682
REMARK minimizedRMSD -1
REMARK  2 active torsions:
REMARK  status: ('A' for Active; 'I' for Inactive)
REMARK    1  A    between atoms: C1_2  and  C2_3 
REMARK    2  A    between atoms: C2_3  and  C3_4 
ROOT
ATOM      1  C3  UNL d   1      -2.962   1.576   5.281  0.00  0.00    -0.075 A 
ATOM      2  C4  UNL d   1      -3.235   1.300   3.934  0.00  0.00     0.002 A 
ATOM      3  C5  UNL d   1      -4.363   1.838   3.315  0.00  0.00     0.002 A 
ATOM      4  C6  UNL d   1      -5.236   2.650   4.036  0.00  0.00    -0.004 A 
ATOM      5  C7  UNL d   1      -4.983   2.918   5.379  0.00  0.00     0.002 A 
ATOM      6  C8  UNL d   1      -3.853   2.384   6.000  0.00  0.00     0.002 A 
ENDROOT
BRANCH   1   7
ATOM      7  C2  UNL d   1      -1.727   1.020   5.949  0.00  0.00     0.056 C 
BRANCH   7   8
ATOM      8  C1  UNL d   1      -0.550   2.001   5.999  0.00  0.00     0.007 C 
ATOM      9  C   UNL d   1       0.807   1.313   5.933  0.00  0.00     0.009 C 
ENDBRANCH   7   8
ENDBRANCH   1   7
TORSDOF 2
ENDMDL
