MODEL 1
REMARK minimizedAffinity 17.3535709
REMARK minimizedRMSD -1
REMARK  2 active torsions:
REMARK  status: ('A' for Active; 'I' for Inactive)
REMARK    1  A    between atoms: C1_2  and  C2_3 
REMARK    2  A    between atoms: C2_3  and  C3_4 
ROOT
ATOM      1  C3  UNL d   1       0.722  -0.233  -3.113  0.00  0.00    -0.075 A 
ATOM      2  C4  UNL d   1      -0.648  -0.516  -3.021  0.00  0.00     0.002 A 
ATOM      3  C5  UNL d   1      -1.595   0.468  -3.309  0.00  0.00     0.002 A 
ATOM      4  C6  UNL d   1      -1.186   1.746  -3.681  0.00  0.00    -0.004 A 
ATOM      5  C7  UNL d   1       0.173   2.043  -3.758  0.00  0.00     0.002 A 
ATOM      6  C8  UNL d   1       1.123   1.060  -3.476  0.00  0.00     0.002 A 
ENDROOT
BRANCH   1   7
ATOM      7  C2  UNL d   1       1.752  -1.301  -2.832  0.00  0.00     0.056 C 
BRANCH   7   8
ATOM      8  C1  UNL d   1       2.460  -1.829  -4.083  0.00  0.00     0.007 C 
ATOM      9  C   UNL d   1       2.215  -3.311  -4.331  0.00  0.00     0.009 C 
ENDBRANCH   7   8
ENDBRANCH   1   7
TORSDOF 2
ENDMDL
