MODEL 1
REMARK minimizedAffinity 8.74295807
REMARK minimizedRMSD -1
REMARK  2 active torsions:
REMARK  status: ('A' for Active; 'I' for Inactive)
REMARK    1  A    between atoms: C1_2  and  C2_3 
REMARK    2  A    between atoms: C2_3  and  C3_4 
ROOT
ATOM      1  C3  UNL d   1      -2.922   1.307   4.576  0.00  0.00    -0.075 A 
ATOM      2  C4  UNL d   1      -4.159   0.739   4.238  0.00  0.00     0.002 A 
ATOM      3  C5  UNL d   1      -4.876   1.210   3.138  0.00  0.00     0.002 A 
ATOM      4  C6  UNL d   1      -4.373   2.258   2.370  0.00  0.00    -0.004 A 
ATOM      5  C7  UNL d   1      -3.153   2.840   2.707  0.00  0.00     0.002 A 
ATOM      6  C8  UNL d   1      -2.431   2.369   3.805  0.00  0.00     0.002 A 
ENDROOT
BRANCH   1   7
ATOM      7  C2  UNL d   1      -2.126   0.783   5.748  0.00  0.00     0.056 C 
BRANCH   7   8
ATOM      8  C1  UNL d   1      -0.802   0.118   5.355  0.00  0.00     0.007 C 
ATOM      9  C   UNL d   1      -0.985  -1.101   4.461  0.00  0.00     0.009 C 
ENDBRANCH   7   8
ENDBRANCH   1   7
TORSDOF 2
ENDMDL
