MODEL 1
REMARK minimizedAffinity 6.45139456
REMARK minimizedRMSD -1
REMARK  3 active torsions:
REMARK  status: ('A' for Active; 'I' for Inactive)
REMARK    1  A    between atoms: C3'_2  and  C2'_3 
REMARK    2  A    between atoms: C2'_3  and  C1'_4 
REMARK    3  A    between atoms: C1'_4  and  C1_5 
ROOT
ATOM      1  C1  N4B d   1       4.977   1.569  -1.254  0.00  0.00    -0.075 A 
ATOM      2  C2  N4B d   1       4.906   1.509   0.155  0.00  0.00     0.002 A 
ATOM      3  C3  N4B d   1       3.909   0.785   0.762  0.00  0.00     0.002 A 
ATOM      4  C4  N4B d   1       2.965   0.132  -0.016  0.00  0.00    -0.004 A 
ATOM      5  C5  N4B d   1       3.056   0.174  -1.376  0.00  0.00     0.002 A 
ATOM      6  C6  N4B d   1       4.055   0.894  -2.000  0.00  0.00     0.002 A 
ENDROOT
BRANCH   1   7
ATOM      7  C1' N4B d   1       5.998   2.417  -1.963  0.00  0.00     0.057 C 
BRANCH   7   8
ATOM      8  C2' N4B d   1       5.298   3.613  -2.602  0.00  0.00     0.009 C 
BRANCH   8   9
ATOM      9  C3' N4B d   1       6.000   4.921  -2.279  0.00  0.00     0.004 C 
ATOM     10  C4' N4B d   1       5.742   5.987  -3.302  0.00  0.00     0.003 C 
ENDBRANCH   8   9
ENDBRANCH   7   8
ENDBRANCH   1   7
TORSDOF 3
ENDMDL
