MODEL 1
REMARK minimizedAffinity 11.9755888
REMARK minimizedRMSD -1
REMARK  3 active torsions:
REMARK  status: ('A' for Active; 'I' for Inactive)
REMARK    1  A    between atoms: C3'_2  and  C2'_3 
REMARK    2  A    between atoms: C2'_3  and  C1'_4 
REMARK    3  A    between atoms: C1'_4  and  C1_5 
ROOT
ATOM      1  C1  N4B d   1       3.814   1.430  -0.843  0.00  0.00    -0.075 A 
ATOM      2  C2  N4B d   1       4.877   1.863  -0.020  0.00  0.00     0.002 A 
ATOM      3  C3  N4B d   1       5.954   2.511  -0.574  0.00  0.00     0.002 A 
ATOM      4  C4  N4B d   1       5.999   2.719  -1.944  0.00  0.00    -0.004 A 
ATOM      5  C5  N4B d   1       4.957   2.320  -2.729  0.00  0.00     0.002 A 
ATOM      6  C6  N4B d   1       3.866   1.672  -2.185  0.00  0.00     0.002 A 
ENDROOT
BRANCH   1   7
ATOM      7  C1' N4B d   1       2.656   0.642  -0.295  0.00  0.00     0.057 C 
BRANCH   7   8
ATOM      8  C2' N4B d   1       2.658   0.741   1.227  0.00  0.00     0.009 C 
BRANCH   8   9
ATOM      9  C3' N4B d   1       2.639  -0.628   1.886  0.00  0.00     0.004 C 
ATOM     10  C4' N4B d   1       3.818  -0.857   2.784  0.00  0.00     0.003 C 
ENDBRANCH   8   9
ENDBRANCH   7   8
ENDBRANCH   1   7
TORSDOF 3
ENDMDL
