MODEL 1
REMARK minimizedAffinity 13.9958363
REMARK minimizedRMSD -1
REMARK  3 active torsions:
REMARK  status: ('A' for Active; 'I' for Inactive)
REMARK    1  A    between atoms: C3'_2  and  C2'_3 
REMARK    2  A    between atoms: C2'_3  and  C1'_4 
REMARK    3  A    between atoms: C1'_4  and  C1_5 
ROOT
ATOM      1  C1  N4B d   1       1.369   2.262   0.247  0.00  0.00    -0.075 A 
ATOM      2  C2  N4B d   1       2.508   2.191   1.079  0.00  0.00     0.002 A 
ATOM      3  C3  N4B d   1       3.302   1.070   1.062  0.00  0.00     0.002 A 
ATOM      4  C4  N4B d   1       2.967   0.005   0.239  0.00  0.00    -0.004 A 
ATOM      5  C5  N4B d   1       1.880   0.092  -0.580  0.00  0.00     0.002 A 
ATOM      6  C6  N4B d   1       1.075   1.213  -0.576  0.00  0.00     0.002 A 
ENDROOT
BRANCH   1   7
ATOM      7  C1' N4B d   1       0.423   3.431   0.294  0.00  0.00     0.057 C 
BRANCH   7   8
ATOM      8  C2' N4B d   1       0.305   3.922   1.733  0.00  0.00     0.009 C 
BRANCH   8   9
ATOM      9  C3' N4B d   1       0.344   5.438   1.821  0.00  0.00     0.004 C 
ATOM     10  C4' N4B d   1       1.711   6.000   1.566  0.00  0.00     0.003 C 
ENDBRANCH   8   9
ENDBRANCH   7   8
ENDBRANCH   1   7
TORSDOF 3
ENDMDL
