MODEL 1
REMARK minimizedAffinity 8.27125454
REMARK minimizedRMSD -1
REMARK  2 active torsions:
REMARK  status: ('A' for Active; 'I' for Inactive)
REMARK    1  A    between atoms: C2'_3  and  C1'_4 
REMARK    2  A    between atoms: C1'_4  and  C1_5 
ROOT
ATOM      1  C1  I4B d   1      -1.808   0.466  -4.211  0.00  0.00    -0.075 A 
ATOM      2  C2  I4B d   1      -1.439   1.726  -3.811  0.00  0.00     0.003 A 
ATOM      3  C3  I4B d   1      -1.593   2.119  -2.459  0.00  0.00     0.002 A 
ATOM      4  C4  I4B d   1      -2.163   1.243  -1.558  0.00  0.00    -0.004 A 
ATOM      5  C5  I4B d   1      -2.515  -0.042  -1.960  0.00  0.00     0.002 A 
ATOM      6  C6  I4B d   1      -2.326  -0.438  -3.292  0.00  0.00     0.003 A 
ENDROOT
BRANCH   1   7
ATOM      7  C1' I4B d   1      -1.663   0.096  -5.653  0.00  0.00     0.060 C 
BRANCH   7   8
ATOM      8  C2' I4B d   1      -0.339  -0.622  -5.819  0.00  0.00    -0.013 C 
ATOM      9  C4' I4B d   1       0.820   0.302  -5.555  0.00  0.00     0.013 C 
ATOM     10  C3' I4B d   1      -0.325  -1.790  -4.878  0.00  0.00     0.013 C 
ENDBRANCH   7   8
ENDBRANCH   1   7
TORSDOF 2
ENDMDL
