MODEL 1
REMARK minimizedAffinity 3.31365061
REMARK minimizedRMSD -1
REMARK  2 active torsions:
REMARK  status: ('A' for Active; 'I' for Inactive)
REMARK    1  A    between atoms: C2'_3  and  C1'_4 
REMARK    2  A    between atoms: C1'_4  and  C1_5 
ROOT
ATOM      1  C1  I4B d   1       0.760  -1.753   3.237  0.00  0.00    -0.075 A 
ATOM      2  C2  I4B d   1       0.688  -0.467   2.763  0.00  0.00     0.003 A 
ATOM      3  C3  I4B d   1      -0.529   0.034   2.241  0.00  0.00     0.002 A 
ATOM      4  C4  I4B d   1      -1.629  -0.797   2.167  0.00  0.00    -0.004 A 
ATOM      5  C5  I4B d   1      -1.561  -2.093   2.669  0.00  0.00     0.002 A 
ATOM      6  C6  I4B d   1      -0.363  -2.570   3.219  0.00  0.00     0.003 A 
ENDROOT
BRANCH   1   7
ATOM      7  C1' I4B d   1       2.070  -2.259   3.751  0.00  0.00     0.060 C 
BRANCH   7   8
ATOM      8  C2' I4B d   1       2.080  -2.085   5.256  0.00  0.00    -0.013 C 
ATOM      9  C4' I4B d   1       3.477  -2.198   5.808  0.00  0.00     0.013 C 
ATOM     10  C3' I4B d   1       1.480  -0.747   5.571  0.00  0.00     0.013 C 
ENDBRANCH   7   8
ENDBRANCH   1   7
TORSDOF 2
ENDMDL
