MODEL 1
REMARK minimizedAffinity 5.77329779
REMARK minimizedRMSD -1
REMARK  2 active torsions:
REMARK  status: ('A' for Active; 'I' for Inactive)
REMARK    1  A    between atoms: C2'_3  and  C1'_4 
REMARK    2  A    between atoms: C1'_4  and  C1_5 
ROOT
ATOM      1  C1  I4B d   1       1.832  -2.500  -3.863  0.00  0.00    -0.075 A 
ATOM      2  C2  I4B d   1       0.744  -2.289  -4.672  0.00  0.00     0.003 A 
ATOM      3  C3  I4B d   1       0.837  -1.405  -5.774  0.00  0.00     0.002 A 
ATOM      4  C4  I4B d   1       2.013  -0.718  -5.998  0.00  0.00    -0.004 A 
ATOM      5  C5  I4B d   1       3.122  -0.951  -5.189  0.00  0.00     0.002 A 
ATOM      6  C6  I4B d   1       3.035  -1.857  -4.122  0.00  0.00     0.003 A 
ENDROOT
BRANCH   1   7
ATOM      7  C1' I4B d   1       1.690  -3.416  -2.688  0.00  0.00     0.060 C 
BRANCH   7   8
ATOM      8  C2' I4B d   1       0.524  -4.345  -2.959  0.00  0.00    -0.013 C 
ATOM      9  C4' I4B d   1       0.970  -5.783  -2.999  0.00  0.00     0.013 C 
ATOM     10  C3' I4B d   1      -0.502  -4.126  -1.888  0.00  0.00     0.013 C 
ENDBRANCH   7   8
ENDBRANCH   1   7
TORSDOF 2
ENDMDL
