MODEL 1
REMARK minimizedAffinity -4.5489583
REMARK minimizedRMSD -1
REMARK  2 active torsions:
REMARK  status: ('A' for Active; 'I' for Inactive)
REMARK    1  A    between atoms: C2'_3  and  C1'_4 
REMARK    2  A    between atoms: C1'_4  and  C1_5 
ROOT
ATOM      1  C1  I4B d   1       0.420  -3.193  -3.598  0.00  0.00    -0.075 A 
ATOM      2  C2  I4B d   1       0.790  -4.282  -4.346  0.00  0.00     0.003 A 
ATOM      3  C3  I4B d   1       0.553  -5.592  -3.864  0.00  0.00     0.002 A 
ATOM      4  C4  I4B d   1      -0.008  -5.765  -2.615  0.00  0.00    -0.004 A 
ATOM      5  C5  I4B d   1      -0.403  -4.660  -1.867  0.00  0.00     0.002 A 
ATOM      6  C6  I4B d   1      -0.200  -3.365  -2.367  0.00  0.00     0.003 A 
ENDROOT
BRANCH   1   7
ATOM      7  C1' I4B d   1       0.715  -1.824  -4.124  0.00  0.00     0.060 C 
BRANCH   7   8
ATOM      8  C2' I4B d   1      -0.577  -1.240  -4.659  0.00  0.00    -0.013 C 
ATOM      9  C4' I4B d   1      -0.393   0.193  -5.083  0.00  0.00     0.013 C 
ATOM     10  C3' I4B d   1      -1.029  -2.092  -5.808  0.00  0.00     0.013 C 
ENDBRANCH   7   8
ENDBRANCH   1   7
TORSDOF 2
ENDMDL
