MODEL 1
REMARK minimizedAffinity 6.17699003
REMARK minimizedRMSD -1
REMARK  2 active torsions:
REMARK  status: ('A' for Active; 'I' for Inactive)
REMARK    1  A    between atoms: C2'_3  and  C1'_4 
REMARK    2  A    between atoms: C1'_4  and  C1_5 
ROOT
ATOM      1  C1  I4B d   1       1.415  -3.165  -2.091  0.00  0.00    -0.075 A 
ATOM      2  C2  I4B d   1       0.044  -3.136  -2.035  0.00  0.00     0.003 A 
ATOM      3  C3  I4B d   1      -0.707  -4.296  -2.342  0.00  0.00     0.002 A 
ATOM      4  C4  I4B d   1      -0.052  -5.442  -2.746  0.00  0.00    -0.004 A 
ATOM      5  C5  I4B d   1       1.339  -5.476  -2.780  0.00  0.00     0.002 A 
ATOM      6  C6  I4B d   1       2.078  -4.335  -2.438  0.00  0.00     0.003 A 
ENDROOT
BRANCH   1   7
ATOM      7  C1' I4B d   1       2.175  -1.912  -1.792  0.00  0.00     0.060 C 
BRANCH   7   8
ATOM      8  C2' I4B d   1       2.768  -2.045  -0.404  0.00  0.00    -0.013 C 
ATOM      9  C4' I4B d   1       4.035  -1.241  -0.273  0.00  0.00     0.013 C 
ATOM     10  C3' I4B d   1       1.736  -1.594   0.585  0.00  0.00     0.013 C 
ENDBRANCH   7   8
ENDBRANCH   1   7
TORSDOF 2
ENDMDL
