MODEL 1
REMARK minimizedAffinity -3.74054599
REMARK minimizedRMSD -1
REMARK  1 active torsions:
REMARK  status: ('A' for Active; 'I' for Inactive)
REMARK    1  A    between atoms: C1_2  and  C2_3 
ROOT
ATOM      1  C2  UNL d   1       0.081  -0.669  -3.171  0.00  0.00    -0.076 A 
ATOM      2  C3  UNL d   1       1.007  -0.287  -2.185  0.00  0.00     0.004 A 
ATOM      3  C4  UNL d   1       2.008   0.642  -2.463  0.00  0.00    -0.003 A 
ATOM      4  C5  UNL d   1       2.100   1.204  -3.732  0.00  0.00     0.000 A 
ATOM      5  C6  UNL d   1       1.179   0.849  -4.717  0.00  0.00     0.000 A 
ATOM      6  C7  UNL d   1       0.153  -0.074  -4.448  0.00  0.00    -0.073 A 
ATOM      7  C8  UNL d   1      -0.809  -0.424  -5.550  0.00  0.00     0.078 C 
ENDROOT
BRANCH   1   8
ATOM      8  C1  UNL d   1      -0.966  -1.701  -2.819  0.00  0.00     0.053 C 
ATOM      9  C   UNL d   1      -0.893  -2.133  -1.363  0.00  0.00     0.018 C 
ENDBRANCH   1   8
TORSDOF 1
ENDMDL
