MODEL 1
REMARK minimizedAffinity -0.593738377
REMARK minimizedRMSD -1
REMARK  1 active torsions:
REMARK  status: ('A' for Active; 'I' for Inactive)
REMARK    1  A    between atoms: C1_2  and  C2_3 
ROOT
ATOM      1  C2  UNL d   1      -0.170   0.083   1.127  0.00  0.00    -0.076 A 
ATOM      2  C3  UNL d   1      -0.512  -0.593  -0.058  0.00  0.00     0.004 A 
ATOM      3  C4  UNL d   1      -1.813  -0.554  -0.556  0.00  0.00    -0.003 A 
ATOM      4  C5  UNL d   1      -2.794   0.162   0.122  0.00  0.00     0.000 A 
ATOM      5  C6  UNL d   1      -2.468   0.853   1.289  0.00  0.00     0.000 A 
ATOM      6  C7  UNL d   1      -1.158   0.837   1.796  0.00  0.00    -0.073 A 
ATOM      7  C8  UNL d   1      -0.864   1.595   3.061  0.00  0.00     0.078 C 
ENDROOT
BRANCH   1   8
ATOM      8  C1  UNL d   1       1.251  -0.018   1.633  0.00  0.00     0.053 C 
ATOM      9  C   UNL d   1       2.113  -0.930   0.774  0.00  0.00     0.018 C 
ENDBRANCH   1   8
TORSDOF 1
ENDMDL
