MODEL 1
REMARK minimizedAffinity -4.06234217
REMARK minimizedRMSD -1
REMARK  1 active torsions:
REMARK  status: ('A' for Active; 'I' for Inactive)
REMARK    1  A    between atoms: C1_2  and  C2_3 
ROOT
ATOM      1  C2  UNL d   1      -1.090  -1.203  -0.115  0.00  0.00    -0.076 A 
ATOM      2  C3  UNL d   1      -2.249  -0.609   0.414  0.00  0.00     0.004 A 
ATOM      3  C4  UNL d   1      -2.164   0.424   1.346  0.00  0.00    -0.003 A 
ATOM      4  C5  UNL d   1      -0.919   0.881   1.763  0.00  0.00     0.000 A 
ATOM      5  C6  UNL d   1       0.241   0.315   1.235  0.00  0.00     0.000 A 
ATOM      6  C7  UNL d   1       0.173  -0.716   0.282  0.00  0.00    -0.073 A 
ATOM      7  C8  UNL d   1       1.456  -1.294  -0.249  0.00  0.00     0.078 C 
ENDROOT
BRANCH   1   8
ATOM      8  C1  UNL d   1      -1.244  -2.338  -1.102  0.00  0.00     0.053 C 
ATOM      9  C   UNL d   1      -2.524  -3.131  -0.884  0.00  0.00     0.018 C 
ENDBRANCH   1   8
TORSDOF 1
ENDMDL
