MODEL 1
REMARK minimizedAffinity -4.69280958
REMARK minimizedRMSD -1
REMARK  1 active torsions:
REMARK  status: ('A' for Active; 'I' for Inactive)
REMARK    1  A    between atoms: C1_2  and  C2_3 
ROOT
ATOM      1  C2  UNL d   1       0.030   0.257   0.869  0.00  0.00    -0.076 A 
ATOM      2  C3  UNL d   1      -1.371   0.376   0.867  0.00  0.00     0.004 A 
ATOM      3  C4  UNL d   1      -2.023   1.184   1.797  0.00  0.00    -0.003 A 
ATOM      4  C5  UNL d   1      -1.285   1.887   2.743  0.00  0.00     0.000 A 
ATOM      5  C6  UNL d   1       0.106   1.794   2.749  0.00  0.00     0.000 A 
ATOM      6  C7  UNL d   1       0.781   0.997   1.808  0.00  0.00    -0.073 A 
ATOM      7  C8  UNL d   1       2.282   0.929   1.864  0.00  0.00     0.078 C 
ENDROOT
BRANCH   1   8
ATOM      8  C1  UNL d   1       0.681  -0.656  -0.146  0.00  0.00     0.053 C 
ATOM      9  C   UNL d   1       0.738  -0.036  -1.534  0.00  0.00     0.018 C 
ENDBRANCH   1   8
TORSDOF 1
ENDMDL
