MODEL 1
REMARK minimizedAffinity -3.25357366
REMARK minimizedRMSD -1
REMARK  1 active torsions:
REMARK  status: ('A' for Active; 'I' for Inactive)
REMARK    1  A    between atoms: C1_2  and  C2_3 
ROOT
ATOM      1  C2  UNL d   1       0.654  -0.143  -3.385  0.00  0.00    -0.076 A 
ATOM      2  C3  UNL d   1      -0.185  -1.222  -3.716  0.00  0.00     0.004 A 
ATOM      3  C4  UNL d   1      -0.671  -1.380  -5.012  0.00  0.00    -0.003 A 
ATOM      4  C5  UNL d   1      -0.327  -0.463  -5.999  0.00  0.00     0.000 A 
ATOM      5  C6  UNL d   1       0.519   0.603  -5.693  0.00  0.00     0.000 A 
ATOM      6  C7  UNL d   1       1.031   0.768  -4.394  0.00  0.00    -0.073 A 
ATOM      7  C8  UNL d   1       1.934   1.939  -4.118  0.00  0.00     0.078 C 
ENDROOT
BRANCH   1   8
ATOM      8  C1  UNL d   1       1.129  -0.008  -1.956  0.00  0.00     0.053 C 
ATOM      9  C   UNL d   1      -0.019   0.011  -0.959  0.00  0.00     0.018 C 
ENDBRANCH   1   8
TORSDOF 1
ENDMDL
