MODEL 1
REMARK minimizedAffinity 3.74894118
REMARK minimizedRMSD -1
REMARK  1 active torsions:
REMARK  status: ('A' for Active; 'I' for Inactive)
REMARK    1  A    between atoms: C1_2  and  C2_3 
ROOT
ATOM      1  C2  UNL d   1       0.781  -0.054  -1.285  0.00  0.00    -0.076 A 
ATOM      2  C3  UNL d   1       1.689  -0.792  -0.506  0.00  0.00     0.004 A 
ATOM      3  C4  UNL d   1       1.784  -0.590   0.870  0.00  0.00    -0.003 A 
ATOM      4  C5  UNL d   1       0.971   0.352   1.490  0.00  0.00     0.000 A 
ATOM      5  C6  UNL d   1       0.052   1.081   0.736  0.00  0.00     0.000 A 
ATOM      6  C7  UNL d   1      -0.068   0.878  -0.650  0.00  0.00    -0.073 A 
ATOM      7  C8  UNL d   1      -1.072   1.696  -1.415  0.00  0.00     0.078 C 
ENDROOT
BRANCH   1   8
ATOM      8  C1  UNL d   1       0.742  -0.296  -2.777  0.00  0.00     0.053 C 
ATOM      9  C   UNL d   1       1.700   0.606  -3.539  0.00  0.00     0.018 C 
ENDBRANCH   1   8
TORSDOF 1
ENDMDL
