MODEL 1
REMARK minimizedAffinity -0.769629121
REMARK minimizedRMSD -1
REMARK  1 active torsions:
REMARK  status: ('A' for Active; 'I' for Inactive)
REMARK    1  A    between atoms: C1_2  and  C2_3 
ROOT
ATOM      1  C2  UNL d   1       0.213   0.960   1.367  0.00  0.00    -0.076 A 
ATOM      2  C3  UNL d   1      -0.828   0.484   0.551  0.00  0.00     0.004 A 
ATOM      3  C4  UNL d   1      -0.640  -0.618  -0.281  0.00  0.00    -0.003 A 
ATOM      4  C5  UNL d   1       0.592  -1.262  -0.311  0.00  0.00     0.000 A 
ATOM      5  C6  UNL d   1       1.630  -0.814   0.505  0.00  0.00     0.000 A 
ATOM      6  C7  UNL d   1       1.452   0.285   1.362  0.00  0.00    -0.073 A 
ATOM      7  C8  UNL d   1       2.608   0.730   2.216  0.00  0.00     0.078 C 
ENDROOT
BRANCH   1   8
ATOM      8  C1  UNL d   1      -0.041   2.176   2.229  0.00  0.00     0.053 C 
ATOM      9  C   UNL d   1      -0.786   1.837   3.511  0.00  0.00     0.018 C 
ENDBRANCH   1   8
TORSDOF 1
ENDMDL
