MODEL 1
REMARK minimizedAffinity 0.980499983
REMARK minimizedRMSD -1
REMARK  1 active torsions:
REMARK  status: ('A' for Active; 'I' for Inactive)
REMARK    1  A    between atoms: C1_2  and  C2_3 
ROOT
ATOM      1  C2  UNL d   1      -0.075  -0.714  -0.550  0.00  0.00    -0.076 A 
ATOM      2  C3  UNL d   1       0.764  -1.346   0.384  0.00  0.00     0.004 A 
ATOM      3  C4  UNL d   1       1.413  -0.613   1.376  0.00  0.00    -0.003 A 
ATOM      4  C5  UNL d   1       1.233   0.764   1.450  0.00  0.00     0.000 A 
ATOM      5  C6  UNL d   1       0.389   1.404   0.543  0.00  0.00     0.000 A 
ATOM      6  C7  UNL d   1      -0.285   0.678  -0.453  0.00  0.00    -0.073 A 
ATOM      7  C8  UNL d   1      -1.178   1.421  -1.409  0.00  0.00     0.078 C 
ENDROOT
BRANCH   1   8
ATOM      8  C1  UNL d   1      -0.731  -1.557  -1.621  0.00  0.00     0.053 C 
ATOM      9  C   UNL d   1      -1.852  -2.426  -1.072  0.00  0.00     0.018 C 
ENDBRANCH   1   8
TORSDOF 1
ENDMDL
