MODEL 1
REMARK minimizedAffinity -0.490234047
REMARK minimizedRMSD -1
REMARK  1 active torsions:
REMARK  status: ('A' for Active; 'I' for Inactive)
REMARK    1  A    between atoms: N_2  and  C1_3 
ROOT
ATOM      1  C1  UNL d   1      -5.619   3.238   5.286  0.00  0.00     0.143 A 
ATOM      2  C2  UNL d   1      -5.751   3.191   3.894  0.00  0.00    -0.057 A 
ATOM      3  C3  UNL d   1      -5.954   1.978   3.224  0.00  0.00     0.033 A 
ATOM      4  C4  UNL d   1      -5.999   0.783   3.935  0.00  0.00    -0.042 A 
ATOM      5  C5  UNL d   1      -5.846   0.803   5.317  0.00  0.00     0.033 A 
ATOM      6  C6  UNL d   1      -5.650   2.018   5.981  0.00  0.00    -0.057 A 
ENDROOT
BRANCH   1   7
ATOM      7  N   UNL d   1      -5.317   4.400   6.000  0.00  0.00    -0.732 N 
ATOM      8  C   UNL d   1      -5.993   5.644   5.702  0.00  0.00     0.284 C 
ATOM      9  H3  UNL d   1      -5.190   4.224   6.994  0.00  0.00     0.395 HD
ENDBRANCH   1   7
TORSDOF 1
ENDMDL
