MODEL 1
REMARK minimizedAffinity 0.300643384
REMARK minimizedRMSD -1
REMARK  1 active torsions:
REMARK  status: ('A' for Active; 'I' for Inactive)
REMARK    1  A    between atoms: N_2  and  C1_3 
ROOT
ATOM      1  C1  UNL d   1      -3.799  -2.176   5.165  0.00  0.00     0.143 A 
ATOM      2  C2  UNL d   1      -4.395  -3.354   5.628  0.00  0.00    -0.057 A 
ATOM      3  C3  UNL d   1      -4.876  -4.323   4.739  0.00  0.00     0.033 A 
ATOM      4  C4  UNL d   1      -4.795  -4.116   3.365  0.00  0.00    -0.042 A 
ATOM      5  C5  UNL d   1      -4.229  -2.941   2.883  0.00  0.00     0.033 A 
ATOM      6  C6  UNL d   1      -3.745  -1.981   3.776  0.00  0.00    -0.057 A 
ENDROOT
BRANCH   1   7
ATOM      7  N   UNL d   1      -3.391  -1.131   5.998  0.00  0.00    -0.732 N 
ATOM      8  C   UNL d   1      -4.100   0.130   5.999  0.00  0.00     0.284 C 
ATOM      9  H3  UNL d   1      -3.118  -1.456   6.923  0.00  0.00     0.395 HD
ENDBRANCH   1   7
TORSDOF 1
ENDMDL
