MODEL 1
REMARK minimizedAffinity 4.23886251
REMARK minimizedRMSD -1
REMARK  1 active torsions:
REMARK  status: ('A' for Active; 'I' for Inactive)
REMARK    1  A    between atoms: N_2  and  C1_3 
ROOT
ATOM      1  C1  UNL d   1      -3.428   4.029   6.000  0.00  0.00     0.143 A 
ATOM      2  C2  UNL d   1      -4.585   4.815   5.964  0.00  0.00    -0.057 A 
ATOM      3  C3  UNL d   1      -5.858   4.234   5.968  0.00  0.00     0.033 A 
ATOM      4  C4  UNL d   1      -5.998   2.850   5.980  0.00  0.00    -0.042 A 
ATOM      5  C5  UNL d   1      -4.862   2.048   5.991  0.00  0.00     0.033 A 
ATOM      6  C6  UNL d   1      -3.593   2.635   5.993  0.00  0.00    -0.057 A 
ENDROOT
BRANCH   1   7
ATOM      7  N   UNL d   1      -2.134   4.544   5.898  0.00  0.00    -0.732 N 
ATOM      8  C   UNL d   1      -1.560   4.845   4.604  0.00  0.00     0.284 C 
ATOM      9  H3  UNL d   1      -1.935   5.240   6.613  0.00  0.00     0.395 HD
ENDBRANCH   1   7
TORSDOF 1
ENDMDL
