MODEL 1
REMARK minimizedAffinity 1.80192316
REMARK minimizedRMSD -1
REMARK  1 active torsions:
REMARK  status: ('A' for Active; 'I' for Inactive)
REMARK    1  A    between atoms: N_2  and  C1_3 
ROOT
ATOM      1  C1  UNL d   1       3.972   1.678  -5.633  0.00  0.00     0.143 A 
ATOM      2  C2  UNL d   1       2.628   2.066  -5.622  0.00  0.00    -0.057 A 
ATOM      3  C3  UNL d   1       2.256   3.402  -5.817  0.00  0.00     0.033 A 
ATOM      4  C4  UNL d   1       3.227   4.381  -5.998  0.00  0.00    -0.042 A 
ATOM      5  C5  UNL d   1       4.570   4.023  -5.988  0.00  0.00     0.033 A 
ATOM      6  C6  UNL d   1       4.935   2.686  -5.799  0.00  0.00    -0.057 A 
ENDROOT
BRANCH   1   7
ATOM      7  N   UNL d   1       4.411   0.383  -5.347  0.00  0.00    -0.732 N 
ATOM      8  C   UNL d   1       4.045  -0.261  -4.103  0.00  0.00     0.284 C 
ATOM      9  H3  UNL d   1       4.371  -0.228  -6.159  0.00  0.00     0.395 HD
ENDBRANCH   1   7
TORSDOF 1
ENDMDL
