MODEL 1
REMARK minimizedAffinity -1.44843316
REMARK minimizedRMSD -1
REMARK  1 active torsions:
REMARK  status: ('A' for Active; 'I' for Inactive)
REMARK    1  A    between atoms: N_2  and  C1_3 
ROOT
ATOM      1  C1  UNL d   1       0.834   5.067  -4.120  0.00  0.00     0.143 A 
ATOM      2  C2  UNL d   1       1.522   3.864  -4.313  0.00  0.00    -0.057 A 
ATOM      3  C3  UNL d   1       1.088   2.922  -5.253  0.00  0.00     0.033 A 
ATOM      4  C4  UNL d   1      -0.062   3.154  -6.000  0.00  0.00    -0.042 A 
ATOM      5  C5  UNL d   1      -0.776   4.332  -5.807  0.00  0.00     0.033 A 
ATOM      6  C6  UNL d   1      -0.334   5.272  -4.871  0.00  0.00    -0.057 A 
ENDROOT
BRANCH   1   7
ATOM      7  N   UNL d   1       1.159   5.999  -3.131  0.00  0.00    -0.732 N 
ATOM      8  C   UNL d   1       1.596   5.563  -1.822  0.00  0.00     0.284 C 
ATOM      9  H3  UNL d   1       1.679   6.791  -3.501  0.00  0.00     0.395 HD
ENDBRANCH   1   7
TORSDOF 1
ENDMDL
