MODEL 1
REMARK minimizedAffinity 4.07646084
REMARK minimizedRMSD -1
REMARK  1 active torsions:
REMARK  status: ('A' for Active; 'I' for Inactive)
REMARK    1  A    between atoms: N_2  and  C1_3 
ROOT
ATOM      1  C1  UNL d   1      -0.582   0.578   1.345  0.00  0.00     0.143 A 
ATOM      2  C2  UNL d   1      -1.937   0.638   1.004  0.00  0.00    -0.057 A 
ATOM      3  C3  UNL d   1      -2.832   1.440   1.724  0.00  0.00     0.033 A 
ATOM      4  C4  UNL d   1      -2.390   2.176   2.818  0.00  0.00    -0.042 A 
ATOM      5  C5  UNL d   1      -1.052   2.112   3.190  0.00  0.00     0.033 A 
ATOM      6  C6  UNL d   1      -0.162   1.315   2.463  0.00  0.00    -0.057 A 
ENDROOT
BRANCH   1   7
ATOM      7  N   UNL d   1       0.337  -0.276   0.730  0.00  0.00    -0.732 N 
ATOM      8  C   UNL d   1       1.474   0.258   0.012  0.00  0.00     0.284 C 
ATOM      9  H3  UNL d   1       0.552  -1.091   1.301  0.00  0.00     0.395 HD
ENDBRANCH   1   7
TORSDOF 1
ENDMDL
