MODEL 1
REMARK minimizedAffinity 1.51349115
REMARK minimizedRMSD -1
REMARK  1 active torsions:
REMARK  status: ('A' for Active; 'I' for Inactive)
REMARK    1  A    between atoms: N_2  and  C1_3 
ROOT
ATOM      1  C1  UNL d   1       0.352  -0.079   1.128  0.00  0.00     0.143 A 
ATOM      2  C2  UNL d   1       0.439   0.691   2.293  0.00  0.00    -0.057 A 
ATOM      3  C3  UNL d   1      -0.687   1.331   2.826  0.00  0.00     0.033 A 
ATOM      4  C4  UNL d   1      -1.917   1.235   2.185  0.00  0.00    -0.042 A 
ATOM      5  C5  UNL d   1      -2.022   0.495   1.012  0.00  0.00     0.033 A 
ATOM      6  C6  UNL d   1      -0.896  -0.147   0.489  0.00  0.00    -0.057 A 
ENDROOT
BRANCH   1   7
ATOM      7  N   UNL d   1       1.454  -0.659   0.495  0.00  0.00    -0.732 N 
ATOM      8  C   UNL d   1       2.511   0.168  -0.049  0.00  0.00     0.284 C 
ATOM      9  H3  UNL d   1       1.784  -1.493   0.975  0.00  0.00     0.395 HD
ENDBRANCH   1   7
TORSDOF 1
ENDMDL
