MODEL 1
REMARK minimizedAffinity 5.07429314
REMARK minimizedRMSD -1
REMARK  1 active torsions:
REMARK  status: ('A' for Active; 'I' for Inactive)
REMARK    1  A    between atoms: N_2  and  C1_3 
ROOT
ATOM      1  C1  UNL d   1      -1.846  -0.242   0.837  0.00  0.00     0.143 A 
ATOM      2  C2  UNL d   1      -2.767   0.757   1.168  0.00  0.00    -0.057 A 
ATOM      3  C3  UNL d   1      -2.444   1.768   2.081  0.00  0.00     0.033 A 
ATOM      4  C4  UNL d   1      -1.200   1.780   2.704  0.00  0.00    -0.042 A 
ATOM      5  C5  UNL d   1      -0.278   0.782   2.409  0.00  0.00     0.033 A 
ATOM      6  C6  UNL d   1      -0.604  -0.220   1.490  0.00  0.00    -0.057 A 
ENDROOT
BRANCH   1   7
ATOM      7  N   UNL d   1      -2.142  -1.330   0.011  0.00  0.00    -0.732 N 
ATOM      8  C   UNL d   1      -1.899  -2.684   0.460  0.00  0.00     0.284 C 
ATOM      9  H3  UNL d   1      -3.018  -1.209  -0.491  0.00  0.00     0.395 HD
ENDBRANCH   1   7
TORSDOF 1
ENDMDL
