MODEL 1
REMARK minimizedAffinity -2.4496398
REMARK minimizedRMSD -1
REMARK  1 active torsions:
REMARK  status: ('A' for Active; 'I' for Inactive)
REMARK    1  A    between atoms: N_2  and  C1_3 
ROOT
ATOM      1  C1  UNL d   1      -3.181   1.268   2.113  0.00  0.00     0.143 A 
ATOM      2  C2  UNL d   1      -2.177   1.403   3.078  0.00  0.00    -0.057 A 
ATOM      3  C3  UNL d   1      -0.873   0.955   2.836  0.00  0.00     0.033 A 
ATOM      4  C4  UNL d   1      -0.556   0.336   1.632  0.00  0.00    -0.042 A 
ATOM      5  C5  UNL d   1      -1.544   0.169   0.668  0.00  0.00     0.033 A 
ATOM      6  C6  UNL d   1      -2.843   0.624   0.913  0.00  0.00    -0.057 A 
ENDROOT
BRANCH   1   7
ATOM      7  N   UNL d   1      -4.520   1.604   2.332  0.00  0.00    -0.732 N 
ATOM      8  C   UNL d   1      -5.110   1.466   3.646  0.00  0.00     0.284 C 
ATOM      9  H3  UNL d   1      -4.792   2.453   1.841  0.00  0.00     0.395 HD
ENDBRANCH   1   7
TORSDOF 1
ENDMDL
