MODEL 1
REMARK minimizedAffinity 6.53903008
REMARK minimizedRMSD -1
REMARK  1 active torsions:
REMARK  status: ('A' for Active; 'I' for Inactive)
REMARK    1  A    between atoms: N_2  and  C1_3 
ROOT
ATOM      1  C1  UNL d   1      -0.804   0.224   1.539  0.00  0.00     0.143 A 
ATOM      2  C2  UNL d   1      -1.173   0.966   2.667  0.00  0.00    -0.057 A 
ATOM      3  C3  UNL d   1      -2.458   1.508   2.791  0.00  0.00     0.033 A 
ATOM      4  C4  UNL d   1      -3.391   1.341   1.773  0.00  0.00    -0.042 A 
ATOM      5  C5  UNL d   1      -3.039   0.629   0.632  0.00  0.00     0.033 A 
ATOM      6  C6  UNL d   1      -1.756   0.084   0.517  0.00  0.00    -0.057 A 
ENDROOT
BRANCH   1   7
ATOM      7  N   UNL d   1       0.488  -0.257   1.312  0.00  0.00    -0.732 N 
ATOM      8  C   UNL d   1       1.442   0.523   0.554  0.00  0.00     0.284 C 
ATOM      9  H3  UNL d   1       0.882  -0.713   2.132  0.00  0.00     0.395 HD
ENDBRANCH   1   7
TORSDOF 1
ENDMDL
