MODEL 1
REMARK minimizedAffinity 6.94726992
REMARK minimizedRMSD -1
REMARK  1 active torsions:
REMARK  status: ('A' for Active; 'I' for Inactive)
REMARK    1  A    between atoms: C1_2  and  C2_3 
ROOT
ATOM      1  C2  UNL d   1       2.883  -3.282   2.955  0.00  0.00    -0.076 A 
ATOM      2  C3  UNL d   1       2.308  -2.054   3.324  0.00  0.00     0.004 A 
ATOM      3  C4  UNL d   1       1.315  -1.463   2.544  0.00  0.00    -0.003 A 
ATOM      4  C5  UNL d   1       0.882  -2.091   1.381  0.00  0.00     0.000 A 
ATOM      5  C6  UNL d   1       1.429  -3.319   1.009  0.00  0.00     0.000 A 
ATOM      6  C7  UNL d   1       2.419  -3.936   1.793  0.00  0.00    -0.073 A 
ATOM      7  C8  UNL d   1       2.979  -5.257   1.341  0.00  0.00     0.078 C 
ENDROOT
BRANCH   1   8
ATOM      8  C1  UNL d   1       3.975  -3.861   3.826  0.00  0.00     0.053 C 
ATOM      9  C   UNL d   1       4.208  -3.045   5.088  0.00  0.00     0.018 C 
ENDBRANCH   1   8
TORSDOF 1
ENDMDL
