MODEL 1
REMARK minimizedAffinity 6.64123154
REMARK minimizedRMSD -1
REMARK  1 active torsions:
REMARK  status: ('A' for Active; 'I' for Inactive)
REMARK    1  A    between atoms: C1_2  and  C2_3 
ROOT
ATOM      1  C2  UNL d   1       5.904   1.251  -4.555  0.00  0.00    -0.076 A 
ATOM      2  C3  UNL d   1       5.887   0.648  -5.825  0.00  0.00     0.004 A 
ATOM      3  C4  UNL d   1       5.935  -0.739  -5.961  0.00  0.00    -0.003 A 
ATOM      4  C5  UNL d   1       6.000  -1.545  -4.830  0.00  0.00     0.000 A 
ATOM      5  C6  UNL d   1       6.000  -0.964  -3.562  0.00  0.00     0.000 A 
ATOM      6  C7  UNL d   1       5.936   0.431  -3.407  0.00  0.00    -0.073 A 
ATOM      7  C8  UNL d   1       5.945   1.004  -2.016  0.00  0.00     0.078 C 
ENDROOT
BRANCH   1   8
ATOM      8  C1  UNL d   1       5.878   2.760  -4.470  0.00  0.00     0.053 C 
ATOM      9  C   UNL d   1       4.507   3.338  -4.785  0.00  0.00     0.018 C 
ENDBRANCH   1   8
TORSDOF 1
ENDMDL
