MODEL 1
REMARK minimizedAffinity 7.91930008
REMARK minimizedRMSD -1
REMARK  1 active torsions:
REMARK  status: ('A' for Active; 'I' for Inactive)
REMARK    1  A    between atoms: C1_2  and  C2_3 
ROOT
ATOM      1  C2  UNL d   1       1.534   1.064  -1.743  0.00  0.00    -0.076 A 
ATOM      2  C3  UNL d   1       0.304   1.668  -1.434  0.00  0.00     0.004 A 
ATOM      3  C4  UNL d   1      -0.446   2.313  -2.416  0.00  0.00    -0.003 A 
ATOM      4  C5  UNL d   1       0.023   2.364  -3.724  0.00  0.00     0.000 A 
ATOM      5  C6  UNL d   1       1.233   1.754  -4.053  0.00  0.00     0.000 A 
ATOM      6  C7  UNL d   1       1.993   1.085  -3.078  0.00  0.00    -0.073 A 
ATOM      7  C8  UNL d   1       3.294   0.450  -3.487  0.00  0.00     0.078 C 
ENDROOT
BRANCH   1   8
ATOM      8  C1  UNL d   1       2.316   0.402  -0.631  0.00  0.00     0.053 C 
ATOM      9  C   UNL d   1       2.487   1.307   0.579  0.00  0.00     0.018 C 
ENDBRANCH   1   8
TORSDOF 1
ENDMDL
