MODEL 1
REMARK minimizedAffinity 12.5488605
REMARK minimizedRMSD -1
REMARK  1 active torsions:
REMARK  status: ('A' for Active; 'I' for Inactive)
REMARK    1  A    between atoms: C1_2  and  C2_3 
ROOT
ATOM      1  C2  UNL d   1      -0.240   4.131  -3.047  0.00  0.00    -0.076 A 
ATOM      2  C3  UNL d   1      -0.074   2.820  -2.567  0.00  0.00     0.004 A 
ATOM      3  C4  UNL d   1      -1.175   2.007  -2.304  0.00  0.00    -0.003 A 
ATOM      4  C5  UNL d   1      -2.461   2.491  -2.517  0.00  0.00     0.000 A 
ATOM      5  C6  UNL d   1      -2.644   3.783  -3.009  0.00  0.00     0.000 A 
ATOM      6  C7  UNL d   1      -1.544   4.610  -3.295  0.00  0.00    -0.073 A 
ATOM      7  C8  UNL d   1      -1.800   5.997  -3.818  0.00  0.00     0.078 C 
ENDROOT
BRANCH   1   8
ATOM      8  C1  UNL d   1       0.990   4.975  -3.288  0.00  0.00     0.053 C 
ATOM      9  C   UNL d   1       1.565   4.782  -4.683  0.00  0.00     0.018 C 
ENDBRANCH   1   8
TORSDOF 1
ENDMDL
