MODEL 1
REMARK minimizedAffinity 10.0441723
REMARK minimizedRMSD -1
REMARK  1 active torsions:
REMARK  status: ('A' for Active; 'I' for Inactive)
REMARK    1  A    between atoms: C1_2  and  C2_3 
ROOT
ATOM      1  C2  UNL d   1      -2.017   0.357  -1.206  0.00  0.00    -0.076 A 
ATOM      2  C3  UNL d   1      -2.686   1.516  -1.637  0.00  0.00     0.004 A 
ATOM      3  C4  UNL d   1      -1.977   2.621  -2.105  0.00  0.00    -0.003 A 
ATOM      4  C5  UNL d   1      -0.588   2.586  -2.149  0.00  0.00     0.000 A 
ATOM      5  C6  UNL d   1       0.092   1.439  -1.741  0.00  0.00     0.000 A 
ATOM      6  C7  UNL d   1      -0.608   0.309  -1.282  0.00  0.00    -0.073 A 
ATOM      7  C8  UNL d   1       0.176  -0.899  -0.849  0.00  0.00     0.078 C 
ENDROOT
BRANCH   1   8
ATOM      8  C1  UNL d   1      -2.837  -0.801  -0.683  0.00  0.00     0.053 C 
ATOM      9  C   UNL d   1      -3.841  -1.311  -1.705  0.00  0.00     0.018 C 
ENDBRANCH   1   8
TORSDOF 1
ENDMDL
