MODEL 1
REMARK minimizedAffinity 9.7669878
REMARK minimizedRMSD -1
REMARK  1 active torsions:
REMARK  status: ('A' for Active; 'I' for Inactive)
REMARK    1  A    between atoms: C1_2  and  C2_3 
ROOT
ATOM      1  C2  UNL d   1       3.328  -2.392   1.219  0.00  0.00    -0.076 A 
ATOM      2  C3  UNL d   1       2.584  -2.142   0.053  0.00  0.00     0.004 A 
ATOM      3  C4  UNL d   1       1.192  -2.071   0.091  0.00  0.00    -0.003 A 
ATOM      4  C5  UNL d   1       0.522  -2.248   1.296  0.00  0.00     0.000 A 
ATOM      5  C6  UNL d   1       1.245  -2.479   2.466  0.00  0.00     0.000 A 
ATOM      6  C7  UNL d   1       2.649  -2.538   2.448  0.00  0.00    -0.073 A 
ATOM      7  C8  UNL d   1       3.378  -2.797   3.738  0.00  0.00     0.078 C 
ENDROOT
BRANCH   1   8
ATOM      8  C1  UNL d   1       4.833  -2.486   1.111  0.00  0.00     0.053 C 
ATOM      9  C   UNL d   1       5.476  -1.155   0.754  0.00  0.00     0.018 C 
ENDBRANCH   1   8
TORSDOF 1
ENDMDL
