MODEL 1
REMARK minimizedAffinity -2.19545221
REMARK minimizedRMSD -1
REMARK  0 active torsions:
REMARK  status: ('A' for Active; 'I' for Inactive)
ROOT
ATOM      1  C   UNL d   1      -0.044   0.427   0.366  0.00  0.00     0.172 C 
ATOM      2  N   UNL d   1      -0.686  -0.792   0.799  0.00  0.00    -0.070 N 
ATOM      3  C1  UNL d   1      -0.614  -2.001   0.160  0.00  0.00    -0.004 A 
ATOM      4  C2  UNL d   1      -1.358  -2.906   0.887  0.00  0.00    -0.047 A 
ATOM      5  C3  UNL d   1      -1.895  -2.217   1.999  0.00  0.00    -0.047 A 
ATOM      6  C4  UNL d   1      -1.463  -0.910   1.920  0.00  0.00    -0.004 A 
ENDROOT
TORSDOF 0
ENDMDL
