MODEL 1
REMARK minimizedAffinity -2.67702413
REMARK minimizedRMSD -1
REMARK  0 active torsions:
REMARK  status: ('A' for Active; 'I' for Inactive)
ROOT
ATOM      1  C   UNL d   1       1.104  -1.993  -0.990  0.00  0.00     0.172 C 
ATOM      2  N   UNL d   1       0.148  -1.132  -0.334  0.00  0.00    -0.070 N 
ATOM      3  C1  UNL d   1      -0.883  -1.546   0.466  0.00  0.00    -0.004 A 
ATOM      4  C2  UNL d   1      -1.560  -0.426   0.896  0.00  0.00    -0.047 A 
ATOM      5  C3  UNL d   1      -0.915   0.701   0.334  0.00  0.00    -0.047 A 
ATOM      6  C4  UNL d   1       0.139   0.235  -0.423  0.00  0.00    -0.004 A 
ENDROOT
TORSDOF 0
ENDMDL
