MODEL 1
REMARK minimizedAffinity -2.28186345
REMARK minimizedRMSD -1
REMARK  0 active torsions:
REMARK  status: ('A' for Active; 'I' for Inactive)
ROOT
ATOM      1  C   UNL d   1       0.107   1.300   0.036  0.00  0.00     0.172 C 
ATOM      2  N   UNL d   1       1.041   2.312   0.470  0.00  0.00    -0.070 N 
ATOM      3  C1  UNL d   1       2.401   2.263   0.315  0.00  0.00    -0.004 A 
ATOM      4  C2  UNL d   1       2.929   3.414   0.859  0.00  0.00    -0.047 A 
ATOM      5  C3  UNL d   1       1.850   4.181   1.358  0.00  0.00    -0.047 A 
ATOM      6  C4  UNL d   1       0.693   3.475   1.105  0.00  0.00    -0.004 A 
ENDROOT
TORSDOF 0
ENDMDL
