MODEL 1
REMARK minimizedAffinity -1.86635101
REMARK minimizedRMSD -1
REMARK  0 active torsions:
REMARK  status: ('A' for Active; 'I' for Inactive)
ROOT
ATOM      1  C   UNL d   1       6.000  -5.472   5.999  0.00  0.00     0.172 C 
ATOM      2  N   UNL d   1       5.378  -4.189   5.773  0.00  0.00    -0.070 N 
ATOM      3  C1  UNL d   1       4.090  -3.988   5.354  0.00  0.00    -0.004 A 
ATOM      4  C2  UNL d   1       3.883  -2.629   5.261  0.00  0.00    -0.047 A 
ATOM      5  C3  UNL d   1       5.089  -1.990   5.635  0.00  0.00    -0.047 A 
ATOM      6  C4  UNL d   1       5.998  -2.979   5.947  0.00  0.00    -0.004 A 
ENDROOT
TORSDOF 0
ENDMDL
