MODEL 1
REMARK minimizedAffinity -2.98182774
REMARK minimizedRMSD -1
REMARK  0 active torsions:
REMARK  status: ('A' for Active; 'I' for Inactive)
ROOT
ATOM      1  C   UNL d   1      -0.018   0.022   0.020  0.00  0.00     0.172 C 
ATOM      2  N   UNL d   1      -0.011  -1.383  -0.313  0.00  0.00    -0.070 N 
ATOM      3  C1  UNL d   1      -0.999  -2.281  -0.006  0.00  0.00    -0.004 A 
ATOM      4  C2  UNL d   1      -0.618  -3.512  -0.495  0.00  0.00    -0.047 A 
ATOM      5  C3  UNL d   1       0.643  -3.348  -1.116  0.00  0.00    -0.047 A 
ATOM      6  C4  UNL d   1       0.995  -2.021  -0.989  0.00  0.00    -0.004 A 
ENDROOT
TORSDOF 0
ENDMDL
