MODEL 1
REMARK minimizedAffinity -3.75506854
REMARK minimizedRMSD -1
REMARK  0 active torsions:
REMARK  status: ('A' for Active; 'I' for Inactive)
ROOT
ATOM      1  C   UNL d   1       0.192   1.108  -0.140  0.00  0.00     0.172 C 
ATOM      2  N   UNL d   1      -0.189  -0.218   0.285  0.00  0.00    -0.070 N 
ATOM      3  C1  UNL d   1      -1.129  -0.512   1.237  0.00  0.00    -0.004 A 
ATOM      4  C2  UNL d   1      -1.200  -1.883   1.351  0.00  0.00    -0.047 A 
ATOM      5  C3  UNL d   1      -0.270  -2.433   0.436  0.00  0.00    -0.047 A 
ATOM      6  C4  UNL d   1       0.341  -1.380  -0.211  0.00  0.00    -0.004 A 
ENDROOT
TORSDOF 0
ENDMDL
