MODEL 1
REMARK minimizedAffinity -3.02058101
REMARK minimizedRMSD -1
REMARK  0 active torsions:
REMARK  status: ('A' for Active; 'I' for Inactive)
ROOT
ATOM      1  C   UNL d   1       0.223   1.551  -1.555  0.00  0.00     0.172 C 
ATOM      2  N   UNL d   1       0.947   2.460  -0.698  0.00  0.00    -0.070 N 
ATOM      3  C1  UNL d   1       2.220   2.918  -0.914  0.00  0.00    -0.004 A 
ATOM      4  C2  UNL d   1       2.547   3.762   0.125  0.00  0.00    -0.047 A 
ATOM      5  C3  UNL d   1       1.433   3.812   0.996  0.00  0.00    -0.047 A 
ATOM      6  C4  UNL d   1       0.457   2.997   0.463  0.00  0.00    -0.004 A 
ENDROOT
TORSDOF 0
ENDMDL
