MODEL 1
REMARK minimizedAffinity -3.99450755
REMARK minimizedRMSD -1
REMARK  0 active torsions:
REMARK  status: ('A' for Active; 'I' for Inactive)
ROOT
ATOM      1  C   UNL d   1       0.478   0.891   0.063  0.00  0.00     0.172 C 
ATOM      2  N   UNL d   1       0.189  -0.503   0.301  0.00  0.00    -0.070 N 
ATOM      3  C1  UNL d   1      -0.576  -0.997   1.324  0.00  0.00    -0.004 A 
ATOM      4  C2  UNL d   1      -0.610  -2.369   1.201  0.00  0.00    -0.047 A 
ATOM      5  C3  UNL d   1       0.162  -2.712   0.066  0.00  0.00    -0.047 A 
ATOM      6  C4  UNL d   1       0.645  -1.538  -0.473  0.00  0.00    -0.004 A 
ENDROOT
TORSDOF 0
ENDMDL
