MODEL 1
REMARK minimizedAffinity -3.69371414
REMARK minimizedRMSD -1
REMARK  0 active torsions:
REMARK  status: ('A' for Active; 'I' for Inactive)
ROOT
ATOM      1  C   UNL d   1      -0.065   0.588   0.108  0.00  0.00     0.172 C 
ATOM      2  N   UNL d   1      -0.224  -0.836   0.285  0.00  0.00    -0.070 N 
ATOM      3  C1  UNL d   1       0.454  -1.806  -0.404  0.00  0.00    -0.004 A 
ATOM      4  C2  UNL d   1       0.020  -3.031   0.055  0.00  0.00    -0.047 A 
ATOM      5  C3  UNL d   1      -0.954  -2.788   1.053  0.00  0.00    -0.047 A 
ATOM      6  C4  UNL d   1      -1.085  -1.421   1.175  0.00  0.00    -0.004 A 
ENDROOT
TORSDOF 0
ENDMDL
