MODEL 1
REMARK minimizedAffinity -3.31307459
REMARK minimizedRMSD -1
REMARK  0 active torsions:
REMARK  status: ('A' for Active; 'I' for Inactive)
ROOT
ATOM      1  C   UNL d   1      -1.109  -0.697   1.564  0.00  0.00     0.172 C 
ATOM      2  N   UNL d   1      -0.535  -1.550   0.550  0.00  0.00    -0.070 N 
ATOM      3  C1  UNL d   1      -0.942  -2.824   0.254  0.00  0.00    -0.004 A 
ATOM      4  C2  UNL d   1      -0.146  -3.295  -0.768  0.00  0.00    -0.047 A 
ATOM      5  C3  UNL d   1       0.772  -2.269  -1.096  0.00  0.00    -0.047 A 
ATOM      6  C4  UNL d   1       0.509  -1.201  -0.265  0.00  0.00    -0.004 A 
ENDROOT
TORSDOF 0
ENDMDL
