MODEL 1
REMARK minimizedAffinity -3.55867481
REMARK minimizedRMSD -1
REMARK  0 active torsions:
REMARK  status: ('A' for Active; 'I' for Inactive)
ROOT
ATOM      1  C   UNL d   1      -0.066   0.853  -0.126  0.00  0.00     0.172 C 
ATOM      2  N   UNL d   1      -0.345  -0.516   0.239  0.00  0.00    -0.070 N 
ATOM      3  C1  UNL d   1      -1.330  -0.929   1.096  0.00  0.00    -0.004 A 
ATOM      4  C2  UNL d   1      -1.269  -2.303   1.179  0.00  0.00    -0.047 A 
ATOM      5  C3  UNL d   1      -0.211  -2.731   0.343  0.00  0.00    -0.047 A 
ATOM      6  C4  UNL d   1       0.344  -1.605  -0.227  0.00  0.00    -0.004 A 
ENDROOT
TORSDOF 0
ENDMDL
