MODEL 1
REMARK minimizedAffinity -3.67760754
REMARK minimizedRMSD -1
REMARK  0 active torsions:
REMARK  status: ('A' for Active; 'I' for Inactive)
ROOT
ATOM      1  C   UNL d   1       0.325   0.515  -0.142  0.00  0.00     0.172 C 
ATOM      2  N   UNL d   1      -0.264  -0.741   0.259  0.00  0.00    -0.070 N 
ATOM      3  C1  UNL d   1       0.012  -1.964  -0.291  0.00  0.00    -0.004 A 
ATOM      4  C2  UNL d   1      -0.751  -2.905   0.367  0.00  0.00    -0.047 A 
ATOM      5  C3  UNL d   1      -1.512  -2.223   1.346  0.00  0.00    -0.047 A 
ATOM      6  C4  UNL d   1      -1.191  -0.885   1.258  0.00  0.00    -0.004 A 
ENDROOT
TORSDOF 0
ENDMDL
