MODEL 1
REMARK minimizedAffinity -3.30033207
REMARK minimizedRMSD -1
REMARK  0 active torsions:
REMARK  status: ('A' for Active; 'I' for Inactive)
ROOT
ATOM      1  C   UNL d   1      -0.024   0.749   0.010  0.00  0.00     0.172 C 
ATOM      2  N   UNL d   1      -0.074  -0.688   0.140  0.00  0.00    -0.070 N 
ATOM      3  C1  UNL d   1       0.971  -1.546  -0.076  0.00  0.00    -0.004 A 
ATOM      4  C2  UNL d   1       0.519  -2.828   0.152  0.00  0.00    -0.047 A 
ATOM      5  C3  UNL d   1      -0.845  -2.737   0.517  0.00  0.00    -0.047 A 
ATOM      6  C4  UNL d   1      -1.186  -1.401   0.502  0.00  0.00    -0.004 A 
ENDROOT
TORSDOF 0
ENDMDL
