MODEL 1
REMARK minimizedAffinity -1.82627904
REMARK minimizedRMSD -1
REMARK  0 active torsions:
REMARK  status: ('A' for Active; 'I' for Inactive)
ROOT
ATOM      1  C   UNL d   1       0.041   0.762   0.004  0.00  0.00     0.172 C 
ATOM      2  N   UNL d   1      -0.143  -0.666  -0.102  0.00  0.00    -0.070 N 
ATOM      3  C1  UNL d   1       0.833  -1.576  -0.410  0.00  0.00    -0.004 A 
ATOM      4  C2  UNL d   1       0.257  -2.828  -0.411  0.00  0.00    -0.047 A 
ATOM      5  C3  UNL d   1      -1.112  -2.665  -0.093  0.00  0.00    -0.047 A 
ATOM      6  C4  UNL d   1      -1.333  -1.316   0.094  0.00  0.00    -0.004 A 
ENDROOT
TORSDOF 0
ENDMDL
