MODEL 1
REMARK minimizedAffinity -3.86271596
REMARK minimizedRMSD -1
REMARK  0 active torsions:
REMARK  status: ('A' for Active; 'I' for Inactive)
ROOT
ATOM      1  C   UNL d   1      -0.155   0.574  -0.302  0.00  0.00     0.172 C 
ATOM      2  N   UNL d   1      -0.351  -0.751   0.237  0.00  0.00    -0.070 N 
ATOM      3  C1  UNL d   1       0.418  -1.849  -0.044  0.00  0.00    -0.004 A 
ATOM      4  C2  UNL d   1      -0.092  -2.915   0.667  0.00  0.00    -0.047 A 
ATOM      5  C3  UNL d   1      -1.206  -2.440   1.400  0.00  0.00    -0.047 A 
ATOM      6  C4  UNL d   1      -1.343  -1.098   1.115  0.00  0.00    -0.004 A 
ENDROOT
TORSDOF 0
ENDMDL
