MODEL 1
REMARK minimizedAffinity -2.95951128
REMARK minimizedRMSD -1
REMARK  0 active torsions:
REMARK  status: ('A' for Active; 'I' for Inactive)
ROOT
ATOM      1  C   UNL d   1      -0.909  -0.773   1.408  0.00  0.00     0.172 C 
ATOM      2  N   UNL d   1      -0.726  -1.953   0.596  0.00  0.00    -0.070 N 
ATOM      3  C1  UNL d   1      -0.108  -1.994  -0.625  0.00  0.00    -0.004 A 
ATOM      4  C2  UNL d   1      -0.137  -3.298  -1.069  0.00  0.00    -0.047 A 
ATOM      5  C3  UNL d   1      -0.797  -4.067  -0.081  0.00  0.00    -0.047 A 
ATOM      6  C4  UNL d   1      -1.151  -3.210   0.939  0.00  0.00    -0.004 A 
ENDROOT
TORSDOF 0
ENDMDL
