MODEL 1
REMARK minimizedAffinity -4.25747013
REMARK minimizedRMSD -1
REMARK  1 active torsions:
REMARK  status: ('A' for Active; 'I' for Inactive)
REMARK    1  A    between atoms: N_2  and  C1_3 
ROOT
ATOM      1  C1  UNL d   1      -0.734  -0.295   0.333  0.00  0.00     0.143 A 
ATOM      2  C2  UNL d   1       0.648  -0.502   0.278  0.00  0.00    -0.057 A 
ATOM      3  C3  UNL d   1       1.542   0.574   0.212  0.00  0.00     0.033 A 
ATOM      4  C4  UNL d   1       1.065   1.880   0.170  0.00  0.00    -0.042 A 
ATOM      5  C5  UNL d   1      -0.306   2.109   0.198  0.00  0.00     0.033 A 
ATOM      6  C6  UNL d   1      -1.193   1.030   0.271  0.00  0.00    -0.057 A 
ENDROOT
BRANCH   1   7
ATOM      7  N   UNL d   1      -1.677  -1.325   0.301  0.00  0.00    -0.732 N 
ATOM      8  C   UNL d   1      -2.993  -1.103  -0.259  0.00  0.00     0.284 C 
ATOM      9  H3  UNL d   1      -1.265  -2.221   0.051  0.00  0.00     0.395 HD
ENDBRANCH   1   7
TORSDOF 1
ENDMDL
