MODEL 1
REMARK minimizedAffinity -0.696504712
REMARK minimizedRMSD -1
REMARK  1 active torsions:
REMARK  status: ('A' for Active; 'I' for Inactive)
REMARK    1  A    between atoms: N_2  and  C1_3 
ROOT
ATOM      1  C1  UNL d   1       4.138   3.622  -0.004  0.00  0.00     0.143 A 
ATOM      2  C2  UNL d   1       4.993   4.637  -0.448  0.00  0.00    -0.057 A 
ATOM      3  C3  UNL d   1       5.905   4.415  -1.487  0.00  0.00     0.033 A 
ATOM      4  C4  UNL d   1       5.999   3.162  -2.082  0.00  0.00    -0.042 A 
ATOM      5  C5  UNL d   1       5.177   2.131  -1.640  0.00  0.00     0.033 A 
ATOM      6  C6  UNL d   1       4.263   2.361  -0.607  0.00  0.00    -0.057 A 
ENDROOT
BRANCH   1   7
ATOM      7  N   UNL d   1       3.279   3.752   1.090  0.00  0.00    -0.732 N 
ATOM      8  C   UNL d   1       1.880   3.399   0.975  0.00  0.00     0.284 C 
ATOM      9  H3  UNL d   1       3.712   3.455   1.961  0.00  0.00     0.395 HD
ENDBRANCH   1   7
TORSDOF 1
ENDMDL
