MODEL 1
REMARK minimizedAffinity -5.00422096
REMARK minimizedRMSD -1
REMARK  1 active torsions:
REMARK  status: ('A' for Active; 'I' for Inactive)
REMARK    1  A    between atoms: N_2  and  C1_3 
ROOT
ATOM      1  C1  UNL d   1      -0.888  -0.590   0.201  0.00  0.00     0.143 A 
ATOM      2  C2  UNL d   1      -1.878  -0.582  -0.787  0.00  0.00    -0.057 A 
ATOM      3  C3  UNL d   1      -2.926  -1.511  -0.772  0.00  0.00     0.033 A 
ATOM      4  C4  UNL d   1      -2.985  -2.485   0.219  0.00  0.00    -0.042 A 
ATOM      5  C5  UNL d   1      -1.998  -2.527   1.197  0.00  0.00     0.033 A 
ATOM      6  C6  UNL d   1      -0.958  -1.593   1.180  0.00  0.00    -0.057 A 
ENDROOT
BRANCH   1   7
ATOM      7  N   UNL d   1       0.233   0.244   0.185  0.00  0.00    -0.732 N 
ATOM      8  C   UNL d   1       1.559  -0.299   0.384  0.00  0.00     0.284 C 
ATOM      9  H3  UNL d   1       0.179   0.953  -0.543  0.00  0.00     0.395 HD
ENDBRANCH   1   7
TORSDOF 1
ENDMDL
