MODEL 1
REMARK minimizedAffinity -3.28456736
REMARK minimizedRMSD -1
REMARK  1 active torsions:
REMARK  status: ('A' for Active; 'I' for Inactive)
REMARK    1  A    between atoms: N_2  and  C1_3 
ROOT
ATOM      1  C1  UNL d   1       2.026   1.354   1.066  0.00  0.00     0.143 A 
ATOM      2  C2  UNL d   1       2.246  -0.002   0.799  0.00  0.00    -0.057 A 
ATOM      3  C3  UNL d   1       1.276  -0.783   0.160  0.00  0.00     0.033 A 
ATOM      4  C4  UNL d   1       0.052  -0.227  -0.198  0.00  0.00    -0.042 A 
ATOM      5  C5  UNL d   1      -0.199   1.112   0.080  0.00  0.00     0.033 A 
ATOM      6  C6  UNL d   1       0.777   1.888   0.713  0.00  0.00    -0.057 A 
ENDROOT
BRANCH   1   7
ATOM      7  N   UNL d   1       2.911   2.159   1.787  0.00  0.00    -0.732 N 
ATOM      8  C   UNL d   1       2.809   3.601   1.730  0.00  0.00     0.284 C 
ATOM      9  H3  UNL d   1       3.102   1.791   2.716  0.00  0.00     0.395 HD
ENDBRANCH   1   7
TORSDOF 1
ENDMDL
