MODEL 1
REMARK minimizedAffinity -3.23252106
REMARK minimizedRMSD -1
REMARK  1 active torsions:
REMARK  status: ('A' for Active; 'I' for Inactive)
REMARK    1  A    between atoms: N_2  and  C1_3 
ROOT
ATOM      1  C1  UNL d   1       1.565   1.306   1.006  0.00  0.00     0.143 A 
ATOM      2  C2  UNL d   1       0.169   1.365   0.940  0.00  0.00    -0.057 A 
ATOM      3  C3  UNL d   1      -0.551   0.555   0.053  0.00  0.00     0.033 A 
ATOM      4  C4  UNL d   1       0.117  -0.310  -0.807  0.00  0.00    -0.042 A 
ATOM      5  C5  UNL d   1       1.506  -0.367  -0.776  0.00  0.00     0.033 A 
ATOM      6  C6  UNL d   1       2.219   0.439   0.117  0.00  0.00    -0.057 A 
ENDROOT
BRANCH   1   7
ATOM      7  N   UNL d   1       2.343   2.155   1.797  0.00  0.00    -0.732 N 
ATOM      8  C   UNL d   1       2.718   3.468   1.319  0.00  0.00     0.284 C 
ATOM      9  H3  UNL d   1       2.070   2.131   2.777  0.00  0.00     0.395 HD
ENDBRANCH   1   7
TORSDOF 1
ENDMDL
