MODEL 1
REMARK minimizedAffinity -2.59678793
REMARK minimizedRMSD -1
REMARK  1 active torsions:
REMARK  status: ('A' for Active; 'I' for Inactive)
REMARK    1  A    between atoms: N_2  and  C1_3 
ROOT
ATOM      1  C1  UNL d   1       0.912   0.420  -0.020  0.00  0.00     0.143 A 
ATOM      2  C2  UNL d   1       0.474   1.164  -1.121  0.00  0.00    -0.057 A 
ATOM      3  C3  UNL d   1      -0.793   0.956  -1.679  0.00  0.00     0.033 A 
ATOM      4  C4  UNL d   1      -1.635  -0.024  -1.163  0.00  0.00    -0.042 A 
ATOM      5  C5  UNL d   1      -1.210  -0.792  -0.085  0.00  0.00     0.033 A 
ATOM      6  C6  UNL d   1       0.053  -0.575   0.472  0.00  0.00    -0.057 A 
ENDROOT
BRANCH   1   7
ATOM      7  N   UNL d   1       2.198   0.511   0.518  0.00  0.00    -0.732 N 
ATOM      8  C   UNL d   1       2.916   1.768   0.503  0.00  0.00     0.284 C 
ATOM      9  H3  UNL d   1       2.295  -0.012   1.385  0.00  0.00     0.395 HD
ENDBRANCH   1   7
TORSDOF 1
ENDMDL
