MODEL 1
REMARK minimizedAffinity -2.98788929
REMARK minimizedRMSD -1
REMARK  1 active torsions:
REMARK  status: ('A' for Active; 'I' for Inactive)
REMARK    1  A    between atoms: N_2  and  C1_3 
ROOT
ATOM      1  C1  UNL d   1       0.951   0.802   0.211  0.00  0.00     0.143 A 
ATOM      2  C2  UNL d   1       0.802   2.086   0.748  0.00  0.00    -0.057 A 
ATOM      3  C3  UNL d   1       1.911   2.833   1.161  0.00  0.00     0.033 A 
ATOM      4  C4  UNL d   1       3.191   2.297   1.071  0.00  0.00    -0.042 A 
ATOM      5  C5  UNL d   1       3.361   1.014   0.563  0.00  0.00     0.033 A 
ATOM      6  C6  UNL d   1       2.250   0.275   0.146  0.00  0.00    -0.057 A 
ENDROOT
BRANCH   1   7
ATOM      7  N   UNL d   1      -0.120  -0.029  -0.126  0.00  0.00    -0.732 N 
ATOM      8  C   UNL d   1      -1.066   0.365  -1.147  0.00  0.00     0.284 C 
ATOM      9  H3  UNL d   1       0.147  -1.010  -0.162  0.00  0.00     0.395 HD
ENDBRANCH   1   7
TORSDOF 1
ENDMDL
