MODEL 1
REMARK minimizedAffinity -2.12193274
REMARK minimizedRMSD -1
REMARK  1 active torsions:
REMARK  status: ('A' for Active; 'I' for Inactive)
REMARK    1  A    between atoms: N_2  and  C1_3 
ROOT
ATOM      1  C1  UNL d   1       3.923   3.612  -0.915  0.00  0.00     0.143 A 
ATOM      2  C2  UNL d   1       3.445   4.248   0.236  0.00  0.00    -0.057 A 
ATOM      3  C3  UNL d   1       2.725   3.544   1.209  0.00  0.00     0.033 A 
ATOM      4  C4  UNL d   1       2.445   2.193   1.033  0.00  0.00    -0.042 A 
ATOM      5  C5  UNL d   1       2.888   1.546  -0.115  0.00  0.00     0.033 A 
ATOM      6  C6  UNL d   1       3.612   2.253  -1.080  0.00  0.00    -0.057 A 
ENDROOT
BRANCH   1   7
ATOM      7  N   UNL d   1       4.559   4.279  -1.965  0.00  0.00    -0.732 N 
ATOM      8  C   UNL d   1       5.338   3.546  -2.940  0.00  0.00     0.284 C 
ATOM      9  H3  UNL d   1       3.983   5.017  -2.363  0.00  0.00     0.395 HD
ENDBRANCH   1   7
TORSDOF 1
ENDMDL
