MODEL 1
REMARK minimizedAffinity -4.38314724
REMARK minimizedRMSD -1
REMARK  1 active torsions:
REMARK  status: ('A' for Active; 'I' for Inactive)
REMARK    1  A    between atoms: N_2  and  C1_3 
ROOT
ATOM      1  C1  UNL d   1       0.571   0.070   0.092  0.00  0.00     0.143 A 
ATOM      2  C2  UNL d   1      -0.467  -0.721   0.594  0.00  0.00    -0.057 A 
ATOM      3  C3  UNL d   1      -1.672  -0.867  -0.104  0.00  0.00     0.033 A 
ATOM      4  C4  UNL d   1      -1.871  -0.198  -1.307  0.00  0.00    -0.042 A 
ATOM      5  C5  UNL d   1      -0.862   0.614  -1.813  0.00  0.00     0.033 A 
ATOM      6  C6  UNL d   1       0.341   0.750  -1.114  0.00  0.00    -0.057 A 
ENDROOT
BRANCH   1   7
ATOM      7  N   UNL d   1       1.754   0.333   0.786  0.00  0.00    -0.732 N 
ATOM      8  C   UNL d   1       2.652   1.379   0.344  0.00  0.00     0.284 C 
ATOM      9  H3  UNL d   1       1.630   0.292   1.795  0.00  0.00     0.395 HD
ENDBRANCH   1   7
TORSDOF 1
ENDMDL
