MODEL 1
REMARK minimizedAffinity -5.13956928
REMARK minimizedRMSD -1
REMARK  1 active torsions:
REMARK  status: ('A' for Active; 'I' for Inactive)
REMARK    1  A    between atoms: C1_2  and  C2_3 
ROOT
ATOM      1  C2  UNL d   1       0.233  -0.330  -0.071  0.00  0.00    -0.077 A 
ATOM      2  C3  UNL d   1       1.071   0.063   0.981  0.00  0.00     0.002 A 
ATOM      3  C4  UNL d   1       2.256  -0.631   1.238  0.00  0.00     0.002 A 
ATOM      4  C5  UNL d   1       2.614  -1.718   0.443  0.00  0.00    -0.004 A 
ATOM      5  C6  UNL d   1       1.786  -2.118  -0.605  0.00  0.00     0.002 A 
ATOM      6  C7  UNL d   1       0.602  -1.426  -0.862  0.00  0.00     0.002 A 
ENDROOT
BRANCH   1   7
ATOM      7  C1  UNL d   1      -1.020   0.447  -0.380  0.00  0.00     0.055 C 
ATOM      8  C   UNL d   1      -1.909   0.575   0.848  0.00  0.00     0.019 C 
ENDBRANCH   1   7
TORSDOF 1
ENDMDL
