MODEL 1
REMARK minimizedAffinity -5.43120241
REMARK minimizedRMSD -1
REMARK  1 active torsions:
REMARK  status: ('A' for Active; 'I' for Inactive)
REMARK    1  A    between atoms: C1_2  and  C2_3 
ROOT
ATOM      1  C2  UNL d   1       0.255   0.121  -0.039  0.00  0.00    -0.077 A 
ATOM      2  C3  UNL d   1       1.286   0.402   0.868  0.00  0.00     0.002 A 
ATOM      3  C4  UNL d   1       2.286  -0.541   1.114  0.00  0.00     0.002 A 
ATOM      4  C5  UNL d   1       2.266  -1.768   0.455  0.00  0.00    -0.004 A 
ATOM      5  C6  UNL d   1       1.243  -2.057  -0.448  0.00  0.00     0.002 A 
ATOM      6  C7  UNL d   1       0.243  -1.117  -0.694  0.00  0.00     0.002 A 
ENDROOT
BRANCH   1   7
ATOM      7  C1  UNL d   1      -0.797   1.156  -0.343  0.00  0.00     0.055 C 
ATOM      8  C   UNL d   1      -2.198   0.590  -0.164  0.00  0.00     0.019 C 
ENDBRANCH   1   7
TORSDOF 1
ENDMDL
