MODEL 1
REMARK minimizedAffinity -5.51631546
REMARK minimizedRMSD -1
REMARK  1 active torsions:
REMARK  status: ('A' for Active; 'I' for Inactive)
REMARK    1  A    between atoms: C1_2  and  C2_3 
ROOT
ATOM      1  C2  UNL d   1       0.002  -0.236  -0.083  0.00  0.00    -0.077 A 
ATOM      2  C3  UNL d   1      -0.026  -1.531  -0.619  0.00  0.00     0.002 A 
ATOM      3  C4  UNL d   1       1.031  -2.414  -0.387  0.00  0.00     0.002 A 
ATOM      4  C5  UNL d   1       2.121  -2.012   0.383  0.00  0.00    -0.004 A 
ATOM      5  C6  UNL d   1       2.158  -0.725   0.918  0.00  0.00     0.002 A 
ATOM      6  C7  UNL d   1       1.103   0.158   0.687  0.00  0.00     0.002 A 
ENDROOT
BRANCH   1   7
ATOM      7  C1  UNL d   1      -1.160   0.701  -0.290  0.00  0.00     0.055 C 
ATOM      8  C   UNL d   1      -2.314   0.365   0.642  0.00  0.00     0.019 C 
ENDBRANCH   1   7
TORSDOF 1
ENDMDL
