MODEL 1
REMARK minimizedAffinity -5.11435652
REMARK minimizedRMSD -1
REMARK  1 active torsions:
REMARK  status: ('A' for Active; 'I' for Inactive)
REMARK    1  A    between atoms: C1_2  and  C2_3 
ROOT
ATOM      1  C2  UNL d   1       0.944  -0.790  -0.381  0.00  0.00    -0.077 A 
ATOM      2  C3  UNL d   1       1.585  -0.293   0.763  0.00  0.00     0.002 A 
ATOM      3  C4  UNL d   1       2.958  -0.481   0.940  0.00  0.00     0.002 A 
ATOM      4  C5  UNL d   1       3.700  -1.161  -0.022  0.00  0.00    -0.004 A 
ATOM      5  C6  UNL d   1       3.071  -1.661  -1.162  0.00  0.00     0.002 A 
ATOM      6  C7  UNL d   1       1.699  -1.476  -1.341  0.00  0.00     0.002 A 
ENDROOT
BRANCH   1   7
ATOM      7  C1  UNL d   1      -0.527  -0.547  -0.598  0.00  0.00     0.055 C 
ATOM      8  C   UNL d   1      -0.899   0.898  -0.296  0.00  0.00     0.019 C 
ENDBRANCH   1   7
TORSDOF 1
ENDMDL
