MODEL 1
REMARK minimizedAffinity -3.00011158
REMARK minimizedRMSD -1
REMARK  1 active torsions:
REMARK  status: ('A' for Active; 'I' for Inactive)
REMARK    1  A    between atoms: C1_2  and  C2_3 
ROOT
ATOM      1  C2  UNL d   1       1.906  -0.304   0.308  0.00  0.00    -0.077 A 
ATOM      2  C3  UNL d   1       0.833   0.173   1.075  0.00  0.00     0.002 A 
ATOM      3  C4  UNL d   1      -0.479  -0.168   0.743  0.00  0.00     0.002 A 
ATOM      4  C5  UNL d   1      -0.731  -0.988  -0.355  0.00  0.00    -0.004 A 
ATOM      5  C6  UNL d   1       0.328  -1.465  -1.125  0.00  0.00     0.002 A 
ATOM      6  C7  UNL d   1       1.641  -1.126  -0.795  0.00  0.00     0.002 A 
ENDROOT
BRANCH   1   7
ATOM      7  C1  UNL d   1       3.325   0.022   0.694  0.00  0.00     0.055 C 
ATOM      8  C   UNL d   1       3.703   1.435   0.274  0.00  0.00     0.019 C 
ENDBRANCH   1   7
TORSDOF 1
ENDMDL
