MODEL 1
REMARK minimizedAffinity -4.70307302
REMARK minimizedRMSD -1
REMARK  1 active torsions:
REMARK  status: ('A' for Active; 'I' for Inactive)
REMARK    1  A    between atoms: C1_2  and  C2_3 
ROOT
ATOM      1  C2  UNL d   1      -0.871   0.123  -0.141  0.00  0.00    -0.077 A 
ATOM      2  C3  UNL d   1      -1.121  -0.909  -1.056  0.00  0.00     0.002 A 
ATOM      3  C4  UNL d   1      -0.194  -1.938  -1.231  0.00  0.00     0.002 A 
ATOM      4  C5  UNL d   1       0.987  -1.947  -0.492  0.00  0.00    -0.004 A 
ATOM      5  C6  UNL d   1       1.246  -0.924   0.420  0.00  0.00     0.002 A 
ATOM      6  C7  UNL d   1       0.321   0.106   0.594  0.00  0.00     0.002 A 
ENDROOT
BRANCH   1   7
ATOM      7  C1  UNL d   1      -1.892   1.208   0.084  0.00  0.00     0.055 C 
ATOM      8  C   UNL d   1      -3.246   0.822  -0.494  0.00  0.00     0.019 C 
ENDBRANCH   1   7
TORSDOF 1
ENDMDL
