MODEL 1
REMARK minimizedAffinity -4.77557468
REMARK minimizedRMSD -1
REMARK  1 active torsions:
REMARK  status: ('A' for Active; 'I' for Inactive)
REMARK    1  A    between atoms: C1_2  and  C2_3 
ROOT
ATOM      1  C2  UNL d   1      -1.011   1.153  -0.315  0.00  0.00    -0.077 A 
ATOM      2  C3  UNL d   1      -1.007  -0.242  -0.175  0.00  0.00     0.002 A 
ATOM      3  C4  UNL d   1       0.168  -0.913   0.170  0.00  0.00     0.002 A 
ATOM      4  C5  UNL d   1       1.345  -0.198   0.382  0.00  0.00    -0.004 A 
ATOM      5  C6  UNL d   1       1.351   1.189   0.243  0.00  0.00     0.002 A 
ATOM      6  C7  UNL d   1       0.179   1.862  -0.103  0.00  0.00     0.002 A 
ENDROOT
BRANCH   1   7
ATOM      7  C1  UNL d   1      -2.288   1.884  -0.639  0.00  0.00     0.055 C 
ATOM      8  C   UNL d   1      -3.357   1.622   0.411  0.00  0.00     0.019 C 
ENDBRANCH   1   7
TORSDOF 1
ENDMDL
