MODEL 1
REMARK minimizedAffinity -2.71173954
REMARK minimizedRMSD -1
REMARK  1 active torsions:
REMARK  status: ('A' for Active; 'I' for Inactive)
REMARK    1  A    between atoms: C1_2  and  C2_3 
ROOT
ATOM      1  C2  UNL d   1       0.112  -0.613  -1.411  0.00  0.00    -0.077 A 
ATOM      2  C3  UNL d   1      -0.387  -1.911  -1.230  0.00  0.00     0.002 A 
ATOM      3  C4  UNL d   1       0.463  -2.947  -0.838  0.00  0.00     0.002 A 
ATOM      4  C5  UNL d   1       1.816  -2.695  -0.619  0.00  0.00    -0.004 A 
ATOM      5  C6  UNL d   1       2.322  -1.408  -0.798  0.00  0.00     0.002 A 
ATOM      6  C7  UNL d   1       1.474  -0.372  -1.191  0.00  0.00     0.002 A 
ENDROOT
BRANCH   1   7
ATOM      7  C1  UNL d   1      -0.813   0.515  -1.786  0.00  0.00     0.055 C 
ATOM      8  C   UNL d   1      -2.209   0.297  -1.222  0.00  0.00     0.019 C 
ENDBRANCH   1   7
TORSDOF 1
ENDMDL
