MODEL 1
REMARK minimizedAffinity -1.57198441
REMARK minimizedRMSD -1
REMARK  0 active torsions:
REMARK  status: ('A' for Active; 'I' for Inactive)
ROOT
ATOM      1  C   UNL d   1       0.910  -0.579  -1.850  0.00  0.00     0.124 A 
ATOM      2  C1  UNL d   1       0.561   0.752  -2.035  0.00  0.00     0.062 A 
ATOM      3  C2  UNL d   1      -0.009   1.478  -0.994  0.00  0.00     0.162 A 
ATOM      4  C3  UNL d   1      -0.233   0.875   0.244  0.00  0.00    -0.034 A 
ATOM      5  C4  UNL d   1       0.119  -0.464   0.423  0.00  0.00     0.162 A 
ATOM      6  C5  UNL d   1       0.688  -1.186  -0.622  0.00  0.00     0.062 A 
ATOM      7  F   UNL d   1       1.024  -2.471  -0.440  0.00  0.00    -0.097 F 
ATOM      8  F1  UNL d   1      -0.083  -1.075   1.600  0.00  0.00    -0.096 F 
ATOM      9  I   UNL d   1      -1.086   1.957   1.804  0.00  0.00    -0.060 I 
ATOM     10  F2  UNL d   1      -0.335   2.762  -1.201  0.00  0.00    -0.096 F 
ATOM     11  F3  UNL d   1       0.774   1.340  -3.222  0.00  0.00    -0.097 F 
ATOM     12  F4  UNL d   1       1.457  -1.276  -2.854  0.00  0.00    -0.092 F 
ENDROOT
TORSDOF 0
ENDMDL
