MODEL 1
REMARK minimizedAffinity -1.6635201
REMARK minimizedRMSD -1
REMARK  0 active torsions:
REMARK  status: ('A' for Active; 'I' for Inactive)
ROOT
ATOM      1  C   UNL d   1       0.815  -0.148  -1.673  0.00  0.00     0.124 A 
ATOM      2  C1  UNL d   1       0.054   0.955  -2.039  0.00  0.00     0.062 A 
ATOM      3  C2  UNL d   1      -0.702   1.630  -1.085  0.00  0.00     0.162 A 
ATOM      4  C3  UNL d   1      -0.701   1.206   0.244  0.00  0.00    -0.034 A 
ATOM      5  C4  UNL d   1       0.065   0.096   0.603  0.00  0.00     0.162 A 
ATOM      6  C5  UNL d   1       0.819  -0.576  -0.353  0.00  0.00     0.062 A 
ATOM      7  F   UNL d   1       1.553  -1.641   0.001  0.00  0.00    -0.097 F 
ATOM      8  F1  UNL d   1       0.089  -0.339   1.872  0.00  0.00    -0.096 F 
ATOM      9  I   UNL d   1      -1.831   2.214   1.672  0.00  0.00    -0.060 I 
ATOM     10  F2  UNL d   1      -1.427   2.692  -1.467  0.00  0.00    -0.096 F 
ATOM     11  F3  UNL d   1       0.047   1.370  -3.314  0.00  0.00    -0.097 F 
ATOM     12  F4  UNL d   1       1.541  -0.796  -2.593  0.00  0.00    -0.092 F 
ENDROOT
TORSDOF 0
ENDMDL
