MODEL 1
REMARK minimizedAffinity -0.813851833
REMARK minimizedRMSD -1
REMARK  0 active torsions:
REMARK  status: ('A' for Active; 'I' for Inactive)
ROOT
ATOM      1  C   UNL d   1       1.206   0.022  -1.100  0.00  0.00     0.124 A 
ATOM      2  C1  UNL d   1       0.330   0.938  -1.664  0.00  0.00     0.062 A 
ATOM      3  C2  UNL d   1      -0.447   1.757  -0.849  0.00  0.00     0.162 A 
ATOM      4  C3  UNL d   1      -0.350   1.663   0.540  0.00  0.00    -0.034 A 
ATOM      5  C4  UNL d   1       0.534   0.738   1.099  0.00  0.00     0.162 A 
ATOM      6  C5  UNL d   1       1.307  -0.078   0.280  0.00  0.00     0.062 A 
ATOM      7  F   UNL d   1       2.154  -0.963   0.826  0.00  0.00    -0.097 F 
ATOM      8  F1  UNL d   1       0.652   0.621   2.430  0.00  0.00    -0.096 F 
ATOM      9  I   UNL d   1      -1.509   2.885   1.762  0.00  0.00    -0.060 I 
ATOM     10  F2  UNL d   1      -1.285   2.634  -1.421  0.00  0.00    -0.096 F 
ATOM     11  F3  UNL d   1       0.230   1.036  -2.997  0.00  0.00    -0.097 F 
ATOM     12  F4  UNL d   1       1.952  -0.765  -1.887  0.00  0.00    -0.092 F 
ENDROOT
TORSDOF 0
ENDMDL
