MODEL 1
REMARK minimizedAffinity 3.55844164
REMARK minimizedRMSD -1
REMARK  0 active torsions:
REMARK  status: ('A' for Active; 'I' for Inactive)
ROOT
ATOM      1  C   UNL d   1       0.126   1.679   0.383  0.00  0.00     0.124 A 
ATOM      2  C1  UNL d   1       0.120   1.488  -0.992  0.00  0.00     0.062 A 
ATOM      3  C2  UNL d   1       0.022   0.204  -1.521  0.00  0.00     0.162 A 
ATOM      4  C3  UNL d   1      -0.071  -0.900  -0.674  0.00  0.00    -0.034 A 
ATOM      5  C4  UNL d   1      -0.063  -0.701   0.708  0.00  0.00     0.162 A 
ATOM      6  C5  UNL d   1       0.035   0.584   1.231  0.00  0.00     0.062 A 
ATOM      7  F   UNL d   1       0.041   0.766   2.560  0.00  0.00    -0.097 F 
ATOM      8  F1  UNL d   1      -0.151  -1.740   1.551  0.00  0.00    -0.096 F 
ATOM      9  I   UNL d   1      -0.217  -2.822  -1.460  0.00  0.00    -0.060 I 
ATOM     10  F2  UNL d   1       0.018   0.050  -2.853  0.00  0.00    -0.096 F 
ATOM     11  F3  UNL d   1       0.209   2.544  -1.814  0.00  0.00    -0.097 F 
ATOM     12  F4  UNL d   1       0.221   2.915   0.888  0.00  0.00    -0.092 F 
ENDROOT
TORSDOF 0
ENDMDL
