MODEL 1
REMARK minimizedAffinity -1.92049861
REMARK minimizedRMSD -1
REMARK  0 active torsions:
REMARK  status: ('A' for Active; 'I' for Inactive)
ROOT
ATOM      1  C   UNL d   1       0.080   1.620   0.765  0.00  0.00     0.124 A 
ATOM      2  C1  UNL d   1      -0.055   0.589   1.685  0.00  0.00     0.062 A 
ATOM      3  C2  UNL d   1      -0.280  -0.713   1.249  0.00  0.00     0.162 A 
ATOM      4  C3  UNL d   1      -0.371  -0.993  -0.115  0.00  0.00    -0.034 A 
ATOM      5  C4  UNL d   1      -0.235   0.049  -1.034  0.00  0.00     0.162 A 
ATOM      6  C5  UNL d   1      -0.009   1.349  -0.593  0.00  0.00     0.062 A 
ATOM      7  F   UNL d   1       0.121   2.343  -1.484  0.00  0.00    -0.097 F 
ATOM      8  F1  UNL d   1      -0.316  -0.185  -2.352  0.00  0.00    -0.096 F 
ATOM      9  I   UNL d   1      -0.708  -2.939  -0.771  0.00  0.00    -0.060 I 
ATOM     10  F2  UNL d   1      -0.407  -1.689   2.160  0.00  0.00    -0.096 F 
ATOM     11  F3  UNL d   1       0.030   0.849   2.997  0.00  0.00    -0.097 F 
ATOM     12  F4  UNL d   1       0.296   2.872   1.187  0.00  0.00    -0.092 F 
ENDROOT
TORSDOF 0
ENDMDL
