MODEL 1
REMARK minimizedAffinity -2.76460028
REMARK minimizedRMSD -1
REMARK  0 active torsions:
REMARK  status: ('A' for Active; 'I' for Inactive)
ROOT
ATOM      1  C   UNL d   1      -1.006   2.148   0.795  0.00  0.00     0.124 A 
ATOM      2  C1  UNL d   1      -0.622   1.225   1.757  0.00  0.00     0.062 A 
ATOM      3  C2  UNL d   1      -0.095  -0.006   1.376  0.00  0.00     0.162 A 
ATOM      4  C3  UNL d   1       0.051  -0.320   0.025  0.00  0.00    -0.034 A 
ATOM      5  C4  UNL d   1      -0.339   0.613  -0.937  0.00  0.00     0.162 A 
ATOM      6  C5  UNL d   1      -0.864   1.841  -0.551  0.00  0.00     0.062 A 
ATOM      7  F   UNL d   1      -1.235   2.732  -1.483  0.00  0.00    -0.097 F 
ATOM      8  F1  UNL d   1      -0.212   0.342  -2.245  0.00  0.00    -0.096 F 
ATOM      9  I   UNL d   1       0.838  -2.160  -0.549  0.00  0.00    -0.060 I 
ATOM     10  F2  UNL d   1       0.268  -0.878   2.328  0.00  0.00    -0.096 F 
ATOM     11  F3  UNL d   1      -0.759   1.519   3.058  0.00  0.00    -0.097 F 
ATOM     12  F4  UNL d   1      -1.513   3.331   1.164  0.00  0.00    -0.092 F 
ENDROOT
TORSDOF 0
ENDMDL
