MODEL 1
REMARK minimizedAffinity 1.58702016
REMARK minimizedRMSD -1
REMARK  0 active torsions:
REMARK  status: ('A' for Active; 'I' for Inactive)
ROOT
ATOM      1  C   UNL d   1      -0.415   2.142   1.036  0.00  0.00     0.124 A 
ATOM      2  C1  UNL d   1       0.444   1.315   1.747  0.00  0.00     0.062 A 
ATOM      3  C2  UNL d   1       0.803   0.073   1.235  0.00  0.00     0.162 A 
ATOM      4  C3  UNL d   1       0.305  -0.351   0.002  0.00  0.00    -0.034 A 
ATOM      5  C4  UNL d   1      -0.558   0.485  -0.707  0.00  0.00     0.162 A 
ATOM      6  C5  UNL d   1      -0.915   1.727  -0.190  0.00  0.00     0.062 A 
ATOM      7  F   UNL d   1      -1.745   2.524  -0.878  0.00  0.00    -0.097 F 
ATOM      8  F1  UNL d   1      -1.056   0.109  -1.894  0.00  0.00    -0.096 F 
ATOM      9  I   UNL d   1       0.841  -2.209  -0.768  0.00  0.00    -0.060 I 
ATOM     10  F2  UNL d   1       1.635  -0.706   1.943  0.00  0.00    -0.096 F 
ATOM     11  F3  UNL d   1       0.928   1.714   2.933  0.00  0.00    -0.097 F 
ATOM     12  F4  UNL d   1      -0.760   3.337   1.533  0.00  0.00    -0.092 F 
ENDROOT
TORSDOF 0
ENDMDL
