MODEL 1
REMARK minimizedAffinity 1.54858375
REMARK minimizedRMSD -1
REMARK  0 active torsions:
REMARK  status: ('A' for Active; 'I' for Inactive)
ROOT
ATOM      1  C   UNL d   1      -0.943   2.271  -0.895  0.00  0.00     0.124 A 
ATOM      2  C1  UNL d   1      -0.969   2.364   0.490  0.00  0.00     0.062 A 
ATOM      3  C2  UNL d   1      -0.133   1.561   1.261  0.00  0.00     0.162 A 
ATOM      4  C3  UNL d   1       0.737   0.659   0.649  0.00  0.00    -0.034 A 
ATOM      5  C4  UNL d   1       0.757   0.571  -0.744  0.00  0.00     0.162 A 
ATOM      6  C5  UNL d   1      -0.081   1.375  -1.510  0.00  0.00     0.062 A 
ATOM      7  F   UNL d   1      -0.054   1.284  -2.848  0.00  0.00    -0.097 F 
ATOM      8  F1  UNL d   1       1.581  -0.285  -1.365  0.00  0.00    -0.096 F 
ATOM      9  I   UNL d   1       1.989  -0.542   1.798  0.00  0.00    -0.060 I 
ATOM     10  F2  UNL d   1      -0.180   1.672   2.597  0.00  0.00    -0.096 F 
ATOM     11  F3  UNL d   1      -1.803   3.228   1.087  0.00  0.00    -0.097 F 
ATOM     12  F4  UNL d   1      -1.750   3.043  -1.634  0.00  0.00    -0.092 F 
ENDROOT
TORSDOF 0
ENDMDL
