MODEL 1
REMARK minimizedAffinity 2.89899778
REMARK minimizedRMSD -1
REMARK  0 active torsions:
REMARK  status: ('A' for Active; 'I' for Inactive)
ROOT
ATOM      1  C   UNL d   1      -0.381   1.925   0.718  0.00  0.00     0.124 A 
ATOM      2  C1  UNL d   1      -0.225   0.812   1.533  0.00  0.00     0.062 A 
ATOM      3  C2  UNL d   1      -0.063  -0.450   0.969  0.00  0.00     0.162 A 
ATOM      4  C3  UNL d   1      -0.055  -0.606  -0.417  0.00  0.00    -0.034 A 
ATOM      5  C4  UNL d   1      -0.213   0.518  -1.230  0.00  0.00     0.162 A 
ATOM      6  C5  UNL d   1      -0.375   1.777  -0.662  0.00  0.00     0.062 A 
ATOM      7  F   UNL d   1      -0.525   2.851  -1.450  0.00  0.00    -0.097 F 
ATOM      8  F1  UNL d   1      -0.210   0.403  -2.566  0.00  0.00    -0.096 F 
ATOM      9  I   UNL d   1       0.188  -2.492  -1.263  0.00  0.00    -0.060 I 
ATOM     10  F2  UNL d   1       0.086  -1.508   1.780  0.00  0.00    -0.096 F 
ATOM     11  F3  UNL d   1      -0.232   0.953   2.866  0.00  0.00    -0.097 F 
ATOM     12  F4  UNL d   1      -0.538   3.139   1.263  0.00  0.00    -0.092 F 
ENDROOT
TORSDOF 0
ENDMDL
