MODEL 1
REMARK minimizedAffinity -2.61767673
REMARK minimizedRMSD -1
REMARK  1 active torsions:
REMARK  status: ('A' for Active; 'I' for Inactive)
REMARK    1  A    between atoms: C1_2  and  C2_3 
ROOT
ATOM      1  C2  UNL d   1       0.514   0.535   0.170  0.00  0.00    -0.073 A 
ATOM      2  C3  UNL d   1      -0.254  -0.572   0.548  0.00  0.00    -0.002 A 
ATOM      3  C4  UNL d   1      -1.183  -1.121  -0.336  0.00  0.00     0.004 A 
ATOM      4  C5  UNL d   1      -1.349  -0.575  -1.609  0.00  0.00    -0.004 A 
ATOM      5  C6  UNL d   1      -0.582   0.524  -2.010  0.00  0.00    -0.075 A 
ATOM      6  C7  UNL d   1      -0.750   1.125  -3.375  0.00  0.00     0.076 C 
ATOM      7  C8  UNL d   1       0.347   1.071  -1.115  0.00  0.00     0.001 A 
ENDROOT
BRANCH   1   8
ATOM      8  C1  UNL d   1       1.523   1.127   1.119  0.00  0.00     0.053 C 
ATOM      9  C   UNL d   1       2.625   1.875   0.386  0.00  0.00     0.018 C 
ENDBRANCH   1   8
TORSDOF 1
ENDMDL
