MODEL 1
REMARK minimizedAffinity -1.58271194
REMARK minimizedRMSD -1
REMARK  1 active torsions:
REMARK  status: ('A' for Active; 'I' for Inactive)
REMARK    1  A    between atoms: C1_2  and  C2_3 
ROOT
ATOM      1  C2  UNL d   1       1.410   1.005   0.047  0.00  0.00    -0.073 A 
ATOM      2  C3  UNL d   1       1.164  -0.252   0.611  0.00  0.00    -0.002 A 
ATOM      3  C4  UNL d   1       0.048  -0.993   0.221  0.00  0.00     0.004 A 
ATOM      4  C5  UNL d   1      -0.828  -0.490  -0.740  0.00  0.00    -0.004 A 
ATOM      5  C6  UNL d   1      -0.594   0.759  -1.324  0.00  0.00    -0.075 A 
ATOM      6  C7  UNL d   1      -1.528   1.316  -2.357  0.00  0.00     0.076 C 
ATOM      7  C8  UNL d   1       0.528   1.499  -0.925  0.00  0.00     0.001 A 
ENDROOT
BRANCH   1   8
ATOM      8  C1  UNL d   1       2.617   1.807   0.460  0.00  0.00     0.053 C 
ATOM      9  C   UNL d   1       2.577   2.180   1.934  0.00  0.00     0.018 C 
ENDBRANCH   1   8
TORSDOF 1
ENDMDL
