MODEL 1
REMARK minimizedAffinity -3.27022552
REMARK minimizedRMSD -1
REMARK  1 active torsions:
REMARK  status: ('A' for Active; 'I' for Inactive)
REMARK    1  A    between atoms: C1_2  and  C2_3 
ROOT
ATOM      1  C2  UNL d   1      -0.138   0.661  -0.083  0.00  0.00    -0.073 A 
ATOM      2  C3  UNL d   1       0.644  -0.484  -0.270  0.00  0.00    -0.002 A 
ATOM      3  C4  UNL d   1       1.965  -0.517   0.179  0.00  0.00     0.004 A 
ATOM      4  C5  UNL d   1       2.514   0.590   0.825  0.00  0.00    -0.004 A 
ATOM      5  C6  UNL d   1       1.745   1.740   1.031  0.00  0.00    -0.075 A 
ATOM      6  C7  UNL d   1       2.322   2.940   1.722  0.00  0.00     0.076 C 
ATOM      7  C8  UNL d   1       0.420   1.766   0.575  0.00  0.00     0.001 A 
ENDROOT
BRANCH   1   8
ATOM      8  C1  UNL d   1      -1.567   0.698  -0.560  0.00  0.00     0.053 C 
ATOM      9  C   UNL d   1      -1.867  -0.415  -1.551  0.00  0.00     0.018 C 
ENDBRANCH   1   8
TORSDOF 1
ENDMDL
