MODEL 1
REMARK minimizedAffinity -5.45267391
REMARK minimizedRMSD -1
REMARK  1 active torsions:
REMARK  status: ('A' for Active; 'I' for Inactive)
REMARK    1  A    between atoms: C1_2  and  C2_3 
ROOT
ATOM      1  C2  UNL d   1       0.943   0.913   0.674  0.00  0.00    -0.073 A 
ATOM      2  C3  UNL d   1       2.283   0.986   0.276  0.00  0.00    -0.002 A 
ATOM      3  C4  UNL d   1       3.087   2.045   0.700  0.00  0.00     0.004 A 
ATOM      4  C5  UNL d   1       2.564   3.035   1.531  0.00  0.00    -0.004 A 
ATOM      5  C6  UNL d   1       1.231   2.973   1.950  0.00  0.00    -0.075 A 
ATOM      6  C7  UNL d   1       0.652   4.031   2.842  0.00  0.00     0.076 C 
ATOM      7  C8  UNL d   1       0.429   1.908   1.517  0.00  0.00     0.001 A 
ENDROOT
BRANCH   1   8
ATOM      8  C1  UNL d   1       0.072  -0.232   0.224  0.00  0.00     0.053 C 
ATOM      9  C   UNL d   1      -0.721   0.113  -1.026  0.00  0.00     0.018 C 
ENDBRANCH   1   8
TORSDOF 1
ENDMDL
