MODEL 1
REMARK minimizedAffinity -4.34553337
REMARK minimizedRMSD -1
REMARK  1 active torsions:
REMARK  status: ('A' for Active; 'I' for Inactive)
REMARK    1  A    between atoms: C1_2  and  C2_3 
ROOT
ATOM      1  C2  UNL d   1      -1.572  -1.883  -0.263  0.00  0.00    -0.073 A 
ATOM      2  C3  UNL d   1      -2.317  -1.167  -1.206  0.00  0.00    -0.002 A 
ATOM      3  C4  UNL d   1      -1.849   0.055  -1.693  0.00  0.00     0.004 A 
ATOM      4  C5  UNL d   1      -0.631   0.568  -1.248  0.00  0.00    -0.004 A 
ATOM      5  C6  UNL d   1       0.134  -0.139  -0.314  0.00  0.00    -0.075 A 
ATOM      6  C7  UNL d   1       1.445   0.400   0.176  0.00  0.00     0.076 C 
ATOM      7  C8  UNL d   1      -0.344  -1.363   0.172  0.00  0.00     0.001 A 
ENDROOT
BRANCH   1   8
ATOM      8  C1  UNL d   1      -2.070  -3.205   0.261  0.00  0.00     0.053 C 
ATOM      9  C   UNL d   1      -1.415  -3.578   1.582  0.00  0.00     0.018 C 
ENDBRANCH   1   8
TORSDOF 1
ENDMDL
