MODEL 1
REMARK minimizedAffinity -4.00083733
REMARK minimizedRMSD -1
REMARK  1 active torsions:
REMARK  status: ('A' for Active; 'I' for Inactive)
REMARK    1  A    between atoms: C1_2  and  C2_3 
ROOT
ATOM      1  C2  UNL d   1      -0.125  -0.432  -0.290  0.00  0.00    -0.073 A 
ATOM      2  C3  UNL d   1      -1.030   0.117  -1.206  0.00  0.00    -0.002 A 
ATOM      3  C4  UNL d   1      -2.241  -0.524  -1.470  0.00  0.00     0.004 A 
ATOM      4  C5  UNL d   1      -2.563  -1.713  -0.817  0.00  0.00    -0.004 A 
ATOM      5  C6  UNL d   1      -1.678  -2.271   0.111  0.00  0.00    -0.075 A 
ATOM      6  C7  UNL d   1      -2.008  -3.551   0.820  0.00  0.00     0.076 C 
ATOM      7  C8  UNL d   1      -0.462  -1.623   0.369  0.00  0.00     0.001 A 
ENDROOT
BRANCH   1   8
ATOM      8  C1  UNL d   1       1.181   0.260   0.004  0.00  0.00     0.053 C 
ATOM      9  C   UNL d   1       2.307  -0.731   0.253  0.00  0.00     0.018 C 
ENDBRANCH   1   8
TORSDOF 1
ENDMDL
