MODEL 1
REMARK minimizedAffinity -2.99146152
REMARK minimizedRMSD -1
REMARK  1 active torsions:
REMARK  status: ('A' for Active; 'I' for Inactive)
REMARK    1  A    between atoms: C1_2  and  C2_3 
ROOT
ATOM      1  C2  UNL d   1      -1.612  -1.630  -0.378  0.00  0.00    -0.073 A 
ATOM      2  C3  UNL d   1      -2.320  -0.963  -1.384  0.00  0.00    -0.002 A 
ATOM      3  C4  UNL d   1      -1.848   0.248  -1.894  0.00  0.00     0.004 A 
ATOM      4  C5  UNL d   1      -0.662   0.798  -1.410  0.00  0.00    -0.004 A 
ATOM      5  C6  UNL d   1       0.067   0.140  -0.413  0.00  0.00    -0.075 A 
ATOM      6  C7  UNL d   1       1.343   0.721   0.120  0.00  0.00     0.076 C 
ATOM      7  C8  UNL d   1      -0.415  -1.073   0.096  0.00  0.00     0.001 A 
ENDROOT
BRANCH   1   8
ATOM      8  C1  UNL d   1      -2.114  -2.940   0.171  0.00  0.00     0.053 C 
ATOM      9  C   UNL d   1      -1.370  -3.353   1.431  0.00  0.00     0.018 C 
ENDBRANCH   1   8
TORSDOF 1
ENDMDL
