MODEL 1
REMARK minimizedAffinity -3.72710514
REMARK minimizedRMSD -1
REMARK  1 active torsions:
REMARK  status: ('A' for Active; 'I' for Inactive)
REMARK    1  A    between atoms: C1_2  and  C2_3 
ROOT
ATOM      1  C2  UNL d   1       0.829  -0.664   0.087  0.00  0.00    -0.073 A 
ATOM      2  C3  UNL d   1       0.204   0.038  -0.950  0.00  0.00    -0.002 A 
ATOM      3  C4  UNL d   1      -1.044  -0.368  -1.424  0.00  0.00     0.004 A 
ATOM      4  C5  UNL d   1      -1.684  -1.472  -0.861  0.00  0.00    -0.004 A 
ATOM      5  C6  UNL d   1      -1.081  -2.179   0.185  0.00  0.00    -0.075 A 
ATOM      6  C7  UNL d   1      -1.754  -3.371   0.800  0.00  0.00     0.076 C 
ATOM      7  C8  UNL d   1       0.174  -1.767   0.653  0.00  0.00     0.001 A 
ENDROOT
BRANCH   1   8
ATOM      8  C1  UNL d   1       2.174  -0.226   0.606  0.00  0.00     0.053 C 
ATOM      9  C   UNL d   1       2.420   1.256   0.372  0.00  0.00     0.018 C 
ENDBRANCH   1   8
TORSDOF 1
ENDMDL
