MODEL 1
REMARK minimizedAffinity -3.0617044
REMARK minimizedRMSD -1
REMARK  1 active torsions:
REMARK  status: ('A' for Active; 'I' for Inactive)
REMARK    1  A    between atoms: C1_2  and  C2_3 
ROOT
ATOM      1  C2  UNL d   1       0.864   1.546   1.020  0.00  0.00    -0.073 A 
ATOM      2  C3  UNL d   1       1.863   0.565   1.016  0.00  0.00    -0.002 A 
ATOM      3  C4  UNL d   1       1.626  -0.680   0.432  0.00  0.00     0.004 A 
ATOM      4  C5  UNL d   1       0.393  -0.955  -0.159  0.00  0.00    -0.004 A 
ATOM      5  C6  UNL d   1      -0.613   0.017  -0.176  0.00  0.00    -0.075 A 
ATOM      6  C7  UNL d   1      -1.946  -0.264  -0.806  0.00  0.00     0.076 C 
ATOM      7  C8  UNL d   1      -0.369   1.264   0.415  0.00  0.00     0.001 A 
ENDROOT
BRANCH   1   8
ATOM      8  C1  UNL d   1       1.118   2.894   1.643  0.00  0.00     0.053 C 
ATOM      9  C   UNL d   1       2.582   3.089   2.004  0.00  0.00     0.018 C 
ENDBRANCH   1   8
TORSDOF 1
ENDMDL
