MODEL 1
REMARK minimizedAffinity -5.72964382
REMARK minimizedRMSD -1
REMARK  1 active torsions:
REMARK  status: ('A' for Active; 'I' for Inactive)
REMARK    1  A    between atoms: C1_2  and  C2_3 
ROOT
ATOM      1  C2  UNL d   1      -1.814  -1.351  -0.082  0.00  0.00    -0.073 A 
ATOM      2  C3  UNL d   1      -2.557  -0.559  -0.965  0.00  0.00    -0.002 A 
ATOM      3  C4  UNL d   1      -2.006   0.604  -1.502  0.00  0.00     0.004 A 
ATOM      4  C5  UNL d   1      -0.706   0.984  -1.170  0.00  0.00    -0.004 A 
ATOM      5  C6  UNL d   1       0.057   0.200  -0.299  0.00  0.00    -0.075 A 
ATOM      6  C7  UNL d   1       1.456   0.596   0.071  0.00  0.00     0.076 C 
ATOM      7  C8  UNL d   1      -0.504  -0.966   0.240  0.00  0.00     0.001 A 
ENDROOT
BRANCH   1   8
ATOM      8  C1  UNL d   1      -2.402  -2.612   0.496  0.00  0.00     0.053 C 
ATOM      9  C   UNL d   1      -1.600  -3.124   1.683  0.00  0.00     0.018 C 
ENDBRANCH   1   8
TORSDOF 1
ENDMDL
