MODEL 1
REMARK minimizedAffinity -2.90770435
REMARK minimizedRMSD -1
REMARK  1 active torsions:
REMARK  status: ('A' for Active; 'I' for Inactive)
REMARK    1  A    between atoms: C1_2  and  C2_3 
ROOT
ATOM      1  C2  UNL d   1       1.305   0.528   0.515  0.00  0.00    -0.073 A 
ATOM      2  C3  UNL d   1       1.852  -0.615   1.111  0.00  0.00    -0.002 A 
ATOM      3  C4  UNL d   1       1.019  -1.594   1.654  0.00  0.00     0.004 A 
ATOM      4  C5  UNL d   1      -0.367  -1.446   1.601  0.00  0.00    -0.004 A 
ATOM      5  C6  UNL d   1      -0.933  -0.317   1.000  0.00  0.00    -0.075 A 
ATOM      6  C7  UNL d   1      -2.422  -0.141   0.937  0.00  0.00     0.076 C 
ATOM      7  C8  UNL d   1      -0.090   0.664   0.459  0.00  0.00     0.001 A 
ENDROOT
BRANCH   1   8
ATOM      8  C1  UNL d   1       2.199   1.585  -0.078  0.00  0.00     0.053 C 
ATOM      9  C   UNL d   1       2.806   2.483   0.988  0.00  0.00     0.018 C 
ENDBRANCH   1   8
TORSDOF 1
ENDMDL
