MODEL 1
REMARK minimizedAffinity -2.23379016
REMARK minimizedRMSD -1
REMARK  1 active torsions:
REMARK  status: ('A' for Active; 'I' for Inactive)
REMARK    1  A    between atoms: C1_2  and  C2_3 
ROOT
ATOM      1  C2  UNL d   1       0.716  -0.090   0.092  0.00  0.00    -0.073 A 
ATOM      2  C3  UNL d   1       0.996  -1.070   1.051  0.00  0.00    -0.002 A 
ATOM      3  C4  UNL d   1       0.028  -2.014   1.398  0.00  0.00     0.004 A 
ATOM      4  C5  UNL d   1      -1.225  -1.992   0.786  0.00  0.00    -0.004 A 
ATOM      5  C6  UNL d   1      -1.520  -1.028  -0.184  0.00  0.00    -0.075 A 
ATOM      6  C7  UNL d   1      -2.864  -0.989  -0.850  0.00  0.00     0.076 C 
ATOM      7  C8  UNL d   1      -0.544  -0.082  -0.524  0.00  0.00     0.001 A 
ENDROOT
BRANCH   1   8
ATOM      8  C1  UNL d   1       1.760   0.927  -0.290  0.00  0.00     0.053 C 
ATOM      9  C   UNL d   1       1.910   2.013   0.763  0.00  0.00     0.018 C 
ENDBRANCH   1   8
TORSDOF 1
ENDMDL
