MODEL 1
REMARK minimizedAffinity -4.92976141
REMARK minimizedRMSD -1
REMARK  1 active torsions:
REMARK  status: ('A' for Active; 'I' for Inactive)
REMARK    1  A    between atoms: C1_2  and  C2_3 
ROOT
ATOM      1  C2  UNL d   1       0.208   0.592   0.019  0.00  0.00    -0.073 A 
ATOM      2  C3  UNL d   1       1.469   0.035  -0.221  0.00  0.00    -0.002 A 
ATOM      3  C4  UNL d   1       2.621   0.677   0.233  0.00  0.00     0.004 A 
ATOM      4  C5  UNL d   1       2.525   1.878   0.936  0.00  0.00    -0.004 A 
ATOM      5  C6  UNL d   1       1.273   2.445   1.196  0.00  0.00    -0.075 A 
ATOM      6  C7  UNL d   1       1.152   3.737   1.949  0.00  0.00     0.076 C 
ATOM      7  C8  UNL d   1       0.120   1.795   0.734  0.00  0.00     0.001 A 
ENDROOT
BRANCH   1   8
ATOM      8  C1  UNL d   1      -1.040  -0.101  -0.464  0.00  0.00     0.053 C 
ATOM      9  C   UNL d   1      -1.708  -0.906   0.639  0.00  0.00     0.018 C 
ENDBRANCH   1   8
TORSDOF 1
ENDMDL
