MODEL 1
REMARK minimizedAffinity -4.49005079
REMARK minimizedRMSD -1
REMARK  1 active torsions:
REMARK  status: ('A' for Active; 'I' for Inactive)
REMARK    1  A    between atoms: C1_2  and  C2_3 
ROOT
ATOM      1  C2  UNL d   1       0.481   0.711   0.783  0.00  0.00    -0.073 A 
ATOM      2  C3  UNL d   1       0.965   0.255  -0.448  0.00  0.00    -0.002 A 
ATOM      3  C4  UNL d   1       0.112  -0.389  -1.346  0.00  0.00     0.004 A 
ATOM      4  C5  UNL d   1      -1.232  -0.576  -1.027  0.00  0.00    -0.004 A 
ATOM      5  C6  UNL d   1      -1.738  -0.116   0.194  0.00  0.00    -0.075 A 
ATOM      6  C7  UNL d   1      -3.181  -0.311   0.554  0.00  0.00     0.076 C 
ATOM      7  C8  UNL d   1      -0.875   0.527   1.092  0.00  0.00     0.001 A 
ENDROOT
BRANCH   1   8
ATOM      8  C1  UNL d   1       1.396   1.412   1.753  0.00  0.00     0.053 C 
ATOM      9  C   UNL d   1       2.310   2.408   1.057  0.00  0.00     0.018 C 
ENDBRANCH   1   8
TORSDOF 1
ENDMDL
