MODEL 1
REMARK minimizedAffinity 0.963561594
REMARK minimizedRMSD -1
REMARK  0 active torsions:
REMARK  status: ('A' for Active; 'I' for Inactive)
ROOT
ATOM      1  C1  DEN d   1       1.506  -2.522  -0.409  0.00  0.00     0.130 A 
ATOM      2  C2  DEN d   1       1.506  -1.315   0.413  0.00  0.00    -0.031 A 
ATOM      3  C3  DEN d   1       0.102  -0.954   0.695  0.00  0.00     0.027 A 
ATOM      4  C4  DEN d   1      -2.061  -2.143  -0.054  0.00  0.00     0.027 A 
ATOM      5  C5  DEN d   1      -2.567  -3.202  -0.776  0.00  0.00    -0.003 A 
ATOM      6  C6  DEN d   1      -1.760  -4.080  -1.448  0.00  0.00     0.001 A 
ATOM      7  C7  DEN d   1      -0.399  -3.943  -1.376  0.00  0.00     0.017 A 
ATOM      8  C8  DEN d   1       0.119  -2.875  -0.656  0.00  0.00    -0.094 A 
ATOM      9  C9  DEN d   1      -0.713  -2.004   0.026  0.00  0.00    -0.072 A 
ENDROOT
TORSDOF 0
ENDMDL
