MODEL 1
REMARK minimizedAffinity 0.37248835
REMARK minimizedRMSD -1
REMARK  0 active torsions:
REMARK  status: ('A' for Active; 'I' for Inactive)
ROOT
ATOM      1  C1  DEN d   1      -2.451  -2.624  -0.195  0.00  0.00     0.130 A 
ATOM      2  C2  DEN d   1      -1.212  -1.895   0.061  0.00  0.00    -0.031 A 
ATOM      3  C3  DEN d   1      -0.092  -2.696  -0.473  0.00  0.00     0.027 A 
ATOM      4  C4  DEN d   1      -0.158  -4.980  -1.670  0.00  0.00     0.027 A 
ATOM      5  C5  DEN d   1      -0.980  -5.995  -2.107  0.00  0.00    -0.003 A 
ATOM      6  C6  DEN d   1      -2.335  -5.974  -1.908  0.00  0.00     0.001 A 
ATOM      7  C7  DEN d   1      -2.914  -4.895  -1.295  0.00  0.00     0.017 A 
ATOM      8  C8  DEN d   1      -2.091  -3.870  -0.846  0.00  0.00    -0.094 A 
ATOM      9  C9  DEN d   1      -0.725  -3.905  -1.067  0.00  0.00    -0.072 A 
ENDROOT
TORSDOF 0
ENDMDL
