MODEL 1
REMARK minimizedAffinity 6.56190491
REMARK minimizedRMSD -1
REMARK  0 active torsions:
REMARK  status: ('A' for Active; 'I' for Inactive)
ROOT
ATOM      1  C1  DEN d   1       1.423   2.007   1.659  0.00  0.00     0.130 A 
ATOM      2  C2  DEN d   1       1.960   0.861   0.931  0.00  0.00    -0.031 A 
ATOM      3  C3  DEN d   1       3.434   0.929   0.996  0.00  0.00     0.027 A 
ATOM      4  C4  DEN d   1       4.927   2.686   2.152  0.00  0.00     0.027 A 
ATOM      5  C5  DEN d   1       4.926   3.852   2.886  0.00  0.00    -0.003 A 
ATOM      6  C6  DEN d   1       3.768   4.497   3.231  0.00  0.00     0.001 A 
ATOM      7  C7  DEN d   1       2.560   3.956   2.880  0.00  0.00     0.017 A 
ATOM      8  C8  DEN d   1       2.553   2.785   2.133  0.00  0.00    -0.094 A 
ATOM      9  C9  DEN d   1       3.734   2.142   1.804  0.00  0.00    -0.072 A 
ENDROOT
TORSDOF 0
ENDMDL
