MODEL 1
REMARK minimizedAffinity 10.983882
REMARK minimizedRMSD -1
REMARK  0 active torsions:
REMARK  status: ('A' for Active; 'I' for Inactive)
ROOT
ATOM      1  C1  DEN d   1       0.921   0.947   0.983  0.00  0.00     0.130 A 
ATOM      2  C2  DEN d   1       1.417  -0.190   0.211  0.00  0.00    -0.031 A 
ATOM      3  C3  DEN d   1       2.892  -0.172   0.269  0.00  0.00     0.027 A 
ATOM      4  C4  DEN d   1       4.449   1.494   1.476  0.00  0.00     0.027 A 
ATOM      5  C5  DEN d   1       4.490   2.631   2.252  0.00  0.00    -0.003 A 
ATOM      6  C6  DEN d   1       3.356   3.301   2.627  0.00  0.00     0.001 A 
ATOM      7  C7  DEN d   1       2.128   2.813   2.265  0.00  0.00     0.017 A 
ATOM      8  C8  DEN d   1       2.078   1.670   1.477  0.00  0.00    -0.094 A 
ATOM      9  C9  DEN d   1       3.236   1.001   1.118  0.00  0.00    -0.072 A 
ENDROOT
TORSDOF 0
ENDMDL
