MODEL 1
REMARK minimizedAffinity 7.85932875
REMARK minimizedRMSD -1
REMARK  0 active torsions:
REMARK  status: ('A' for Active; 'I' for Inactive)
ROOT
ATOM      1  C1  DEN d   1       1.203  -1.283  -0.220  0.00  0.00     0.130 A 
ATOM      2  C2  DEN d   1       2.527  -1.456  -0.812  0.00  0.00    -0.031 A 
ATOM      3  C3  DEN d   1       3.421  -0.430  -0.238  0.00  0.00     0.027 A 
ATOM      4  C4  DEN d   1       2.888   1.396   1.503  0.00  0.00     0.027 A 
ATOM      5  C5  DEN d   1       1.897   1.944   2.288  0.00  0.00    -0.003 A 
ATOM      6  C6  DEN d   1       0.609   1.481   2.266  0.00  0.00     0.001 A 
ATOM      7  C7  DEN d   1       0.286   0.409   1.477  0.00  0.00     0.017 A 
ATOM      8  C8  DEN d   1       1.278  -0.144   0.677  0.00  0.00    -0.094 A 
ATOM      9  C9  DEN d   1       2.577   0.331   0.723  0.00  0.00    -0.072 A 
ENDROOT
TORSDOF 0
ENDMDL
