MODEL 1
REMARK minimizedAffinity 6.07070398
REMARK minimizedRMSD -1
REMARK  0 active torsions:
REMARK  status: ('A' for Active; 'I' for Inactive)
ROOT
ATOM      1  C1  DEN d   1      -1.621  -1.413   1.744  0.00  0.00     0.130 A 
ATOM      2  C2  DEN d   1      -3.064  -1.345   1.962  0.00  0.00    -0.031 A 
ATOM      3  C3  DEN d   1      -3.715  -2.255   0.999  0.00  0.00     0.027 A 
ATOM      4  C4  DEN d   1      -2.635  -3.759  -0.797  0.00  0.00     0.027 A 
ATOM      5  C5  DEN d   1      -1.443  -4.146  -1.368  0.00  0.00    -0.003 A 
ATOM      6  C6  DEN d   1      -0.239  -3.629  -0.968  0.00  0.00     0.001 A 
ATOM      7  C7  DEN d   1      -0.197  -2.727   0.063  0.00  0.00     0.017 A 
ATOM      8  C8  DEN d   1      -1.395  -2.326   0.638  0.00  0.00    -0.094 A 
ATOM      9  C9  DEN d   1      -2.601  -2.870   0.228  0.00  0.00    -0.072 A 
ENDROOT
TORSDOF 0
ENDMDL
