MODEL 1
REMARK minimizedAffinity 14.8722191
REMARK minimizedRMSD -1
REMARK  0 active torsions:
REMARK  status: ('A' for Active; 'I' for Inactive)
ROOT
ATOM      1  C1  DEN d   1       0.879   1.187   1.301  0.00  0.00     0.130 A 
ATOM      2  C2  DEN d   1       1.308  -0.112   0.788  0.00  0.00    -0.031 A 
ATOM      3  C3  DEN d   1       2.773  -0.205   0.949  0.00  0.00     0.027 A 
ATOM      4  C4  DEN d   1       4.409   1.524   1.943  0.00  0.00     0.027 A 
ATOM      5  C5  DEN d   1       4.514   2.780   2.499  0.00  0.00    -0.003 A 
ATOM      6  C6  DEN d   1       3.429   3.599   2.662  0.00  0.00     0.001 A 
ATOM      7  C7  DEN d   1       2.183   3.154   2.307  0.00  0.00     0.017 A 
ATOM      8  C8  DEN d   1       2.070   1.892   1.738  0.00  0.00    -0.094 A 
ATOM      9  C9  DEN d   1       3.177   1.074   1.593  0.00  0.00    -0.072 A 
ENDROOT
TORSDOF 0
ENDMDL
