MODEL 1
REMARK minimizedAffinity 8.69629383
REMARK minimizedRMSD -1
REMARK  0 active torsions:
REMARK  status: ('A' for Active; 'I' for Inactive)
ROOT
ATOM      1  C1  DEN d   1      -5.977  -2.004   2.400  0.00  0.00     0.130 A 
ATOM      2  C2  DEN d   1      -5.992  -3.061   3.408  0.00  0.00    -0.031 A 
ATOM      3  C3  DEN d   1      -4.611  -3.242   3.900  0.00  0.00     0.027 A 
ATOM      4  C4  DEN d   1      -2.465  -1.991   3.207  0.00  0.00     0.027 A 
ATOM      5  C5  DEN d   1      -1.951  -1.017   2.379  0.00  0.00    -0.003 A 
ATOM      6  C6  DEN d   1      -2.730  -0.334   1.483  0.00  0.00     0.001 A 
ATOM      7  C7  DEN d   1      -4.076  -0.583   1.426  0.00  0.00     0.017 A 
ATOM      8  C8  DEN d   1      -4.600  -1.568   2.253  0.00  0.00    -0.094 A 
ATOM      9  C9  DEN d   1      -3.798  -2.240   3.160  0.00  0.00    -0.072 A 
ENDROOT
TORSDOF 0
ENDMDL
