MODEL 1
REMARK minimizedAffinity 14.3788919
REMARK minimizedRMSD -1
REMARK  0 active torsions:
REMARK  status: ('A' for Active; 'I' for Inactive)
ROOT
ATOM      1  C1  DEN d   1      -3.648  -1.002   0.375  0.00  0.00     0.130 A 
ATOM      2  C2  DEN d   1      -2.559  -0.620   1.270  0.00  0.00    -0.031 A 
ATOM      3  C3  DEN d   1      -2.509   0.855   1.326  0.00  0.00     0.027 A 
ATOM      4  C4  DEN d   1      -4.009   2.575   0.125  0.00  0.00     0.027 A 
ATOM      5  C5  DEN d   1      -5.062   2.730  -0.749  0.00  0.00    -0.003 A 
ATOM      6  C6  DEN d   1      -5.691   1.661  -1.331  0.00  0.00     0.001 A 
ATOM      7  C7  DEN d   1      -5.301   0.388  -1.011  0.00  0.00     0.017 A 
ATOM      8  C8  DEN d   1      -4.235   0.224  -0.137  0.00  0.00    -0.094 A 
ATOM      9  C9  DEN d   1      -3.620   1.317   0.451  0.00  0.00    -0.072 A 
ENDROOT
TORSDOF 0
ENDMDL
