MODEL 1
REMARK minimizedAffinity 11.6260853
REMARK minimizedRMSD -1
REMARK  0 active torsions:
REMARK  status: ('A' for Active; 'I' for Inactive)
ROOT
ATOM      1  C1  DEN d   1       2.249   4.920   3.652  0.00  0.00     0.130 A 
ATOM      2  C2  DEN d   1       3.370   5.774   4.033  0.00  0.00    -0.031 A 
ATOM      3  C3  DEN d   1       4.615   5.126   3.574  0.00  0.00     0.027 A 
ATOM      4  C4  DEN d   1       4.913   2.896   2.312  0.00  0.00     0.027 A 
ATOM      5  C5  DEN d   1       4.253   1.811   1.779  0.00  0.00    -0.003 A 
ATOM      6  C6  DEN d   1       2.893   1.671   1.861  0.00  0.00     0.001 A 
ATOM      7  C7  DEN d   1       2.144   2.654   2.452  0.00  0.00     0.017 A 
ATOM      8  C8  DEN d   1       2.803   3.747   2.999  0.00  0.00    -0.094 A 
ATOM      9  C9  DEN d   1       4.177   3.877   2.894  0.00  0.00    -0.072 A 
ENDROOT
TORSDOF 0
ENDMDL
