MODEL 1
REMARK minimizedAffinity 14.1254768
REMARK minimizedRMSD -1
REMARK  0 active torsions:
REMARK  status: ('A' for Active; 'I' for Inactive)
ROOT
ATOM      1  C1  DEN d   1       0.598  -5.016  -1.118  0.00  0.00     0.130 A 
ATOM      2  C2  DEN d   1       0.217  -5.997  -2.130  0.00  0.00    -0.031 A 
ATOM      3  C3  DEN d   1      -1.155  -5.683  -2.577  0.00  0.00     0.027 A 
ATOM      4  C4  DEN d   1      -2.716  -3.780  -1.806  0.00  0.00     0.027 A 
ATOM      5  C5  DEN d   1      -2.838  -2.702  -0.957  0.00  0.00    -0.003 A 
ATOM      6  C6  DEN d   1      -1.844  -2.343  -0.086  0.00  0.00     0.001 A 
ATOM      7  C7  DEN d   1      -0.666  -3.042  -0.075  0.00  0.00     0.017 A 
ATOM      8  C8  DEN d   1      -0.539  -4.135  -0.923  0.00  0.00    -0.094 A 
ATOM      9  C9  DEN d   1      -1.550  -4.474  -1.805  0.00  0.00    -0.072 A 
ENDROOT
TORSDOF 0
ENDMDL
