MODEL 1
REMARK minimizedAffinity 4.69354534
REMARK minimizedRMSD -1
REMARK  0 active torsions:
REMARK  status: ('A' for Active; 'I' for Inactive)
ROOT
ATOM      1  C1  DEN d   1       4.145   5.971   4.765  0.00  0.00     0.130 A 
ATOM      2  C2  DEN d   1       4.940   6.000   5.990  0.00  0.00    -0.031 A 
ATOM      3  C3  DEN d   1       5.808   4.805   6.000  0.00  0.00     0.027 A 
ATOM      4  C4  DEN d   1       6.000   2.925   4.244  0.00  0.00     0.027 A 
ATOM      5  C5  DEN d   1       5.518   2.460   3.041  0.00  0.00    -0.003 A 
ATOM      6  C6  DEN d   1       4.529   3.109   2.350  0.00  0.00     0.001 A 
ATOM      7  C7  DEN d   1       4.021   4.284   2.836  0.00  0.00     0.017 A 
ATOM      8  C8  DEN d   1       4.497   4.756   4.052  0.00  0.00    -0.094 A 
ATOM      9  C9  DEN d   1       5.505   4.092   4.729  0.00  0.00    -0.072 A 
ENDROOT
TORSDOF 0
ENDMDL
