MODEL 1
REMARK minimizedAffinity 13.8049021
REMARK minimizedRMSD -1
REMARK  0 active torsions:
REMARK  status: ('A' for Active; 'I' for Inactive)
ROOT
ATOM      1  C1  DEN d   1      -0.276   2.492  -6.000  0.00  0.00     0.130 A 
ATOM      2  C2  DEN d   1      -1.397   1.557  -6.000  0.00  0.00    -0.031 A 
ATOM      3  C3  DEN d   1      -0.986   0.352  -5.251  0.00  0.00     0.027 A 
ATOM      4  C4  DEN d   1       1.263  -0.151  -4.094  0.00  0.00     0.027 A 
ATOM      5  C5  DEN d   1       2.525   0.336  -3.833  0.00  0.00    -0.003 A 
ATOM      6  C6  DEN d   1       2.950   1.551  -4.301  0.00  0.00     0.001 A 
ATOM      7  C7  DEN d   1       2.090   2.341  -5.017  0.00  0.00     0.017 A 
ATOM      8  C8  DEN d   1       0.818   1.854  -5.291  0.00  0.00    -0.094 A 
ATOM      9  C9  DEN d   1       0.404   0.628  -4.798  0.00  0.00    -0.072 A 
ENDROOT
TORSDOF 0
ENDMDL
