MODEL 1
REMARK minimizedAffinity 11.6020937
REMARK minimizedRMSD -1
REMARK  0 active torsions:
REMARK  status: ('A' for Active; 'I' for Inactive)
ROOT
ATOM      1  C1  DEN d   1       3.768  -0.231   0.214  0.00  0.00     0.130 A 
ATOM      2  C2  DEN d   1       2.401  -0.595  -0.149  0.00  0.00    -0.031 A 
ATOM      3  C3  DEN d   1       1.484   0.354   0.515  0.00  0.00     0.027 A 
ATOM      4  C4  DEN d   1       2.047   2.343   2.058  0.00  0.00     0.027 A 
ATOM      5  C5  DEN d   1       3.069   3.038   2.665  0.00  0.00    -0.003 A 
ATOM      6  C6  DEN d   1       4.382   2.676   2.527  0.00  0.00     0.001 A 
ATOM      7  C7  DEN d   1       4.712   1.614   1.726  0.00  0.00     0.017 A 
ATOM      8  C8  DEN d   1       3.687   0.904   1.116  0.00  0.00    -0.094 A 
ATOM      9  C9  DEN d   1       2.366   1.294   1.259  0.00  0.00    -0.072 A 
ENDROOT
TORSDOF 0
ENDMDL
