MODEL 1
REMARK minimizedAffinity 4.98085165
REMARK minimizedRMSD -1
REMARK  0 active torsions:
REMARK  status: ('A' for Active; 'I' for Inactive)
ROOT
ATOM      1  C1  DEN d   1       1.400  -3.119  -0.259  0.00  0.00     0.130 A 
ATOM      2  C2  DEN d   1       1.630  -1.871   0.464  0.00  0.00    -0.031 A 
ATOM      3  C3  DEN d   1       0.321  -1.224   0.684  0.00  0.00     0.027 A 
ATOM      4  C4  DEN d   1      -2.027  -2.032  -0.014  0.00  0.00     0.027 A 
ATOM      5  C5  DEN d   1      -2.725  -3.029  -0.659  0.00  0.00    -0.003 A 
ATOM      6  C6  DEN d   1      -2.100  -4.100  -1.240  0.00  0.00     0.001 A 
ATOM      7  C7  DEN d   1      -0.738  -4.222  -1.150  0.00  0.00     0.017 A 
ATOM      8  C8  DEN d   1      -0.027  -3.217  -0.507  0.00  0.00    -0.094 A 
ATOM      9  C9  DEN d   1      -0.679  -2.149   0.085  0.00  0.00    -0.072 A 
ENDROOT
TORSDOF 0
ENDMDL
