MODEL 1
REMARK minimizedAffinity 1.0912528
REMARK minimizedRMSD -1
REMARK  0 active torsions:
REMARK  status: ('A' for Active; 'I' for Inactive)
ROOT
ATOM      1  C1  DEN d   1      -0.028  -3.007   0.047  0.00  0.00     0.130 A 
ATOM      2  C2  DEN d   1       0.687  -3.898   0.957  0.00  0.00    -0.031 A 
ATOM      3  C3  DEN d   1       0.057  -5.231   0.879  0.00  0.00     0.027 A 
ATOM      4  C4  DEN d   1      -1.942  -5.999  -0.559  0.00  0.00     0.027 A 
ATOM      5  C5  DEN d   1      -2.883  -5.595  -1.480  0.00  0.00    -0.003 A 
ATOM      6  C6  DEN d   1      -2.960  -4.302  -1.927  0.00  0.00     0.001 A 
ATOM      7  C7  DEN d   1      -2.050  -3.377  -1.487  0.00  0.00     0.017 A 
ATOM      8  C8  DEN d   1      -1.103  -3.775  -0.553  0.00  0.00    -0.094 A 
ATOM      9  C9  DEN d   1      -1.034  -5.090  -0.123  0.00  0.00    -0.072 A 
ENDROOT
TORSDOF 0
ENDMDL
