MODEL 1
REMARK minimizedAffinity 8.93003273
REMARK minimizedRMSD -1
REMARK  0 active torsions:
REMARK  status: ('A' for Active; 'I' for Inactive)
ROOT
ATOM      1  C1  DEN d   1      -1.164  -5.389  -1.518  0.00  0.00     0.130 A 
ATOM      2  C2  DEN d   1       0.071  -5.392  -0.738  0.00  0.00    -0.031 A 
ATOM      3  C3  DEN d   1       0.076  -4.185   0.114  0.00  0.00     0.027 A 
ATOM      4  C4  DEN d   1      -1.702  -2.326   0.303  0.00  0.00     0.027 A 
ATOM      5  C5  DEN d   1      -2.918  -1.883  -0.169  0.00  0.00    -0.003 A 
ATOM      6  C6  DEN d   1      -3.612  -2.554  -1.141  0.00  0.00     0.001 A 
ATOM      7  C7  DEN d   1      -3.117  -3.730  -1.639  0.00  0.00     0.017 A 
ATOM      8  C8  DEN d   1      -1.889  -4.179  -1.173  0.00  0.00    -0.094 A 
ATOM      9  C9  DEN d   1      -1.208  -3.493  -0.182  0.00  0.00    -0.072 A 
ENDROOT
TORSDOF 0
ENDMDL
