MODEL 1
REMARK minimizedAffinity -3.71092081
REMARK minimizedRMSD -1
REMARK  0 active torsions:
REMARK  status: ('A' for Active; 'I' for Inactive)
ROOT
ATOM      1  C4' PXY d   1      -0.822   1.588   3.007  0.00  0.00     0.077 C 
ATOM      2  C1' PXY d   1       0.673  -1.119  -1.877  0.00  0.00     0.077 C 
ATOM      3  C1  PXY d   1       0.289  -0.417  -0.590  0.00  0.00    -0.082 A 
ATOM      4  C2  PXY d   1      -0.884   0.189  -0.499  0.00  0.00     0.003 A 
ATOM      5  C3  PXY d   1      -1.233   0.856   0.646  0.00  0.00     0.003 A 
ATOM      6  C4  PXY d   1      -0.396   0.858   1.730  0.00  0.00    -0.082 A 
ATOM      7  C5  PXY d   1       0.798   0.233   1.649  0.00  0.00     0.003 A 
ATOM      8  C6  PXY d   1       1.151  -0.403   0.463  0.00  0.00     0.003 A 
ENDROOT
TORSDOF 0
ENDMDL
