MODEL 1
REMARK minimizedAffinity -2.27539802
REMARK minimizedRMSD -1
REMARK  0 active torsions:
REMARK  status: ('A' for Active; 'I' for Inactive)
ROOT
ATOM      1  C4' PXY d   1       0.794   0.115  -1.573  0.00  0.00     0.077 C 
ATOM      2  C1' PXY d   1      -0.787   1.766   3.737  0.00  0.00     0.077 C 
ATOM      3  C1  PXY d   1      -0.376   1.321   2.347  0.00  0.00    -0.082 A 
ATOM      4  C2  PXY d   1       0.530   2.016   1.679  0.00  0.00     0.003 A 
ATOM      5  C3  PXY d   1       0.890   1.646   0.408  0.00  0.00     0.003 A 
ATOM      6  C4  PXY d   1       0.355   0.522  -0.163  0.00  0.00    -0.082 A 
ATOM      7  C5  PXY d   1      -0.562  -0.198   0.516  0.00  0.00     0.003 A 
ATOM      8  C6  PXY d   1      -0.944   0.217   1.788  0.00  0.00     0.003 A 
ENDROOT
TORSDOF 0
ENDMDL
