MODEL 1
REMARK minimizedAffinity -2.69440413
REMARK minimizedRMSD -1
REMARK  0 active torsions:
REMARK  status: ('A' for Active; 'I' for Inactive)
ROOT
ATOM      1  C4' PXY d   1       0.375  -0.065  -0.768  0.00  0.00     0.077 C 
ATOM      2  C1' PXY d   1      -0.066   1.454   4.792  0.00  0.00     0.077 C 
ATOM      3  C1  PXY d   1       0.063   1.054   3.335  0.00  0.00    -0.082 A 
ATOM      4  C2  PXY d   1      -0.829   1.484   2.457  0.00  0.00     0.003 A 
ATOM      5  C3  PXY d   1      -0.746   1.106   1.142  0.00  0.00     0.003 A 
ATOM      6  C4  PXY d   1       0.290   0.321   0.711  0.00  0.00    -0.082 A 
ATOM      7  C5  PXY d   1       1.210  -0.113   1.598  0.00  0.00     0.003 A 
ATOM      8  C6  PXY d   1       1.085   0.249   2.936  0.00  0.00     0.003 A 
ENDROOT
TORSDOF 0
ENDMDL
