MODEL 1
REMARK minimizedAffinity -2.50525784
REMARK minimizedRMSD -1
REMARK  0 active torsions:
REMARK  status: ('A' for Active; 'I' for Inactive)
ROOT
ATOM      1  C4' PXY d   1       0.396  -0.128  -1.147  0.00  0.00     0.077 C 
ATOM      2  C1' PXY d   1      -0.274   1.469   4.368  0.00  0.00     0.077 C 
ATOM      3  C1  PXY d   1      -0.086   1.054   2.922  0.00  0.00    -0.082 A 
ATOM      4  C2  PXY d   1      -1.136   0.982   2.120  0.00  0.00     0.003 A 
ATOM      5  C3  PXY d   1      -0.988   0.578   0.819  0.00  0.00     0.003 A 
ATOM      6  C4  PXY d   1       0.255   0.295   0.318  0.00  0.00    -0.082 A 
ATOM      7  C5  PXY d   1       1.332   0.376   1.127  0.00  0.00     0.003 A 
ATOM      8  C6  PXY d   1       1.156   0.749   2.456  0.00  0.00     0.003 A 
ENDROOT
TORSDOF 0
ENDMDL
