MODEL 1
REMARK minimizedAffinity -1.27740991
REMARK minimizedRMSD -1
REMARK  0 active torsions:
REMARK  status: ('A' for Active; 'I' for Inactive)
ROOT
ATOM      1  C4' PXY d   1      -1.849  -0.497  -5.743  0.00  0.00     0.077 C 
ATOM      2  C1' PXY d   1       2.955   1.515  -3.233  0.00  0.00     0.077 C 
ATOM      3  C1  PXY d   1       1.700   0.990  -3.903  0.00  0.00    -0.082 A 
ATOM      4  C2  PXY d   1       0.556   0.987  -3.239  0.00  0.00     0.003 A 
ATOM      5  C3  PXY d   1      -0.581   0.487  -3.818  0.00  0.00     0.003 A 
ATOM      6  C4  PXY d   1      -0.559   0.033  -5.110  0.00  0.00    -0.082 A 
ATOM      7  C5  PXY d   1       0.602   0.042  -5.798  0.00  0.00     0.003 A 
ATOM      8  C6  PXY d   1       1.754   0.516  -5.178  0.00  0.00     0.003 A 
ENDROOT
TORSDOF 0
ENDMDL
