MODEL 1
REMARK minimizedAffinity -0.239821374
REMARK minimizedRMSD -1
REMARK  0 active torsions:
REMARK  status: ('A' for Active; 'I' for Inactive)
ROOT
ATOM      1  C4' PXY d   1      -3.017   0.786   0.503  0.00  0.00     0.077 C 
ATOM      2  C1' PXY d   1       2.462   0.038   2.185  0.00  0.00     0.077 C 
ATOM      3  C1  PXY d   1       1.022   0.236   1.757  0.00  0.00    -0.082 A 
ATOM      4  C2  PXY d   1       0.599  -0.292   0.619  0.00  0.00     0.003 A 
ATOM      5  C3  PXY d   1      -0.691  -0.095   0.201  0.00  0.00     0.003 A 
ATOM      6  C4  PXY d   1      -1.574   0.604   0.980  0.00  0.00    -0.082 A 
ATOM      7  C5  PXY d   1      -1.153   1.136   2.147  0.00  0.00     0.003 A 
ATOM      8  C6  PXY d   1       0.172   0.960   2.534  0.00  0.00     0.003 A 
ENDROOT
TORSDOF 0
ENDMDL
