MODEL 1
REMARK minimizedAffinity -1.27723324
REMARK minimizedRMSD -1
REMARK  0 active torsions:
REMARK  status: ('A' for Active; 'I' for Inactive)
ROOT
ATOM      1  C4' PXY d   1       0.758  -0.717  -1.531  0.00  0.00     0.077 C 
ATOM      2  C1' PXY d   1      -0.680   1.821   3.460  0.00  0.00     0.077 C 
ATOM      3  C1  PXY d   1      -0.291   1.160   2.152  0.00  0.00    -0.082 A 
ATOM      4  C2  PXY d   1      -1.228   0.855   1.270  0.00  0.00     0.003 A 
ATOM      5  C3  PXY d   1      -0.897   0.228   0.096  0.00  0.00     0.003 A 
ATOM      6  C4  PXY d   1       0.412  -0.041  -0.201  0.00  0.00    -0.082 A 
ATOM      7  C5  PXY d   1       1.375   0.278   0.690  0.00  0.00     0.003 A 
ATOM      8  C6  PXY d   1       1.015   0.876   1.894  0.00  0.00     0.003 A 
ENDROOT
TORSDOF 0
ENDMDL
