MODEL 1
REMARK minimizedAffinity -3.30648351
REMARK minimizedRMSD -1
REMARK  0 active torsions:
REMARK  status: ('A' for Active; 'I' for Inactive)
ROOT
ATOM      1  C4' PXY d   1       1.102  -0.682  -0.569  0.00  0.00     0.077 C 
ATOM      2  C1' PXY d   1      -0.863  -0.446  -6.000  0.00  0.00     0.077 C 
ATOM      3  C1  PXY d   1      -0.336  -0.503  -4.580  0.00  0.00    -0.082 A 
ATOM      4  C2  PXY d   1      -0.881  -1.341  -3.713  0.00  0.00     0.003 A 
ATOM      5  C3  PXY d   1      -0.439  -1.383  -2.416  0.00  0.00     0.003 A 
ATOM      6  C4  PXY d   1       0.609  -0.597  -2.016  0.00  0.00    -0.082 A 
ATOM      7  C5  PXY d   1       1.177   0.253  -2.897  0.00  0.00     0.003 A 
ATOM      8  C6  PXY d   1       0.686   0.310  -4.198  0.00  0.00     0.003 A 
ENDROOT
TORSDOF 0
ENDMDL
