MODEL 1
REMARK minimizedAffinity -2.96385765
REMARK minimizedRMSD -1
REMARK  0 active torsions:
REMARK  status: ('A' for Active; 'I' for Inactive)
ROOT
ATOM      1  C4' PXY d   1       1.140  -0.270  -2.445  0.00  0.00     0.077 C 
ATOM      2  C1' PXY d   1      -0.553   1.459   2.805  0.00  0.00     0.077 C 
ATOM      3  C1  PXY d   1      -0.098   1.000   1.433  0.00  0.00    -0.082 A 
ATOM      4  C2  PXY d   1      -0.529   1.635   0.355  0.00  0.00     0.003 A 
ATOM      5  C3  PXY d   1      -0.153   1.213  -0.894  0.00  0.00     0.003 A 
ATOM      6  C4  PXY d   1       0.714   0.164  -1.040  0.00  0.00    -0.082 A 
ATOM      7  C5  PXY d   1       1.166  -0.482   0.056  0.00  0.00     0.003 A 
ATOM      8  C6  PXY d   1       0.741  -0.065   1.313  0.00  0.00     0.003 A 
ENDROOT
TORSDOF 0
ENDMDL
