MODEL 1
REMARK minimizedAffinity -0.00408195006
REMARK minimizedRMSD -1
REMARK  0 active torsions:
REMARK  status: ('A' for Active; 'I' for Inactive)
ROOT
ATOM      1  C4' PXY d   1      -2.844   0.666   0.765  0.00  0.00     0.077 C 
ATOM      2  C1' PXY d   1       2.804  -0.057   1.764  0.00  0.00     0.077 C 
ATOM      3  C1  PXY d   1       1.321   0.134   1.515  0.00  0.00    -0.082 A 
ATOM      4  C2  PXY d   1       0.784  -0.313   0.392  0.00  0.00     0.003 A 
ATOM      5  C3  PXY d   1      -0.550  -0.121   0.136  0.00  0.00     0.003 A 
ATOM      6  C4  PXY d   1      -1.352   0.487   1.063  0.00  0.00    -0.082 A 
ATOM      7  C5  PXY d   1      -0.814   0.937   2.217  0.00  0.00     0.003 A 
ATOM      8  C6  PXY d   1       0.550   0.769   2.439  0.00  0.00     0.003 A 
ENDROOT
TORSDOF 0
ENDMDL
