MODEL 1
REMARK minimizedAffinity -0.263187677
REMARK minimizedRMSD -1
REMARK  0 active torsions:
REMARK  status: ('A' for Active; 'I' for Inactive)
ROOT
ATOM      1  C4' PXY d   1      -0.321   1.051  -2.962  0.00  0.00     0.077 C 
ATOM      2  C1' PXY d   1       5.272   0.624  -4.356  0.00  0.00     0.077 C 
ATOM      3  C1  PXY d   1       3.807   0.749  -3.989  0.00  0.00    -0.082 A 
ATOM      4  C2  PXY d   1       3.175  -0.286  -3.459  0.00  0.00     0.003 A 
ATOM      5  C3  PXY d   1       1.841  -0.200  -3.152  0.00  0.00     0.003 A 
ATOM      6  C4  PXY d   1       1.161   0.973  -3.339  0.00  0.00    -0.082 A 
ATOM      7  C5  PXY d   1       1.801   2.036  -3.870  0.00  0.00     0.003 A 
ATOM      8  C6  PXY d   1       3.145   1.916  -4.213  0.00  0.00     0.003 A 
ENDROOT
TORSDOF 0
ENDMDL
