MODEL 1
REMARK minimizedAffinity -3.22938132
REMARK minimizedRMSD -1
REMARK  0 active torsions:
REMARK  status: ('A' for Active; 'I' for Inactive)
ROOT
ATOM      1  C4' PXY d   1       0.466  -0.364  -2.009  0.00  0.00     0.077 C 
ATOM      2  C1' PXY d   1      -0.598   1.229   3.445  0.00  0.00     0.077 C 
ATOM      3  C1  PXY d   1      -0.325   0.800   2.016  0.00  0.00    -0.082 A 
ATOM      4  C2  PXY d   1       0.702   1.317   1.363  0.00  0.00     0.003 A 
ATOM      5  C3  PXY d   1       0.945   0.965   0.060  0.00  0.00     0.003 A 
ATOM      6  C4  PXY d   1       0.159   0.033  -0.563  0.00  0.00    -0.082 A 
ATOM      7  C5  PXY d   1      -0.885  -0.508   0.101  0.00  0.00     0.003 A 
ATOM      8  C6  PXY d   1      -1.139  -0.106   1.409  0.00  0.00     0.003 A 
ENDROOT
TORSDOF 0
ENDMDL
