MODEL 1
REMARK minimizedAffinity 0.862980485
REMARK minimizedRMSD -1
REMARK  2 active torsions:
REMARK  status: ('A' for Active; 'I' for Inactive)
REMARK    1  A    between atoms: C2'_3  and  C1'_4 
REMARK    2  A    between atoms: C1'_4  and  C1_5 
ROOT
ATOM      1  C1  I4B d   1      -1.448   1.095  -1.644  0.00  0.00    -0.075 A 
ATOM      2  C2  I4B d   1      -2.268   1.869  -0.861  0.00  0.00     0.003 A 
ATOM      3  C3  I4B d   1      -3.186   2.765  -1.459  0.00  0.00     0.002 A 
ATOM      4  C4  I4B d   1      -3.215   2.893  -2.832  0.00  0.00    -0.004 A 
ATOM      5  C5  I4B d   1      -2.399   2.092  -3.626  0.00  0.00     0.002 A 
ATOM      6  C6  I4B d   1      -1.519   1.178  -3.029  0.00  0.00     0.003 A 
ENDROOT
BRANCH   1   7
ATOM      7  C1' I4B d   1      -0.466   0.183  -0.979  0.00  0.00     0.060 C 
BRANCH   7   8
ATOM      8  C2' I4B d   1      -0.703   0.252   0.516  0.00  0.00    -0.013 C 
ATOM      9  C4' I4B d   1      -0.864  -1.124   1.107  0.00  0.00     0.013 C 
ATOM     10  C3' I4B d   1       0.455   0.976   1.135  0.00  0.00     0.013 C 
ENDBRANCH   7   8
ENDBRANCH   1   7
TORSDOF 2
ENDMDL
