MODEL 1
REMARK minimizedAffinity 4.33660698
REMARK minimizedRMSD -1
REMARK  2 active torsions:
REMARK  status: ('A' for Active; 'I' for Inactive)
REMARK    1  A    between atoms: C2'_3  and  C1'_4 
REMARK    2  A    between atoms: C1'_4  and  C1_5 
ROOT
ATOM      1  C1  I4B d   1      -0.506  -1.077  -0.177  0.00  0.00    -0.075 A 
ATOM      2  C2  I4B d   1      -0.573  -0.811   1.168  0.00  0.00     0.003 A 
ATOM      3  C3  I4B d   1      -0.329   0.499   1.647  0.00  0.00     0.002 A 
ATOM      4  C4  I4B d   1       0.026   1.493   0.759  0.00  0.00    -0.004 A 
ATOM      5  C5  I4B d   1       0.071   1.226  -0.607  0.00  0.00     0.002 A 
ATOM      6  C6  I4B d   1      -0.209  -0.064  -1.079  0.00  0.00     0.003 A 
ENDROOT
BRANCH   1   7
ATOM      7  C1' I4B d   1      -0.737  -2.479  -0.646  0.00  0.00     0.060 C 
BRANCH   7   8
ATOM      8  C2' I4B d   1      -0.307  -2.563  -2.096  0.00  0.00    -0.013 C 
ATOM      9  C4' I4B d   1       0.855  -3.506  -2.267  0.00  0.00     0.013 C 
ATOM     10  C3' I4B d   1      -1.489  -3.008  -2.905  0.00  0.00     0.013 C 
ENDBRANCH   7   8
ENDBRANCH   1   7
TORSDOF 2
ENDMDL
