MODEL 1
REMARK minimizedAffinity 9.18141651
REMARK minimizedRMSD -1
REMARK  2 active torsions:
REMARK  status: ('A' for Active; 'I' for Inactive)
REMARK    1  A    between atoms: C2'_3  and  C1'_4 
REMARK    2  A    between atoms: C1'_4  and  C1_5 
ROOT
ATOM      1  C1  I4B d   1       1.845   1.356   0.935  0.00  0.00    -0.075 A 
ATOM      2  C2  I4B d   1       1.289   0.102   0.947  0.00  0.00     0.003 A 
ATOM      3  C3  I4B d   1       0.162  -0.185   0.140  0.00  0.00     0.002 A 
ATOM      4  C4  I4B d   1      -0.404   0.819  -0.620  0.00  0.00    -0.004 A 
ATOM      5  C5  I4B d   1       0.175   2.084  -0.648  0.00  0.00     0.002 A 
ATOM      6  C6  I4B d   1       1.315   2.352   0.125  0.00  0.00     0.003 A 
ENDROOT
BRANCH   1   7
ATOM      7  C1' I4B d   1       3.015   1.634   1.825  0.00  0.00     0.060 C 
BRANCH   7   8
ATOM      8  C2' I4B d   1       2.492   1.854   3.230  0.00  0.00    -0.013 C 
ATOM      9  C4' I4B d   1       2.654   0.616   4.072  0.00  0.00     0.013 C 
ATOM     10  C3' I4B d   1       3.234   3.014   3.824  0.00  0.00     0.013 C 
ENDBRANCH   7   8
ENDBRANCH   1   7
TORSDOF 2
ENDMDL
