MODEL 1
REMARK minimizedAffinity -4.69912386
REMARK minimizedRMSD -1
REMARK  1 active torsions:
REMARK  status: ('A' for Active; 'I' for Inactive)
REMARK    1  A    between atoms: C1_2  and  C2_3 
ROOT
ATOM      1  C2  UNL d   1      -0.277   0.391  -0.587  0.00  0.00    -0.081 A 
ATOM      2  C3  UNL d   1      -1.049  -0.014   0.509  0.00  0.00     0.006 A 
ATOM      3  C4  UNL d   1      -0.441  -0.574   1.635  0.00  0.00     0.002 A 
ATOM      4  C5  UNL d   1       0.948  -0.731   1.688  0.00  0.00    -0.080 A 
ATOM      5  C6  UNL d   1       1.615  -1.303   2.904  0.00  0.00     0.076 C 
ATOM      6  C7  UNL d   1       1.718  -0.342   0.587  0.00  0.00     0.002 A 
ATOM      7  C8  UNL d   1       1.111   0.217  -0.540  0.00  0.00     0.006 A 
ENDROOT
BRANCH   1   8
ATOM      8  C1  UNL d   1      -0.923   1.054  -1.776  0.00  0.00     0.054 C 
ATOM      9  C   UNL d   1      -0.109   2.249  -2.252  0.00  0.00     0.018 C 
ENDBRANCH   1   8
TORSDOF 1
ENDMDL
