MODEL 1
REMARK minimizedAffinity -5.7620163
REMARK minimizedRMSD -1
REMARK  1 active torsions:
REMARK  status: ('A' for Active; 'I' for Inactive)
REMARK    1  A    between atoms: C1_2  and  C2_3 
ROOT
ATOM      1  C2  UNL d   1      -0.086   0.257  -0.015  0.00  0.00    -0.081 A 
ATOM      2  C3  UNL d   1       1.143  -0.197  -0.508  0.00  0.00     0.006 A 
ATOM      3  C4  UNL d   1       2.001  -0.941   0.305  0.00  0.00     0.002 A 
ATOM      4  C5  UNL d   1       1.642  -1.250   1.621  0.00  0.00    -0.080 A 
ATOM      5  C6  UNL d   1       2.541  -2.074   2.495  0.00  0.00     0.076 C 
ATOM      6  C7  UNL d   1       0.422  -0.782   2.120  0.00  0.00     0.002 A 
ATOM      7  C8  UNL d   1      -0.437  -0.037   1.307  0.00  0.00     0.006 A 
ENDROOT
BRANCH   1   8
ATOM      8  C1  UNL d   1      -1.042   1.004  -0.909  0.00  0.00     0.054 C 
ATOM      9  C   UNL d   1      -0.340   2.134  -1.648  0.00  0.00     0.018 C 
ENDBRANCH   1   8
TORSDOF 1
ENDMDL
