MODEL 1
REMARK minimizedAffinity -6.38516378
REMARK minimizedRMSD -1
REMARK  1 active torsions:
REMARK  status: ('A' for Active; 'I' for Inactive)
REMARK    1  A    between atoms: C1_2  and  C2_3 
ROOT
ATOM      1  C2  UNL d   1      -0.150   0.237  -0.707  0.00  0.00    -0.081 A 
ATOM      2  C3  UNL d   1      -0.752   0.311   0.555  0.00  0.00     0.006 A 
ATOM      3  C4  UNL d   1      -0.175  -0.330   1.654  0.00  0.00     0.002 A 
ATOM      4  C5  UNL d   1       1.018  -1.047   1.511  0.00  0.00    -0.080 A 
ATOM      5  C6  UNL d   1       1.664  -1.714   2.689  0.00  0.00     0.076 C 
ATOM      6  C7  UNL d   1       1.611  -1.135   0.247  0.00  0.00     0.002 A 
ATOM      7  C8  UNL d   1       1.033  -0.495  -0.852  0.00  0.00     0.006 A 
ENDROOT
BRANCH   1   8
ATOM      8  C1  UNL d   1      -0.736   0.981  -1.880  0.00  0.00     0.054 C 
ATOM      9  C   UNL d   1       0.086   2.217  -2.218  0.00  0.00     0.018 C 
ENDBRANCH   1   8
TORSDOF 1
ENDMDL
