MODEL 1
REMARK minimizedAffinity -4.99332237
REMARK minimizedRMSD -1
REMARK  1 active torsions:
REMARK  status: ('A' for Active; 'I' for Inactive)
REMARK    1  A    between atoms: C1_2  and  C2_3 
ROOT
ATOM      1  C2  UNL d   1      -0.479   0.080  -0.483  0.00  0.00    -0.081 A 
ATOM      2  C3  UNL d   1      -1.233  -0.102   0.682  0.00  0.00     0.006 A 
ATOM      3  C4  UNL d   1      -0.627  -0.565   1.853  0.00  0.00     0.002 A 
ATOM      4  C5  UNL d   1       0.743  -0.846   1.880  0.00  0.00    -0.080 A 
ATOM      5  C6  UNL d   1       1.412  -1.314   3.138  0.00  0.00     0.076 C 
ATOM      6  C7  UNL d   1       1.493  -0.681   0.710  0.00  0.00     0.002 A 
ATOM      7  C8  UNL d   1       0.888  -0.219  -0.460  0.00  0.00     0.006 A 
ENDROOT
BRANCH   1   8
ATOM      8  C1  UNL d   1      -1.116   0.640  -1.729  0.00  0.00     0.054 C 
ATOM      9  C   UNL d   1      -0.524   1.994  -2.093  0.00  0.00     0.018 C 
ENDBRANCH   1   8
TORSDOF 1
ENDMDL
