MODEL 1
REMARK minimizedAffinity -4.40453768
REMARK minimizedRMSD -1
REMARK  1 active torsions:
REMARK  status: ('A' for Active; 'I' for Inactive)
REMARK    1  A    between atoms: C1_2  and  C2_3 
ROOT
ATOM      1  C2  UNL d   1      -0.566   0.692  -0.653  0.00  0.00    -0.081 A 
ATOM      2  C3  UNL d   1      -1.347   0.744   0.508  0.00  0.00     0.006 A 
ATOM      3  C4  UNL d   1      -0.918   0.116   1.680  0.00  0.00     0.002 A 
ATOM      4  C5  UNL d   1       0.303  -0.567   1.712  0.00  0.00    -0.080 A 
ATOM      5  C6  UNL d   1       0.790  -1.219   2.972  0.00  0.00     0.076 C 
ATOM      6  C7  UNL d   1       1.076  -0.633   0.548  0.00  0.00     0.002 A 
ATOM      7  C8  UNL d   1       0.646  -0.006  -0.624  0.00  0.00     0.006 A 
ENDROOT
BRANCH   1   8
ATOM      8  C1  UNL d   1      -0.995   1.423  -1.899  0.00  0.00     0.054 C 
ATOM      9  C   UNL d   1      -0.638   2.901  -1.825  0.00  0.00     0.018 C 
ENDBRANCH   1   8
TORSDOF 1
ENDMDL
