MODEL 1
REMARK minimizedAffinity -1.38650692
REMARK minimizedRMSD -1
REMARK  1 active torsions:
REMARK  status: ('A' for Active; 'I' for Inactive)
REMARK    1  A    between atoms: C1_2  and  C2_3 
ROOT
ATOM      1  C2  UNL d   1       1.057  -2.030   0.721  0.00  0.00    -0.073 A 
ATOM      2  C3  UNL d   1       1.984  -0.999   0.530  0.00  0.00    -0.002 A 
ATOM      3  C4  UNL d   1       1.706   0.291   0.983  0.00  0.00     0.004 A 
ATOM      4  C5  UNL d   1       0.505   0.562   1.637  0.00  0.00    -0.004 A 
ATOM      5  C6  UNL d   1      -0.429  -0.458   1.849  0.00  0.00    -0.075 A 
ATOM      6  C7  UNL d   1      -1.727  -0.182   2.549  0.00  0.00     0.076 C 
ATOM      7  C8  UNL d   1      -0.144  -1.750   1.388  0.00  0.00     0.001 A 
ENDROOT
BRANCH   1   8
ATOM      8  C1  UNL d   1       1.355  -3.427   0.239  0.00  0.00     0.053 C 
ATOM      9  C   UNL d   1       2.793  -3.833   0.522  0.00  0.00     0.018 C 
ENDBRANCH   1   8
TORSDOF 1
ENDMDL
