MODEL 1
REMARK minimizedAffinity -2.1006062
REMARK minimizedRMSD -1
REMARK  1 active torsions:
REMARK  status: ('A' for Active; 'I' for Inactive)
REMARK    1  A    between atoms: C1_2  and  C2_3 
ROOT
ATOM      1  C2  UNL d   1      -0.747   3.035  -5.197  0.00  0.00    -0.073 A 
ATOM      2  C3  UNL d   1      -1.880   3.725  -4.752  0.00  0.00    -0.002 A 
ATOM      3  C4  UNL d   1      -2.857   3.066  -4.004  0.00  0.00     0.004 A 
ATOM      4  C5  UNL d   1      -2.708   1.716  -3.688  0.00  0.00    -0.004 A 
ATOM      5  C6  UNL d   1      -1.577   1.012  -4.114  0.00  0.00    -0.075 A 
ATOM      6  C7  UNL d   1      -1.403  -0.441  -3.785  0.00  0.00     0.076 C 
ATOM      7  C8  UNL d   1      -0.601   1.680  -4.867  0.00  0.00     0.001 A 
ENDROOT
BRANCH   1   8
ATOM      8  C1  UNL d   1       0.314   3.743  -5.999  0.00  0.00     0.053 C 
ATOM      9  C   UNL d   1       1.631   2.983  -6.000  0.00  0.00     0.018 C 
ENDBRANCH   1   8
TORSDOF 1
ENDMDL
