MODEL 1
REMARK minimizedAffinity 10.075326
REMARK minimizedRMSD -1
REMARK  1 active torsions:
REMARK  status: ('A' for Active; 'I' for Inactive)
REMARK    1  A    between atoms: C1_2  and  C2_3 
ROOT
ATOM      1  C2  UNL d   1       2.494  -2.999   0.442  0.00  0.00    -0.073 A 
ATOM      2  C3  UNL d   1       2.629  -3.543   1.725  0.00  0.00    -0.002 A 
ATOM      3  C4  UNL d   1       3.847  -4.086   2.135  0.00  0.00     0.004 A 
ATOM      4  C5  UNL d   1       4.943  -4.085   1.272  0.00  0.00    -0.004 A 
ATOM      5  C6  UNL d   1       4.831  -3.535  -0.009  0.00  0.00    -0.075 A 
ATOM      6  C7  UNL d   1       6.000  -3.527  -0.950  0.00  0.00     0.076 C 
ATOM      7  C8  UNL d   1       3.604  -2.994  -0.415  0.00  0.00     0.001 A 
ENDROOT
BRANCH   1   8
ATOM      8  C1  UNL d   1       1.183  -2.406  -0.003  0.00  0.00     0.053 C 
ATOM      9  C   UNL d   1       0.001  -3.017   0.733  0.00  0.00     0.018 C 
ENDBRANCH   1   8
TORSDOF 1
ENDMDL
