MODEL 1
REMARK minimizedAffinity -1.02821386
REMARK minimizedRMSD -1
REMARK  1 active torsions:
REMARK  status: ('A' for Active; 'I' for Inactive)
REMARK    1  A    between atoms: C1_2  and  C2_3 
ROOT
ATOM      1  C2  UNL d   1      -1.155   2.172  -4.236  0.00  0.00    -0.073 A 
ATOM      2  C3  UNL d   1      -0.967   3.217  -5.148  0.00  0.00    -0.002 A 
ATOM      3  C4  UNL d   1      -1.922   4.227  -5.269  0.00  0.00     0.004 A 
ATOM      4  C5  UNL d   1      -3.070   4.207  -4.476  0.00  0.00    -0.004 A 
ATOM      5  C6  UNL d   1      -3.270   3.177  -3.551  0.00  0.00    -0.075 A 
ATOM      6  C7  UNL d   1      -4.500   3.139  -2.693  0.00  0.00     0.076 C 
ATOM      7  C8  UNL d   1      -2.307   2.165  -3.437  0.00  0.00     0.001 A 
ENDROOT
BRANCH   1   8
ATOM      8  C1  UNL d   1      -0.123   1.082  -4.098  0.00  0.00     0.053 C 
ATOM      9  C   UNL d   1      -0.757  -0.299  -4.038  0.00  0.00     0.018 C 
ENDBRANCH   1   8
TORSDOF 1
ENDMDL
