MODEL 1
REMARK minimizedAffinity 2.46914959
REMARK minimizedRMSD -1
REMARK  1 active torsions:
REMARK  status: ('A' for Active; 'I' for Inactive)
REMARK    1  A    between atoms: C1_2  and  C2_3 
ROOT
ATOM      1  C2  UNL d   1      -1.503   2.477  -4.488  0.00  0.00    -0.073 A 
ATOM      2  C3  UNL d   1      -1.464   1.150  -4.045  0.00  0.00    -0.002 A 
ATOM      3  C4  UNL d   1      -0.320   0.375  -4.240  0.00  0.00     0.004 A 
ATOM      4  C5  UNL d   1       0.797   0.919  -4.874  0.00  0.00    -0.004 A 
ATOM      5  C6  UNL d   1       0.781   2.247  -5.313  0.00  0.00    -0.075 A 
ATOM      6  C7  UNL d   1       1.974   2.847  -5.999  0.00  0.00     0.076 C 
ATOM      7  C8  UNL d   1      -0.372   3.018  -5.116  0.00  0.00     0.001 A 
ENDROOT
BRANCH   1   8
ATOM      8  C1  UNL d   1      -2.734   3.320  -4.274  0.00  0.00     0.053 C 
ATOM      9  C   UNL d   1      -3.749   2.629  -3.377  0.00  0.00     0.018 C 
ENDBRANCH   1   8
TORSDOF 1
ENDMDL
