MODEL 1
REMARK minimizedAffinity 13.9452791
REMARK minimizedRMSD -1
REMARK  1 active torsions:
REMARK  status: ('A' for Active; 'I' for Inactive)
REMARK    1  A    between atoms: C1_2  and  C2_3 
ROOT
ATOM      1  C2  UNL d   1       2.669  -3.439  -0.050  0.00  0.00    -0.073 A 
ATOM      2  C3  UNL d   1       2.884  -3.649   1.317  0.00  0.00    -0.002 A 
ATOM      3  C4  UNL d   1       4.098  -4.168   1.768  0.00  0.00     0.004 A 
ATOM      4  C5  UNL d   1       5.110  -4.477   0.859  0.00  0.00    -0.004 A 
ATOM      5  C6  UNL d   1       4.918  -4.263  -0.510  0.00  0.00    -0.075 A 
ATOM      6  C7  UNL d   1       5.996  -4.592  -1.500  0.00  0.00     0.076 C 
ATOM      7  C8  UNL d   1       3.695  -3.744  -0.955  0.00  0.00     0.001 A 
ENDROOT
BRANCH   1   8
ATOM      8  C1  UNL d   1       1.362  -2.872  -0.540  0.00  0.00     0.053 C 
ATOM      9  C   UNL d   1       0.166  -3.610   0.041  0.00  0.00     0.018 C 
ENDBRANCH   1   8
TORSDOF 1
ENDMDL
