MODEL 1
REMARK minimizedAffinity 2.89609909
REMARK minimizedRMSD -1
REMARK  1 active torsions:
REMARK  status: ('A' for Active; 'I' for Inactive)
REMARK    1  A    between atoms: C1_2  and  C2_3 
ROOT
ATOM      1  C2  UNL d   1      -1.839   3.733  -4.119  0.00  0.00    -0.073 A 
ATOM      2  C3  UNL d   1      -1.470   4.600  -5.154  0.00  0.00    -0.002 A 
ATOM      3  C4  UNL d   1      -0.405   4.280  -5.996  0.00  0.00     0.004 A 
ATOM      4  C5  UNL d   1       0.297   3.088  -5.817  0.00  0.00    -0.004 A 
ATOM      5  C6  UNL d   1      -0.064   2.203  -4.796  0.00  0.00    -0.075 A 
ATOM      6  C7  UNL d   1       0.682   0.917  -4.589  0.00  0.00     0.076 C 
ATOM      7  C8  UNL d   1      -1.134   2.533  -3.953  0.00  0.00     0.001 A 
ENDROOT
BRANCH   1   8
ATOM      8  C1  UNL d   1      -2.993   4.073  -3.211  0.00  0.00     0.053 C 
ATOM      9  C   UNL d   1      -3.901   2.877  -2.972  0.00  0.00     0.018 C 
ENDBRANCH   1   8
TORSDOF 1
ENDMDL
