MODEL 1
REMARK minimizedAffinity 15.8387337
REMARK minimizedRMSD -1
REMARK  1 active torsions:
REMARK  status: ('A' for Active; 'I' for Inactive)
REMARK    1  A    between atoms: C1_2  and  C2_3 
ROOT
ATOM      1  C2  UNL d   1       3.506  -4.072   0.299  0.00  0.00    -0.073 A 
ATOM      2  C3  UNL d   1       3.727  -2.789  -0.212  0.00  0.00    -0.002 A 
ATOM      3  C4  UNL d   1       2.652  -1.931  -0.452  0.00  0.00     0.004 A 
ATOM      4  C5  UNL d   1       1.349  -2.344  -0.177  0.00  0.00    -0.004 A 
ATOM      5  C6  UNL d   1       1.109  -3.619   0.346  0.00  0.00    -0.075 A 
ATOM      6  C7  UNL d   1      -0.288  -4.080   0.645  0.00  0.00     0.076 C 
ATOM      7  C8  UNL d   1       2.193  -4.476   0.581  0.00  0.00     0.001 A 
ENDROOT
BRANCH   1   8
ATOM      8  C1  UNL d   1       4.663  -5.000   0.566  0.00  0.00     0.053 C 
ATOM      9  C   UNL d   1       6.000  -4.350   0.246  0.00  0.00     0.018 C 
ENDBRANCH   1   8
TORSDOF 1
ENDMDL
