MODEL 1
REMARK minimizedAffinity 11.2781887
REMARK minimizedRMSD -1
REMARK  1 active torsions:
REMARK  status: ('A' for Active; 'I' for Inactive)
REMARK    1  A    between atoms: C1_2  and  C2_3 
ROOT
ATOM      1  C2  UNL d   1       2.762  -3.868   0.543  0.00  0.00    -0.073 A 
ATOM      2  C3  UNL d   1       3.013  -2.932  -0.468  0.00  0.00    -0.002 A 
ATOM      3  C4  UNL d   1       2.028  -2.018  -0.842  0.00  0.00     0.004 A 
ATOM      4  C5  UNL d   1       0.786  -2.024  -0.206  0.00  0.00    -0.004 A 
ATOM      5  C6  UNL d   1       0.521  -2.943   0.814  0.00  0.00    -0.075 A 
ATOM      6  C7  UNL d   1      -0.811  -2.964   1.506  0.00  0.00     0.076 C 
ATOM      7  C8  UNL d   1       1.514  -3.860   1.182  0.00  0.00     0.001 A 
ENDROOT
BRANCH   1   8
ATOM      8  C1  UNL d   1       3.825  -4.853   0.955  0.00  0.00     0.053 C 
ATOM      9  C   UNL d   1       5.203  -4.448   0.455  0.00  0.00     0.018 C 
ENDBRANCH   1   8
TORSDOF 1
ENDMDL
