MODEL 1
REMARK minimizedAffinity -1.86019874
REMARK minimizedRMSD -1
REMARK  0 active torsions:
REMARK  status: ('A' for Active; 'I' for Inactive)
ROOT
ATOM      1  C   UNL d   1      -0.899   0.712  -0.270  0.00  0.00     0.172 C 
ATOM      2  N   UNL d   1       0.253   0.204   0.436  0.00  0.00    -0.070 N 
ATOM      3  C1  UNL d   1       0.920  -0.956   0.145  0.00  0.00    -0.004 A 
ATOM      4  C2  UNL d   1       1.956  -1.083   1.045  0.00  0.00    -0.047 A 
ATOM      5  C3  UNL d   1       1.910   0.038   1.907  0.00  0.00    -0.047 A 
ATOM      6  C4  UNL d   1       0.846   0.819   1.507  0.00  0.00    -0.004 A 
ENDROOT
TORSDOF 0
ENDMDL
