MODEL 1
REMARK minimizedAffinity -1.46517313
REMARK minimizedRMSD -1
REMARK  0 active torsions:
REMARK  status: ('A' for Active; 'I' for Inactive)
ROOT
ATOM      1  C   UNL d   1       1.270  -0.601   0.620  0.00  0.00     0.172 C 
ATOM      2  N   UNL d   1      -0.076  -0.102   0.776  0.00  0.00    -0.070 N 
ATOM      3  C1  UNL d   1      -0.520   0.690   1.801  0.00  0.00    -0.004 A 
ATOM      4  C2  UNL d   1      -1.856   0.949   1.586  0.00  0.00    -0.047 A 
ATOM      5  C3  UNL d   1      -2.228   0.289   0.390  0.00  0.00    -0.047 A 
ATOM      6  C4  UNL d   1      -1.107  -0.353  -0.090  0.00  0.00    -0.004 A 
ENDROOT
TORSDOF 0
ENDMDL
