MODEL 1
REMARK minimizedAffinity -2.48417997
REMARK minimizedRMSD -1
REMARK  0 active torsions:
REMARK  status: ('A' for Active; 'I' for Inactive)
ROOT
ATOM      1  C   UNL d   1       1.859   1.754  -4.286  0.00  0.00     0.172 C 
ATOM      2  N   UNL d   1       0.979   0.647  -4.575  0.00  0.00    -0.070 N 
ATOM      3  C1  UNL d   1       0.708  -0.399  -3.734  0.00  0.00    -0.004 A 
ATOM      4  C2  UNL d   1      -0.174  -1.240  -4.376  0.00  0.00    -0.047 A 
ATOM      5  C3  UNL d   1      -0.443  -0.681  -5.648  0.00  0.00    -0.047 A 
ATOM      6  C4  UNL d   1       0.283   0.487  -5.745  0.00  0.00    -0.004 A 
ENDROOT
TORSDOF 0
ENDMDL
