MODEL 1
REMARK minimizedAffinity 0.106748722
REMARK minimizedRMSD -1
REMARK  0 active torsions:
REMARK  status: ('A' for Active; 'I' for Inactive)
ROOT
ATOM      1  C   UNL d   1       0.136   1.908   2.567  0.00  0.00     0.172 C 
ATOM      2  N   UNL d   1       0.458   0.997   1.494  0.00  0.00    -0.070 N 
ATOM      3  C1  UNL d   1       1.429   0.032   1.529  0.00  0.00    -0.004 A 
ATOM      4  C2  UNL d   1       1.420  -0.621   0.316  0.00  0.00    -0.047 A 
ATOM      5  C3  UNL d   1       0.408  -0.028  -0.477  0.00  0.00    -0.047 A 
ATOM      6  C4  UNL d   1      -0.171   0.971   0.277  0.00  0.00    -0.004 A 
ENDROOT
TORSDOF 0
ENDMDL
