MODEL 1
REMARK minimizedAffinity -2.83360457
REMARK minimizedRMSD -1
REMARK  0 active torsions:
REMARK  status: ('A' for Active; 'I' for Inactive)
ROOT
ATOM      1  C   UNL d   1      -2.443  -0.398   2.308  0.00  0.00     0.172 C 
ATOM      2  N   UNL d   1      -1.265   0.193   1.718  0.00  0.00    -0.070 N 
ATOM      3  C1  UNL d   1      -0.777  -0.076   0.467  0.00  0.00    -0.004 A 
ATOM      4  C2  UNL d   1       0.355   0.688   0.282  0.00  0.00    -0.047 A 
ATOM      5  C3  UNL d   1       0.555   1.442   1.463  0.00  0.00    -0.047 A 
ATOM      6  C4  UNL d   1      -0.462   1.116   2.335  0.00  0.00    -0.004 A 
ENDROOT
TORSDOF 0
ENDMDL
