MODEL 1
REMARK minimizedAffinity -2.30399084
REMARK minimizedRMSD -1
REMARK  0 active torsions:
REMARK  status: ('A' for Active; 'I' for Inactive)
ROOT
ATOM      1  C   UNL d   1      -0.373   1.775   2.861  0.00  0.00     0.172 C 
ATOM      2  N   UNL d   1      -0.323   0.834   1.766  0.00  0.00    -0.070 N 
ATOM      3  C1  UNL d   1       0.808   0.234   1.280  0.00  0.00    -0.004 A 
ATOM      4  C2  UNL d   1       0.435  -0.590   0.241  0.00  0.00    -0.047 A 
ATOM      5  C3  UNL d   1      -0.969  -0.481   0.096  0.00  0.00    -0.047 A 
ATOM      6  C4  UNL d   1      -1.412   0.407   1.053  0.00  0.00    -0.004 A 
ENDROOT
TORSDOF 0
ENDMDL
