MODEL 1
REMARK minimizedAffinity 1.21559238
REMARK minimizedRMSD -1
REMARK  0 active torsions:
REMARK  status: ('A' for Active; 'I' for Inactive)
ROOT
ATOM      1  C   UNL d   1       1.834  -0.019   2.273  0.00  0.00     0.172 C 
ATOM      2  N   UNL d   1       0.457   0.150   1.872  0.00  0.00    -0.070 N 
ATOM      3  C1  UNL d   1      -0.010   0.118   0.585  0.00  0.00    -0.004 A 
ATOM      4  C2  UNL d   1      -1.373   0.319   0.624  0.00  0.00    -0.047 A 
ATOM      5  C3  UNL d   1      -1.738   0.479   1.982  0.00  0.00    -0.047 A 
ATOM      6  C4  UNL d   1      -0.586   0.370   2.733  0.00  0.00    -0.004 A 
ENDROOT
TORSDOF 0
ENDMDL
