MODEL 1
REMARK minimizedAffinity -3.88016272
REMARK minimizedRMSD -1
REMARK  1 active torsions:
REMARK  status: ('A' for Active; 'I' for Inactive)
REMARK    1  A    between atoms: C1_2  and  C2_3 
ROOT
ATOM      1  C2  UNL d   1      -2.540   1.538  -2.828  0.00  0.00    -0.081 A 
ATOM      2  C3  UNL d   1      -2.499   0.574  -1.813  0.00  0.00     0.006 A 
ATOM      3  C4  UNL d   1      -3.611   0.358  -0.996  0.00  0.00     0.002 A 
ATOM      4  C5  UNL d   1      -4.785   1.096  -1.185  0.00  0.00    -0.080 A 
ATOM      5  C6  UNL d   1      -5.996   0.853  -0.335  0.00  0.00     0.076 C 
ATOM      6  C7  UNL d   1      -4.820   2.071  -2.188  0.00  0.00     0.002 A 
ATOM      7  C8  UNL d   1      -3.708   2.288  -3.004  0.00  0.00     0.006 A 
ENDROOT
BRANCH   1   8
ATOM      8  C1  UNL d   1      -1.365   1.728  -3.752  0.00  0.00     0.054 C 
ATOM      9  C   UNL d   1      -1.421   3.082  -4.447  0.00  0.00     0.018 C 
ENDBRANCH   1   8
TORSDOF 1
ENDMDL
