MODEL 1
REMARK minimizedAffinity 2.00213456
REMARK minimizedRMSD -1
REMARK  1 active torsions:
REMARK  status: ('A' for Active; 'I' for Inactive)
REMARK    1  A    between atoms: C1_2  and  C2_3 
ROOT
ATOM      1  C2  UNL d   1       1.433   1.405  -0.052  0.00  0.00    -0.081 A 
ATOM      2  C3  UNL d   1       2.583   0.812  -0.586  0.00  0.00     0.006 A 
ATOM      3  C4  UNL d   1       3.677   1.598  -0.958  0.00  0.00     0.002 A 
ATOM      4  C5  UNL d   1       3.642   2.987  -0.794  0.00  0.00    -0.080 A 
ATOM      5  C6  UNL d   1       4.820   3.839  -1.161  0.00  0.00     0.076 C 
ATOM      6  C7  UNL d   1       2.486   3.581  -0.276  0.00  0.00     0.002 A 
ATOM      7  C8  UNL d   1       1.392   2.796   0.095  0.00  0.00     0.006 A 
ENDROOT
BRANCH   1   8
ATOM      8  C1  UNL d   1       0.277   0.555   0.410  0.00  0.00     0.054 C 
ATOM      9  C   UNL d   1       0.762  -0.689   1.141  0.00  0.00     0.018 C 
ENDBRANCH   1   8
TORSDOF 1
ENDMDL
