MODEL 1
REMARK minimizedAffinity -0.0414095372
REMARK minimizedRMSD -1
REMARK  1 active torsions:
REMARK  status: ('A' for Active; 'I' for Inactive)
REMARK    1  A    between atoms: C1_2  and  C2_3 
ROOT
ATOM      1  C2  UNL d   1       1.522  -0.884   1.735  0.00  0.00    -0.081 A 
ATOM      2  C3  UNL d   1       1.584  -1.326   3.062  0.00  0.00     0.006 A 
ATOM      3  C4  UNL d   1       2.797  -1.322   3.754  0.00  0.00     0.002 A 
ATOM      4  C5  UNL d   1       3.966  -0.868   3.134  0.00  0.00    -0.080 A 
ATOM      5  C6  UNL d   1       5.269  -0.829   3.875  0.00  0.00     0.076 C 
ATOM      6  C7  UNL d   1       3.908  -0.442   1.802  0.00  0.00     0.002 A 
ATOM      7  C8  UNL d   1       2.695  -0.447   1.110  0.00  0.00     0.006 A 
ENDROOT
BRANCH   1   8
ATOM      8  C1  UNL d   1       0.203  -0.827   1.007  0.00  0.00     0.054 C 
ATOM      9  C   UNL d   1       0.034   0.494   0.270  0.00  0.00     0.018 C 
ENDBRANCH   1   8
TORSDOF 1
ENDMDL
