MODEL 1
REMARK minimizedAffinity -1.94262338
REMARK minimizedRMSD -1
REMARK  1 active torsions:
REMARK  status: ('A' for Active; 'I' for Inactive)
REMARK    1  A    between atoms: C1_2  and  C2_3 
ROOT
ATOM      1  C2  UNL d   1      -3.048  -5.988  -4.281  0.00  0.00    -0.081 A 
ATOM      2  C3  UNL d   1      -4.414  -5.997  -4.590  0.00  0.00     0.006 A 
ATOM      3  C4  UNL d   1      -5.370  -5.937  -3.573  0.00  0.00     0.002 A 
ATOM      4  C5  UNL d   1      -4.977  -5.859  -2.233  0.00  0.00    -0.080 A 
ATOM      5  C6  UNL d   1      -5.993  -5.763  -1.134  0.00  0.00     0.076 C 
ATOM      6  C7  UNL d   1      -3.613  -5.868  -1.923  0.00  0.00     0.002 A 
ATOM      7  C8  UNL d   1      -2.656  -5.929  -2.939  0.00  0.00     0.006 A 
ENDROOT
BRANCH   1   8
ATOM      8  C1  UNL d   1      -2.014  -5.988  -5.378  0.00  0.00     0.054 C 
ATOM      9  C   UNL d   1      -0.603  -5.996  -4.808  0.00  0.00     0.018 C 
ENDBRANCH   1   8
TORSDOF 1
ENDMDL
