MODEL 1
REMARK minimizedAffinity 2.19232631
REMARK minimizedRMSD -1
REMARK  1 active torsions:
REMARK  status: ('A' for Active; 'I' for Inactive)
REMARK    1  A    between atoms: C1_2  and  C2_3 
ROOT
ATOM      1  C2  UNL d   1      -3.064   0.597  -1.689  0.00  0.00    -0.081 A 
ATOM      2  C3  UNL d   1      -1.679   0.492  -1.865  0.00  0.00     0.006 A 
ATOM      3  C4  UNL d   1      -0.979   1.471  -2.575  0.00  0.00     0.002 A 
ATOM      4  C5  UNL d   1      -1.650   2.575  -3.112  0.00  0.00    -0.080 A 
ATOM      5  C6  UNL d   1      -0.906   3.648  -3.849  0.00  0.00     0.076 C 
ATOM      6  C7  UNL d   1      -3.037   2.671  -2.950  0.00  0.00     0.002 A 
ATOM      7  C8  UNL d   1      -3.737   1.692  -2.242  0.00  0.00     0.006 A 
ENDROOT
BRANCH   1   8
ATOM      8  C1  UNL d   1      -3.812  -0.423  -0.870  0.00  0.00     0.054 C 
ATOM      9  C   UNL d   1      -4.760   0.245   0.115  0.00  0.00     0.018 C 
ENDBRANCH   1   8
TORSDOF 1
ENDMDL
