MODEL 1
REMARK minimizedAffinity -3.63962531
REMARK minimizedRMSD -1
REMARK  1 active torsions:
REMARK  status: ('A' for Active; 'I' for Inactive)
REMARK    1  A    between atoms: C1_2  and  C2_3 
ROOT
ATOM      1  C2  UNL d   1      -4.093  -1.546  -0.420  0.00  0.00    -0.081 A 
ATOM      2  C3  UNL d   1      -5.162  -0.880   0.191  0.00  0.00     0.006 A 
ATOM      3  C4  UNL d   1      -5.698   0.275  -0.383  0.00  0.00     0.002 A 
ATOM      4  C5  UNL d   1      -5.178   0.780  -1.580  0.00  0.00    -0.080 A 
ATOM      5  C6  UNL d   1      -5.764   2.002  -2.222  0.00  0.00     0.076 C 
ATOM      6  C7  UNL d   1      -4.098   0.125  -2.181  0.00  0.00     0.002 A 
ATOM      7  C8  UNL d   1      -3.562  -1.031  -1.608  0.00  0.00     0.006 A 
ENDROOT
BRANCH   1   8
ATOM      8  C1  UNL d   1      -3.555  -2.829   0.161  0.00  0.00     0.054 C 
ATOM      9  C   UNL d   1      -2.036  -2.874   0.092  0.00  0.00     0.018 C 
ENDBRANCH   1   8
TORSDOF 1
ENDMDL
