MODEL 1
REMARK minimizedAffinity 1.76064003
REMARK minimizedRMSD -1
REMARK  1 active torsions:
REMARK  status: ('A' for Active; 'I' for Inactive)
REMARK    1  A    between atoms: C1_2  and  C2_3 
ROOT
ATOM      1  C2  UNL d   1       2.437   4.419   0.394  0.00  0.00    -0.081 A 
ATOM      2  C3  UNL d   1       2.059   5.244   1.460  0.00  0.00     0.006 A 
ATOM      3  C4  UNL d   1       0.765   5.765   1.528  0.00  0.00     0.002 A 
ATOM      4  C5  UNL d   1      -0.174   5.463   0.536  0.00  0.00    -0.080 A 
ATOM      5  C6  UNL d   1      -1.576   5.991   0.613  0.00  0.00     0.076 C 
ATOM      6  C7  UNL d   1       0.208   4.653  -0.538  0.00  0.00     0.002 A 
ATOM      7  C8  UNL d   1       1.502   4.133  -0.607  0.00  0.00     0.006 A 
ENDROOT
BRANCH   1   8
ATOM      8  C1  UNL d   1       3.813   3.803   0.351  0.00  0.00     0.054 C 
ATOM      9  C   UNL d   1       4.865   4.827  -0.048  0.00  0.00     0.018 C 
ENDBRANCH   1   8
TORSDOF 1
ENDMDL
