MODEL 1
REMARK minimizedAffinity 8.43442249
REMARK minimizedRMSD -1
REMARK  1 active torsions:
REMARK  status: ('A' for Active; 'I' for Inactive)
REMARK    1  A    between atoms: C1_2  and  C2_3 
ROOT
ATOM      1  C2  UNL d   1       2.085  -0.917   1.416  0.00  0.00    -0.081 A 
ATOM      2  C3  UNL d   1       3.458  -0.779   1.177  0.00  0.00     0.006 A 
ATOM      3  C4  UNL d   1       4.376  -0.920   2.221  0.00  0.00     0.002 A 
ATOM      4  C5  UNL d   1       3.937  -1.209   3.518  0.00  0.00    -0.080 A 
ATOM      5  C6  UNL d   1       4.914  -1.393   4.641  0.00  0.00     0.076 C 
ATOM      6  C7  UNL d   1       2.565  -1.329   3.759  0.00  0.00     0.002 A 
ATOM      7  C8  UNL d   1       1.647  -1.188   2.716  0.00  0.00     0.006 A 
ENDROOT
BRANCH   1   8
ATOM      8  C1  UNL d   1       1.098  -0.829   0.280  0.00  0.00     0.054 C 
ATOM      9  C   UNL d   1       0.121  -1.996   0.305  0.00  0.00     0.018 C 
ENDBRANCH   1   8
TORSDOF 1
ENDMDL
