MODEL 1
REMARK minimizedAffinity 7.53942919
REMARK minimizedRMSD -1
REMARK  1 active torsions:
REMARK  status: ('A' for Active; 'I' for Inactive)
REMARK    1  A    between atoms: C1_2  and  C2_3 
ROOT
ATOM      1  C2  UNL d   1       2.539  -1.030   1.769  0.00  0.00    -0.081 A 
ATOM      2  C3  UNL d   1       3.139  -0.444   0.648  0.00  0.00     0.006 A 
ATOM      3  C4  UNL d   1       2.358   0.008  -0.418  0.00  0.00     0.002 A 
ATOM      4  C5  UNL d   1       0.965  -0.110  -0.378  0.00  0.00    -0.080 A 
ATOM      5  C6  UNL d   1       0.113   0.399  -1.502  0.00  0.00     0.076 C 
ATOM      6  C7  UNL d   1       0.366  -0.711   0.735  0.00  0.00     0.002 A 
ATOM      7  C8  UNL d   1       1.147  -1.165   1.801  0.00  0.00     0.006 A 
ENDROOT
BRANCH   1   8
ATOM      8  C1  UNL d   1       3.374  -1.460   2.948  0.00  0.00     0.054 C 
ATOM      9  C   UNL d   1       4.771  -0.858   2.886  0.00  0.00     0.018 C 
ENDBRANCH   1   8
TORSDOF 1
ENDMDL
