MODEL 1
REMARK minimizedAffinity -2.83437681
REMARK minimizedRMSD -1
REMARK  1 active torsions:
REMARK  status: ('A' for Active; 'I' for Inactive)
REMARK    1  A    between atoms: C1_2  and  C2_3 
ROOT
ATOM      1  C2  UNL d   1       1.884   1.349  -0.103  0.00  0.00    -0.081 A 
ATOM      2  C3  UNL d   1       3.075   0.809  -0.602  0.00  0.00     0.006 A 
ATOM      3  C4  UNL d   1       4.180   1.630  -0.840  0.00  0.00     0.002 A 
ATOM      4  C5  UNL d   1       4.115   3.002  -0.575  0.00  0.00    -0.080 A 
ATOM      5  C6  UNL d   1       5.304   3.889  -0.796  0.00  0.00     0.076 C 
ATOM      6  C7  UNL d   1       2.919   3.544  -0.092  0.00  0.00     0.002 A 
ATOM      7  C8  UNL d   1       1.814   2.724   0.145  0.00  0.00     0.006 A 
ENDROOT
BRANCH   1   8
ATOM      8  C1  UNL d   1       0.712   0.456   0.215  0.00  0.00     0.054 C 
ATOM      9  C   UNL d   1       1.093  -1.014   0.115  0.00  0.00     0.018 C 
ENDBRANCH   1   8
TORSDOF 1
ENDMDL
