MODEL 1
REMARK minimizedAffinity 7.96676254
REMARK minimizedRMSD -1
REMARK  1 active torsions:
REMARK  status: ('A' for Active; 'I' for Inactive)
REMARK    1  A    between atoms: C1_2  and  C2_3 
ROOT
ATOM      1  C2  UNL d   1       3.388   2.973  -0.316  0.00  0.00    -0.081 A 
ATOM      2  C3  UNL d   1       2.109   3.415   0.046  0.00  0.00     0.006 A 
ATOM      3  C4  UNL d   1       1.067   2.501   0.217  0.00  0.00     0.002 A 
ATOM      4  C5  UNL d   1       1.286   1.131   0.036  0.00  0.00    -0.080 A 
ATOM      5  C6  UNL d   1       0.183   0.137   0.246  0.00  0.00     0.076 C 
ATOM      6  C7  UNL d   1       2.559   0.692  -0.342  0.00  0.00     0.002 A 
ATOM      7  C8  UNL d   1       3.602   1.605  -0.514  0.00  0.00     0.006 A 
ENDROOT
BRANCH   1   8
ATOM      8  C1  UNL d   1       4.530   3.949  -0.438  0.00  0.00     0.054 C 
ATOM      9  C   UNL d   1       5.093   3.969  -1.852  0.00  0.00     0.018 C 
ENDBRANCH   1   8
TORSDOF 1
ENDMDL
