MODEL 1
REMARK minimizedAffinity 8.49912453
REMARK minimizedRMSD -1
REMARK  1 active torsions:
REMARK  status: ('A' for Active; 'I' for Inactive)
REMARK    1  A    between atoms: C1_2  and  C2_3 
ROOT
ATOM      1  C2  UNL d   1      -0.701  -2.461   0.684  0.00  0.00    -0.081 A 
ATOM      2  C3  UNL d   1      -1.566  -1.373   0.847  0.00  0.00     0.006 A 
ATOM      3  C4  UNL d   1      -1.071  -0.067   0.842  0.00  0.00     0.002 A 
ATOM      4  C5  UNL d   1       0.296   0.173   0.666  0.00  0.00    -0.080 A 
ATOM      5  C6  UNL d   1       0.838   1.571   0.628  0.00  0.00     0.076 C 
ATOM      6  C7  UNL d   1       1.164  -0.915   0.521  0.00  0.00     0.002 A 
ATOM      7  C8  UNL d   1       0.668  -2.221   0.526  0.00  0.00     0.006 A 
ENDROOT
BRANCH   1   8
ATOM      8  C1  UNL d   1      -1.241  -3.867   0.625  0.00  0.00     0.054 C 
ATOM      9  C   UNL d   1      -2.617  -3.960   1.269  0.00  0.00     0.018 C 
ENDBRANCH   1   8
TORSDOF 1
ENDMDL
