MODEL 1
REMARK minimizedAffinity 3.01033688
REMARK minimizedRMSD -1
REMARK  1 active torsions:
REMARK  status: ('A' for Active; 'I' for Inactive)
REMARK    1  A    between atoms: C1_2  and  C2_3 
ROOT
ATOM      1  C2  UNL d   1       1.372  -0.655   1.139  0.00  0.00    -0.081 A 
ATOM      2  C3  UNL d   1       1.762  -0.867   2.467  0.00  0.00     0.006 A 
ATOM      3  C4  UNL d   1       3.116  -0.942   2.803  0.00  0.00     0.002 A 
ATOM      4  C5  UNL d   1       4.101  -0.799   1.820  0.00  0.00    -0.080 A 
ATOM      5  C6  UNL d   1       5.558  -0.848   2.173  0.00  0.00     0.076 C 
ATOM      6  C7  UNL d   1       3.711  -0.605   0.491  0.00  0.00     0.002 A 
ATOM      7  C8  UNL d   1       2.358  -0.531   0.154  0.00  0.00     0.006 A 
ENDROOT
BRANCH   1   8
ATOM      8  C1  UNL d   1      -0.085  -0.509   0.783  0.00  0.00     0.054 C 
ATOM      9  C   UNL d   1      -0.446   0.945   0.514  0.00  0.00     0.018 C 
ENDBRANCH   1   8
TORSDOF 1
ENDMDL
