MODEL 1
REMARK minimizedAffinity -4.28585339
REMARK minimizedRMSD -1
REMARK  0 active torsions:
REMARK  status: ('A' for Active; 'I' for Inactive)
ROOT
ATOM      1  C1  BNZ d   1       1.216   0.679   0.925  0.00  0.00     0.000 A 
ATOM      2  C2  BNZ d   1       2.458   0.550   1.488  0.00  0.00     0.000 A 
ATOM      3  C3  BNZ d   1       3.265  -0.506   1.169  0.00  0.00     0.000 A 
ATOM      4  C4  BNZ d   1       2.815  -1.452   0.319  0.00  0.00     0.000 A 
ATOM      5  C5  BNZ d   1       1.561  -1.341  -0.249  0.00  0.00     0.000 A 
ATOM      6  C6  BNZ d   1       0.767  -0.257   0.045  0.00  0.00     0.000 A 
ENDROOT
TORSDOF 0
ENDMDL
