MODEL 1
REMARK minimizedAffinity -4.36074972
REMARK minimizedRMSD -1
REMARK  0 active torsions:
REMARK  status: ('A' for Active; 'I' for Inactive)
ROOT
ATOM      1  C1  BNZ d   1       0.643  -1.538   1.032  0.00  0.00     0.000 A 
ATOM      2  C2  BNZ d   1       1.267  -0.401   0.593  0.00  0.00     0.000 A 
ATOM      3  C3  BNZ d   1       0.543   0.710   0.259  0.00  0.00     0.000 A 
ATOM      4  C4  BNZ d   1      -0.803   0.669   0.326  0.00  0.00     0.000 A 
ATOM      5  C5  BNZ d   1      -1.447  -0.474   0.757  0.00  0.00     0.000 A 
ATOM      6  C6  BNZ d   1      -0.714  -1.577   1.129  0.00  0.00     0.000 A 
ENDROOT
TORSDOF 0
ENDMDL
