MODEL 1
REMARK minimizedAffinity -3.99614263
REMARK minimizedRMSD -1
REMARK  0 active torsions:
REMARK  status: ('A' for Active; 'I' for Inactive)
ROOT
ATOM      1  C1  BNZ d   1       0.275   1.269  -0.011  0.00  0.00     0.000 A 
ATOM      2  C2  BNZ d   1       1.592   0.965   0.212  0.00  0.00     0.000 A 
ATOM      3  C3  BNZ d   1       2.017  -0.334   0.227  0.00  0.00     0.000 A 
ATOM      4  C4  BNZ d   1       1.120  -1.327   0.059  0.00  0.00     0.000 A 
ATOM      5  C5  BNZ d   1      -0.212  -1.037  -0.157  0.00  0.00     0.000 A 
ATOM      6  C6  BNZ d   1      -0.630   0.273  -0.210  0.00  0.00     0.000 A 
ENDROOT
TORSDOF 0
ENDMDL
