MODEL 1
REMARK minimizedAffinity -3.48741364
REMARK minimizedRMSD -1
REMARK  0 active torsions:
REMARK  status: ('A' for Active; 'I' for Inactive)
ROOT
ATOM      1  C1  BNZ d   1       0.224   1.769   0.009  0.00  0.00     0.000 A 
ATOM      2  C2  BNZ d   1      -0.766   0.939  -0.445  0.00  0.00     0.000 A 
ATOM      3  C3  BNZ d   1      -0.678  -0.414  -0.276  0.00  0.00     0.000 A 
ATOM      4  C4  BNZ d   1       0.417  -0.939   0.309  0.00  0.00     0.000 A 
ATOM      5  C5  BNZ d   1       1.429  -0.117   0.764  0.00  0.00     0.000 A 
ATOM      6  C6  BNZ d   1       1.319   1.248   0.627  0.00  0.00     0.000 A 
ENDROOT
TORSDOF 0
ENDMDL
