MODEL 1
REMARK minimizedAffinity -2.43364286
REMARK minimizedRMSD -1
REMARK  0 active torsions:
REMARK  status: ('A' for Active; 'I' for Inactive)
ROOT
ATOM      1  C1  BNZ d   1      -0.384  -0.677   0.123  0.00  0.00     0.000 A 
ATOM      2  C2  BNZ d   1       0.946  -0.759   0.442  0.00  0.00     0.000 A 
ATOM      3  C3  BNZ d   1       1.742   0.352   0.417  0.00  0.00     0.000 A 
ATOM      4  C4  BNZ d   1       1.218   1.534   0.035  0.00  0.00     0.000 A 
ATOM      5  C5  BNZ d   1      -0.119   1.632  -0.298  0.00  0.00     0.000 A 
ATOM      6  C6  BNZ d   1      -0.926   0.519  -0.234  0.00  0.00     0.000 A 
ENDROOT
TORSDOF 0
ENDMDL
