MODEL 1
REMARK minimizedAffinity -4.14001513
REMARK minimizedRMSD -1
REMARK  0 active torsions:
REMARK  status: ('A' for Active; 'I' for Inactive)
ROOT
ATOM      1  C1  BNZ d   1       0.246  -0.218  -0.003  0.00  0.00     0.000 A 
ATOM      2  C2  BNZ d   1       1.455  -0.617   0.502  0.00  0.00     0.000 A 
ATOM      3  C3  BNZ d   1       2.411   0.300   0.838  0.00  0.00     0.000 A 
ATOM      4  C4  BNZ d   1       2.173   1.612   0.630  0.00  0.00     0.000 A 
ATOM      5  C5  BNZ d   1       0.963   2.029   0.113  0.00  0.00     0.000 A 
ATOM      6  C6  BNZ d   1      -0.012   1.105  -0.187  0.00  0.00     0.000 A 
ENDROOT
TORSDOF 0
ENDMDL
