MODEL 1
REMARK minimizedAffinity -4.98549366
REMARK minimizedRMSD -1
REMARK  0 active torsions:
REMARK  status: ('A' for Active; 'I' for Inactive)
ROOT
ATOM      1  C1  BNZ d   1       2.329  -0.494   1.229  0.00  0.00     0.000 A 
ATOM      2  C2  BNZ d   1       1.133  -1.150   1.344  0.00  0.00     0.000 A 
ATOM      3  C3  BNZ d   1      -0.028  -0.569   0.916  0.00  0.00     0.000 A 
ATOM      4  C4  BNZ d   1       0.003   0.682   0.412  0.00  0.00     0.000 A 
ATOM      5  C5  BNZ d   1       1.200   1.360   0.298  0.00  0.00     0.000 A 
ATOM      6  C6  BNZ d   1       2.372   0.756   0.694  0.00  0.00     0.000 A 
ENDROOT
TORSDOF 0
ENDMDL
