MODEL 1
REMARK minimizedAffinity -4.94685268
REMARK minimizedRMSD -1
REMARK  0 active torsions:
REMARK  status: ('A' for Active; 'I' for Inactive)
ROOT
ATOM      1  C1  BNZ d   1       1.121  -1.471   0.770  0.00  0.00     0.000 A 
ATOM      2  C2  BNZ d   1      -0.046  -0.790   0.543  0.00  0.00     0.000 A 
ATOM      3  C3  BNZ d   1      -0.030   0.541   0.231  0.00  0.00     0.000 A 
ATOM      4  C4  BNZ d   1       1.147   1.197   0.185  0.00  0.00     0.000 A 
ATOM      5  C5  BNZ d   1       2.331   0.527   0.420  0.00  0.00     0.000 A 
ATOM      6  C6  BNZ d   1       2.314  -0.821   0.695  0.00  0.00     0.000 A 
ENDROOT
TORSDOF 0
ENDMDL
