MODEL 1
REMARK minimizedAffinity -4.44506359
REMARK minimizedRMSD -1
REMARK  0 active torsions:
REMARK  status: ('A' for Active; 'I' for Inactive)
ROOT
ATOM      1  C1  BNZ d   1      -0.013   0.810   0.541  0.00  0.00     0.000 A 
ATOM      2  C2  BNZ d   1       1.313   0.741   0.208  0.00  0.00     0.000 A 
ATOM      3  C3  BNZ d   1       1.975  -0.455   0.215  0.00  0.00     0.000 A 
ATOM      4  C4  BNZ d   1       1.321  -1.573   0.592  0.00  0.00     0.000 A 
ATOM      5  C5  BNZ d   1      -0.014  -1.518   0.939  0.00  0.00     0.000 A 
ATOM      6  C6  BNZ d   1      -0.687  -0.318   0.894  0.00  0.00     0.000 A 
ENDROOT
TORSDOF 0
ENDMDL
