MODEL 1
REMARK minimizedAffinity -4.76257467
REMARK minimizedRMSD -1
REMARK  0 active torsions:
REMARK  status: ('A' for Active; 'I' for Inactive)
ROOT
ATOM      1  C1  BNZ d   1       2.023  -1.947   1.795  0.00  0.00     0.000 A 
ATOM      2  C2  BNZ d   1       0.860  -1.808   1.085  0.00  0.00     0.000 A 
ATOM      3  C3  BNZ d   1       0.686  -0.762   0.223  0.00  0.00     0.000 A 
ATOM      4  C4  BNZ d   1       1.658   0.166   0.102  0.00  0.00     0.000 A 
ATOM      5  C5  BNZ d   1       2.832   0.045   0.818  0.00  0.00     0.000 A 
ATOM      6  C6  BNZ d   1       3.019  -1.030   1.655  0.00  0.00     0.000 A 
ENDROOT
TORSDOF 0
ENDMDL
