MODEL 1
REMARK minimizedAffinity -3.99837422
REMARK minimizedRMSD -1
REMARK  3 active torsions:
REMARK  status: ('A' for Active; 'I' for Inactive)
REMARK    1  A    between atoms: C3'_2  and  C2'_3 
REMARK    2  A    between atoms: C2'_3  and  C1'_4 
REMARK    3  A    between atoms: C1'_4  and  C1_5 
ROOT
ATOM      1  C1  N4B d   1       0.181   0.191   0.325  0.00  0.00    -0.075 A 
ATOM      2  C2  N4B d   1      -1.207  -0.069   0.331  0.00  0.00     0.002 A 
ATOM      3  C3  N4B d   1      -1.980   0.349   1.386  0.00  0.00     0.002 A 
ATOM      4  C4  N4B d   1      -1.386   1.009   2.452  0.00  0.00    -0.004 A 
ATOM      5  C5  N4B d   1      -0.049   1.279   2.427  0.00  0.00     0.002 A 
ATOM      6  C6  N4B d   1       0.739   0.869   1.370  0.00  0.00     0.002 A 
ENDROOT
BRANCH   1   7
ATOM      7  C1' N4B d   1       1.080  -0.321  -0.766  0.00  0.00     0.057 C 
BRANCH   7   8
ATOM      8  C2' N4B d   1       0.405  -0.101  -2.117  0.00  0.00     0.009 C 
BRANCH   8   9
ATOM      9  C3' N4B d   1       1.348   0.530  -3.127  0.00  0.00     0.004 C 
ATOM     10  C4' N4B d   1       0.736   0.661  -4.490  0.00  0.00     0.003 C 
ENDBRANCH   8   9
ENDBRANCH   7   8
ENDBRANCH   1   7
TORSDOF 3
ENDMDL
