MODEL 1
REMARK minimizedAffinity -3.19791508
REMARK minimizedRMSD -1
REMARK  3 active torsions:
REMARK  status: ('A' for Active; 'I' for Inactive)
REMARK    1  A    between atoms: C3'_2  and  C2'_3 
REMARK    2  A    between atoms: C2'_3  and  C1'_4 
REMARK    3  A    between atoms: C1'_4  and  C1_5 
ROOT
ATOM      1  C1  N4B d   1      -0.585   0.319   0.464  0.00  0.00    -0.075 A 
ATOM      2  C2  N4B d   1      -1.762  -0.244  -0.077  0.00  0.00     0.002 A 
ATOM      3  C3  N4B d   1      -1.677  -1.162  -1.096  0.00  0.00     0.002 A 
ATOM      4  C4  N4B d   1      -0.434  -1.515  -1.600  0.00  0.00    -0.004 A 
ATOM      5  C5  N4B d   1       0.698  -0.985  -1.054  0.00  0.00     0.002 A 
ATOM      6  C6  N4B d   1       0.629  -0.065  -0.027  0.00  0.00     0.002 A 
ENDROOT
BRANCH   1   7
ATOM      7  C1' N4B d   1      -0.631   1.389   1.521  0.00  0.00     0.057 C 
BRANCH   7   8
ATOM      8  C2' N4B d   1      -0.971   0.752   2.865  0.00  0.00     0.009 C 
BRANCH   8   9
ATOM      9  C3' N4B d   1      -2.209  -0.125   2.781  0.00  0.00     0.004 C 
ATOM     10  C4' N4B d   1      -2.244  -1.182   3.844  0.00  0.00     0.003 C 
ENDBRANCH   8   9
ENDBRANCH   7   8
ENDBRANCH   1   7
TORSDOF 3
ENDMDL
