MODEL 1
REMARK minimizedAffinity -4.9181838
REMARK minimizedRMSD -1
REMARK  3 active torsions:
REMARK  status: ('A' for Active; 'I' for Inactive)
REMARK    1  A    between atoms: C3'_2  and  C2'_3 
REMARK    2  A    between atoms: C2'_3  and  C1'_4 
REMARK    3  A    between atoms: C1'_4  and  C1_5 
ROOT
ATOM      1  C1  N4B d   1       0.237   0.049  -0.102  0.00  0.00    -0.075 A 
ATOM      2  C2  N4B d   1      -1.162  -0.068  -0.255  0.00  0.00     0.002 A 
ATOM      3  C3  N4B d   1      -1.998   0.296   0.772  0.00  0.00     0.002 A 
ATOM      4  C4  N4B d   1      -1.459   0.760   1.963  0.00  0.00    -0.004 A 
ATOM      5  C5  N4B d   1      -0.108   0.894   2.093  0.00  0.00     0.002 A 
ATOM      6  C6  N4B d   1       0.744   0.536   1.068  0.00  0.00     0.002 A 
ENDROOT
BRANCH   1   7
ATOM      7  C1' N4B d   1       1.194  -0.417  -1.165  0.00  0.00     0.057 C 
BRANCH   7   8
ATOM      8  C2' N4B d   1       0.405  -1.055  -2.305  0.00  0.00     0.009 C 
BRANCH   8   9
ATOM      9  C3' N4B d   1       0.773  -0.461  -3.653  0.00  0.00     0.004 C 
ATOM     10  C4' N4B d   1       1.522   0.833  -3.533  0.00  0.00     0.003 C 
ENDBRANCH   8   9
ENDBRANCH   7   8
ENDBRANCH   1   7
TORSDOF 3
ENDMDL
