MODEL 1
REMARK minimizedAffinity -5.19115067
REMARK minimizedRMSD -1
REMARK  0 active torsions:
REMARK  status: ('A' for Active; 'I' for Inactive)
ROOT
ATOM      1  C1  BNZ d   1      -3.449   0.984   2.428  0.00  0.00     0.000 A 
ATOM      2  C2  BNZ d   1      -4.520   0.998   1.574  0.00  0.00     0.000 A 
ATOM      3  C3  BNZ d   1      -5.792   1.155   2.049  0.00  0.00     0.000 A 
ATOM      4  C4  BNZ d   1      -5.995   1.257   3.379  0.00  0.00     0.000 A 
ATOM      5  C5  BNZ d   1      -4.927   1.235   4.253  0.00  0.00     0.000 A 
ATOM      6  C6  BNZ d   1      -3.645   1.116   3.768  0.00  0.00     0.000 A 
ENDROOT
TORSDOF 0
ENDMDL
