MODEL 1
REMARK minimizedAffinity 1.79685307
REMARK minimizedRMSD -1
REMARK  0 active torsions:
REMARK  status: ('A' for Active; 'I' for Inactive)
ROOT
ATOM      1  C1  BNZ d   1      -2.890  -0.898   0.948  0.00  0.00     0.000 A 
ATOM      2  C2  BNZ d   1      -1.880  -0.716   1.854  0.00  0.00     0.000 A 
ATOM      3  C3  BNZ d   1      -1.902   0.338   2.724  0.00  0.00     0.000 A 
ATOM      4  C4  BNZ d   1      -2.912   1.230   2.661  0.00  0.00     0.000 A 
ATOM      5  C5  BNZ d   1      -3.933   1.065   1.746  0.00  0.00     0.000 A 
ATOM      6  C6  BNZ d   1      -3.927  -0.018   0.898  0.00  0.00     0.000 A 
ENDROOT
TORSDOF 0
ENDMDL
