MODEL 1
REMARK minimizedAffinity -0.821109056
REMARK minimizedRMSD -1
REMARK  0 active torsions:
REMARK  status: ('A' for Active; 'I' for Inactive)
ROOT
ATOM      1  C1  BNZ d   1      -2.168   0.563   3.022  0.00  0.00     0.000 A 
ATOM      2  C2  BNZ d   1      -2.969   0.184   1.978  0.00  0.00     0.000 A 
ATOM      3  C3  BNZ d   1      -2.715  -0.964   1.282  0.00  0.00     0.000 A 
ATOM      4  C4  BNZ d   1      -1.639  -1.711   1.605  0.00  0.00     0.000 A 
ATOM      5  C5  BNZ d   1      -0.817  -1.338   2.649  0.00  0.00     0.000 A 
ATOM      6  C6  BNZ d   1      -1.098  -0.201   3.372  0.00  0.00     0.000 A 
ENDROOT
TORSDOF 0
ENDMDL
