MODEL 1
REMARK minimizedAffinity 4.35236025
REMARK minimizedRMSD -1
REMARK  0 active torsions:
REMARK  status: ('A' for Active; 'I' for Inactive)
ROOT
ATOM      1  C1  BNZ d   1      -4.475   0.722   1.200  0.00  0.00     0.000 A 
ATOM      2  C2  BNZ d   1      -5.162   0.833   0.021  0.00  0.00     0.000 A 
ATOM      3  C3  BNZ d   1      -4.717   0.206  -1.110  0.00  0.00     0.000 A 
ATOM      4  C4  BNZ d   1      -3.566  -0.496  -1.069  0.00  0.00     0.000 A 
ATOM      5  C5  BNZ d   1      -2.857  -0.609   0.110  0.00  0.00     0.000 A 
ATOM      6  C6  BNZ d   1      -3.329  -0.009   1.256  0.00  0.00     0.000 A 
ENDROOT
TORSDOF 0
ENDMDL
