MODEL 1
REMARK minimizedAffinity 5.14274359
REMARK minimizedRMSD -1
REMARK  0 active torsions:
REMARK  status: ('A' for Active; 'I' for Inactive)
ROOT
ATOM      1  C1  BNZ d   1      -0.412  -4.505  -4.508  0.00  0.00     0.000 A 
ATOM      2  C2  BNZ d   1      -0.408  -5.269  -5.644  0.00  0.00     0.000 A 
ATOM      3  C3  BNZ d   1      -1.507  -5.999  -6.000  0.00  0.00     0.000 A 
ATOM      4  C4  BNZ d   1      -2.593  -5.997  -5.200  0.00  0.00     0.000 A 
ATOM      5  C5  BNZ d   1      -2.609  -5.238  -4.046  0.00  0.00     0.000 A 
ATOM      6  C6  BNZ d   1      -1.515  -4.474  -3.711  0.00  0.00     0.000 A 
ENDROOT
TORSDOF 0
ENDMDL
