MODEL 1
REMARK minimizedAffinity -0.330931783
REMARK minimizedRMSD -1
REMARK  0 active torsions:
REMARK  status: ('A' for Active; 'I' for Inactive)
ROOT
ATOM      1  C1  BNZ d   1      -1.721  -0.468   2.256  0.00  0.00     0.000 A 
ATOM      2  C2  BNZ d   1      -2.053   0.448   3.218  0.00  0.00     0.000 A 
ATOM      3  C3  BNZ d   1      -3.055   1.353   3.007  0.00  0.00     0.000 A 
ATOM      4  C4  BNZ d   1      -3.697   1.367   1.820  0.00  0.00     0.000 A 
ATOM      5  C5  BNZ d   1      -3.368   0.455   0.837  0.00  0.00     0.000 A 
ATOM      6  C6  BNZ d   1      -2.385  -0.479   1.068  0.00  0.00     0.000 A 
ENDROOT
TORSDOF 0
ENDMDL
