MODEL 1
REMARK minimizedAffinity 0.37566942
REMARK minimizedRMSD -1
REMARK  0 active torsions:
REMARK  status: ('A' for Active; 'I' for Inactive)
ROOT
ATOM      1  C1  BNZ d   1      -2.990   1.131   2.815  0.00  0.00     0.000 A 
ATOM      2  C2  BNZ d   1      -1.833   0.407   2.926  0.00  0.00     0.000 A 
ATOM      3  C3  BNZ d   1      -1.615  -0.688   2.138  0.00  0.00     0.000 A 
ATOM      4  C4  BNZ d   1      -2.569  -1.081   1.270  0.00  0.00     0.000 A 
ATOM      5  C5  BNZ d   1      -3.745  -0.367   1.153  0.00  0.00     0.000 A 
ATOM      6  C6  BNZ d   1      -3.945   0.758   1.920  0.00  0.00     0.000 A 
ENDROOT
TORSDOF 0
ENDMDL
