MODEL 1
REMARK minimizedAffinity 4.31460428
REMARK minimizedRMSD -1
REMARK  0 active torsions:
REMARK  status: ('A' for Active; 'I' for Inactive)
ROOT
ATOM      1  C1  BNZ d   1       4.924   5.252  -2.264  0.00  0.00     0.000 A 
ATOM      2  C2  BNZ d   1       3.679   4.789  -2.598  0.00  0.00     0.000 A 
ATOM      3  C3  BNZ d   1       3.497   4.008  -3.705  0.00  0.00     0.000 A 
ATOM      4  C4  BNZ d   1       4.551   3.724  -4.497  0.00  0.00     0.000 A 
ATOM      5  C5  BNZ d   1       5.810   4.191  -4.179  0.00  0.00     0.000 A 
ATOM      6  C6  BNZ d   1       5.997   4.945  -3.043  0.00  0.00     0.000 A 
ENDROOT
TORSDOF 0
ENDMDL
