MODEL 1
REMARK minimizedAffinity -3.2727685
REMARK minimizedRMSD -1
REMARK  0 active torsions:
REMARK  status: ('A' for Active; 'I' for Inactive)
ROOT
ATOM      1  C1  BNZ d   1      -0.612  -4.544  -4.051  0.00  0.00     0.000 A 
ATOM      2  C2  BNZ d   1      -1.976  -4.664  -4.069  0.00  0.00     0.000 A 
ATOM      3  C3  BNZ d   1      -2.601  -5.407  -5.031  0.00  0.00     0.000 A 
ATOM      4  C4  BNZ d   1      -1.865  -5.997  -5.995  0.00  0.00     0.000 A 
ATOM      5  C5  BNZ d   1      -0.489  -5.878  -5.996  0.00  0.00     0.000 A 
ATOM      6  C6  BNZ d   1       0.139  -5.160  -5.004  0.00  0.00     0.000 A 
ENDROOT
TORSDOF 0
ENDMDL
