MODEL 1
REMARK minimizedAffinity 1.38552034
REMARK minimizedRMSD -1
REMARK  0 active torsions:
REMARK  status: ('A' for Active; 'I' for Inactive)
ROOT
ATOM      1  C1  BNZ d   1       2.763   3.464  -3.371  0.00  0.00     0.000 A 
ATOM      2  C2  BNZ d   1       4.022   3.399  -3.905  0.00  0.00     0.000 A 
ATOM      3  C3  BNZ d   1       4.982   4.302  -3.546  0.00  0.00     0.000 A 
ATOM      4  C4  BNZ d   1       4.672   5.293  -2.685  0.00  0.00     0.000 A 
ATOM      5  C5  BNZ d   1       3.404   5.378  -2.145  0.00  0.00     0.000 A 
ATOM      6  C6  BNZ d   1       2.451   4.443  -2.479  0.00  0.00     0.000 A 
ENDROOT
TORSDOF 0
ENDMDL
