MODEL 1
REMARK minimizedAffinity 2.19791198
REMARK minimizedRMSD -1
REMARK  0 active torsions:
REMARK  status: ('A' for Active; 'I' for Inactive)
ROOT
ATOM      1  C1  BNZ d   1      -1.170  -0.175   3.460  0.00  0.00     0.000 A 
ATOM      2  C2  BNZ d   1      -0.293  -1.186   3.171  0.00  0.00     0.000 A 
ATOM      3  C3  BNZ d   1      -0.392  -1.884   1.999  0.00  0.00     0.000 A 
ATOM      4  C4  BNZ d   1      -1.389  -1.597   1.138  0.00  0.00     0.000 A 
ATOM      5  C5  BNZ d   1      -2.287  -0.587   1.420  0.00  0.00     0.000 A 
ATOM      6  C6  BNZ d   1      -2.162   0.139   2.582  0.00  0.00     0.000 A 
ENDROOT
TORSDOF 0
ENDMDL
