MODEL 1
REMARK minimizedAffinity 1.93740809
REMARK minimizedRMSD -1
REMARK  0 active torsions:
REMARK  status: ('A' for Active; 'I' for Inactive)
ROOT
ATOM      1  C1  BNZ d   1      -0.320  -0.292   2.334  0.00  0.00     0.000 A 
ATOM      2  C2  BNZ d   1      -1.272   0.448   2.982  0.00  0.00     0.000 A 
ATOM      3  C3  BNZ d   1      -2.590   0.091   2.932  0.00  0.00     0.000 A 
ATOM      4  C4  BNZ d   1      -2.959  -0.981   2.201  0.00  0.00     0.000 A 
ATOM      5  C5  BNZ d   1      -2.012  -1.732   1.534  0.00  0.00     0.000 A 
ATOM      6  C6  BNZ d   1      -0.681  -1.392   1.619  0.00  0.00     0.000 A 
ENDROOT
TORSDOF 0
ENDMDL
