MODEL 1
REMARK minimizedAffinity 4.6563859
REMARK minimizedRMSD -1
REMARK  0 active torsions:
REMARK  status: ('A' for Active; 'I' for Inactive)
ROOT
ATOM      1  C1  BNZ d   1      -3.425   1.425   4.702  0.00  0.00     0.000 A 
ATOM      2  C2  BNZ d   1      -2.248   0.884   4.257  0.00  0.00     0.000 A 
ATOM      3  C3  BNZ d   1      -2.138   0.401   2.983  0.00  0.00     0.000 A 
ATOM      4  C4  BNZ d   1      -3.214   0.423   2.170  0.00  0.00     0.000 A 
ATOM      5  C5  BNZ d   1      -4.410   0.956   2.607  0.00  0.00     0.000 A 
ATOM      6  C6  BNZ d   1      -4.506   1.477   3.877  0.00  0.00     0.000 A 
ENDROOT
TORSDOF 0
ENDMDL
