MODEL 1
REMARK minimizedAffinity 8.12686729
REMARK minimizedRMSD -1
REMARK  0 active torsions:
REMARK  status: ('A' for Active; 'I' for Inactive)
ROOT
ATOM      1  C1  BNZ d   1      -1.882  -5.999  -5.538  0.00  0.00     0.000 A 
ATOM      2  C2  BNZ d   1      -1.434  -4.965  -4.760  0.00  0.00     0.000 A 
ATOM      3  C3  BNZ d   1      -2.262  -3.929  -4.428  0.00  0.00     0.000 A 
ATOM      4  C4  BNZ d   1      -3.522  -3.908  -4.907  0.00  0.00     0.000 A 
ATOM      5  C5  BNZ d   1      -3.987  -4.939  -5.699  0.00  0.00     0.000 A 
ATOM      6  C6  BNZ d   1      -3.163  -6.000  -5.999  0.00  0.00     0.000 A 
ENDROOT
TORSDOF 0
ENDMDL
