MODEL 1
REMARK minimizedAffinity 3.87315893
REMARK minimizedRMSD -1
REMARK  0 active torsions:
REMARK  status: ('A' for Active; 'I' for Inactive)
ROOT
ATOM      1  C1  BNZ d   1      -4.514   5.564  -1.309  0.00  0.00     0.000 A 
ATOM      2  C2  BNZ d   1      -4.522   5.639  -2.676  0.00  0.00     0.000 A 
ATOM      3  C3  BNZ d   1      -5.280   4.778  -3.420  0.00  0.00     0.000 A 
ATOM      4  C4  BNZ d   1      -5.995   3.818  -2.799  0.00  0.00     0.000 A 
ATOM      5  C5  BNZ d   1      -5.989   3.723  -1.422  0.00  0.00     0.000 A 
ATOM      6  C6  BNZ d   1      -5.256   4.616  -0.674  0.00  0.00     0.000 A 
ENDROOT
TORSDOF 0
ENDMDL
