MODEL 1
REMARK minimizedAffinity 2.58866811
REMARK minimizedRMSD -1
REMARK  0 active torsions:
REMARK  status: ('A' for Active; 'I' for Inactive)
ROOT
ATOM      1  C1  BNZ d   1      -4.412   0.365   5.973  0.00  0.00     0.000 A 
ATOM      2  C2  BNZ d   1      -3.345  -0.034   5.213  0.00  0.00     0.000 A 
ATOM      3  C3  BNZ d   1      -2.632   0.872   4.477  0.00  0.00     0.000 A 
ATOM      4  C4  BNZ d   1      -3.011   2.166   4.472  0.00  0.00     0.000 A 
ATOM      5  C5  BNZ d   1      -4.090   2.582   5.225  0.00  0.00     0.000 A 
ATOM      6  C6  BNZ d   1      -4.781   1.674   5.995  0.00  0.00     0.000 A 
ENDROOT
TORSDOF 0
ENDMDL
