MODEL 1
REMARK minimizedAffinity 1.00433075
REMARK minimizedRMSD -1
REMARK  0 active torsions:
REMARK  status: ('A' for Active; 'I' for Inactive)
ROOT
ATOM      1  C1  BNZ d   1      -2.097  -5.133  -5.187  0.00  0.00     0.000 A 
ATOM      2  C2  BNZ d   1      -1.409  -4.271  -4.376  0.00  0.00     0.000 A 
ATOM      3  C3  BNZ d   1      -0.042  -4.251  -4.376  0.00  0.00     0.000 A 
ATOM      4  C4  BNZ d   1       0.634  -5.118  -5.156  0.00  0.00     0.000 A 
ATOM      5  C5  BNZ d   1      -0.046  -6.000  -5.973  0.00  0.00     0.000 A 
ATOM      6  C6  BNZ d   1      -1.422  -5.991  -5.999  0.00  0.00     0.000 A 
ENDROOT
TORSDOF 0
ENDMDL
