MODEL 1
REMARK minimizedAffinity 3.69588494
REMARK minimizedRMSD -1
REMARK  0 active torsions:
REMARK  status: ('A' for Active; 'I' for Inactive)
ROOT
ATOM      1  C1  BNZ d   1      -2.042   0.293   3.217  0.00  0.00     0.000 A 
ATOM      2  C2  BNZ d   1      -1.805   0.640   4.520  0.00  0.00     0.000 A 
ATOM      3  C3  BNZ d   1      -2.818   1.092   5.319  0.00  0.00     0.000 A 
ATOM      4  C4  BNZ d   1      -4.056   1.234   4.803  0.00  0.00     0.000 A 
ATOM      5  C5  BNZ d   1      -4.309   0.898   3.488  0.00  0.00     0.000 A 
ATOM      6  C6  BNZ d   1      -3.295   0.406   2.698  0.00  0.00     0.000 A 
ENDROOT
TORSDOF 0
ENDMDL
