MODEL 1
REMARK minimizedAffinity -1.70174611
REMARK minimizedRMSD -1
REMARK  0 active torsions:
REMARK  status: ('A' for Active; 'I' for Inactive)
ROOT
ATOM      1  C1  BNZ d   1       0.322  -0.201   0.142  0.00  0.00     0.000 A 
ATOM      2  C2  BNZ d   1       0.072   1.101  -0.202  0.00  0.00     0.000 A 
ATOM      3  C3  BNZ d   1      -0.993   1.773   0.329  0.00  0.00     0.000 A 
ATOM      4  C4  BNZ d   1      -1.829   1.132   1.171  0.00  0.00     0.000 A 
ATOM      5  C5  BNZ d   1      -1.596  -0.183   1.520  0.00  0.00     0.000 A 
ATOM      6  C6  BNZ d   1      -0.501  -0.845   1.014  0.00  0.00     0.000 A 
ENDROOT
TORSDOF 0
ENDMDL
