MODEL 1
REMARK minimizedAffinity -2.11473942
REMARK minimizedRMSD -1
REMARK  0 active torsions:
REMARK  status: ('A' for Active; 'I' for Inactive)
ROOT
ATOM      1  C1  BNZ d   1      -0.145  -2.862  -2.599  0.00  0.00     0.000 A 
ATOM      2  C2  BNZ d   1       0.227  -2.870  -1.281  0.00  0.00     0.000 A 
ATOM      3  C3  BNZ d   1      -0.620  -3.345  -0.318  0.00  0.00     0.000 A 
ATOM      4  C4  BNZ d   1      -1.850  -3.772  -0.669  0.00  0.00     0.000 A 
ATOM      5  C5  BNZ d   1      -2.243  -3.761  -1.992  0.00  0.00     0.000 A 
ATOM      6  C6  BNZ d   1      -1.374  -3.320  -2.964  0.00  0.00     0.000 A 
ENDROOT
TORSDOF 0
ENDMDL
