MODEL 1
REMARK minimizedAffinity -4.4205451
REMARK minimizedRMSD -1
REMARK  0 active torsions:
REMARK  status: ('A' for Active; 'I' for Inactive)
ROOT
ATOM      1  C1  BNZ d   1       1.069  -0.000   0.098  0.00  0.00     0.000 A 
ATOM      2  C2  BNZ d   1       1.587   1.251  -0.107  0.00  0.00     0.000 A 
ATOM      3  C3  BNZ d   1       0.807   2.364   0.036  0.00  0.00     0.000 A 
ATOM      4  C4  BNZ d   1      -0.499   2.223   0.345  0.00  0.00     0.000 A 
ATOM      5  C5  BNZ d   1      -1.038   0.968   0.546  0.00  0.00     0.000 A 
ATOM      6  C6  BNZ d   1      -0.241  -0.148   0.439  0.00  0.00     0.000 A 
ENDROOT
TORSDOF 0
ENDMDL
