MODEL 1
REMARK minimizedAffinity -4.77068949
REMARK minimizedRMSD -1
REMARK  0 active torsions:
REMARK  status: ('A' for Active; 'I' for Inactive)
ROOT
ATOM      1  C1  BNZ d   1      -1.114   0.984   0.786  0.00  0.00     0.000 A 
ATOM      2  C2  BNZ d   1      -0.894   2.319   0.573  0.00  0.00     0.000 A 
ATOM      3  C3  BNZ d   1       0.282   2.757   0.030  0.00  0.00     0.000 A 
ATOM      4  C4  BNZ d   1       1.250   1.864  -0.262  0.00  0.00     0.000 A 
ATOM      5  C5  BNZ d   1       1.046   0.516  -0.044  0.00  0.00     0.000 A 
ATOM      6  C6  BNZ d   1      -0.153   0.076   0.466  0.00  0.00     0.000 A 
ENDROOT
TORSDOF 0
ENDMDL
