MODEL 1
REMARK minimizedAffinity -3.24425745
REMARK minimizedRMSD -1
REMARK  0 active torsions:
REMARK  status: ('A' for Active; 'I' for Inactive)
ROOT
ATOM      1  C1  BNZ d   1      -0.328  -0.679  -0.169  0.00  0.00     0.000 A 
ATOM      2  C2  BNZ d   1      -0.794   0.545  -0.570  0.00  0.00     0.000 A 
ATOM      3  C3  BNZ d   1       0.008   1.651  -0.515  0.00  0.00     0.000 A 
ATOM      4  C4  BNZ d   1       1.259   1.539  -0.024  0.00  0.00     0.000 A 
ATOM      5  C5  BNZ d   1       1.740   0.314   0.393  0.00  0.00     0.000 A 
ATOM      6  C6  BNZ d   1       0.943  -0.804   0.300  0.00  0.00     0.000 A 
ENDROOT
TORSDOF 0
ENDMDL
