MODEL 1
REMARK minimizedAffinity -1.96036065
REMARK minimizedRMSD -1
REMARK  0 active torsions:
REMARK  status: ('A' for Active; 'I' for Inactive)
ROOT
ATOM      1  C1  BNZ d   1      -0.367   2.306   0.749  0.00  0.00     0.000 A 
ATOM      2  C2  BNZ d   1      -0.844   1.056   0.457  0.00  0.00     0.000 A 
ATOM      3  C3  BNZ d   1       0.004  -0.013   0.368  0.00  0.00     0.000 A 
ATOM      4  C4  BNZ d   1       1.329   0.177   0.531  0.00  0.00     0.000 A 
ATOM      5  C5  BNZ d   1       1.826   1.433   0.816  0.00  0.00     0.000 A 
ATOM      6  C6  BNZ d   1       0.965   2.500   0.944  0.00  0.00     0.000 A 
ENDROOT
TORSDOF 0
ENDMDL
