MODEL 1
REMARK minimizedAffinity -1.5381695
REMARK minimizedRMSD -1
REMARK  0 active torsions:
REMARK  status: ('A' for Active; 'I' for Inactive)
ROOT
ATOM      1  C1  BNZ d   1       1.963   2.244  -0.005  0.00  0.00     0.000 A 
ATOM      2  C2  BNZ d   1       2.271   0.916  -0.128  0.00  0.00     0.000 A 
ATOM      3  C3  BNZ d   1       1.294  -0.011  -0.364  0.00  0.00     0.000 A 
ATOM      4  C4  BNZ d   1       0.008   0.387  -0.436  0.00  0.00     0.000 A 
ATOM      5  C5  BNZ d   1      -0.320   1.721  -0.305  0.00  0.00     0.000 A 
ATOM      6  C6  BNZ d   1       0.670   2.656  -0.107  0.00  0.00     0.000 A 
ENDROOT
TORSDOF 0
ENDMDL
