MODEL 1
REMARK minimizedAffinity -1.86190403
REMARK minimizedRMSD -1
REMARK  0 active torsions:
REMARK  status: ('A' for Active; 'I' for Inactive)
ROOT
ATOM      1  C1  BNZ d   1      -0.745  -0.103   0.054  0.00  0.00     0.000 A 
ATOM      2  C2  BNZ d   1      -0.175   1.127  -0.133  0.00  0.00     0.000 A 
ATOM      3  C3  BNZ d   1       1.184   1.270  -0.178  0.00  0.00     0.000 A 
ATOM      4  C4  BNZ d   1       1.970   0.189   0.004  0.00  0.00     0.000 A 
ATOM      5  C5  BNZ d   1       1.410  -1.057   0.203  0.00  0.00     0.000 A 
ATOM      6  C6  BNZ d   1       0.042  -1.203   0.209  0.00  0.00     0.000 A 
ENDROOT
TORSDOF 0
ENDMDL
