MODEL 1
REMARK minimizedAffinity -5.46712494
REMARK minimizedRMSD -1
REMARK  0 active torsions:
REMARK  status: ('A' for Active; 'I' for Inactive)
ROOT
ATOM      1  C1  BNZ d   1       2.368   1.163   0.503  0.00  0.00     0.000 A 
ATOM      2  C2  BNZ d   1       2.497   2.521   0.618  0.00  0.00     0.000 A 
ATOM      3  C3  BNZ d   1       1.407   3.339   0.508  0.00  0.00     0.000 A 
ATOM      4  C4  BNZ d   1       0.199   2.802   0.243  0.00  0.00     0.000 A 
ATOM      5  C5  BNZ d   1       0.054   1.435   0.115  0.00  0.00     0.000 A 
ATOM      6  C6  BNZ d   1       1.146   0.612   0.265  0.00  0.00     0.000 A 
ENDROOT
TORSDOF 0
ENDMDL
