MODEL 1
REMARK minimizedAffinity -1.43073463
REMARK minimizedRMSD -1
REMARK  0 active torsions:
REMARK  status: ('A' for Active; 'I' for Inactive)
ROOT
ATOM      1  C1  BNZ d   1       2.697   0.490   0.407  0.00  0.00     0.000 A 
ATOM      2  C2  BNZ d   1       2.165  -0.737   0.700  0.00  0.00     0.000 A 
ATOM      3  C3  BNZ d   1       0.825  -0.970   0.568  0.00  0.00     0.000 A 
ATOM      4  C4  BNZ d   1       0.013   0.036   0.182  0.00  0.00     0.000 A 
ATOM      5  C5  BNZ d   1       0.532   1.282  -0.108  0.00  0.00     0.000 A 
ATOM      6  C6  BNZ d   1       1.887   1.501  -0.011  0.00  0.00     0.000 A 
ENDROOT
TORSDOF 0
ENDMDL
