MODEL 1
REMARK minimizedAffinity -4.81797886
REMARK minimizedRMSD -1
REMARK  0 active torsions:
REMARK  status: ('A' for Active; 'I' for Inactive)
ROOT
ATOM      1  C1  BNZ d   1      -0.340  -0.081   0.124  0.00  0.00     0.000 A 
ATOM      2  C2  BNZ d   1      -1.069   1.075   0.201  0.00  0.00     0.000 A 
ATOM      3  C3  BNZ d   1      -0.474   2.292   0.019  0.00  0.00     0.000 A 
ATOM      4  C4  BNZ d   1       0.856   2.353  -0.200  0.00  0.00     0.000 A 
ATOM      5  C5  BNZ d   1       1.607   1.197  -0.272  0.00  0.00     0.000 A 
ATOM      6  C6  BNZ d   1       0.997  -0.028  -0.126  0.00  0.00     0.000 A 
ENDROOT
TORSDOF 0
ENDMDL
