MODEL 1
REMARK minimizedAffinity -4.65107918
REMARK minimizedRMSD -1
REMARK  0 active torsions:
REMARK  status: ('A' for Active; 'I' for Inactive)
ROOT
ATOM      1  C1  BNZ d   1      -1.430   1.201   0.747  0.00  0.00     0.000 A 
ATOM      2  C2  BNZ d   1      -0.680   0.088   0.472  0.00  0.00     0.000 A 
ATOM      3  C3  BNZ d   1       0.570   0.203  -0.068  0.00  0.00     0.000 A 
ATOM      4  C4  BNZ d   1       1.053   1.425  -0.369  0.00  0.00     0.000 A 
ATOM      5  C5  BNZ d   1       0.306   2.556  -0.107  0.00  0.00     0.000 A 
ATOM      6  C6  BNZ d   1      -0.937   2.439   0.472  0.00  0.00     0.000 A 
ENDROOT
TORSDOF 0
ENDMDL
