MODEL 1
REMARK minimizedAffinity -2.85184431
REMARK minimizedRMSD -1
REMARK  0 active torsions:
REMARK  status: ('A' for Active; 'I' for Inactive)
ROOT
ATOM      1  C1  BNZ d   1      -0.515   2.280   0.944  0.00  0.00     0.000 A 
ATOM      2  C2  BNZ d   1       0.458   3.043   0.355  0.00  0.00     0.000 A 
ATOM      3  C3  BNZ d   1       1.300   2.504  -0.578  0.00  0.00     0.000 A 
ATOM      4  C4  BNZ d   1       1.194   1.196  -0.890  0.00  0.00     0.000 A 
ATOM      5  C5  BNZ d   1       0.225   0.412  -0.297  0.00  0.00     0.000 A 
ATOM      6  C6  BNZ d   1      -0.646   0.967   0.612  0.00  0.00     0.000 A 
ENDROOT
TORSDOF 0
ENDMDL
