MODEL 1
REMARK minimizedAffinity -4.4076376
REMARK minimizedRMSD -1
REMARK  0 active torsions:
REMARK  status: ('A' for Active; 'I' for Inactive)
ROOT
ATOM      1  C1  BNZ d   1       2.129   0.852   0.150  0.00  0.00     0.000 A 
ATOM      2  C2  BNZ d   1       1.594  -0.283   0.697  0.00  0.00     0.000 A 
ATOM      3  C3  BNZ d   1       0.244  -0.402   0.882  0.00  0.00     0.000 A 
ATOM      4  C4  BNZ d   1      -0.563   0.628   0.557  0.00  0.00     0.000 A 
ATOM      5  C5  BNZ d   1      -0.037   1.783   0.013  0.00  0.00     0.000 A 
ATOM      6  C6  BNZ d   1       1.318   1.884  -0.207  0.00  0.00     0.000 A 
ENDROOT
TORSDOF 0
ENDMDL
