MODEL 1
REMARK minimizedAffinity -2.1770072
REMARK minimizedRMSD -1
REMARK  1 active torsions:
REMARK  status: ('A' for Active; 'I' for Inactive)
REMARK    1  A    between atoms: C1_2  and  C2_3 
ROOT
ATOM      1  C2  UNL d   1       2.843   4.082  -5.097  0.00  0.00    -0.073 A 
ATOM      2  C3  UNL d   1       3.815   4.853  -5.744  0.00  0.00    -0.002 A 
ATOM      3  C4  UNL d   1       5.092   4.336  -5.967  0.00  0.00     0.004 A 
ATOM      4  C5  UNL d   1       5.407   3.042  -5.553  0.00  0.00    -0.004 A 
ATOM      5  C6  UNL d   1       4.446   2.251  -4.915  0.00  0.00    -0.075 A 
ATOM      6  C7  UNL d   1       4.770   0.858  -4.462  0.00  0.00     0.076 C 
ATOM      7  C8  UNL d   1       3.167   2.779  -4.692  0.00  0.00     0.001 A 
ENDROOT
BRANCH   1   8
ATOM      8  C1  UNL d   1       1.461   4.634  -4.859  0.00  0.00     0.053 C 
ATOM      9  C   UNL d   1       0.511   4.303  -5.999  0.00  0.00     0.018 C 
ENDBRANCH   1   8
TORSDOF 1
ENDMDL
