MODEL 1
REMARK minimizedAffinity -1.88963318
REMARK minimizedRMSD -1
REMARK  1 active torsions:
REMARK  status: ('A' for Active; 'I' for Inactive)
REMARK    1  A    between atoms: C1_2  and  C2_3 
ROOT
ATOM      1  C2  UNL d   1       2.606   3.811  -5.230  0.00  0.00    -0.073 A 
ATOM      2  C3  UNL d   1       2.976   2.475  -5.425  0.00  0.00    -0.002 A 
ATOM      3  C4  UNL d   1       4.278   2.154  -5.811  0.00  0.00     0.004 A 
ATOM      4  C5  UNL d   1       5.223   3.162  -6.000  0.00  0.00    -0.004 A 
ATOM      5  C6  UNL d   1       4.876   4.502  -5.799  0.00  0.00    -0.075 A 
ATOM      6  C7  UNL d   1       5.880   5.598  -5.999  0.00  0.00     0.076 C 
ATOM      7  C8  UNL d   1       3.565   4.816  -5.413  0.00  0.00     0.001 A 
ENDROOT
BRANCH   1   8
ATOM      8  C1  UNL d   1       1.203   4.162  -4.807  0.00  0.00     0.053 C 
ATOM      9  C   UNL d   1       0.308   4.468  -5.997  0.00  0.00     0.018 C 
ENDBRANCH   1   8
TORSDOF 1
ENDMDL
