MODEL 1
REMARK minimizedAffinity 2.04145002
REMARK minimizedRMSD -1
REMARK  1 active torsions:
REMARK  status: ('A' for Active; 'I' for Inactive)
REMARK    1  A    between atoms: C1_2  and  C2_3 
ROOT
ATOM      1  C2  UNL d   1       2.628   3.992  -5.448  0.00  0.00    -0.073 A 
ATOM      2  C3  UNL d   1       3.646   4.791  -5.982  0.00  0.00    -0.002 A 
ATOM      3  C4  UNL d   1       4.965   4.335  -5.996  0.00  0.00     0.004 A 
ATOM      4  C5  UNL d   1       5.279   3.076  -5.485  0.00  0.00    -0.004 A 
ATOM      5  C6  UNL d   1       4.273   2.258  -4.959  0.00  0.00    -0.075 A 
ATOM      6  C7  UNL d   1       4.594   0.902  -4.403  0.00  0.00     0.076 C 
ATOM      7  C8  UNL d   1       2.952   2.724  -4.945  0.00  0.00     0.001 A 
ENDROOT
BRANCH   1   8
ATOM      8  C1  UNL d   1       1.202   4.477  -5.436  0.00  0.00     0.053 C 
ATOM      9  C   UNL d   1       0.623   4.512  -4.031  0.00  0.00     0.018 C 
ENDBRANCH   1   8
TORSDOF 1
ENDMDL
