MODEL 1
REMARK minimizedAffinity -1.91178572
REMARK minimizedRMSD -1
REMARK  1 active torsions:
REMARK  status: ('A' for Active; 'I' for Inactive)
REMARK    1  A    between atoms: C1_2  and  C2_3 
ROOT
ATOM      1  C2  UNL d   1       3.920   3.262  -5.680  0.00  0.00    -0.073 A 
ATOM      2  C3  UNL d   1       4.758   4.380  -5.757  0.00  0.00    -0.002 A 
ATOM      3  C4  UNL d   1       4.219   5.657  -5.919  0.00  0.00     0.004 A 
ATOM      4  C5  UNL d   1       2.837   5.830  -6.000  0.00  0.00    -0.004 A 
ATOM      5  C6  UNL d   1       1.982   4.726  -5.913  0.00  0.00    -0.075 A 
ATOM      6  C7  UNL d   1       0.493   4.895  -6.000  0.00  0.00     0.076 C 
ATOM      7  C8  UNL d   1       2.532   3.447  -5.753  0.00  0.00     0.001 A 
ENDROOT
BRANCH   1   8
ATOM      8  C1  UNL d   1       4.498   1.883  -5.499  0.00  0.00     0.053 C 
ATOM      9  C   UNL d   1       4.134   1.286  -4.148  0.00  0.00     0.018 C 
ENDBRANCH   1   8
TORSDOF 1
ENDMDL
