MODEL 1
REMARK minimizedAffinity -0.474111736
REMARK minimizedRMSD -1
REMARK  1 active torsions:
REMARK  status: ('A' for Active; 'I' for Inactive)
REMARK    1  A    between atoms: C1_2  and  C2_3 
ROOT
ATOM      1  C2  UNL d   1       1.927   4.389  -5.714  0.00  0.00    -0.073 A 
ATOM      2  C3  UNL d   1       2.755   5.494  -5.943  0.00  0.00    -0.002 A 
ATOM      3  C4  UNL d   1       4.140   5.337  -5.997  0.00  0.00     0.004 A 
ATOM      4  C5  UNL d   1       4.711   4.075  -5.830  0.00  0.00    -0.004 A 
ATOM      5  C6  UNL d   1       3.899   2.957  -5.612  0.00  0.00    -0.075 A 
ATOM      6  C7  UNL d   1       4.498   1.593  -5.428  0.00  0.00     0.076 C 
ATOM      7  C8  UNL d   1       2.509   3.123  -5.556  0.00  0.00     0.001 A 
ENDROOT
BRANCH   1   8
ATOM      8  C1  UNL d   1       0.429   4.552  -5.661  0.00  0.00     0.053 C 
ATOM      9  C   UNL d   1      -0.000   5.976  -5.980  0.00  0.00     0.018 C 
ENDBRANCH   1   8
TORSDOF 1
ENDMDL
