MODEL 1
REMARK minimizedAffinity 1.5488503
REMARK minimizedRMSD -1
REMARK  1 active torsions:
REMARK  status: ('A' for Active; 'I' for Inactive)
REMARK    1  A    between atoms: C1_2  and  C2_3 
ROOT
ATOM      1  C2  UNL d   1       2.400   3.890  -5.330  0.00  0.00    -0.073 A 
ATOM      2  C3  UNL d   1       2.603   2.514  -5.490  0.00  0.00    -0.002 A 
ATOM      3  C4  UNL d   1       3.866   2.022  -5.821  0.00  0.00     0.004 A 
ATOM      4  C5  UNL d   1       4.939   2.897  -5.988  0.00  0.00    -0.004 A 
ATOM      5  C6  UNL d   1       4.759   4.274  -5.821  0.00  0.00    -0.075 A 
ATOM      6  C7  UNL d   1       5.902   5.229  -5.999  0.00  0.00     0.076 C 
ATOM      7  C8  UNL d   1       3.487   4.761  -5.491  0.00  0.00     0.001 A 
ENDROOT
BRANCH   1   8
ATOM      8  C1  UNL d   1       1.039   4.425  -4.967  0.00  0.00     0.053 C 
ATOM      9  C   UNL d   1      -0.014   4.056  -6.000  0.00  0.00     0.018 C 
ENDBRANCH   1   8
TORSDOF 1
ENDMDL
