MODEL 1
REMARK minimizedAffinity 4.93522215
REMARK minimizedRMSD -1
REMARK  1 active torsions:
REMARK  status: ('A' for Active; 'I' for Inactive)
REMARK    1  A    between atoms: C1_2  and  C2_3 
ROOT
ATOM      1  C2  UNL d   1       2.077   4.207  -5.246  0.00  0.00    -0.073 A 
ATOM      2  C3  UNL d   1       3.203   4.948  -5.620  0.00  0.00    -0.002 A 
ATOM      3  C4  UNL d   1       4.382   4.301  -5.991  0.00  0.00     0.004 A 
ATOM      4  C5  UNL d   1       4.445   2.907  -5.997  0.00  0.00    -0.004 A 
ATOM      5  C6  UNL d   1       3.327   2.149  -5.638  0.00  0.00    -0.075 A 
ATOM      6  C7  UNL d   1       3.379   0.649  -5.637  0.00  0.00     0.076 C 
ATOM      7  C8  UNL d   1       2.147   2.807  -5.264  0.00  0.00     0.001 A 
ENDROOT
BRANCH   1   8
ATOM      8  C1  UNL d   1       0.799   4.902  -4.851  0.00  0.00     0.053 C 
ATOM      9  C   UNL d   1      -0.198   4.955  -5.998  0.00  0.00     0.018 C 
ENDBRANCH   1   8
TORSDOF 1
ENDMDL
