MODEL 1
REMARK minimizedAffinity -0.067834191
REMARK minimizedRMSD -1
REMARK  1 active torsions:
REMARK  status: ('A' for Active; 'I' for Inactive)
REMARK    1  A    between atoms: C1_2  and  C2_3 
ROOT
ATOM      1  C2  UNL d   1       3.978   2.612  -5.522  0.00  0.00    -0.073 A 
ATOM      2  C3  UNL d   1       5.048   3.505  -5.649  0.00  0.00    -0.002 A 
ATOM      3  C4  UNL d   1       4.811   4.859  -5.890  0.00  0.00     0.004 A 
ATOM      4  C5  UNL d   1       3.505   5.334  -6.000  0.00  0.00    -0.004 A 
ATOM      5  C6  UNL d   1       2.422   4.460  -5.864  0.00  0.00    -0.075 A 
ATOM      6  C7  UNL d   1       1.010   4.955  -5.981  0.00  0.00     0.076 C 
ATOM      7  C8  UNL d   1       2.668   3.101  -5.624  0.00  0.00     0.001 A 
ENDROOT
BRANCH   1   8
ATOM      8  C1  UNL d   1       4.229   1.150  -5.255  0.00  0.00     0.053 C 
ATOM      9  C   UNL d   1       4.527   0.882  -3.788  0.00  0.00     0.018 C 
ENDBRANCH   1   8
TORSDOF 1
ENDMDL
