MODEL 1
REMARK minimizedAffinity -2.82580161
REMARK minimizedRMSD -1
REMARK  1 active torsions:
REMARK  status: ('A' for Active; 'I' for Inactive)
REMARK    1  A    between atoms: C1_2  and  C2_3 
ROOT
ATOM      1  C2  UNL d   1       3.928   3.519  -5.784  0.00  0.00    -0.073 A 
ATOM      2  C3  UNL d   1       4.673   4.699  -5.888  0.00  0.00    -0.002 A 
ATOM      3  C4  UNL d   1       4.030   5.932  -5.998  0.00  0.00     0.004 A 
ATOM      4  C5  UNL d   1       2.636   5.999  -5.999  0.00  0.00    -0.004 A 
ATOM      5  C6  UNL d   1       1.874   4.832  -5.884  0.00  0.00    -0.075 A 
ATOM      6  C7  UNL d   1       0.374   4.887  -5.886  0.00  0.00     0.076 C 
ATOM      7  C8  UNL d   1       2.528   3.597  -5.777  0.00  0.00     0.001 A 
ENDROOT
BRANCH   1   8
ATOM      8  C1  UNL d   1       4.618   2.186  -5.658  0.00  0.00     0.053 C 
ATOM      9  C   UNL d   1       3.739   1.150  -4.975  0.00  0.00     0.018 C 
ENDBRANCH   1   8
TORSDOF 1
ENDMDL
