MODEL 1
REMARK minimizedAffinity 2.4604342
REMARK minimizedRMSD -1
REMARK  1 active torsions:
REMARK  status: ('A' for Active; 'I' for Inactive)
REMARK    1  A    between atoms: C1_2  and  C2_3 
ROOT
ATOM      1  C2  UNL d   1       5.277   1.641   1.673  0.00  0.00    -0.073 A 
ATOM      2  C3  UNL d   1       6.000   0.700   2.415  0.00  0.00    -0.002 A 
ATOM      3  C4  UNL d   1       5.348  -0.384   3.003  0.00  0.00     0.004 A 
ATOM      4  C5  UNL d   1       3.971  -0.543   2.850  0.00  0.00    -0.004 A 
ATOM      5  C6  UNL d   1       3.233   0.380   2.102  0.00  0.00    -0.075 A 
ATOM      6  C7  UNL d   1       1.751   0.225   1.930  0.00  0.00     0.076 C 
ATOM      7  C8  UNL d   1       3.895   1.468   1.516  0.00  0.00     0.001 A 
ENDROOT
BRANCH   1   8
ATOM      8  C1  UNL d   1       5.978   2.810   1.030  0.00  0.00     0.053 C 
ATOM      9  C   UNL d   1       5.680   4.118   1.747  0.00  0.00     0.018 C 
ENDBRANCH   1   8
TORSDOF 1
ENDMDL
