MODEL 1
REMARK minimizedAffinity -1.05037236
REMARK minimizedRMSD -1
REMARK  1 active torsions:
REMARK  status: ('A' for Active; 'I' for Inactive)
REMARK    1  A    between atoms: C1_2  and  C2_3 
ROOT
ATOM      1  C2  UNL d   1       3.182   3.194  -5.814  0.00  0.00    -0.073 A 
ATOM      2  C3  UNL d   1       1.988   3.924  -5.805  0.00  0.00    -0.002 A 
ATOM      3  C4  UNL d   1       2.015   5.319  -5.850  0.00  0.00     0.004 A 
ATOM      4  C5  UNL d   1       3.232   5.997  -5.911  0.00  0.00    -0.004 A 
ATOM      5  C6  UNL d   1       4.435   5.285  -5.933  0.00  0.00    -0.075 A 
ATOM      6  C7  UNL d   1       5.754   5.999  -5.996  0.00  0.00     0.076 C 
ATOM      7  C8  UNL d   1       4.401   3.884  -5.885  0.00  0.00     0.001 A 
ENDROOT
BRANCH   1   8
ATOM      8  C1  UNL d   1       3.159   1.688  -5.773  0.00  0.00     0.053 C 
ATOM      9  C   UNL d   1       4.346   1.121  -5.011  0.00  0.00     0.018 C 
ENDBRANCH   1   8
TORSDOF 1
ENDMDL
