MODEL 1
REMARK minimizedAffinity 2.50856113
REMARK minimizedRMSD -1
REMARK  0 active torsions:
REMARK  status: ('A' for Active; 'I' for Inactive)
ROOT
ATOM      1  C   UNL d   1       3.407   3.002  -3.002  0.00  0.00     0.172 C 
ATOM      2  N   UNL d   1       3.003   3.900  -4.057  0.00  0.00    -0.070 N 
ATOM      3  C1  UNL d   1       2.526   3.526  -5.286  0.00  0.00    -0.004 A 
ATOM      4  C2  UNL d   1       2.254   4.673  -6.000  0.00  0.00    -0.047 A 
ATOM      5  C3  UNL d   1       2.579   5.774  -5.173  0.00  0.00    -0.047 A 
ATOM      6  C4  UNL d   1       3.040   5.267  -3.976  0.00  0.00    -0.004 A 
ENDROOT
TORSDOF 0
ENDMDL
