MODEL 1
REMARK minimizedAffinity 3.66401958
REMARK minimizedRMSD -1
REMARK  0 active torsions:
REMARK  status: ('A' for Active; 'I' for Inactive)
ROOT
ATOM      1  C   UNL d   1       2.537   4.024  -5.271  0.00  0.00     0.172 C 
ATOM      2  N   UNL d   1       3.268   3.023  -4.532  0.00  0.00    -0.070 N 
ATOM      3  C1  UNL d   1       3.439   3.000  -3.173  0.00  0.00    -0.004 A 
ATOM      4  C2  UNL d   1       4.192   1.888  -2.861  0.00  0.00    -0.047 A 
ATOM      5  C3  UNL d   1       4.484   1.220  -4.074  0.00  0.00    -0.047 A 
ATOM      6  C4  UNL d   1       3.900   1.944  -5.092  0.00  0.00    -0.004 A 
ENDROOT
TORSDOF 0
ENDMDL
