MODEL 1
REMARK minimizedAffinity 6.48845291
REMARK minimizedRMSD -1
REMARK  0 active torsions:
REMARK  status: ('A' for Active; 'I' for Inactive)
ROOT
ATOM      1  C   UNL d   1      -2.725  -2.647  -2.338  0.00  0.00     0.172 C 
ATOM      2  N   UNL d   1      -3.913  -3.469  -2.359  0.00  0.00    -0.070 N 
ATOM      3  C1  UNL d   1      -5.134  -3.094  -2.852  0.00  0.00    -0.004 A 
ATOM      4  C2  UNL d   1      -5.999  -4.154  -2.689  0.00  0.00    -0.047 A 
ATOM      5  C3  UNL d   1      -5.272  -5.203  -2.077  0.00  0.00    -0.047 A 
ATOM      6  C4  UNL d   1      -3.983  -4.752  -1.884  0.00  0.00    -0.004 A 
ENDROOT
TORSDOF 0
ENDMDL
