MODEL 1
REMARK minimizedAffinity 5.03795385
REMARK minimizedRMSD -1
REMARK  0 active torsions:
REMARK  status: ('A' for Active; 'I' for Inactive)
ROOT
ATOM      1  C   UNL d   1      -0.616  -4.753  -3.989  0.00  0.00     0.172 C 
ATOM      2  N   UNL d   1      -1.354  -3.638  -3.443  0.00  0.00    -0.070 N 
ATOM      3  C1  UNL d   1      -1.453  -2.394  -4.008  0.00  0.00    -0.004 A 
ATOM      4  C2  UNL d   1      -2.241  -1.619  -3.184  0.00  0.00    -0.047 A 
ATOM      5  C3  UNL d   1      -2.627  -2.424  -2.087  0.00  0.00    -0.047 A 
ATOM      6  C4  UNL d   1      -2.064  -3.669  -2.273  0.00  0.00    -0.004 A 
ENDROOT
TORSDOF 0
ENDMDL
