MODEL 1
REMARK minimizedAffinity 6.8415904
REMARK minimizedRMSD -1
REMARK  0 active torsions:
REMARK  status: ('A' for Active; 'I' for Inactive)
ROOT
ATOM      1  C   UNL d   1      -5.375  -3.805  -3.380  0.00  0.00     0.172 C 
ATOM      2  N   UNL d   1      -4.000  -3.563  -3.011  0.00  0.00    -0.070 N 
ATOM      3  C1  UNL d   1      -3.578  -2.735  -2.005  0.00  0.00    -0.004 A 
ATOM      4  C2  UNL d   1      -2.201  -2.778  -1.973  0.00  0.00    -0.047 A 
ATOM      5  C3  UNL d   1      -1.781  -3.662  -2.995  0.00  0.00    -0.047 A 
ATOM      6  C4  UNL d   1      -2.915  -4.133  -3.622  0.00  0.00    -0.004 A 
ENDROOT
TORSDOF 0
ENDMDL
