MODEL 1
REMARK minimizedAffinity 6.27545595
REMARK minimizedRMSD -1
REMARK  0 active torsions:
REMARK  status: ('A' for Active; 'I' for Inactive)
ROOT
ATOM      1  C   UNL d   1      -5.367  -3.335  -3.229  0.00  0.00     0.172 C 
ATOM      2  N   UNL d   1      -4.051  -3.818  -2.882  0.00  0.00    -0.070 N 
ATOM      3  C1  UNL d   1      -2.886  -3.106  -2.986  0.00  0.00    -0.004 A 
ATOM      4  C2  UNL d   1      -1.856  -3.916  -2.559  0.00  0.00    -0.047 A 
ATOM      5  C3  UNL d   1      -2.421  -5.158  -2.187  0.00  0.00    -0.047 A 
ATOM      6  C4  UNL d   1      -3.781  -5.071  -2.397  0.00  0.00    -0.004 A 
ENDROOT
TORSDOF 0
ENDMDL
