MODEL 1
REMARK minimizedAffinity 5.65771961
REMARK minimizedRMSD -1
REMARK  0 active torsions:
REMARK  status: ('A' for Active; 'I' for Inactive)
ROOT
ATOM      1  C   UNL d   1      -4.395  -3.377  -2.938  0.00  0.00     0.172 C 
ATOM      2  N   UNL d   1      -3.034  -3.111  -2.533  0.00  0.00    -0.070 N 
ATOM      3  C1  UNL d   1      -1.912  -3.418  -3.256  0.00  0.00    -0.004 A 
ATOM      4  C2  UNL d   1      -0.816  -3.004  -2.530  0.00  0.00    -0.047 A 
ATOM      5  C3  UNL d   1      -1.296  -2.428  -1.330  0.00  0.00    -0.047 A 
ATOM      6  C4  UNL d   1      -2.673  -2.507  -1.358  0.00  0.00    -0.004 A 
ENDROOT
TORSDOF 0
ENDMDL
