MODEL 1
REMARK minimizedAffinity 4.36609077
REMARK minimizedRMSD -1
REMARK  0 active torsions:
REMARK  status: ('A' for Active; 'I' for Inactive)
ROOT
ATOM      1  C   UNL d   1      -3.463  -5.996  -1.350  0.00  0.00     0.172 C 
ATOM      2  N   UNL d   1      -2.837  -5.995  -0.049  0.00  0.00    -0.070 N 
ATOM      3  C1  UNL d   1      -1.488  -5.990   0.188  0.00  0.00    -0.004 A 
ATOM      4  C2  UNL d   1      -1.299  -5.990   1.553  0.00  0.00    -0.047 A 
ATOM      5  C3  UNL d   1      -2.579  -5.996   2.158  0.00  0.00    -0.047 A 
ATOM      6  C4  UNL d   1      -3.512  -5.999   1.143  0.00  0.00    -0.004 A 
ENDROOT
TORSDOF 0
ENDMDL
