MODEL 1
REMARK minimizedAffinity 7.18536711
REMARK minimizedRMSD -1
REMARK  0 active torsions:
REMARK  status: ('A' for Active; 'I' for Inactive)
ROOT
ATOM      1  C   UNL d   1       4.384   3.345  -2.694  0.00  0.00     0.172 C 
ATOM      2  N   UNL d   1       4.113   4.022  -3.941  0.00  0.00    -0.070 N 
ATOM      3  C1  UNL d   1       3.449   3.486  -5.012  0.00  0.00    -0.004 A 
ATOM      4  C2  UNL d   1       3.397   4.446  -6.000  0.00  0.00    -0.047 A 
ATOM      5  C3  UNL d   1       4.053   5.598  -5.505  0.00  0.00    -0.047 A 
ATOM      6  C4  UNL d   1       4.486   5.308  -4.228  0.00  0.00    -0.004 A 
ENDROOT
TORSDOF 0
ENDMDL
