MODEL 1
REMARK minimizedAffinity 3.89373851
REMARK minimizedRMSD -1
REMARK  0 active torsions:
REMARK  status: ('A' for Active; 'I' for Inactive)
ROOT
ATOM      1  C   UNL d   1      -2.650  -4.076  -3.900  0.00  0.00     0.172 C 
ATOM      2  N   UNL d   1      -3.825  -4.713  -3.352  0.00  0.00    -0.070 N 
ATOM      3  C1  UNL d   1      -5.112  -4.510  -3.773  0.00  0.00    -0.004 A 
ATOM      4  C2  UNL d   1      -5.937  -5.299  -3.001  0.00  0.00    -0.047 A 
ATOM      5  C3  UNL d   1      -5.118  -6.000  -2.085  0.00  0.00    -0.047 A 
ATOM      6  C4  UNL d   1      -3.814  -5.618  -2.324  0.00  0.00    -0.004 A 
ENDROOT
TORSDOF 0
ENDMDL
