MODEL 1
REMARK minimizedAffinity 4.64158964
REMARK minimizedRMSD -1
REMARK  0 active torsions:
REMARK  status: ('A' for Active; 'I' for Inactive)
ROOT
ATOM      1  C   UNL d   1      -0.367  -5.026  -3.921  0.00  0.00     0.172 C 
ATOM      2  N   UNL d   1      -1.547  -4.591  -3.212  0.00  0.00    -0.070 N 
ATOM      3  C1  UNL d   1      -1.907  -3.289  -2.984  0.00  0.00    -0.004 A 
ATOM      4  C2  UNL d   1      -3.091  -3.296  -2.279  0.00  0.00    -0.047 A 
ATOM      5  C3  UNL d   1      -3.455  -4.649  -2.075  0.00  0.00    -0.047 A 
ATOM      6  C4  UNL d   1      -2.482  -5.429  -2.663  0.00  0.00    -0.004 A 
ENDROOT
TORSDOF 0
ENDMDL
