MODEL 1
REMARK minimizedAffinity 0.553425848
REMARK minimizedRMSD -1
REMARK  0 active torsions:
REMARK  status: ('A' for Active; 'I' for Inactive)
ROOT
ATOM      1  C   UNL d   1       0.428  -5.594  -3.857  0.00  0.00     0.172 C 
ATOM      2  N   UNL d   1      -0.862  -5.148  -3.385  0.00  0.00    -0.070 N 
ATOM      3  C1  UNL d   1      -1.189  -3.860  -3.052  0.00  0.00    -0.004 A 
ATOM      4  C2  UNL d   1      -2.507  -3.850  -2.651  0.00  0.00    -0.047 A 
ATOM      5  C3  UNL d   1      -2.989  -5.177  -2.745  0.00  0.00    -0.047 A 
ATOM      6  C4  UNL d   1      -1.950  -5.960  -3.202  0.00  0.00    -0.004 A 
ENDROOT
TORSDOF 0
ENDMDL
