MODEL 1
REMARK minimizedAffinity 2.01621437
REMARK minimizedRMSD -1
REMARK  0 active torsions:
REMARK  status: ('A' for Active; 'I' for Inactive)
ROOT
ATOM      1  C   UNL d   1      -2.503  -4.930  -3.410  0.00  0.00     0.172 C 
ATOM      2  N   UNL d   1      -3.925  -5.123  -3.575  0.00  0.00    -0.070 N 
ATOM      3  C1  UNL d   1      -4.699  -5.998  -2.861  0.00  0.00    -0.004 A 
ATOM      4  C2  UNL d   1      -5.995  -5.883  -3.315  0.00  0.00    -0.047 A 
ATOM      5  C3  UNL d   1      -6.000  -4.905  -4.338  0.00  0.00    -0.047 A 
ATOM      6  C4  UNL d   1      -4.705  -4.451  -4.478  0.00  0.00    -0.004 A 
ENDROOT
TORSDOF 0
ENDMDL
