MODEL 1
REMARK minimizedAffinity 1.3408947
REMARK minimizedRMSD -1
REMARK  0 active torsions:
REMARK  status: ('A' for Active; 'I' for Inactive)
ROOT
ATOM      1  C   UNL d   1      -3.729  -5.999   0.470  0.00  0.00     0.172 C 
ATOM      2  N   UNL d   1      -2.732  -5.356   1.294  0.00  0.00    -0.070 N 
ATOM      3  C1  UNL d   1      -1.872  -5.992   2.149  0.00  0.00    -0.004 A 
ATOM      4  C2  UNL d   1      -1.083  -5.032   2.745  0.00  0.00    -0.047 A 
ATOM      5  C3  UNL d   1      -1.483  -3.776   2.230  0.00  0.00    -0.047 A 
ATOM      6  C4  UNL d   1      -2.505  -4.006   1.334  0.00  0.00    -0.004 A 
ENDROOT
TORSDOF 0
ENDMDL
