MODEL 1
REMARK minimizedAffinity -1.72149467
REMARK minimizedRMSD -1
REMARK  0 active torsions:
REMARK  status: ('A' for Active; 'I' for Inactive)
ROOT
ATOM      1  C   UNL d   1      -1.974  -4.773  -3.598  0.00  0.00     0.172 C 
ATOM      2  N   UNL d   1      -3.383  -4.526  -3.405  0.00  0.00    -0.070 N 
ATOM      3  C1  UNL d   1      -3.926  -3.689  -2.467  0.00  0.00    -0.004 A 
ATOM      4  C2  UNL d   1      -5.297  -3.730  -2.608  0.00  0.00    -0.047 A 
ATOM      5  C3  UNL d   1      -5.587  -4.623  -3.667  0.00  0.00    -0.047 A 
ATOM      6  C4  UNL d   1      -4.385  -5.102  -4.142  0.00  0.00    -0.004 A 
ENDROOT
TORSDOF 0
ENDMDL
