MODEL 1
REMARK minimizedAffinity 11.7632875
REMARK minimizedRMSD -1
REMARK  0 active torsions:
REMARK  status: ('A' for Active; 'I' for Inactive)
ROOT
ATOM      1  C   UNL d   1      -0.447  -5.844  -3.810  0.00  0.00     0.172 C 
ATOM      2  N   UNL d   1      -1.058  -4.604  -3.396  0.00  0.00    -0.070 N 
ATOM      3  C1  UNL d   1      -2.208  -4.486  -2.661  0.00  0.00    -0.004 A 
ATOM      4  C2  UNL d   1      -2.455  -3.143  -2.476  0.00  0.00    -0.047 A 
ATOM      5  C3  UNL d   1      -1.419  -2.428  -3.123  0.00  0.00    -0.047 A 
ATOM      6  C4  UNL d   1      -0.569  -3.357  -3.685  0.00  0.00    -0.004 A 
ENDROOT
TORSDOF 0
ENDMDL
