MODEL 1
REMARK minimizedAffinity 9.16434002
REMARK minimizedRMSD -1
REMARK  0 active torsions:
REMARK  status: ('A' for Active; 'I' for Inactive)
ROOT
ATOM      1  C   UNL d   1      -2.507  -5.624  -3.611  0.00  0.00     0.172 C 
ATOM      2  N   UNL d   1      -3.922  -5.378  -3.456  0.00  0.00    -0.070 N 
ATOM      3  C1  UNL d   1      -4.670  -4.520  -4.217  0.00  0.00    -0.004 A 
ATOM      4  C2  UNL d   1      -5.968  -4.570  -3.755  0.00  0.00    -0.047 A 
ATOM      5  C3  UNL d   1      -6.000  -5.488  -2.679  0.00  0.00    -0.047 A 
ATOM      6  C4  UNL d   1      -4.719  -5.973  -2.515  0.00  0.00    -0.004 A 
ENDROOT
TORSDOF 0
ENDMDL
