MODEL 1
REMARK minimizedAffinity 5.3579216
REMARK minimizedRMSD -1
REMARK  0 active torsions:
REMARK  status: ('A' for Active; 'I' for Inactive)
ROOT
ATOM      1  C   UNL d   1      -4.475  -5.988  -0.156  0.00  0.00     0.172 C 
ATOM      2  N   UNL d   1      -4.759  -4.921  -1.086  0.00  0.00    -0.070 N 
ATOM      3  C1  UNL d   1      -5.930  -4.752  -1.774  0.00  0.00    -0.004 A 
ATOM      4  C2  UNL d   1      -5.803  -3.623  -2.554  0.00  0.00    -0.047 A 
ATOM      5  C3  UNL d   1      -4.510  -3.095  -2.326  0.00  0.00    -0.047 A 
ATOM      6  C4  UNL d   1      -3.885  -3.918  -1.414  0.00  0.00    -0.004 A 
ENDROOT
TORSDOF 0
ENDMDL
