MODEL 1
REMARK minimizedAffinity -2.23636079
REMARK minimizedRMSD -1
REMARK  0 active torsions:
REMARK  status: ('A' for Active; 'I' for Inactive)
ROOT
ATOM      1  C1  DEN d   1       1.689  -1.220   1.383  0.00  0.00     0.130 A 
ATOM      2  C2  DEN d   1       2.706  -0.177   1.478  0.00  0.00    -0.031 A 
ATOM      3  C3  DEN d   1       2.161   1.050   0.863  0.00  0.00     0.027 A 
ATOM      4  C4  DEN d   1      -0.149   1.435  -0.219  0.00  0.00     0.027 A 
ATOM      5  C5  DEN d   1      -1.348   0.841  -0.545  0.00  0.00    -0.003 A 
ATOM      6  C6  DEN d   1      -1.605  -0.479  -0.284  0.00  0.00     0.001 A 
ATOM      7  C7  DEN d   1      -0.665  -1.238   0.361  0.00  0.00     0.017 A 
ATOM      8  C8  DEN d   1       0.550  -0.649   0.687  0.00  0.00    -0.094 A 
ATOM      9  C9  DEN d   1       0.785   0.690   0.426  0.00  0.00    -0.072 A 
ENDROOT
TORSDOF 0
ENDMDL
