MODEL 1
REMARK minimizedAffinity -3.61179709
REMARK minimizedRMSD -1
REMARK  0 active torsions:
REMARK  status: ('A' for Active; 'I' for Inactive)
ROOT
ATOM      1  C1  DEN d   1      -0.333   0.876  -0.262  0.00  0.00     0.130 A 
ATOM      2  C2  DEN d   1      -0.394   1.195  -1.686  0.00  0.00    -0.031 A 
ATOM      3  C3  DEN d   1       0.950   0.982  -2.259  0.00  0.00     0.027 A 
ATOM      4  C4  DEN d   1       3.107   0.188  -1.088  0.00  0.00     0.027 A 
ATOM      5  C5  DEN d   1       3.654  -0.194   0.117  0.00  0.00    -0.003 A 
ATOM      6  C6  DEN d   1       2.926  -0.213   1.277  0.00  0.00     0.001 A 
ATOM      7  C7  DEN d   1       1.596   0.113   1.248  0.00  0.00     0.017 A 
ATOM      8  C8  DEN d   1       1.038   0.507   0.039  0.00  0.00    -0.094 A 
ATOM      9  C9  DEN d   1       1.788   0.508  -1.125  0.00  0.00    -0.072 A 
ENDROOT
TORSDOF 0
ENDMDL
