MODEL 1
REMARK minimizedAffinity -5.93033123
REMARK minimizedRMSD -1
REMARK  0 active torsions:
REMARK  status: ('A' for Active; 'I' for Inactive)
ROOT
ATOM      1  C1  DEN d   1       0.386   0.829   0.357  0.00  0.00     0.130 A 
ATOM      2  C2  DEN d   1      -0.862   0.118   0.617  0.00  0.00    -0.031 A 
ATOM      3  C3  DEN d   1      -0.525  -1.222   1.137  0.00  0.00     0.027 A 
ATOM      4  C4  DEN d   1       1.798  -2.258   1.566  0.00  0.00     0.027 A 
ATOM      5  C5  DEN d   1       3.156  -2.042   1.486  0.00  0.00    -0.003 A 
ATOM      6  C6  DEN d   1       3.682  -0.876   0.996  0.00  0.00     0.001 A 
ATOM      7  C7  DEN d   1       2.844   0.136   0.609  0.00  0.00     0.017 A 
ATOM      8  C8  DEN d   1       1.474  -0.077   0.680  0.00  0.00    -0.094 A 
ATOM      9  C9  DEN d   1       0.962  -1.258   1.190  0.00  0.00    -0.072 A 
ENDROOT
TORSDOF 0
ENDMDL
