MODEL 1
REMARK minimizedAffinity -5.90915728
REMARK minimizedRMSD -1
REMARK  0 active torsions:
REMARK  status: ('A' for Active; 'I' for Inactive)
ROOT
ATOM      1  C1  DEN d   1      -2.609   0.147  -2.205  0.00  0.00     0.130 A 
ATOM      2  C2  DEN d   1      -2.497  -0.288  -3.594  0.00  0.00    -0.031 A 
ATOM      3  C3  DEN d   1      -1.090  -0.659  -3.845  0.00  0.00     0.027 A 
ATOM      4  C4  DEN d   1       0.916  -0.607  -2.224  0.00  0.00     0.027 A 
ATOM      5  C5  DEN d   1       1.315  -0.300  -0.942  0.00  0.00    -0.003 A 
ATOM      6  C6  DEN d   1       0.449   0.205  -0.008  0.00  0.00     0.001 A 
ATOM      7  C7  DEN d   1      -0.872   0.376  -0.330  0.00  0.00     0.017 A 
ATOM      8  C8  DEN d   1      -1.280   0.076  -1.623  0.00  0.00    -0.094 A 
ATOM      9  C9  DEN d   1      -0.392  -0.445  -2.548  0.00  0.00    -0.072 A 
ENDROOT
TORSDOF 0
ENDMDL
