MODEL 1
REMARK minimizedAffinity -5.97686052
REMARK minimizedRMSD -1
REMARK  0 active torsions:
REMARK  status: ('A' for Active; 'I' for Inactive)
ROOT
ATOM      1  C1  DEN d   1      -0.235  -0.572  -0.824  0.00  0.00     0.130 A 
ATOM      2  C2  DEN d   1      -0.641   0.825  -0.956  0.00  0.00    -0.031 A 
ATOM      3  C3  DEN d   1       0.222   1.635  -0.073  0.00  0.00     0.027 A 
ATOM      4  C4  DEN d   1       2.138   0.868   1.474  0.00  0.00     0.027 A 
ATOM      5  C5  DEN d   1       2.843  -0.224   1.930  0.00  0.00    -0.003 A 
ATOM      6  C6  DEN d   1       2.552  -1.501   1.530  0.00  0.00     0.001 A 
ATOM      7  C7  DEN d   1       1.558  -1.714   0.612  0.00  0.00     0.017 A 
ATOM      8  C8  DEN d   1       0.837  -0.619   0.153  0.00  0.00    -0.094 A 
ATOM      9  C9  DEN d   1       1.156   0.665   0.560  0.00  0.00    -0.072 A 
ENDROOT
TORSDOF 0
ENDMDL
