MODEL 1
REMARK minimizedAffinity -4.19960165
REMARK minimizedRMSD -1
REMARK  0 active torsions:
REMARK  status: ('A' for Active; 'I' for Inactive)
ROOT
ATOM      1  C1  DEN d   1      -1.651   0.328  -3.652  0.00  0.00     0.130 A 
ATOM      2  C2  DEN d   1      -3.013  -0.196  -3.589  0.00  0.00    -0.031 A 
ATOM      3  C3  DEN d   1      -3.327  -0.481  -2.174  0.00  0.00     0.027 A 
ATOM      4  C4  DEN d   1      -1.847  -0.159  -0.087  0.00  0.00     0.027 A 
ATOM      5  C5  DEN d   1      -0.608   0.247   0.360  0.00  0.00    -0.003 A 
ATOM      6  C6  DEN d   1       0.373   0.673  -0.496  0.00  0.00     0.001 A 
ATOM      7  C7  DEN d   1       0.117   0.745  -1.840  0.00  0.00     0.017 A 
ATOM      8  C8  DEN d   1      -1.127   0.331  -2.298  0.00  0.00    -0.094 A 
ATOM      9  C9  DEN d   1      -2.110  -0.085  -1.416  0.00  0.00    -0.072 A 
ENDROOT
TORSDOF 0
ENDMDL
