MODEL 1
REMARK minimizedAffinity -3.27976608
REMARK minimizedRMSD -1
REMARK  0 active torsions:
REMARK  status: ('A' for Active; 'I' for Inactive)
ROOT
ATOM      1  C   UNL d   1       1.218  -0.276  -1.292  0.00  0.00     0.020 A 
ATOM      2  C1  UNL d   1       0.744   1.031  -1.399  0.00  0.00     0.020 A 
ATOM      3  C2  UNL d   1      -0.060   1.566  -0.391  0.00  0.00     0.034 A 
ATOM      4  C3  UNL d   1      -0.392   0.795   0.729  0.00  0.00     0.017 A 
ATOM      5  C4  UNL d   1       0.084  -0.517   0.835  0.00  0.00     0.017 A 
ATOM      6  C5  UNL d   1       0.889  -1.048  -0.178  0.00  0.00     0.034 A 
ATOM      7 Cl   UNL d   1      -0.283  -1.530   2.186  0.00  0.00    -0.070 Cl
ATOM      8 Cl1  UNL d   1      -1.391   1.521   1.937  0.00  0.00    -0.070 Cl
ENDROOT
TORSDOF 0
ENDMDL
