MODEL 1
REMARK minimizedAffinity -2.74275851
REMARK minimizedRMSD -1
REMARK  0 active torsions:
REMARK  status: ('A' for Active; 'I' for Inactive)
ROOT
ATOM      1  C   UNL d   1       0.737  -1.163  -0.210  0.00  0.00     0.020 A 
ATOM      2  C1  UNL d   1       0.046  -1.371   0.983  0.00  0.00     0.020 A 
ATOM      3  C2  UNL d   1      -0.880  -0.425   1.427  0.00  0.00     0.034 A 
ATOM      4  C3  UNL d   1      -1.117   0.734   0.678  0.00  0.00     0.017 A 
ATOM      5  C4  UNL d   1      -0.423   0.941  -0.519  0.00  0.00     0.017 A 
ATOM      6  C5  UNL d   1       0.503  -0.010  -0.959  0.00  0.00     0.034 A 
ATOM      7 Cl   UNL d   1      -0.661   2.346  -1.497  0.00  0.00    -0.070 Cl
ATOM      8 Cl1  UNL d   1      -2.276   1.861   1.288  0.00  0.00    -0.070 Cl
ENDROOT
TORSDOF 0
ENDMDL
