MODEL 1
REMARK minimizedAffinity -1.06174767
REMARK minimizedRMSD -1
REMARK  0 active torsions:
REMARK  status: ('A' for Active; 'I' for Inactive)
ROOT
ATOM      1  C   UNL d   1      -1.032   0.041   2.081  0.00  0.00     0.020 A 
ATOM      2  C1  UNL d   1      -1.449   1.328   1.744  0.00  0.00     0.020 A 
ATOM      3  C2  UNL d   1      -0.970   1.935   0.581  0.00  0.00     0.034 A 
ATOM      4  C3  UNL d   1      -0.070   1.256  -0.248  0.00  0.00     0.017 A 
ATOM      5  C4  UNL d   1       0.349  -0.035   0.092  0.00  0.00     0.017 A 
ATOM      6  C5  UNL d   1      -0.134  -0.639   1.257  0.00  0.00     0.034 A 
ATOM      7 Cl   UNL d   1       1.458  -0.936  -0.881  0.00  0.00    -0.070 Cl
ATOM      8 Cl1  UNL d   1       0.482   2.068  -1.670  0.00  0.00    -0.070 Cl
ENDROOT
TORSDOF 0
ENDMDL
