MODEL 1
REMARK minimizedAffinity -2.21089888
REMARK minimizedRMSD -1
REMARK  0 active torsions:
REMARK  status: ('A' for Active; 'I' for Inactive)
ROOT
ATOM      1  C   UNL d   1       0.363  -1.027   0.326  0.00  0.00     0.020 A 
ATOM      2  C1  UNL d   1       1.090  -0.610  -0.788  0.00  0.00     0.020 A 
ATOM      3  C2  UNL d   1       0.766   0.591  -1.424  0.00  0.00     0.034 A 
ATOM      4  C3  UNL d   1      -0.288   1.378  -0.946  0.00  0.00     0.017 A 
ATOM      5  C4  UNL d   1      -1.017   0.958   0.172  0.00  0.00     0.017 A 
ATOM      6  C5  UNL d   1      -0.688  -0.245   0.805  0.00  0.00     0.034 A 
ATOM      7 Cl   UNL d   1      -2.331   1.875   0.820  0.00  0.00    -0.070 Cl
ATOM      8 Cl1  UNL d   1      -0.634   2.851  -1.781  0.00  0.00    -0.070 Cl
ENDROOT
TORSDOF 0
ENDMDL
