MODEL 1
REMARK minimizedAffinity -3.11065984
REMARK minimizedRMSD -1
REMARK  0 active torsions:
REMARK  status: ('A' for Active; 'I' for Inactive)
ROOT
ATOM      1  C   UNL d   1      -1.814   2.276   0.264  0.00  0.00     0.020 A 
ATOM      2  C1  UNL d   1      -1.735   2.336   1.655  0.00  0.00     0.020 A 
ATOM      3  C2  UNL d   1      -0.837   1.515   2.339  0.00  0.00     0.034 A 
ATOM      4  C3  UNL d   1      -0.014   0.630   1.633  0.00  0.00     0.017 A 
ATOM      5  C4  UNL d   1      -0.094   0.570   0.237  0.00  0.00     0.017 A 
ATOM      6  C5  UNL d   1      -0.995   1.395  -0.443  0.00  0.00     0.034 A 
ATOM      7 Cl   UNL d   1       0.889  -0.497  -0.703  0.00  0.00    -0.070 Cl
ATOM      8 Cl1  UNL d   1       1.074  -0.357   2.544  0.00  0.00    -0.070 Cl
ENDROOT
TORSDOF 0
ENDMDL
