MODEL 1
REMARK minimizedAffinity -4.21594572
REMARK minimizedRMSD -1
REMARK  0 active torsions:
REMARK  status: ('A' for Active; 'I' for Inactive)
ROOT
ATOM      1  C   UNL d   1      -0.060  -0.854   1.856  0.00  0.00     0.020 A 
ATOM      2  C1  UNL d   1       0.767  -0.859   0.733  0.00  0.00     0.020 A 
ATOM      3  C2  UNL d   1       0.722   0.203  -0.172  0.00  0.00     0.034 A 
ATOM      4  C3  UNL d   1      -0.152   1.274   0.043  0.00  0.00     0.017 A 
ATOM      5  C4  UNL d   1      -0.982   1.279   1.170  0.00  0.00     0.017 A 
ATOM      6  C5  UNL d   1      -0.933   0.213   2.074  0.00  0.00     0.034 A 
ATOM      7 Cl   UNL d   1      -2.086   2.566   1.503  0.00  0.00    -0.070 Cl
ATOM      8 Cl1  UNL d   1      -0.155   2.554  -1.118  0.00  0.00    -0.070 Cl
ENDROOT
TORSDOF 0
ENDMDL
