MODEL 1
REMARK minimizedAffinity -3.38179922
REMARK minimizedRMSD -1
REMARK  0 active torsions:
REMARK  status: ('A' for Active; 'I' for Inactive)
ROOT
ATOM      1  C   UNL d   1      -1.786   2.970   1.005  0.00  0.00     0.020 A 
ATOM      2  C1  UNL d   1      -1.824   1.831   1.809  0.00  0.00     0.020 A 
ATOM      3  C2  UNL d   1      -1.075   0.705   1.460  0.00  0.00     0.034 A 
ATOM      4  C3  UNL d   1      -0.284   0.716   0.305  0.00  0.00     0.017 A 
ATOM      5  C4  UNL d   1      -0.247   1.860  -0.501  0.00  0.00     0.017 A 
ATOM      6  C5  UNL d   1      -0.999   2.984  -0.147  0.00  0.00     0.034 A 
ATOM      7 Cl   UNL d   1       0.705   1.949  -1.941  0.00  0.00    -0.070 Cl
ATOM      8 Cl1  UNL d   1       0.617  -0.711  -0.066  0.00  0.00    -0.070 Cl
ENDROOT
TORSDOF 0
ENDMDL
