MODEL 1
REMARK minimizedAffinity 0.63877058
REMARK minimizedRMSD -1
REMARK  0 active torsions:
REMARK  status: ('A' for Active; 'I' for Inactive)
ROOT
ATOM      1  C   UNL d   1       0.311  -0.997   0.375  0.00  0.00     0.020 A 
ATOM      2  C1  UNL d   1       1.215  -0.637  -0.624  0.00  0.00     0.020 A 
ATOM      3  C2  UNL d   1       1.075   0.586  -1.284  0.00  0.00     0.034 A 
ATOM      4  C3  UNL d   1       0.029   1.453  -0.947  0.00  0.00     0.017 A 
ATOM      5  C4  UNL d   1      -0.878   1.091   0.056  0.00  0.00     0.017 A 
ATOM      6  C5  UNL d   1      -0.733  -0.135   0.714  0.00  0.00     0.034 A 
ATOM      7 Cl   UNL d   1      -2.193   2.108   0.527  0.00  0.00    -0.070 Cl
ATOM      8 Cl1  UNL d   1      -0.083   2.949  -1.804  0.00  0.00    -0.070 Cl
ENDROOT
TORSDOF 0
ENDMDL
