MODEL 1
REMARK minimizedAffinity -3.62801456
REMARK minimizedRMSD -1
REMARK  0 active torsions:
REMARK  status: ('A' for Active; 'I' for Inactive)
ROOT
ATOM      1  C   UNL d   1       1.433  -0.068  -0.211  0.00  0.00     0.020 A 
ATOM      2  C1  UNL d   1       0.699   0.806  -1.013  0.00  0.00     0.020 A 
ATOM      3  C2  UNL d   1      -0.565   1.235  -0.604  0.00  0.00     0.034 A 
ATOM      4  C3  UNL d   1      -1.100   0.791   0.611  0.00  0.00     0.017 A 
ATOM      5  C4  UNL d   1      -0.363  -0.086   1.415  0.00  0.00     0.017 A 
ATOM      6  C5  UNL d   1       0.903  -0.513   1.001  0.00  0.00     0.034 A 
ATOM      7 Cl   UNL d   1      -0.957  -0.677   2.927  0.00  0.00    -0.070 Cl
ATOM      8 Cl1  UNL d   1      -2.669   1.362   1.055  0.00  0.00    -0.070 Cl
ENDROOT
TORSDOF 0
ENDMDL
