MODEL 1
REMARK minimizedAffinity -3.34131479
REMARK minimizedRMSD -1
REMARK  0 active torsions:
REMARK  status: ('A' for Active; 'I' for Inactive)
ROOT
ATOM      1  C   UNL d   1       0.982  -0.699  -0.368  0.00  0.00     0.020 A 
ATOM      2  C1  UNL d   1       0.530  -0.872   0.940  0.00  0.00     0.020 A 
ATOM      3  C2  UNL d   1      -0.356   0.051   1.500  0.00  0.00     0.034 A 
ATOM      4  C3  UNL d   1      -0.793   1.150   0.753  0.00  0.00     0.017 A 
ATOM      5  C4  UNL d   1      -0.339   1.323  -0.560  0.00  0.00     0.017 A 
ATOM      6  C5  UNL d   1       0.548   0.396  -1.116  0.00  0.00     0.034 A 
ATOM      7 Cl   UNL d   1      -0.834   2.655  -1.544  0.00  0.00    -0.070 Cl
ATOM      8 Cl1  UNL d   1      -1.889   2.251   1.509  0.00  0.00    -0.070 Cl
ENDROOT
TORSDOF 0
ENDMDL
