MODEL 1
REMARK minimizedAffinity -3.69529438
REMARK minimizedRMSD -1
REMARK  0 active torsions:
REMARK  status: ('A' for Active; 'I' for Inactive)
ROOT
ATOM      1  C   UNL d   1      -1.725   1.966   1.446  0.00  0.00     0.020 A 
ATOM      2  C1  UNL d   1      -1.804   2.004   0.055  0.00  0.00     0.020 A 
ATOM      3  C2  UNL d   1      -1.072   1.094  -0.711  0.00  0.00     0.034 A 
ATOM      4  C3  UNL d   1      -0.257   0.143  -0.086  0.00  0.00     0.017 A 
ATOM      5  C4  UNL d   1      -0.178   0.106   1.311  0.00  0.00     0.017 A 
ATOM      6  C5  UNL d   1      -0.913   1.019   2.073  0.00  0.00     0.034 A 
ATOM      7 Cl   UNL d   1       0.805  -1.039   2.153  0.00  0.00    -0.070 Cl
ATOM      8 Cl1  UNL d   1       0.620  -0.951  -1.096  0.00  0.00    -0.070 Cl
ENDROOT
TORSDOF 0
ENDMDL
