MODEL 1
REMARK minimizedAffinity -0.566938758
REMARK minimizedRMSD -1
REMARK  0 active torsions:
REMARK  status: ('A' for Active; 'I' for Inactive)
ROOT
ATOM      1  C   UNL d   1       0.390  -1.227   0.112  0.00  0.00     0.020 A 
ATOM      2  C1  UNL d   1       1.247  -0.817  -0.908  0.00  0.00     0.020 A 
ATOM      3  C2  UNL d   1       1.117   0.460  -1.459  0.00  0.00     0.034 A 
ATOM      4  C3  UNL d   1       0.126   1.331  -0.990  0.00  0.00     0.017 A 
ATOM      5  C4  UNL d   1      -0.734   0.918   0.034  0.00  0.00     0.017 A 
ATOM      6  C5  UNL d   1      -0.599  -0.362   0.581  0.00  0.00     0.034 A 
ATOM      7 Cl   UNL d   1      -1.980   1.936   0.664  0.00  0.00    -0.070 Cl
ATOM      8 Cl1  UNL d   1       0.023   2.895  -1.717  0.00  0.00    -0.070 Cl
ENDROOT
TORSDOF 0
ENDMDL
