MODEL 1
REMARK minimizedAffinity -3.94878769
REMARK minimizedRMSD -1
REMARK  0 active torsions:
REMARK  status: ('A' for Active; 'I' for Inactive)
ROOT
ATOM      1  C   UNL d   1       0.363  -0.201  -1.324  0.00  0.00     0.020 A 
ATOM      2  C1  UNL d   1      -0.546   0.841  -1.497  0.00  0.00     0.020 A 
ATOM      3  C2  UNL d   1      -1.267   1.327  -0.404  0.00  0.00     0.034 A 
ATOM      4  C3  UNL d   1      -1.080   0.771   0.866  0.00  0.00     0.017 A 
ATOM      5  C4  UNL d   1      -0.167  -0.276   1.038  0.00  0.00     0.017 A 
ATOM      6  C5  UNL d   1       0.552  -0.759  -0.059  0.00  0.00     0.034 A 
ATOM      7 Cl   UNL d   1       0.117  -1.014   2.575  0.00  0.00    -0.070 Cl
ATOM      8 Cl1  UNL d   1      -2.005   1.421   2.173  0.00  0.00    -0.070 Cl
ENDROOT
TORSDOF 0
ENDMDL
