MODEL 1
REMARK minimizedAffinity -4.26948833
REMARK minimizedRMSD -1
REMARK  0 active torsions:
REMARK  status: ('A' for Active; 'I' for Inactive)
ROOT
ATOM      1  C   UNL d   1      -1.433   2.352  -0.161  0.00  0.00     0.020 A 
ATOM      2  C1  UNL d   1      -1.766   2.304   1.192  0.00  0.00     0.020 A 
ATOM      3  C2  UNL d   1      -1.291   1.262   1.991  0.00  0.00     0.034 A 
ATOM      4  C3  UNL d   1      -0.479   0.265   1.439  0.00  0.00     0.017 A 
ATOM      5  C4  UNL d   1      -0.145   0.314   0.081  0.00  0.00     0.017 A 
ATOM      6  C5  UNL d   1      -0.624   1.360  -0.715  0.00  0.00     0.034 A 
ATOM      7 Cl   UNL d   1       0.852  -0.880  -0.673  0.00  0.00    -0.070 Cl
ATOM      8 Cl1  UNL d   1       0.074  -0.993   2.486  0.00  0.00    -0.070 Cl
ENDROOT
TORSDOF 0
ENDMDL
