MODEL 1
REMARK minimizedAffinity -1.83976519
REMARK minimizedRMSD -1
REMARK  0 active torsions:
REMARK  status: ('A' for Active; 'I' for Inactive)
ROOT
ATOM      1  C   UNL d   1      -1.820   1.861   0.344  0.00  0.00     0.020 A 
ATOM      2  C1  UNL d   1      -1.773   1.779   1.735  0.00  0.00     0.020 A 
ATOM      3  C2  UNL d   1      -0.925   0.857   2.351  0.00  0.00     0.034 A 
ATOM      4  C3  UNL d   1      -0.121   0.013   1.577  0.00  0.00     0.017 A 
ATOM      5  C4  UNL d   1      -0.169   0.096   0.181  0.00  0.00     0.017 A 
ATOM      6  C5  UNL d   1      -1.020   1.022  -0.432  0.00  0.00     0.034 A 
ATOM      7 Cl   UNL d   1       0.794  -0.911  -0.842  0.00  0.00    -0.070 Cl
ATOM      8 Cl1  UNL d   1       0.904  -1.104   2.406  0.00  0.00    -0.070 Cl
ENDROOT
TORSDOF 0
ENDMDL
