MODEL 1
REMARK minimizedAffinity -0.730940819
REMARK minimizedRMSD -1
REMARK  0 active torsions:
REMARK  status: ('A' for Active; 'I' for Inactive)
ROOT
ATOM      1  C   UNL d   1      -1.058   1.695   2.010  0.00  0.00     0.020 A 
ATOM      2  C1  UNL d   1      -0.995   0.329   2.287  0.00  0.00     0.020 A 
ATOM      3  C2  UNL d   1      -0.346  -0.533   1.401  0.00  0.00     0.034 A 
ATOM      4  C3  UNL d   1       0.242  -0.032   0.234  0.00  0.00     0.017 A 
ATOM      5  C4  UNL d   1       0.178   1.338  -0.043  0.00  0.00     0.017 A 
ATOM      6  C5  UNL d   1      -0.473   2.198   0.848  0.00  0.00     0.034 A 
ATOM      7 Cl   UNL d   1       0.879   2.030  -1.463  0.00  0.00    -0.070 Cl
ATOM      8 Cl1  UNL d   1       1.028  -1.157  -0.816  0.00  0.00    -0.070 Cl
ENDROOT
TORSDOF 0
ENDMDL
