MODEL 1
REMARK minimizedAffinity -2.72103453
REMARK minimizedRMSD -1
REMARK  0 active torsions:
REMARK  status: ('A' for Active; 'I' for Inactive)
ROOT
ATOM      1  C   UNL d   1       0.064   2.790  -1.585  0.00  0.00     0.020 A 
ATOM      2  C1  UNL d   1       0.578   1.548  -1.956  0.00  0.00     0.020 A 
ATOM      3  C2  UNL d   1       0.468   0.459  -1.088  0.00  0.00     0.034 A 
ATOM      4  C3  UNL d   1      -0.158   0.611   0.155  0.00  0.00     0.017 A 
ATOM      5  C4  UNL d   1      -0.674   1.858   0.526  0.00  0.00     0.017 A 
ATOM      6  C5  UNL d   1      -0.561   2.944  -0.347  0.00  0.00     0.034 A 
ATOM      7 Cl   UNL d   1      -1.459   2.121   2.043  0.00  0.00    -0.070 Cl
ATOM      8 Cl1  UNL d   1      -0.259  -0.778   1.178  0.00  0.00    -0.070 Cl
ENDROOT
TORSDOF 0
ENDMDL
