MODEL 1
REMARK minimizedAffinity -3.64149022
REMARK minimizedRMSD -1
REMARK  0 active torsions:
REMARK  status: ('A' for Active; 'I' for Inactive)
ROOT
ATOM      1  C   UNL d   1      -0.835  -2.383   0.709  0.00  0.00     0.020 A 
ATOM      2  C1  UNL d   1      -0.196  -2.250  -0.523  0.00  0.00     0.020 A 
ATOM      3  C2  UNL d   1       0.313  -1.010  -0.916  0.00  0.00     0.034 A 
ATOM      4  C3  UNL d   1       0.184   0.101  -0.075  0.00  0.00     0.017 A 
ATOM      5  C4  UNL d   1      -0.457  -0.033   1.161  0.00  0.00     0.017 A 
ATOM      6  C5  UNL d   1      -0.965  -1.277   1.550  0.00  0.00     0.034 A 
ATOM      7 Cl   UNL d   1      -0.654   1.293   2.252  0.00  0.00    -0.070 Cl
ATOM      8 Cl1  UNL d   1       0.837   1.604  -0.625  0.00  0.00    -0.070 Cl
ENDROOT
TORSDOF 0
ENDMDL
