MODEL 1
REMARK minimizedAffinity 2.3502841
REMARK minimizedRMSD -1
REMARK  3 active torsions:
REMARK  status: ('A' for Active; 'I' for Inactive)
REMARK    1  A    between atoms: C3'_2  and  C2'_3 
REMARK    2  A    between atoms: C2'_3  and  C1'_4 
REMARK    3  A    between atoms: C1'_4  and  C1_5 
ROOT
ATOM      1  C1  N4B d   1       0.885   0.731  -0.997  0.00  0.00    -0.075 A 
ATOM      2  C2  N4B d   1       0.475  -0.285  -1.888  0.00  0.00     0.002 A 
ATOM      3  C3  N4B d   1      -0.367  -1.279  -1.453  0.00  0.00     0.002 A 
ATOM      4  C4  N4B d   1      -0.794  -1.288  -0.134  0.00  0.00    -0.004 A 
ATOM      5  C5  N4B d   1      -0.413  -0.289   0.713  0.00  0.00     0.002 A 
ATOM      6  C6  N4B d   1       0.429   0.719   0.289  0.00  0.00     0.002 A 
ENDROOT
BRANCH   1   7
ATOM      7  C1' N4B d   1       1.873   1.791  -1.403  0.00  0.00     0.057 C 
BRANCH   7   8
ATOM      8  C2' N4B d   1       2.600   2.299  -0.161  0.00  0.00     0.009 C 
BRANCH   8   9
ATOM      9  C3' N4B d   1       3.988   1.695  -0.028  0.00  0.00     0.004 C 
ATOM     10  C4' N4B d   1       5.077   2.656  -0.400  0.00  0.00     0.003 C 
ENDBRANCH   8   9
ENDBRANCH   7   8
ENDBRANCH   1   7
TORSDOF 3
ENDMDL
