MODEL 1
REMARK minimizedAffinity -3.3891921
REMARK minimizedRMSD -1
REMARK  3 active torsions:
REMARK  status: ('A' for Active; 'I' for Inactive)
REMARK    1  A    between atoms: C3'_2  and  C2'_3 
REMARK    2  A    between atoms: C2'_3  and  C1'_4 
REMARK    3  A    between atoms: C1'_4  and  C1_5 
ROOT
ATOM      1  C1  N4B d   1      -4.596   0.930  -5.872  0.00  0.00    -0.075 A 
ATOM      2  C2  N4B d   1      -3.246   1.332  -5.982  0.00  0.00     0.002 A 
ATOM      3  C3  N4B d   1      -2.921   2.665  -5.941  0.00  0.00     0.002 A 
ATOM      4  C4  N4B d   1      -3.926   3.612  -5.811  0.00  0.00    -0.004 A 
ATOM      5  C5  N4B d   1      -5.224   3.215  -5.680  0.00  0.00     0.002 A 
ATOM      6  C6  N4B d   1      -5.565   1.878  -5.715  0.00  0.00     0.002 A 
ENDROOT
BRANCH   1   7
ATOM      7  C1' N4B d   1      -5.008  -0.511  -5.996  0.00  0.00     0.057 C 
BRANCH   7   8
ATOM      8  C2' N4B d   1      -3.764  -1.393  -5.959  0.00  0.00     0.009 C 
BRANCH   8   9
ATOM      9  C3' N4B d   1      -4.112  -2.860  -5.771  0.00  0.00     0.004 C 
ATOM     10  C4' N4B d   1      -5.581  -3.130  -5.906  0.00  0.00     0.003 C 
ENDBRANCH   8   9
ENDBRANCH   7   8
ENDBRANCH   1   7
TORSDOF 3
ENDMDL
