MODEL 1
REMARK minimizedAffinity 3.40620589
REMARK minimizedRMSD -1
REMARK  3 active torsions:
REMARK  status: ('A' for Active; 'I' for Inactive)
REMARK    1  A    between atoms: C3'_2  and  C2'_3 
REMARK    2  A    between atoms: C2'_3  and  C1'_4 
REMARK    3  A    between atoms: C1'_4  and  C1_5 
ROOT
ATOM      1  C1  N4B d   1      -3.796  -3.466  -5.870  0.00  0.00    -0.075 A 
ATOM      2  C2  N4B d   1      -3.111  -2.234  -5.787  0.00  0.00     0.002 A 
ATOM      3  C3  N4B d   1      -3.815  -1.055  -5.785  0.00  0.00     0.002 A 
ATOM      4  C4  N4B d   1      -5.198  -1.083  -5.883  0.00  0.00    -0.004 A 
ATOM      5  C5  N4B d   1      -5.854  -2.277  -5.938  0.00  0.00     0.002 A 
ATOM      6  C6  N4B d   1      -5.159  -3.470  -5.937  0.00  0.00     0.002 A 
ENDROOT
BRANCH   1   7
ATOM      7  C1' N4B d   1      -3.065  -4.777  -5.962  0.00  0.00     0.057 C 
BRANCH   7   8
ATOM      8  C2' N4B d   1      -1.987  -4.827  -4.883  0.00  0.00     0.009 C 
BRANCH   8   9
ATOM      9  C3' N4B d   1      -0.828  -5.725  -5.278  0.00  0.00     0.004 C 
ATOM     10  C4' N4B d   1       0.480  -5.274  -4.700  0.00  0.00     0.003 C 
ENDBRANCH   8   9
ENDBRANCH   7   8
ENDBRANCH   1   7
TORSDOF 3
ENDMDL
