MODEL 1
REMARK minimizedAffinity -2.95184827
REMARK minimizedRMSD -1
REMARK  3 active torsions:
REMARK  status: ('A' for Active; 'I' for Inactive)
REMARK    1  A    between atoms: C3'_2  and  C2'_3 
REMARK    2  A    between atoms: C2'_3  and  C1'_4 
REMARK    3  A    between atoms: C1'_4  and  C1_5 
ROOT
ATOM      1  C1  N4B d   1      -3.992   1.123  -5.912  0.00  0.00    -0.075 A 
ATOM      2  C2  N4B d   1      -2.927   2.047  -5.834  0.00  0.00     0.002 A 
ATOM      3  C3  N4B d   1      -3.185   3.396  -5.842  0.00  0.00     0.002 A 
ATOM      4  C4  N4B d   1      -4.494   3.843  -5.944  0.00  0.00    -0.004 A 
ATOM      5  C5  N4B d   1      -5.520   2.944  -5.993  0.00  0.00     0.002 A 
ATOM      6  C6  N4B d   1      -5.275   1.585  -5.982  0.00  0.00     0.002 A 
ENDROOT
BRANCH   1   7
ATOM      7  C1' N4B d   1      -3.754  -0.360  -5.994  0.00  0.00     0.057 C 
BRANCH   7   8
ATOM      8  C2' N4B d   1      -5.034  -1.095  -5.610  0.00  0.00     0.009 C 
BRANCH   8   9
ATOM      9  C3' N4B d   1      -4.747  -2.464  -5.016  0.00  0.00     0.004 C 
ATOM     10  C4' N4B d   1      -4.113  -3.402  -6.000  0.00  0.00     0.003 C 
ENDBRANCH   8   9
ENDBRANCH   7   8
ENDBRANCH   1   7
TORSDOF 3
ENDMDL
