MODEL 1
REMARK minimizedAffinity 5.30785275
REMARK minimizedRMSD -1
REMARK  3 active torsions:
REMARK  status: ('A' for Active; 'I' for Inactive)
REMARK    1  A    between atoms: C3'_2  and  C2'_3 
REMARK    2  A    between atoms: C2'_3  and  C1'_4 
REMARK    3  A    between atoms: C1'_4  and  C1_5 
ROOT
ATOM      1  C1  N4B d   1      -0.821  -1.129  -0.634  0.00  0.00    -0.075 A 
ATOM      2  C2  N4B d   1       0.041  -0.440   0.248  0.00  0.00     0.002 A 
ATOM      3  C3  N4B d   1       1.213   0.101  -0.220  0.00  0.00     0.002 A 
ATOM      4  C4  N4B d   1       1.552  -0.049  -1.557  0.00  0.00    -0.004 A 
ATOM      5  C5  N4B d   1       0.702  -0.694  -2.407  0.00  0.00     0.002 A 
ATOM      6  C6  N4B d   1      -0.481  -1.240  -1.951  0.00  0.00     0.002 A 
ENDROOT
BRANCH   1   7
ATOM      7  C1' N4B d   1      -2.071  -1.812  -0.151  0.00  0.00     0.057 C 
BRANCH   7   8
ATOM      8  C2' N4B d   1      -3.009  -0.771   0.452  0.00  0.00     0.009 C 
BRANCH   8   9
ATOM      9  C3' N4B d   1      -4.450  -0.986   0.021  0.00  0.00     0.004 C 
ATOM     10  C4' N4B d   1      -5.238  -1.791   1.011  0.00  0.00     0.003 C 
ENDBRANCH   8   9
ENDBRANCH   7   8
ENDBRANCH   1   7
TORSDOF 3
ENDMDL
