MODEL 1
REMARK minimizedAffinity -2.97956038
REMARK minimizedRMSD -1
REMARK  3 active torsions:
REMARK  status: ('A' for Active; 'I' for Inactive)
REMARK    1  A    between atoms: C3'_2  and  C2'_3 
REMARK    2  A    between atoms: C2'_3  and  C1'_4 
REMARK    3  A    between atoms: C1'_4  and  C1_5 
ROOT
ATOM      1  C1  N4B d   1      -4.342   2.516  -5.919  0.00  0.00    -0.075 A 
ATOM      2  C2  N4B d   1      -4.869   3.824  -5.999  0.00  0.00     0.002 A 
ATOM      3  C3  N4B d   1      -4.032   4.909  -5.912  0.00  0.00     0.002 A 
ATOM      4  C4  N4B d   1      -2.672   4.712  -5.726  0.00  0.00    -0.004 A 
ATOM      5  C5  N4B d   1      -2.167   3.445  -5.675  0.00  0.00     0.002 A 
ATOM      6  C6  N4B d   1      -2.996   2.346  -5.766  0.00  0.00     0.002 A 
ENDROOT
BRANCH   1   7
ATOM      7  C1' N4B d   1      -5.228   1.301  -5.924  0.00  0.00     0.057 C 
BRANCH   7   8
ATOM      8  C2' N4B d   1      -4.360   0.048  -5.999  0.00  0.00     0.009 C 
BRANCH   8   9
ATOM      9  C3' N4B d   1      -5.193  -1.222  -6.000  0.00  0.00     0.004 C 
ATOM     10  C4' N4B d   1      -4.356  -2.466  -5.965  0.00  0.00     0.003 C 
ENDBRANCH   8   9
ENDBRANCH   7   8
ENDBRANCH   1   7
TORSDOF 3
ENDMDL
