MODEL 1
REMARK minimizedAffinity -0.48180142
REMARK minimizedRMSD -1
REMARK  3 active torsions:
REMARK  status: ('A' for Active; 'I' for Inactive)
REMARK    1  A    between atoms: C3'_2  and  C2'_3 
REMARK    2  A    between atoms: C2'_3  and  C1'_4 
REMARK    3  A    between atoms: C1'_4  and  C1_5 
ROOT
ATOM      1  C1  N4B d   1       1.062   0.686  -0.115  0.00  0.00    -0.075 A 
ATOM      2  C2  N4B d   1      -0.095  -0.022  -0.508  0.00  0.00     0.002 A 
ATOM      3  C3  N4B d   1      -0.136  -0.646  -1.730  0.00  0.00     0.002 A 
ATOM      4  C4  N4B d   1       0.956  -0.560  -2.581  0.00  0.00    -0.004 A 
ATOM      5  C5  N4B d   1       2.079   0.104  -2.184  0.00  0.00     0.002 A 
ATOM      6  C6  N4B d   1       2.135   0.733  -0.956  0.00  0.00     0.002 A 
ENDROOT
BRANCH   1   7
ATOM      7  C1' N4B d   1       1.121   1.457   1.176  0.00  0.00     0.057 C 
BRANCH   7   8
ATOM      8  C2' N4B d   1       1.574   2.885   0.886  0.00  0.00     0.009 C 
BRANCH   8   9
ATOM      9  C3' N4B d   1       1.998   3.614   2.150  0.00  0.00     0.004 C 
ATOM     10  C4' N4B d   1       1.951   5.105   2.003  0.00  0.00     0.003 C 
ENDBRANCH   8   9
ENDBRANCH   7   8
ENDBRANCH   1   7
TORSDOF 3
ENDMDL
