MODEL 1
REMARK minimizedAffinity 20.9152584
REMARK minimizedRMSD -1
REMARK  1 active torsions:
REMARK  status: ('A' for Active; 'I' for Inactive)
REMARK    1  A    between atoms: C1_2  and  C2_3 
ROOT
ATOM      1  C2  UNL d   1       3.865   3.648  -3.548  0.00  0.00    -0.076 A 
ATOM      2  C3  UNL d   1       4.167   2.371  -3.043  0.00  0.00     0.004 A 
ATOM      3  C4  UNL d   1       3.311   1.732  -2.148  0.00  0.00    -0.003 A 
ATOM      4  C5  UNL d   1       2.139   2.360  -1.742  0.00  0.00     0.000 A 
ATOM      5  C6  UNL d   1       1.814   3.619  -2.246  0.00  0.00     0.000 A 
ATOM      6  C7  UNL d   1       2.658   4.270  -3.163  0.00  0.00    -0.073 A 
ATOM      7  C8  UNL d   1       2.261   5.629  -3.669  0.00  0.00     0.078 C 
ENDROOT
BRANCH   1   8
ATOM      8  C1  UNL d   1       4.844   4.303  -4.495  0.00  0.00     0.053 C 
ATOM      9  C   UNL d   1       6.000   3.386  -4.865  0.00  0.00     0.018 C 
ENDBRANCH   1   8
TORSDOF 1
ENDMDL
