MODEL 1
REMARK minimizedAffinity 11.9821548
REMARK minimizedRMSD -1
REMARK  1 active torsions:
REMARK  status: ('A' for Active; 'I' for Inactive)
REMARK    1  A    between atoms: C1_2  and  C2_3 
ROOT
ATOM      1  C2  UNL d   1      -3.168  -2.915  -5.979  0.00  0.00    -0.076 A 
ATOM      2  C3  UNL d   1      -4.279  -3.776  -5.999  0.00  0.00     0.004 A 
ATOM      3  C4  UNL d   1      -5.578  -3.272  -5.997  0.00  0.00    -0.003 A 
ATOM      4  C5  UNL d   1      -5.788  -1.897  -5.976  0.00  0.00     0.000 A 
ATOM      5  C6  UNL d   1      -4.697  -1.028  -5.974  0.00  0.00     0.000 A 
ATOM      6  C7  UNL d   1      -3.381  -1.520  -5.992  0.00  0.00    -0.073 A 
ATOM      7  C8  UNL d   1      -2.242  -0.537  -5.983  0.00  0.00     0.078 C 
ENDROOT
BRANCH   1   8
ATOM      8  C1  UNL d   1      -1.783  -3.521  -5.955  0.00  0.00     0.053 C 
ATOM      9  C   UNL d   1      -0.686  -2.468  -5.990  0.00  0.00     0.018 C 
ENDBRANCH   1   8
TORSDOF 1
ENDMDL
