MODEL 1
REMARK minimizedAffinity 16.1698608
REMARK minimizedRMSD -1
REMARK  1 active torsions:
REMARK  status: ('A' for Active; 'I' for Inactive)
REMARK    1  A    between atoms: C1_2  and  C2_3 
ROOT
ATOM      1  C2  UNL d   1       5.544  -1.543   3.457  0.00  0.00    -0.076 A 
ATOM      2  C3  UNL d   1       5.565  -0.864   4.688  0.00  0.00     0.004 A 
ATOM      3  C4  UNL d   1       5.791  -1.549   5.881  0.00  0.00    -0.003 A 
ATOM      4  C5  UNL d   1       6.000  -2.923   5.863  0.00  0.00     0.000 A 
ATOM      5  C6  UNL d   1       6.000  -3.610   4.649  0.00  0.00     0.000 A 
ATOM      6  C7  UNL d   1       5.790  -2.933   3.436  0.00  0.00    -0.073 A 
ATOM      7  C8  UNL d   1       5.794  -3.725   2.157  0.00  0.00     0.078 C 
ENDROOT
BRANCH   1   8
ATOM      8  C1  UNL d   1       5.267  -0.753   2.198  0.00  0.00     0.053 C 
ATOM      9  C   UNL d   1       5.833   0.657   2.260  0.00  0.00     0.018 C 
ENDBRANCH   1   8
TORSDOF 1
ENDMDL
