MODEL 1
REMARK minimizedAffinity 1.14188945
REMARK minimizedRMSD -1
REMARK  1 active torsions:
REMARK  status: ('A' for Active; 'I' for Inactive)
REMARK    1  A    between atoms: C1_2  and  C2_3 
ROOT
ATOM      1  C2  UNL d   1      -0.672   0.741   2.434  0.00  0.00    -0.076 A 
ATOM      2  C3  UNL d   1      -1.804   1.139   3.167  0.00  0.00     0.004 A 
ATOM      3  C4  UNL d   1      -3.061   1.203   2.567  0.00  0.00    -0.003 A 
ATOM      4  C5  UNL d   1      -3.206   0.870   1.225  0.00  0.00     0.000 A 
ATOM      5  C6  UNL d   1      -2.097   0.456   0.488  0.00  0.00     0.000 A 
ATOM      6  C7  UNL d   1      -0.826   0.370   1.081  0.00  0.00    -0.073 A 
ATOM      7  C8  UNL d   1       0.336  -0.077   0.238  0.00  0.00     0.078 C 
ENDROOT
BRANCH   1   8
ATOM      8  C1  UNL d   1       0.669   0.717   3.131  0.00  0.00     0.053 C 
ATOM      9  C   UNL d   1       1.099   2.093   3.616  0.00  0.00     0.018 C 
ENDBRANCH   1   8
TORSDOF 1
ENDMDL
