MODEL 1
REMARK minimizedAffinity 8.11545372
REMARK minimizedRMSD -1
REMARK  1 active torsions:
REMARK  status: ('A' for Active; 'I' for Inactive)
REMARK    1  A    between atoms: C1_2  and  C2_3 
ROOT
ATOM      1  C2  UNL d   1      -3.175   1.254   2.619  0.00  0.00    -0.076 A 
ATOM      2  C3  UNL d   1      -3.695   1.782   1.424  0.00  0.00     0.004 A 
ATOM      3  C4  UNL d   1      -4.924   1.354   0.925  0.00  0.00    -0.003 A 
ATOM      4  C5  UNL d   1      -5.654   0.391   1.613  0.00  0.00     0.000 A 
ATOM      5  C6  UNL d   1      -5.162  -0.131   2.809  0.00  0.00     0.000 A 
ATOM      6  C7  UNL d   1      -3.932   0.302   3.335  0.00  0.00    -0.073 A 
ATOM      7  C8  UNL d   1      -3.447  -0.299   4.626  0.00  0.00     0.078 C 
ENDROOT
BRANCH   1   8
ATOM      8  C1  UNL d   1      -1.825   1.737   3.098  0.00  0.00     0.053 C 
ATOM      9  C   UNL d   1      -0.747   0.671   2.973  0.00  0.00     0.018 C 
ENDBRANCH   1   8
TORSDOF 1
ENDMDL
