MODEL 1
REMARK minimizedAffinity 0.710366845
REMARK minimizedRMSD -1
REMARK  1 active torsions:
REMARK  status: ('A' for Active; 'I' for Inactive)
REMARK    1  A    between atoms: C1_2  and  C2_3 
ROOT
ATOM      1  C2  UNL d   1      -2.935  -1.139   0.823  0.00  0.00    -0.076 A 
ATOM      2  C3  UNL d   1      -3.721  -2.261   0.506  0.00  0.00     0.004 A 
ATOM      3  C4  UNL d   1      -3.147  -3.524   0.368  0.00  0.00    -0.003 A 
ATOM      4  C5  UNL d   1      -1.777  -3.685   0.545  0.00  0.00     0.000 A 
ATOM      5  C6  UNL d   1      -0.985  -2.586   0.877  0.00  0.00     0.000 A 
ATOM      6  C7  UNL d   1      -1.550  -1.310   1.036  0.00  0.00    -0.073 A 
ATOM      7  C8  UNL d   1      -0.648  -0.159   1.388  0.00  0.00     0.078 C 
ENDROOT
BRANCH   1   8
ATOM      8  C1  UNL d   1      -3.609   0.209   0.933  0.00  0.00     0.053 C 
ATOM      9  C   UNL d   1      -3.340   0.888   2.267  0.00  0.00     0.018 C 
ENDBRANCH   1   8
TORSDOF 1
ENDMDL
