MODEL 1
REMARK minimizedAffinity 4.64332199
REMARK minimizedRMSD -1
REMARK  1 active torsions:
REMARK  status: ('A' for Active; 'I' for Inactive)
REMARK    1  A    between atoms: C1_2  and  C2_3 
ROOT
ATOM      1  C2  UNL d   1      -3.468  -0.613   0.969  0.00  0.00    -0.076 A 
ATOM      2  C3  UNL d   1      -2.105  -0.881   1.188  0.00  0.00     0.004 A 
ATOM      3  C4  UNL d   1      -1.320  -0.025   1.958  0.00  0.00    -0.003 A 
ATOM      4  C5  UNL d   1      -1.885   1.114   2.523  0.00  0.00     0.000 A 
ATOM      5  C6  UNL d   1      -3.240   1.386   2.331  0.00  0.00     0.000 A 
ATOM      6  C7  UNL d   1      -4.049   0.524   1.570  0.00  0.00    -0.073 A 
ATOM      7  C8  UNL d   1      -5.502   0.869   1.391  0.00  0.00     0.078 C 
ENDROOT
BRANCH   1   8
ATOM      8  C1  UNL d   1      -4.263  -1.564   0.103  0.00  0.00     0.053 C 
ATOM      9  C   UNL d   1      -3.721  -2.984   0.147  0.00  0.00     0.018 C 
ENDBRANCH   1   8
TORSDOF 1
ENDMDL
