MODEL 1
REMARK minimizedAffinity 10.8090544
REMARK minimizedRMSD -1
REMARK  1 active torsions:
REMARK  status: ('A' for Active; 'I' for Inactive)
REMARK    1  A    between atoms: C1_2  and  C2_3 
ROOT
ATOM      1  C2  UNL d   1      -3.446   1.263   2.736  0.00  0.00    -0.076 A 
ATOM      2  C3  UNL d   1      -2.296   1.576   3.482  0.00  0.00     0.004 A 
ATOM      3  C4  UNL d   1      -1.023   1.277   2.998  0.00  0.00    -0.003 A 
ATOM      4  C5  UNL d   1      -0.880   0.660   1.760  0.00  0.00     0.000 A 
ATOM      5  C6  UNL d   1      -2.009   0.358   0.999  0.00  0.00     0.000 A 
ATOM      6  C7  UNL d   1      -3.298   0.667   1.465  0.00  0.00    -0.073 A 
ATOM      7  C8  UNL d   1      -4.481   0.314   0.606  0.00  0.00     0.078 C 
ENDROOT
BRANCH   1   8
ATOM      8  C1  UNL d   1      -4.800   1.586   3.324  0.00  0.00     0.053 C 
ATOM      9  C   UNL d   1      -4.940   1.110   4.762  0.00  0.00     0.018 C 
ENDBRANCH   1   8
TORSDOF 1
ENDMDL
