MODEL 1
REMARK minimizedAffinity 14.5581579
REMARK minimizedRMSD -1
REMARK  1 active torsions:
REMARK  status: ('A' for Active; 'I' for Inactive)
REMARK    1  A    between atoms: C1_2  and  C2_3 
ROOT
ATOM      1  C2  UNL d   1       2.661   0.624   2.762  0.00  0.00    -0.076 A 
ATOM      2  C3  UNL d   1       3.429  -0.197   3.606  0.00  0.00     0.004 A 
ATOM      3  C4  UNL d   1       4.714  -0.596   3.243  0.00  0.00    -0.003 A 
ATOM      4  C5  UNL d   1       5.253  -0.180   2.030  0.00  0.00     0.000 A 
ATOM      5  C6  UNL d   1       4.511   0.649   1.189  0.00  0.00     0.000 A 
ATOM      6  C7  UNL d   1       3.220   1.074   1.547  0.00  0.00    -0.073 A 
ATOM      7  C8  UNL d   1       2.464   1.963   0.599  0.00  0.00     0.078 C 
ENDROOT
BRANCH   1   8
ATOM      8  C1  UNL d   1       1.263   1.002   3.196  0.00  0.00     0.053 C 
ATOM      9  C   UNL d   1       0.334  -0.199   3.282  0.00  0.00     0.018 C 
ENDBRANCH   1   8
TORSDOF 1
ENDMDL
