MODEL 1
REMARK minimizedAffinity 4.43029833
REMARK minimizedRMSD -1
REMARK  1 active torsions:
REMARK  status: ('A' for Active; 'I' for Inactive)
REMARK    1  A    between atoms: C1_2  and  C2_3 
ROOT
ATOM      1  C2  UNL d   1      -5.344  -1.353   2.692  0.00  0.00    -0.076 A 
ATOM      2  C3  UNL d   1      -5.354  -0.275   3.594  0.00  0.00     0.004 A 
ATOM      3  C4  UNL d   1      -4.850   0.971   3.228  0.00  0.00    -0.003 A 
ATOM      4  C5  UNL d   1      -4.328   1.161   1.954  0.00  0.00     0.000 A 
ATOM      5  C6  UNL d   1      -4.326   0.107   1.040  0.00  0.00     0.000 A 
ATOM      6  C7  UNL d   1      -4.845  -1.151   1.387  0.00  0.00    -0.073 A 
ATOM      7  C8  UNL d   1      -4.813  -2.253   0.364  0.00  0.00     0.078 C 
ENDROOT
BRANCH   1   8
ATOM      8  C1  UNL d   1      -5.880  -2.690   3.154  0.00  0.00     0.053 C 
ATOM      9  C   UNL d   1      -5.638  -2.933   4.636  0.00  0.00     0.018 C 
ENDBRANCH   1   8
TORSDOF 1
ENDMDL
