MODEL 1
REMARK minimizedAffinity 0.54657197
REMARK minimizedRMSD -1
REMARK  1 active torsions:
REMARK  status: ('A' for Active; 'I' for Inactive)
REMARK    1  A    between atoms: C1_2  and  C2_3 
ROOT
ATOM      1  C2  UNL d   1      -4.846   1.440   3.288  0.00  0.00    -0.076 A 
ATOM      2  C3  UNL d   1      -3.749   0.836   3.927  0.00  0.00     0.004 A 
ATOM      3  C4  UNL d   1      -2.670   0.348   3.191  0.00  0.00    -0.003 A 
ATOM      4  C5  UNL d   1      -2.670   0.458   1.805  0.00  0.00     0.000 A 
ATOM      5  C6  UNL d   1      -3.742   1.070   1.156  0.00  0.00     0.000 A 
ATOM      6  C7  UNL d   1      -4.830   1.582   1.884  0.00  0.00    -0.073 A 
ATOM      7  C8  UNL d   1      -5.962   2.227   1.132  0.00  0.00     0.078 C 
ENDROOT
BRANCH   1   8
ATOM      8  C1  UNL d   1      -6.000   1.926   4.136  0.00  0.00     0.053 C 
ATOM      9  C   UNL d   1      -5.624   3.118   5.003  0.00  0.00     0.018 C 
ENDBRANCH   1   8
TORSDOF 1
ENDMDL
