MODEL 1
REMARK minimizedAffinity 8.9759655
REMARK minimizedRMSD -1
REMARK  1 active torsions:
REMARK  status: ('A' for Active; 'I' for Inactive)
REMARK    1  A    between atoms: C1_2  and  C2_3 
ROOT
ATOM      1  C2  UNL d   1      -2.629  -0.766   1.157  0.00  0.00    -0.076 A 
ATOM      2  C3  UNL d   1      -1.909  -1.965   1.019  0.00  0.00     0.004 A 
ATOM      3  C4  UNL d   1      -2.514  -3.109   0.501  0.00  0.00    -0.003 A 
ATOM      4  C5  UNL d   1      -3.848  -3.072   0.112  0.00  0.00     0.000 A 
ATOM      5  C6  UNL d   1      -4.573  -1.886   0.225  0.00  0.00     0.000 A 
ATOM      6  C7  UNL d   1      -3.974  -0.719   0.730  0.00  0.00    -0.073 A 
ATOM      7  C8  UNL d   1      -4.804   0.531   0.836  0.00  0.00     0.078 C 
ENDROOT
BRANCH   1   8
ATOM      8  C1  UNL d   1      -1.929   0.436   1.751  0.00  0.00     0.053 C 
ATOM      9  C   UNL d   1      -1.207   0.107   3.049  0.00  0.00     0.018 C 
ENDBRANCH   1   8
TORSDOF 1
ENDMDL
