MODEL 1
REMARK minimizedAffinity 6.64333868
REMARK minimizedRMSD -1
REMARK  1 active torsions:
REMARK  status: ('A' for Active; 'I' for Inactive)
REMARK    1  A    between atoms: C1_2  and  C2_3 
ROOT
ATOM      1  C2  UNL d   1      -3.545  -0.035   1.424  0.00  0.00    -0.076 A 
ATOM      2  C3  UNL d   1      -2.309  -0.023   0.755  0.00  0.00     0.004 A 
ATOM      3  C4  UNL d   1      -1.145   0.383   1.406  0.00  0.00    -0.003 A 
ATOM      4  C5  UNL d   1      -1.198   0.783   2.736  0.00  0.00     0.000 A 
ATOM      5  C6  UNL d   1      -2.413   0.760   3.421  0.00  0.00     0.000 A 
ATOM      6  C7  UNL d   1      -3.593   0.338   2.785  0.00  0.00    -0.073 A 
ATOM      7  C8  UNL d   1      -4.876   0.339   3.569  0.00  0.00     0.078 C 
ENDROOT
BRANCH   1   8
ATOM      8  C1  UNL d   1      -4.779  -0.459   0.660  0.00  0.00     0.053 C 
ATOM      9  C   UNL d   1      -4.689  -1.892   0.157  0.00  0.00     0.018 C 
ENDBRANCH   1   8
TORSDOF 1
ENDMDL
