MODEL 1
REMARK minimizedAffinity 6.87071562
REMARK minimizedRMSD -1
REMARK  1 active torsions:
REMARK  status: ('A' for Active; 'I' for Inactive)
REMARK    1  A    between atoms: C1_2  and  C2_3 
ROOT
ATOM      1  C2  UNL d   1      -1.090   0.813   2.510  0.00  0.00    -0.076 A 
ATOM      2  C3  UNL d   1      -1.340   2.192   2.403  0.00  0.00     0.004 A 
ATOM      3  C4  UNL d   1      -0.515   3.122   3.033  0.00  0.00    -0.003 A 
ATOM      4  C5  UNL d   1       0.574   2.688   3.780  0.00  0.00     0.000 A 
ATOM      5  C6  UNL d   1       0.848   1.324   3.882  0.00  0.00     0.000 A 
ATOM      6  C7  UNL d   1       0.036   0.375   3.239  0.00  0.00    -0.073 A 
ATOM      7  C8  UNL d   1       0.374  -1.084   3.388  0.00  0.00     0.078 C 
ENDROOT
BRANCH   1   8
ATOM      8  C1  UNL d   1      -2.035  -0.150   1.827  0.00  0.00     0.053 C 
ATOM      9  C   UNL d   1      -3.132   0.563   1.050  0.00  0.00     0.018 C 
ENDBRANCH   1   8
TORSDOF 1
ENDMDL
