MODEL 1
REMARK minimizedAffinity 5.30502701
REMARK minimizedRMSD -1
REMARK  1 active torsions:
REMARK  status: ('A' for Active; 'I' for Inactive)
REMARK    1  A    between atoms: C1_2  and  C2_3 
ROOT
ATOM      1  C2  UNL d   1      -3.391  -0.467   1.083  0.00  0.00    -0.076 A 
ATOM      2  C3  UNL d   1      -2.145  -0.843   1.615  0.00  0.00     0.004 A 
ATOM      3  C4  UNL d   1      -1.397   0.043   2.388  0.00  0.00    -0.003 A 
ATOM      4  C5  UNL d   1      -1.883   1.321   2.643  0.00  0.00     0.000 A 
ATOM      5  C6  UNL d   1      -3.125   1.705   2.139  0.00  0.00     0.000 A 
ATOM      6  C7  UNL d   1      -3.899   0.818   1.371  0.00  0.00    -0.073 A 
ATOM      7  C8  UNL d   1      -5.229   1.288   0.848  0.00  0.00     0.078 C 
ENDROOT
BRANCH   1   8
ATOM      8  C1  UNL d   1      -4.145  -1.461   0.230  0.00  0.00     0.053 C 
ATOM      9  C   UNL d   1      -3.484  -2.831   0.210  0.00  0.00     0.018 C 
ENDBRANCH   1   8
TORSDOF 1
ENDMDL
