MODEL 1
REMARK minimizedAffinity 12.0093718
REMARK minimizedRMSD -1
REMARK  0 active torsions:
REMARK  status: ('A' for Active; 'I' for Inactive)
ROOT
ATOM      1  C   UNL d   1       4.753   0.917  -0.332  0.00  0.00    -0.002 A 
ATOM      2  C1  UNL d   1       3.728   0.218   0.289  0.00  0.00     0.010 A 
ATOM      3  C2  UNL d   1       3.026  -0.774  -0.399  0.00  0.00     0.041 A 
ATOM      4  C3  UNL d   1       3.377  -1.055  -1.734  0.00  0.00    -0.075 A 
ATOM      5  S   UNL d   1       2.657  -2.228  -2.773  0.00  0.00     0.015 SA
ATOM      6  C4  UNL d   1       3.694  -1.830  -4.065  0.00  0.00     0.022 A 
ATOM      7  C5  UNL d   1       4.574  -0.828  -3.730  0.00  0.00     0.026 A 
ATOM      8  C6  UNL d   1       4.406  -0.366  -2.381  0.00  0.00    -0.082 A 
ATOM      9  C7  UNL d   1       5.098   0.635  -1.657  0.00  0.00     0.045 A 
ENDROOT
TORSDOF 0
ENDMDL
