MODEL 1
REMARK minimizedAffinity 18.1467171
REMARK minimizedRMSD -1
REMARK  0 active torsions:
REMARK  status: ('A' for Active; 'I' for Inactive)
ROOT
ATOM      1  C   UNL d   1       0.204  -4.984  -1.362  0.00  0.00    -0.002 A 
ATOM      2  C1  UNL d   1       1.213  -4.052  -1.557  0.00  0.00     0.010 A 
ATOM      3  C2  UNL d   1       0.913  -2.763  -2.002  0.00  0.00     0.041 A 
ATOM      4  C3  UNL d   1      -0.432  -2.423  -2.249  0.00  0.00    -0.075 A 
ATOM      5  S   UNL d   1      -1.036  -0.905  -2.799  0.00  0.00     0.015 SA
ATOM      6  C4  UNL d   1      -2.648  -1.457  -2.786  0.00  0.00     0.022 A 
ATOM      7  C5  UNL d   1      -2.741  -2.766  -2.376  0.00  0.00     0.026 A 
ATOM      8  C6  UNL d   1      -1.466  -3.344  -2.059  0.00  0.00    -0.082 A 
ATOM      9  C7  UNL d   1      -1.129  -4.643  -1.607  0.00  0.00     0.045 A 
ENDROOT
TORSDOF 0
ENDMDL
