MODEL 1
REMARK minimizedAffinity 14.2563534
REMARK minimizedRMSD -1
REMARK  0 active torsions:
REMARK  status: ('A' for Active; 'I' for Inactive)
ROOT
ATOM      1  C   UNL d   1      -5.323  -0.102  -4.897  0.00  0.00    -0.002 A 
ATOM      2  C1  UNL d   1      -4.157   0.218  -5.579  0.00  0.00     0.010 A 
ATOM      3  C2  UNL d   1      -3.640   1.514  -5.531  0.00  0.00     0.041 A 
ATOM      4  C3  UNL d   1      -4.320   2.492  -4.777  0.00  0.00    -0.075 A 
ATOM      5  S   UNL d   1      -3.872   4.144  -4.573  0.00  0.00     0.015 SA
ATOM      6  C4  UNL d   1      -5.216   4.463  -3.575  0.00  0.00     0.022 A 
ATOM      7  C5  UNL d   1      -5.998   3.347  -3.392  0.00  0.00     0.026 A 
ATOM      8  C6  UNL d   1      -5.494   2.193  -4.081  0.00  0.00    -0.082 A 
ATOM      9  C7  UNL d   1      -5.994   0.870  -4.150  0.00  0.00     0.045 A 
ENDROOT
TORSDOF 0
ENDMDL
