MODEL 1
REMARK minimizedAffinity 23.0939083
REMARK minimizedRMSD -1
REMARK  0 active torsions:
REMARK  status: ('A' for Active; 'I' for Inactive)
ROOT
ATOM      1  C   UNL d   1      -1.247  -5.003  -2.527  0.00  0.00    -0.002 A 
ATOM      2  C1  UNL d   1       0.091  -5.047  -2.164  0.00  0.00     0.010 A 
ATOM      3  C2  UNL d   1       0.828  -3.868  -2.024  0.00  0.00     0.041 A 
ATOM      4  C3  UNL d   1       0.189  -2.634  -2.255  0.00  0.00    -0.075 A 
ATOM      5  S   UNL d   1       0.891  -1.064  -2.142  0.00  0.00     0.015 SA
ATOM      6  C4  UNL d   1      -0.569  -0.298  -2.572  0.00  0.00     0.022 A 
ATOM      7  C5  UNL d   1      -1.578  -1.204  -2.800  0.00  0.00     0.026 A 
ATOM      8  C6  UNL d   1      -1.158  -2.565  -2.621  0.00  0.00    -0.082 A 
ATOM      9  C7  UNL d   1      -1.877  -3.777  -2.756  0.00  0.00     0.045 A 
ENDROOT
TORSDOF 0
ENDMDL
