MODEL 1
REMARK minimizedAffinity 14.3111343
REMARK minimizedRMSD -1
REMARK  0 active torsions:
REMARK  status: ('A' for Active; 'I' for Inactive)
ROOT
ATOM      1  C   UNL d   1       3.720  -0.563  -0.333  0.00  0.00    -0.002 A 
ATOM      2  C1  UNL d   1       4.254  -0.290  -1.584  0.00  0.00     0.010 A 
ATOM      3  C2  UNL d   1       3.902  -1.064  -2.691  0.00  0.00     0.041 A 
ATOM      4  C3  UNL d   1       2.994  -2.127  -2.519  0.00  0.00    -0.075 A 
ATOM      5  S   UNL d   1       2.418  -3.209  -3.731  0.00  0.00     0.015 SA
ATOM      6  C4  UNL d   1       1.448  -4.059  -2.617  0.00  0.00     0.022 A 
ATOM      7  C5  UNL d   1       1.550  -3.544  -1.346  0.00  0.00     0.026 A 
ATOM      8  C6  UNL d   1       2.442  -2.422  -1.269  0.00  0.00    -0.082 A 
ATOM      9  C7  UNL d   1       2.820  -1.619  -0.166  0.00  0.00     0.045 A 
ENDROOT
TORSDOF 0
ENDMDL
