MODEL 1
REMARK minimizedAffinity 9.54797268
REMARK minimizedRMSD -1
REMARK  0 active torsions:
REMARK  status: ('A' for Active; 'I' for Inactive)
ROOT
ATOM      1  C   UNL d   1       2.733  -1.412   0.870  0.00  0.00    -0.002 A 
ATOM      2  C1  UNL d   1       3.369  -0.713  -0.147  0.00  0.00     0.010 A 
ATOM      3  C2  UNL d   1       3.208  -1.096  -1.480  0.00  0.00     0.041 A 
ATOM      4  C3  UNL d   1       2.387  -2.201  -1.777  0.00  0.00    -0.075 A 
ATOM      5  S   UNL d   1       2.042  -2.850  -3.337  0.00  0.00     0.015 SA
ATOM      6  C4  UNL d   1       1.041  -4.069  -2.691  0.00  0.00     0.022 A 
ATOM      7  C5  UNL d   1       0.961  -3.998  -1.320  0.00  0.00     0.026 A 
ATOM      8  C6  UNL d   1       1.735  -2.920  -0.771  0.00  0.00    -0.082 A 
ATOM      9  C7  UNL d   1       1.919  -2.508   0.571  0.00  0.00     0.045 A 
ENDROOT
TORSDOF 0
ENDMDL
