MODEL 1
REMARK minimizedAffinity 19.2275906
REMARK minimizedRMSD -1
REMARK  0 active torsions:
REMARK  status: ('A' for Active; 'I' for Inactive)
ROOT
ATOM      1  C   UNL d   1       4.940  -0.302  -2.239  0.00  0.00    -0.002 A 
ATOM      2  C1  UNL d   1       6.000  -1.120  -2.604  0.00  0.00     0.010 A 
ATOM      3  C2  UNL d   1       5.767  -2.382  -3.154  0.00  0.00     0.041 A 
ATOM      4  C3  UNL d   1       4.438  -2.811  -3.335  0.00  0.00    -0.075 A 
ATOM      5  S   UNL d   1       3.912  -4.317  -3.991  0.00  0.00     0.015 SA
ATOM      6  C4  UNL d   1       2.268  -3.909  -3.804  0.00  0.00     0.022 A 
ATOM      7  C5  UNL d   1       2.105  -2.659  -3.255  0.00  0.00     0.026 A 
ATOM      8  C6  UNL d   1       3.353  -2.005  -2.977  0.00  0.00    -0.082 A 
ATOM      9  C7  UNL d   1       3.622  -0.732  -2.420  0.00  0.00     0.045 A 
ENDROOT
TORSDOF 0
ENDMDL
