MODEL 1
REMARK minimizedAffinity -1.34494555
REMARK minimizedRMSD -1
REMARK  0 active torsions:
REMARK  status: ('A' for Active; 'I' for Inactive)
ROOT
ATOM      1  O1  BZF d   1      -1.131   0.875  -1.095  0.00  0.00    -0.204 OA
ATOM      2  C2  BZF d   1      -0.054   0.552  -1.897  0.00  0.00     0.174 A 
ATOM      3  C3  BZF d   1       0.969   0.079  -1.156  0.00  0.00    -0.012 A 
ATOM      4  C3A BZF d   1       0.469   0.022   0.183  0.00  0.00    -0.107 A 
ATOM      5  C4  BZF d   1       1.009  -0.379   1.371  0.00  0.00     0.055 A 
ATOM      6  C5  BZF d   1       0.280  -0.239   2.509  0.00  0.00    -0.016 A 
ATOM      7  C6  BZF d   1      -0.988   0.302   2.497  0.00  0.00     0.022 A 
ATOM      8  C7  BZF d   1      -1.569   0.709   1.342  0.00  0.00     0.029 A 
ATOM      9  C7A BZF d   1      -0.848   0.538   0.186  0.00  0.00     0.058 A 
ENDROOT
TORSDOF 0
ENDMDL
