MODEL 1
REMARK minimizedAffinity -1.58256018
REMARK minimizedRMSD -1
REMARK  0 active torsions:
REMARK  status: ('A' for Active; 'I' for Inactive)
ROOT
ATOM      1  O1  BZF d   1       1.482   0.011  -0.993  0.00  0.00    -0.204 OA
ATOM      2  C2  BZF d   1       0.661  -0.131  -2.095  0.00  0.00     0.174 A 
ATOM      3  C3  BZF d   1      -0.625  -0.285  -1.717  0.00  0.00    -0.012 A 
ATOM      4  C3A BZF d   1      -0.618  -0.144  -0.293  0.00  0.00    -0.107 A 
ATOM      5  C4  BZF d   1      -1.596  -0.181   0.659  0.00  0.00     0.055 A 
ATOM      6  C5  BZF d   1      -1.248  -0.081   1.969  0.00  0.00    -0.016 A 
ATOM      7  C6  BZF d   1       0.068   0.051   2.362  0.00  0.00     0.022 A 
ATOM      8  C7  BZF d   1       1.073   0.097   1.454  0.00  0.00     0.029 A 
ATOM      9  C7A BZF d   1       0.721   0.030   0.128  0.00  0.00     0.058 A 
ENDROOT
TORSDOF 0
ENDMDL
