MODEL 1
REMARK minimizedAffinity -2.00335622
REMARK minimizedRMSD -1
REMARK  0 active torsions:
REMARK  status: ('A' for Active; 'I' for Inactive)
ROOT
ATOM      1  O1  BZF d   1      -0.825   0.814  -1.264  0.00  0.00    -0.204 OA
ATOM      2  C2  BZF d   1       0.272   0.499  -2.042  0.00  0.00     0.174 A 
ATOM      3  C3  BZF d   1       1.280   0.030  -1.279  0.00  0.00    -0.012 A 
ATOM      4  C3A BZF d   1       0.750  -0.032   0.049  0.00  0.00    -0.107 A 
ATOM      5  C4  BZF d   1       1.267  -0.432   1.248  0.00  0.00     0.055 A 
ATOM      6  C5  BZF d   1       0.511  -0.299   2.370  0.00  0.00    -0.016 A 
ATOM      7  C6  BZF d   1      -0.760   0.234   2.330  0.00  0.00     0.022 A 
ATOM      8  C7  BZF d   1      -1.317   0.640   1.163  0.00  0.00     0.029 A 
ATOM      9  C7A BZF d   1      -0.569   0.476   0.023  0.00  0.00     0.058 A 
ENDROOT
TORSDOF 0
ENDMDL
