MODEL 1
REMARK minimizedAffinity -4.95147657
REMARK minimizedRMSD -1
REMARK  0 active torsions:
REMARK  status: ('A' for Active; 'I' for Inactive)
ROOT
ATOM      1  O1  BZF d   1      -0.634   1.086  -0.446  0.00  0.00    -0.204 OA
ATOM      2  C2  BZF d   1       0.745   1.087  -0.365  0.00  0.00     0.174 A 
ATOM      3  C3  BZF d   1       1.153   0.689   0.858  0.00  0.00    -0.012 A 
ATOM      4  C3A BZF d   1      -0.044   0.335   1.557  0.00  0.00    -0.107 A 
ATOM      5  C4  BZF d   1      -0.291  -0.147   2.810  0.00  0.00     0.055 A 
ATOM      6  C5  BZF d   1      -1.579  -0.319   3.210  0.00  0.00    -0.016 A 
ATOM      7  C6  BZF d   1      -2.642  -0.014   2.386  0.00  0.00     0.022 A 
ATOM      8  C7  BZF d   1      -2.447   0.463   1.132  0.00  0.00     0.029 A 
ATOM      9  C7A BZF d   1      -1.146   0.606   0.713  0.00  0.00     0.058 A 
ENDROOT
TORSDOF 0
ENDMDL
