MODEL 1
REMARK minimizedAffinity -4.26616096
REMARK minimizedRMSD -1
REMARK  0 active torsions:
REMARK  status: ('A' for Active; 'I' for Inactive)
ROOT
ATOM      1  O1  BZF d   1      -0.485  -1.398  -1.381  0.00  0.00    -0.204 OA
ATOM      2  C2  BZF d   1       0.216  -0.538  -2.204  0.00  0.00     0.174 A 
ATOM      3  C3  BZF d   1       0.643   0.540  -1.516  0.00  0.00    -0.012 A 
ATOM      4  C3A BZF d   1       0.259   0.298  -0.159  0.00  0.00    -0.107 A 
ATOM      5  C4  BZF d   1       0.418   1.000   1.001  0.00  0.00     0.055 A 
ATOM      6  C5  BZF d   1      -0.139   0.520   2.145  0.00  0.00    -0.016 A 
ATOM      7  C6  BZF d   1      -0.864  -0.653   2.163  0.00  0.00     0.022 A 
ATOM      8  C7  BZF d   1      -1.044  -1.387   1.037  0.00  0.00     0.029 A 
ATOM      9  C7A BZF d   1      -0.455  -0.922  -0.113  0.00  0.00     0.058 A 
ENDROOT
TORSDOF 0
ENDMDL
