MODEL 1
REMARK minimizedAffinity -4.43208885
REMARK minimizedRMSD -1
REMARK  0 active torsions:
REMARK  status: ('A' for Active; 'I' for Inactive)
ROOT
ATOM      1  O1  BZF d   1      -0.858   0.220  -0.742  0.00  0.00    -0.204 OA
ATOM      2  C2  BZF d   1       0.482   0.544  -0.829  0.00  0.00     0.174 A 
ATOM      3  C3  BZF d   1       1.061   0.517   0.389  0.00  0.00    -0.012 A 
ATOM      4  C3A BZF d   1       0.039   0.063   1.281  0.00  0.00    -0.107 A 
ATOM      5  C4  BZF d   1       0.007  -0.183   2.624  0.00  0.00     0.055 A 
ATOM      6  C5  BZF d   1      -1.168  -0.547   3.201  0.00  0.00    -0.016 A 
ATOM      7  C6  BZF d   1      -2.330  -0.669   2.467  0.00  0.00     0.022 A 
ATOM      8  C7  BZF d   1      -2.346  -0.440   1.132  0.00  0.00     0.029 A 
ATOM      9  C7A BZF d   1      -1.153  -0.104   0.540  0.00  0.00     0.058 A 
ENDROOT
TORSDOF 0
ENDMDL
