MODEL 1
REMARK minimizedAffinity -4.90209866
REMARK minimizedRMSD -1
REMARK  0 active torsions:
REMARK  status: ('A' for Active; 'I' for Inactive)
ROOT
ATOM      1  O1  BZF d   1      -0.935   0.715  -0.429  0.00  0.00    -0.204 OA
ATOM      2  C2  BZF d   1       0.373   0.792  -0.867  0.00  0.00     0.174 A 
ATOM      3  C3  BZF d   1       1.224   0.374   0.092  0.00  0.00    -0.012 A 
ATOM      4  C3A BZF d   1       0.391  -0.073   1.165  0.00  0.00    -0.107 A 
ATOM      5  C4  BZF d   1       0.650  -0.615   2.392  0.00  0.00     0.055 A 
ATOM      6  C5  BZF d   1      -0.386  -0.874   3.232  0.00  0.00    -0.016 A 
ATOM      7  C6  BZF d   1      -1.692  -0.600   2.880  0.00  0.00     0.022 A 
ATOM      8  C7  BZF d   1      -1.999  -0.068   1.672  0.00  0.00     0.029 A 
ATOM      9  C7A BZF d   1      -0.957   0.165   0.809  0.00  0.00     0.058 A 
ENDROOT
TORSDOF 0
ENDMDL
