MODEL 1
REMARK minimizedAffinity -0.684607327
REMARK minimizedRMSD -1
REMARK  0 active torsions:
REMARK  status: ('A' for Active; 'I' for Inactive)
ROOT
ATOM      1  O1  BZF d   1      -2.259   0.796   0.357  0.00  0.00    -0.204 OA
ATOM      2  C2  BZF d   1      -2.131   0.828  -1.018  0.00  0.00     0.174 A 
ATOM      3  C3  BZF d   1      -0.838   0.699  -1.381  0.00  0.00    -0.012 A 
ATOM      4  C3A BZF d   1      -0.124   0.487  -0.160  0.00  0.00    -0.107 A 
ATOM      5  C4  BZF d   1       1.193   0.275   0.133  0.00  0.00     0.055 A 
ATOM      6  C5  BZF d   1       1.573   0.178   1.434  0.00  0.00    -0.016 A 
ATOM      7  C6  BZF d   1       0.665   0.293   2.466  0.00  0.00     0.022 A 
ATOM      8  C7  BZF d   1      -0.653   0.499   2.225  0.00  0.00     0.029 A 
ATOM      9  C7A BZF d   1      -1.045   0.564   0.910  0.00  0.00     0.058 A 
ENDROOT
TORSDOF 0
ENDMDL
