MODEL 1
REMARK minimizedAffinity -2.88611603
REMARK minimizedRMSD -1
REMARK  0 active torsions:
REMARK  status: ('A' for Active; 'I' for Inactive)
ROOT
ATOM      1  O1  BZF d   1       0.360  -0.340  -0.601  0.00  0.00    -0.204 OA
ATOM      2  C2  BZF d   1       1.664   0.092  -0.453  0.00  0.00     0.174 A 
ATOM      3  C3  BZF d   1       1.945   0.329   0.845  0.00  0.00    -0.012 A 
ATOM      4  C3A BZF d   1       0.770  -0.062   1.561  0.00  0.00    -0.107 A 
ATOM      5  C4  BZF d   1       0.440  -0.077   2.887  0.00  0.00     0.055 A 
ATOM      6  C5  BZF d   1      -0.816  -0.449   3.250  0.00  0.00    -0.016 A 
ATOM      7  C6  BZF d   1      -1.767  -0.805   2.317  0.00  0.00     0.022 A 
ATOM      8  C7  BZF d   1      -1.485  -0.810   0.991  0.00  0.00     0.029 A 
ATOM      9  C7A BZF d   1      -0.207  -0.467   0.622  0.00  0.00     0.058 A 
ENDROOT
TORSDOF 0
ENDMDL
