MODEL 1
REMARK minimizedAffinity -4.14496326
REMARK minimizedRMSD -1
REMARK  0 active torsions:
REMARK  status: ('A' for Active; 'I' for Inactive)
ROOT
ATOM      1  O1  BZF d   1       1.351   0.324  -0.623  0.00  0.00    -0.204 OA
ATOM      2  C2  BZF d   1       0.497   0.009  -1.662  0.00  0.00     0.174 A 
ATOM      3  C3  BZF d   1      -0.666  -0.488  -1.192  0.00  0.00    -0.012 A 
ATOM      4  C3A BZF d   1      -0.565  -0.397   0.232  0.00  0.00    -0.107 A 
ATOM      5  C4  BZF d   1      -1.409  -0.719   1.256  0.00  0.00     0.055 A 
ATOM      6  C5  BZF d   1      -0.980  -0.575   2.537  0.00  0.00    -0.016 A 
ATOM      7  C6  BZF d   1       0.288  -0.117   2.831  0.00  0.00     0.022 A 
ATOM      8  C7  BZF d   1       1.160   0.220   1.849  0.00  0.00     0.029 A 
ATOM      9  C7A BZF d   1       0.717   0.107   0.554  0.00  0.00     0.058 A 
ENDROOT
TORSDOF 0
ENDMDL
