MODEL 1
REMARK minimizedAffinity -5.04307175
REMARK minimizedRMSD -1
REMARK  0 active torsions:
REMARK  status: ('A' for Active; 'I' for Inactive)
ROOT
ATOM      1  O1  BZF d   1       0.389  -0.453   2.808  0.00  0.00    -0.204 OA
ATOM      2  C2  BZF d   1      -0.960  -0.670   3.015  0.00  0.00     0.174 A 
ATOM      3  C3  BZF d   1      -1.649  -0.531   1.864  0.00  0.00    -0.012 A 
ATOM      4  C3A BZF d   1      -0.658  -0.298   0.858  0.00  0.00    -0.107 A 
ATOM      5  C4  BZF d   1      -0.719  -0.097  -0.491  0.00  0.00     0.055 A 
ATOM      6  C5  BZF d   1       0.425   0.175  -1.171  0.00  0.00    -0.016 A 
ATOM      7  C6  BZF d   1       1.646   0.259  -0.534  0.00  0.00     0.022 A 
ATOM      8  C7  BZF d   1       1.757   0.062   0.803  0.00  0.00     0.029 A 
ATOM      9  C7A BZF d   1       0.607  -0.245   1.487  0.00  0.00     0.058 A 
ENDROOT
TORSDOF 0
ENDMDL
