MODEL 1
REMARK minimizedAffinity -0.847487926
REMARK minimizedRMSD -1
REMARK  0 active torsions:
REMARK  status: ('A' for Active; 'I' for Inactive)
ROOT
ATOM      1  O1  BZF d   1      -0.603  -0.847  -1.253  0.00  0.00    -0.204 OA
ATOM      2  C2  BZF d   1      -0.574   0.442  -0.757  0.00  0.00     0.174 A 
ATOM      3  C3  BZF d   1       0.369   1.175  -1.384  0.00  0.00    -0.012 A 
ATOM      4  C3A BZF d   1       0.903   0.315  -2.395  0.00  0.00    -0.107 A 
ATOM      5  C4  BZF d   1       1.861   0.476  -3.355  0.00  0.00     0.055 A 
ATOM      6  C5  BZF d   1       2.199  -0.583  -4.136  0.00  0.00    -0.016 A 
ATOM      7  C6  BZF d   1       1.603  -1.818  -3.981  0.00  0.00     0.022 A 
ATOM      8  C7  BZF d   1       0.644  -2.025  -3.046  0.00  0.00     0.029 A 
ATOM      9  C7A BZF d   1       0.278  -0.948  -2.277  0.00  0.00     0.058 A 
ENDROOT
TORSDOF 0
ENDMDL
