MODEL 1
REMARK minimizedAffinity -5.05764103
REMARK minimizedRMSD -1
REMARK  0 active torsions:
REMARK  status: ('A' for Active; 'I' for Inactive)
ROOT
ATOM      1  O1  BZF d   1      -0.607   0.763  -0.975  0.00  0.00    -0.204 OA
ATOM      2  C2  BZF d   1      -1.969   0.537  -0.921  0.00  0.00     0.174 A 
ATOM      3  C3  BZF d   1      -2.318  -0.004   0.264  0.00  0.00    -0.012 A 
ATOM      4  C3A BZF d   1      -1.111  -0.038   1.032  0.00  0.00    -0.107 A 
ATOM      5  C4  BZF d   1      -0.816  -0.453   2.299  0.00  0.00     0.055 A 
ATOM      6  C5  BZF d   1       0.475  -0.420   2.721  0.00  0.00    -0.016 A 
ATOM      7  C6  BZF d   1       1.496   0.015   1.902  0.00  0.00     0.022 A 
ATOM      8  C7  BZF d   1       1.252   0.441   0.638  0.00  0.00     0.029 A 
ATOM      9  C7A BZF d   1      -0.057   0.441   0.221  0.00  0.00     0.058 A 
ENDROOT
TORSDOF 0
ENDMDL
