MODEL 1
REMARK minimizedAffinity -5.30298758
REMARK minimizedRMSD -1
REMARK  0 active torsions:
REMARK  status: ('A' for Active; 'I' for Inactive)
ROOT
ATOM      1  O1  BZF d   1      -0.800  -0.168  -0.846  0.00  0.00    -0.204 OA
ATOM      2  C2  BZF d   1       0.549  -0.426  -0.988  0.00  0.00     0.174 A 
ATOM      3  C3  BZF d   1       1.138  -0.570   0.217  0.00  0.00    -0.012 A 
ATOM      4  C3A BZF d   1       0.074  -0.483   1.169  0.00  0.00    -0.107 A 
ATOM      5  C4  BZF d   1       0.023  -0.567   2.531  0.00  0.00     0.055 A 
ATOM      6  C5  BZF d   1      -1.164  -0.366   3.162  0.00  0.00    -0.016 A 
ATOM      7  C6  BZF d   1      -2.317  -0.074   2.463  0.00  0.00     0.022 A 
ATOM      8  C7  BZF d   1      -2.317   0.015   1.110  0.00  0.00     0.029 A 
ATOM      9  C7A BZF d   1      -1.126  -0.221   0.468  0.00  0.00     0.058 A 
ENDROOT
TORSDOF 0
ENDMDL
