MODEL 1
REMARK minimizedAffinity -3.96732116
REMARK minimizedRMSD -1
REMARK  0 active torsions:
REMARK  status: ('A' for Active; 'I' for Inactive)
ROOT
ATOM      1  O1  BZF d   1      -0.466  -0.977  -0.938  0.00  0.00    -0.204 OA
ATOM      2  C2  BZF d   1       0.182  -0.002  -1.671  0.00  0.00     0.174 A 
ATOM      3  C3  BZF d   1       0.692   0.946  -0.859  0.00  0.00    -0.012 A 
ATOM      4  C3A BZF d   1       0.420   0.490   0.470  0.00  0.00    -0.107 A 
ATOM      5  C4  BZF d   1       0.695   0.992   1.710  0.00  0.00     0.055 A 
ATOM      6  C5  BZF d   1       0.227   0.339   2.806  0.00  0.00    -0.016 A 
ATOM      7  C6  BZF d   1      -0.521  -0.815   2.698  0.00  0.00     0.022 A 
ATOM      8  C7  BZF d   1      -0.815  -1.354   1.490  0.00  0.00     0.029 A 
ATOM      9  C7A BZF d   1      -0.316  -0.714   0.382  0.00  0.00     0.058 A 
ENDROOT
TORSDOF 0
ENDMDL
