MODEL 1
REMARK minimizedAffinity -0.215444744
REMARK minimizedRMSD -1
REMARK  0 active torsions:
REMARK  status: ('A' for Active; 'I' for Inactive)
ROOT
ATOM      1  C1  DEN d   1       0.442   0.599   2.891  0.00  0.00     0.130 A 
ATOM      2  C2  DEN d   1      -0.489   1.695   3.142  0.00  0.00    -0.031 A 
ATOM      3  C3  DEN d   1      -1.434   1.760   2.009  0.00  0.00     0.027 A 
ATOM      4  C4  DEN d   1      -1.549   0.273  -0.095  0.00  0.00     0.027 A 
ATOM      5  C5  DEN d   1      -0.961  -0.783  -0.757  0.00  0.00    -0.003 A 
ATOM      6  C6  DEN d   1       0.147  -1.424  -0.270  0.00  0.00     0.001 A 
ATOM      7  C7  DEN d   1       0.675  -1.046   0.936  0.00  0.00     0.017 A 
ATOM      8  C8  DEN d   1       0.093   0.022   1.605  0.00  0.00    -0.094 A 
ATOM      9  C9  DEN d   1      -1.034   0.650   1.102  0.00  0.00    -0.072 A 
ENDROOT
TORSDOF 0
ENDMDL
