MODEL 1
REMARK minimizedAffinity -6.46784782
REMARK minimizedRMSD -1
REMARK  0 active torsions:
REMARK  status: ('A' for Active; 'I' for Inactive)
ROOT
ATOM      1  C1  DEN d   1      -0.155  -0.194   0.191  0.00  0.00     0.130 A 
ATOM      2  C2  DEN d   1      -1.263  -0.599   1.052  0.00  0.00    -0.031 A 
ATOM      3  C3  DEN d   1      -1.667  -1.965   0.663  0.00  0.00     0.027 A 
ATOM      4  C4  DEN d   1      -0.685  -3.487  -1.174  0.00  0.00     0.027 A 
ATOM      5  C5  DEN d   1       0.260  -3.574  -2.172  0.00  0.00    -0.003 A 
ATOM      6  C6  DEN d   1       1.103  -2.538  -2.473  0.00  0.00     0.001 A 
ATOM      7  C7  DEN d   1       1.048  -1.383  -1.738  0.00  0.00     0.017 A 
ATOM      8  C8  DEN d   1       0.094  -1.285  -0.734  0.00  0.00    -0.094 A 
ATOM      9  C9  DEN d   1      -0.741  -2.348  -0.437  0.00  0.00    -0.072 A 
ENDROOT
TORSDOF 0
ENDMDL
