MODEL 1
REMARK minimizedAffinity -3.16032743
REMARK minimizedRMSD -1
REMARK  0 active torsions:
REMARK  status: ('A' for Active; 'I' for Inactive)
ROOT
ATOM      1  C1  DEN d   1       0.455  -0.184  -1.115  0.00  0.00     0.130 A 
ATOM      2  C2  DEN d   1       0.127  -1.285  -0.213  0.00  0.00    -0.031 A 
ATOM      3  C3  DEN d   1      -0.504  -0.714   0.994  0.00  0.00     0.027 A 
ATOM      4  C4  DEN d   1      -1.005   1.754   1.550  0.00  0.00     0.027 A 
ATOM      5  C5  DEN d   1      -0.898   3.050   1.098  0.00  0.00    -0.003 A 
ATOM      6  C6  DEN d   1      -0.307   3.360  -0.098  0.00  0.00     0.001 A 
ATOM      7  C7  DEN d   1       0.160   2.356  -0.905  0.00  0.00     0.017 A 
ATOM      8  C8  DEN d   1       0.062   1.047  -0.453  0.00  0.00    -0.094 A 
ATOM      9  C9  DEN d   1      -0.550   0.753   0.754  0.00  0.00    -0.072 A 
ENDROOT
TORSDOF 0
ENDMDL
