MODEL 1
REMARK minimizedAffinity -3.76925683
REMARK minimizedRMSD -1
REMARK  0 active torsions:
REMARK  status: ('A' for Active; 'I' for Inactive)
ROOT
ATOM      1  C1  DEN d   1      -1.499  -1.718   1.137  0.00  0.00     0.130 A 
ATOM      2  C2  DEN d   1      -1.098  -0.379   1.560  0.00  0.00    -0.031 A 
ATOM      3  C3  DEN d   1       0.104   0.002   0.791  0.00  0.00     0.027 A 
ATOM      4  C4  DEN d   1       1.374  -1.343  -1.007  0.00  0.00     0.027 A 
ATOM      5  C5  DEN d   1       1.417  -2.535  -1.695  0.00  0.00    -0.003 A 
ATOM      6  C6  DEN d   1       0.519  -3.544  -1.465  0.00  0.00     0.001 A 
ATOM      7  C7  DEN d   1      -0.489  -3.361  -0.555  0.00  0.00     0.017 A 
ATOM      8  C8  DEN d   1      -0.534  -2.164   0.148  0.00  0.00    -0.094 A 
ATOM      9  C9  DEN d   1       0.375  -1.152  -0.108  0.00  0.00    -0.072 A 
ENDROOT
TORSDOF 0
ENDMDL
