MODEL 1
REMARK minimizedAffinity -5.64954042
REMARK minimizedRMSD -1
REMARK  0 active torsions:
REMARK  status: ('A' for Active; 'I' for Inactive)
ROOT
ATOM      1  C1  DEN d   1       0.841   2.073  -1.210  0.00  0.00     0.130 A 
ATOM      2  C2  DEN d   1       1.748   0.931  -1.290  0.00  0.00    -0.031 A 
ATOM      3  C3  DEN d   1       1.300  -0.077  -0.309  0.00  0.00     0.027 A 
ATOM      4  C4  DEN d   1      -0.704   0.015   1.313  0.00  0.00     0.027 A 
ATOM      5  C5  DEN d   1      -1.758   0.785   1.752  0.00  0.00    -0.003 A 
ATOM      6  C6  DEN d   1      -1.997   2.042   1.264  0.00  0.00     0.001 A 
ATOM      7  C7  DEN d   1      -1.198   2.549   0.273  0.00  0.00     0.017 A 
ATOM      8  C8  DEN d   1      -0.129   1.781  -0.170  0.00  0.00    -0.094 A 
ATOM      9  C9  DEN d   1       0.089   0.508   0.327  0.00  0.00    -0.072 A 
ENDROOT
TORSDOF 0
ENDMDL
