MODEL 1
REMARK minimizedAffinity -3.42240262
REMARK minimizedRMSD -1
REMARK  0 active torsions:
REMARK  status: ('A' for Active; 'I' for Inactive)
ROOT
ATOM      1  C1  DEN d   1       1.281  -2.273  -2.177  0.00  0.00     0.130 A 
ATOM      2  C2  DEN d   1       0.485  -3.484  -2.359  0.00  0.00    -0.031 A 
ATOM      3  C3  DEN d   1      -0.603  -3.469  -1.360  0.00  0.00     0.027 A 
ATOM      4  C4  DEN d   1      -1.132  -1.695   0.436  0.00  0.00     0.027 A 
ATOM      5  C5  DEN d   1      -0.730  -0.497   0.983  0.00  0.00    -0.003 A 
ATOM      6  C6  DEN d   1       0.381   0.171   0.542  0.00  0.00     0.001 A 
ATOM      7  C7  DEN d   1       1.104  -0.333  -0.508  0.00  0.00     0.017 A 
ATOM      8  C8  DEN d   1       0.709  -1.544  -1.059  0.00  0.00    -0.094 A 
ATOM      9  C9  DEN d   1      -0.425  -2.198  -0.607  0.00  0.00    -0.072 A 
ENDROOT
TORSDOF 0
ENDMDL
