MODEL 1
REMARK minimizedAffinity -1.73377681
REMARK minimizedRMSD -1
REMARK  0 active torsions:
REMARK  status: ('A' for Active; 'I' for Inactive)
ROOT
ATOM      1  C1  DEN d   1       1.640  -0.864  -0.274  0.00  0.00     0.130 A 
ATOM      2  C2  DEN d   1       1.176  -1.887  -1.207  0.00  0.00    -0.031 A 
ATOM      3  C3  DEN d   1      -0.283  -2.036  -1.032  0.00  0.00     0.027 A 
ATOM      4  C4  DEN d   1      -1.859  -0.787   0.582  0.00  0.00     0.027 A 
ATOM      5  C5  DEN d   1      -1.924   0.164   1.577  0.00  0.00    -0.003 A 
ATOM      6  C6  DEN d   1      -0.809   0.809   2.044  0.00  0.00     0.001 A 
ATOM      7  C7  DEN d   1       0.413   0.544   1.485  0.00  0.00     0.017 A 
ATOM      8  C8  DEN d   1       0.487  -0.419   0.487  0.00  0.00    -0.094 A 
ATOM      9  C9  DEN d   1      -0.653  -1.051   0.020  0.00  0.00    -0.072 A 
ENDROOT
TORSDOF 0
ENDMDL
