MODEL 1
REMARK minimizedAffinity -2.73194337
REMARK minimizedRMSD -1
REMARK  0 active torsions:
REMARK  status: ('A' for Active; 'I' for Inactive)
ROOT
ATOM      1  C1  DEN d   1       1.171  -1.235  -0.406  0.00  0.00     0.130 A 
ATOM      2  C2  DEN d   1       1.220  -0.001  -1.186  0.00  0.00    -0.031 A 
ATOM      3  C3  DEN d   1       0.354   0.994  -0.521  0.00  0.00     0.027 A 
ATOM      4  C4  DEN d   1      -1.046   0.746   1.630  0.00  0.00     0.027 A 
ATOM      5  C5  DEN d   1      -1.416  -0.120   2.636  0.00  0.00    -0.003 A 
ATOM      6  C6  DEN d   1      -0.980  -1.418   2.679  0.00  0.00     0.001 A 
ATOM      7  C7  DEN d   1      -0.112  -1.874   1.722  0.00  0.00     0.017 A 
ATOM      8  C8  DEN d   1       0.260  -1.009   0.701  0.00  0.00    -0.094 A 
ATOM      9  C9  DEN d   1      -0.182   0.303   0.682  0.00  0.00    -0.072 A 
ENDROOT
TORSDOF 0
ENDMDL
