MODEL 1
REMARK minimizedAffinity -2.46161461
REMARK minimizedRMSD -1
REMARK  0 active torsions:
REMARK  status: ('A' for Active; 'I' for Inactive)
ROOT
ATOM      1  C1  DEN d   1       1.072   2.095  -1.091  0.00  0.00     0.130 A 
ATOM      2  C2  DEN d   1       0.404   3.356  -0.782  0.00  0.00    -0.031 A 
ATOM      3  C3  DEN d   1      -0.445   3.144   0.407  0.00  0.00     0.027 A 
ATOM      4  C4  DEN d   1      -0.783   0.997   1.797  0.00  0.00     0.027 A 
ATOM      5  C5  DEN d   1      -0.436  -0.331   1.914  0.00  0.00    -0.003 A 
ATOM      6  C6  DEN d   1       0.405  -0.947   1.025  0.00  0.00     0.001 A 
ATOM      7  C7  DEN d   1       0.963  -0.222   0.005  0.00  0.00     0.017 A 
ATOM      8  C8  DEN d   1       0.612   1.115  -0.124  0.00  0.00    -0.094 A 
ATOM      9  C9  DEN d   1      -0.230   1.723   0.792  0.00  0.00    -0.072 A 
ENDROOT
TORSDOF 0
ENDMDL
