MODEL 1
REMARK minimizedAffinity -4.76769686
REMARK minimizedRMSD -1
REMARK  0 active torsions:
REMARK  status: ('A' for Active; 'I' for Inactive)
ROOT
ATOM      1  C1  DEN d   1       1.012   0.042  -0.903  0.00  0.00     0.130 A 
ATOM      2  C2  DEN d   1       0.822  -1.080   0.012  0.00  0.00    -0.031 A 
ATOM      3  C3  DEN d   1      -0.044  -0.626   1.119  0.00  0.00     0.027 A 
ATOM      4  C4  DEN d   1      -1.110   1.692   1.499  0.00  0.00     0.027 A 
ATOM      5  C5  DEN d   1      -1.226   2.970   0.997  0.00  0.00    -0.003 A 
ATOM      6  C6  DEN d   1      -0.582   3.368  -0.144  0.00  0.00     0.001 A 
ATOM      7  C7  DEN d   1       0.171   2.466  -0.848  0.00  0.00     0.017 A 
ATOM      8  C8  DEN d   1       0.299   1.178  -0.345  0.00  0.00    -0.094 A 
ATOM      9  C9  DEN d   1      -0.369   0.791   0.804  0.00  0.00    -0.072 A 
ENDROOT
TORSDOF 0
ENDMDL
