MODEL 1
REMARK minimizedAffinity -4.38282204
REMARK minimizedRMSD -1
REMARK  0 active torsions:
REMARK  status: ('A' for Active; 'I' for Inactive)
ROOT
ATOM      1  C1  DEN d   1      -0.731   3.607   0.982  0.00  0.00     0.130 A 
ATOM      2  C2  DEN d   1       0.050   3.944  -0.205  0.00  0.00    -0.031 A 
ATOM      3  C3  DEN d   1       0.571   2.688  -0.781  0.00  0.00     0.027 A 
ATOM      4  C4  DEN d   1       0.241   0.266   0.042  0.00  0.00     0.027 A 
ATOM      5  C5  DEN d   1      -0.335  -0.520   1.015  0.00  0.00    -0.003 A 
ATOM      6  C6  DEN d   1      -1.049   0.012   2.056  0.00  0.00     0.001 A 
ATOM      7  C7  DEN d   1      -1.244   1.366   2.123  0.00  0.00     0.017 A 
ATOM      8  C8  DEN d   1      -0.660   2.166   1.150  0.00  0.00    -0.094 A 
ATOM      9  C9  DEN d   1       0.048   1.608   0.099  0.00  0.00    -0.072 A 
ENDROOT
TORSDOF 0
ENDMDL
