MODEL 1
REMARK minimizedAffinity -3.04223394
REMARK minimizedRMSD -1
REMARK  0 active torsions:
REMARK  status: ('A' for Active; 'I' for Inactive)
ROOT
ATOM      1  C1  DEN d   1      -1.714  -0.686   0.620  0.00  0.00     0.130 A 
ATOM      2  C2  DEN d   1      -1.061  -0.012   1.740  0.00  0.00    -0.031 A 
ATOM      3  C3  DEN d   1       0.388   0.037   1.460  0.00  0.00     0.027 A 
ATOM      4  C4  DEN d   1       1.677  -0.856  -0.588  0.00  0.00     0.027 A 
ATOM      5  C5  DEN d   1       1.554  -1.514  -1.792  0.00  0.00    -0.003 A 
ATOM      6  C6  DEN d   1       0.349  -1.969  -2.256  0.00  0.00     0.001 A 
ATOM      7  C7  DEN d   1      -0.790  -1.731  -1.533  0.00  0.00     0.017 A 
ATOM      8  C8  DEN d   1      -0.674  -1.075  -0.315  0.00  0.00    -0.094 A 
ATOM      9  C9  DEN d   1       0.552  -0.612   0.131  0.00  0.00    -0.072 A 
ENDROOT
TORSDOF 0
ENDMDL
