MODEL 1
REMARK minimizedAffinity -5.52677441
REMARK minimizedRMSD -1
REMARK  0 active torsions:
REMARK  status: ('A' for Active; 'I' for Inactive)
ROOT
ATOM      1  C1  DEN d   1       1.079  -0.222  -0.424  0.00  0.00     0.130 A 
ATOM      2  C2  DEN d   1       0.829  -1.298   0.532  0.00  0.00    -0.031 A 
ATOM      3  C3  DEN d   1      -0.035  -0.764   1.604  0.00  0.00     0.027 A 
ATOM      4  C4  DEN d   1      -1.009   1.609   1.873  0.00  0.00     0.027 A 
ATOM      5  C5  DEN d   1      -1.065   2.869   1.319  0.00  0.00    -0.003 A 
ATOM      6  C6  DEN d   1      -0.388   3.194   0.174  0.00  0.00     0.001 A 
ATOM      7  C7  DEN d   1       0.338   2.234  -0.481  0.00  0.00     0.017 A 
ATOM      8  C8  DEN d   1       0.405   0.963   0.075  0.00  0.00    -0.094 A 
ATOM      9  C9  DEN d   1      -0.296   0.651   1.228  0.00  0.00    -0.072 A 
ENDROOT
TORSDOF 0
ENDMDL
