MODEL 1
REMARK minimizedAffinity -3.87387156
REMARK minimizedRMSD -1
REMARK  0 active torsions:
REMARK  status: ('A' for Active; 'I' for Inactive)
ROOT
ATOM      1  C1  DEN d   1       0.179   0.478  -0.823  0.00  0.00     0.130 A 
ATOM      2  C2  DEN d   1       0.179  -0.634   0.123  0.00  0.00    -0.031 A 
ATOM      3  C3  DEN d   1      -0.156  -0.099   1.458  0.00  0.00     0.027 A 
ATOM      4  C4  DEN d   1      -0.678   2.331   2.147  0.00  0.00     0.027 A 
ATOM      5  C5  DEN d   1      -0.788   3.627   1.695  0.00  0.00    -0.003 A 
ATOM      6  C6  DEN d   1      -0.553   3.967   0.389  0.00  0.00     0.001 A 
ATOM      7  C7  DEN d   1      -0.239   2.992  -0.520  0.00  0.00     0.017 A 
ATOM      8  C8  DEN d   1      -0.118   1.684  -0.070  0.00  0.00    -0.094 A 
ATOM      9  C9  DEN d   1      -0.372   1.358   1.251  0.00  0.00    -0.072 A 
ENDROOT
TORSDOF 0
ENDMDL
