MODEL 1
REMARK minimizedAffinity -5.69416761
REMARK minimizedRMSD -1
REMARK  2 active torsions:
REMARK  status: ('A' for Active; 'I' for Inactive)
REMARK    1  A    between atoms: C1_2  and  C2_3 
REMARK    2  A    between atoms: C2_3  and  C3_4 
ROOT
ATOM      1  C3  UNL d   1       0.209  -0.571   0.581  0.00  0.00    -0.075 A 
ATOM      2  C4  UNL d   1       0.241  -0.777   1.968  0.00  0.00     0.002 A 
ATOM      3  C5  UNL d   1       1.406  -1.224   2.591  0.00  0.00     0.002 A 
ATOM      4  C6  UNL d   1       2.549  -1.481   1.837  0.00  0.00    -0.004 A 
ATOM      5  C7  UNL d   1       2.524  -1.296   0.456  0.00  0.00     0.002 A 
ATOM      6  C8  UNL d   1       1.360  -0.844  -0.170  0.00  0.00     0.002 A 
ENDROOT
BRANCH   1   7
ATOM      7  C2  UNL d   1      -1.040  -0.059  -0.096  0.00  0.00     0.056 C 
BRANCH   7   8
ATOM      8  C1  UNL d   1      -0.838   0.333  -1.563  0.00  0.00     0.007 C 
ATOM      9  C   UNL d   1      -0.938   1.834  -1.803  0.00  0.00     0.009 C 
ENDBRANCH   7   8
ENDBRANCH   1   7
TORSDOF 2
ENDMDL
