MODEL 1
REMARK minimizedAffinity -5.26684761
REMARK minimizedRMSD -1
REMARK  2 active torsions:
REMARK  status: ('A' for Active; 'I' for Inactive)
REMARK    1  A    between atoms: C1_2  and  C2_3 
REMARK    2  A    between atoms: C2_3  and  C3_4 
ROOT
ATOM      1  C3  UNL d   1       0.198   0.039   0.642  0.00  0.00    -0.075 A 
ATOM      2  C4  UNL d   1       1.041  -0.928   0.075  0.00  0.00     0.002 A 
ATOM      3  C5  UNL d   1       1.923  -1.655   0.874  0.00  0.00     0.002 A 
ATOM      4  C6  UNL d   1       1.982  -1.418   2.246  0.00  0.00    -0.004 A 
ATOM      5  C7  UNL d   1       1.161  -0.448   2.817  0.00  0.00     0.002 A 
ATOM      6  C8  UNL d   1       0.274   0.278   2.021  0.00  0.00     0.002 A 
ENDROOT
BRANCH   1   7
ATOM      7  C2  UNL d   1      -0.780   0.809  -0.213  0.00  0.00     0.056 C 
BRANCH   7   8
ATOM      8  C1  UNL d   1      -0.318   1.013  -1.660  0.00  0.00     0.007 C 
ATOM      9  C   UNL d   1      -0.676   2.384  -2.218  0.00  0.00     0.009 C 
ENDBRANCH   7   8
ENDBRANCH   1   7
TORSDOF 2
ENDMDL
