MODEL 1
REMARK minimizedAffinity -4.79872417
REMARK minimizedRMSD -1
REMARK  2 active torsions:
REMARK  status: ('A' for Active; 'I' for Inactive)
REMARK    1  A    between atoms: C1_2  and  C2_3 
REMARK    2  A    between atoms: C2_3  and  C3_4 
ROOT
ATOM      1  C3  UNL d   1       0.735  -0.618  -0.119  0.00  0.00    -0.075 A 
ATOM      2  C4  UNL d   1       1.834  -1.461   0.100  0.00  0.00     0.002 A 
ATOM      3  C5  UNL d   1       2.120  -1.935   1.381  0.00  0.00     0.002 A 
ATOM      4  C6  UNL d   1       1.318  -1.565   2.458  0.00  0.00    -0.004 A 
ATOM      5  C7  UNL d   1       0.233  -0.715   2.256  0.00  0.00     0.002 A 
ATOM      6  C8  UNL d   1      -0.057  -0.242   0.974  0.00  0.00     0.002 A 
ENDROOT
BRANCH   1   7
ATOM      7  C2  UNL d   1       0.403  -0.125  -1.507  0.00  0.00     0.056 C 
BRANCH   7   8
ATOM      8  C1  UNL d   1      -0.898   0.680  -1.589  0.00  0.00     0.007 C 
ATOM      9  C   UNL d   1      -0.748   1.987  -2.357  0.00  0.00     0.009 C 
ENDBRANCH   7   8
ENDBRANCH   1   7
TORSDOF 2
ENDMDL
