MODEL 1
REMARK minimizedAffinity 2.10476995
REMARK minimizedRMSD -1
REMARK  0 active torsions:
REMARK  status: ('A' for Active; 'I' for Inactive)
ROOT
ATOM      1  C1  BNZ d   1       3.000   2.250   3.375  0.00  0.00     0.000 A 
ATOM      2  C2  BNZ d   1       3.107   1.465   4.492  0.00  0.00     0.000 A 
ATOM      3  C3  BNZ d   1       2.623   0.186   4.497  0.00  0.00     0.000 A 
ATOM      4  C4  BNZ d   1       1.999  -0.291   3.401  0.00  0.00     0.000 A 
ATOM      5  C5  BNZ d   1       1.875   0.492   2.270  0.00  0.00     0.000 A 
ATOM      6  C6  BNZ d   1       2.397   1.765   2.256  0.00  0.00     0.000 A 
ENDROOT
TORSDOF 0
ENDMDL
