MODEL 1
REMARK minimizedAffinity -4.23797512
REMARK minimizedRMSD -1
REMARK  0 active torsions:
REMARK  status: ('A' for Active; 'I' for Inactive)
ROOT
ATOM      1  C1  BNZ d   1       1.347  -1.139   0.906  0.00  0.00     0.000 A 
ATOM      2  C2  BNZ d   1       0.009  -1.375   1.079  0.00  0.00     0.000 A 
ATOM      3  C3  BNZ d   1      -0.920  -0.447   0.699  0.00  0.00     0.000 A 
ATOM      4  C4  BNZ d   1      -0.509   0.731   0.185  0.00  0.00     0.000 A 
ATOM      5  C5  BNZ d   1       0.836   0.987   0.013  0.00  0.00     0.000 A 
ATOM      6  C6  BNZ d   1       1.767   0.035   0.360  0.00  0.00     0.000 A 
ENDROOT
TORSDOF 0
ENDMDL
