MODEL 1
REMARK minimizedAffinity -3.06259274
REMARK minimizedRMSD -1
REMARK  0 active torsions:
REMARK  status: ('A' for Active; 'I' for Inactive)
ROOT
ATOM      1  C1  BNZ d   1       2.155   0.951   1.045  0.00  0.00     0.000 A 
ATOM      2  C2  BNZ d   1       2.839  -0.177   0.679  0.00  0.00     0.000 A 
ATOM      3  C3  BNZ d   1       2.247  -1.133  -0.099  0.00  0.00     0.000 A 
ATOM      4  C4  BNZ d   1       0.962  -0.978  -0.476  0.00  0.00     0.000 A 
ATOM      5  C5  BNZ d   1       0.256   0.149  -0.107  0.00  0.00     0.000 A 
ATOM      6  C6  BNZ d   1       0.867   1.128   0.643  0.00  0.00     0.000 A 
ENDROOT
TORSDOF 0
ENDMDL
