MODEL 1
REMARK minimizedAffinity -3.30876279
REMARK minimizedRMSD -1
REMARK  0 active torsions:
REMARK  status: ('A' for Active; 'I' for Inactive)
ROOT
ATOM      1  C1  BNZ d   1      -1.356   0.246   0.042  0.00  0.00     0.000 A 
ATOM      2  C2  BNZ d   1      -0.130   0.654   0.496  0.00  0.00     0.000 A 
ATOM      3  C3  BNZ d   1       0.933   0.759  -0.357  0.00  0.00     0.000 A 
ATOM      4  C4  BNZ d   1       0.779   0.419  -1.653  0.00  0.00     0.000 A 
ATOM      5  C5  BNZ d   1      -0.449  -0.003  -2.124  0.00  0.00     0.000 A 
ATOM      6  C6  BNZ d   1      -1.526  -0.070  -1.271  0.00  0.00     0.000 A 
ENDROOT
TORSDOF 0
ENDMDL
