MODEL 1
REMARK minimizedAffinity -3.67328787
REMARK minimizedRMSD -1
REMARK  0 active torsions:
REMARK  status: ('A' for Active; 'I' for Inactive)
ROOT
ATOM      1  C1  BNZ d   1       0.206  -1.001  -0.204  0.00  0.00     0.000 A 
ATOM      2  C2  BNZ d   1       1.401  -1.533   0.198  0.00  0.00     0.000 A 
ATOM      3  C3  BNZ d   1       2.470  -0.726   0.473  0.00  0.00     0.000 A 
ATOM      4  C4  BNZ d   1       2.353   0.607   0.308  0.00  0.00     0.000 A 
ATOM      5  C5  BNZ d   1       1.157   1.159  -0.106  0.00  0.00     0.000 A 
ATOM      6  C6  BNZ d   1       0.072   0.346  -0.345  0.00  0.00     0.000 A 
ENDROOT
TORSDOF 0
ENDMDL
