MODEL 1
REMARK minimizedAffinity -2.25527668
REMARK minimizedRMSD -1
REMARK  0 active torsions:
REMARK  status: ('A' for Active; 'I' for Inactive)
ROOT
ATOM      1  C1  BNZ d   1       0.473  -0.845   0.654  0.00  0.00     0.000 A 
ATOM      2  C2  BNZ d   1       1.545  -1.123   1.460  0.00  0.00     0.000 A 
ATOM      3  C3  BNZ d   1       2.633  -0.297   1.487  0.00  0.00     0.000 A 
ATOM      4  C4  BNZ d   1       2.665   0.784   0.681  0.00  0.00     0.000 A 
ATOM      5  C5  BNZ d   1       1.596   1.073  -0.144  0.00  0.00     0.000 A 
ATOM      6  C6  BNZ d   1       0.486   0.259  -0.141  0.00  0.00     0.000 A 
ENDROOT
TORSDOF 0
ENDMDL
