MODEL 1
REMARK minimizedAffinity -0.715856969
REMARK minimizedRMSD -1
REMARK  0 active torsions:
REMARK  status: ('A' for Active; 'I' for Inactive)
ROOT
ATOM      1  C1  BNZ d   1      -0.048  -0.735   1.045  0.00  0.00     0.000 A 
ATOM      2  C2  BNZ d   1       0.972  -0.363   1.879  0.00  0.00     0.000 A 
ATOM      3  C3  BNZ d   1       1.731   0.741   1.607  0.00  0.00     0.000 A 
ATOM      4  C4  BNZ d   1       1.496   1.447   0.483  0.00  0.00     0.000 A 
ATOM      5  C5  BNZ d   1       0.477   1.079  -0.373  0.00  0.00     0.000 A 
ATOM      6  C6  BNZ d   1      -0.310  -0.010  -0.076  0.00  0.00     0.000 A 
ENDROOT
TORSDOF 0
ENDMDL
