MODEL 1
REMARK minimizedAffinity -0.663709044
REMARK minimizedRMSD -1
REMARK  0 active torsions:
REMARK  status: ('A' for Active; 'I' for Inactive)
ROOT
ATOM      1  C1  BNZ d   1       0.581   0.605  -0.888  0.00  0.00     0.000 A 
ATOM      2  C2  BNZ d   1      -0.437  -0.248  -1.224  0.00  0.00     0.000 A 
ATOM      3  C3  BNZ d   1      -1.557  -0.341  -0.446  0.00  0.00     0.000 A 
ATOM      4  C4  BNZ d   1      -1.641   0.388   0.686  0.00  0.00     0.000 A 
ATOM      5  C5  BNZ d   1      -0.620   1.245   1.043  0.00  0.00     0.000 A 
ATOM      6  C6  BNZ d   1       0.489   1.365   0.237  0.00  0.00     0.000 A 
ENDROOT
TORSDOF 0
ENDMDL
