MODEL 1
REMARK minimizedAffinity -4.58719254
REMARK minimizedRMSD -1
REMARK  0 active torsions:
REMARK  status: ('A' for Active; 'I' for Inactive)
ROOT
ATOM      1  C1  BNZ d   1       2.309  -0.202   1.167  0.00  0.00     0.000 A 
ATOM      2  C2  BNZ d   1       2.390  -1.369   1.879  0.00  0.00     0.000 A 
ATOM      3  C3  BNZ d   1       1.319  -2.213   1.963  0.00  0.00     0.000 A 
ATOM      4  C4  BNZ d   1       0.157  -1.872   1.369  0.00  0.00     0.000 A 
ATOM      5  C5  BNZ d   1       0.057  -0.694   0.655  0.00  0.00     0.000 A 
ATOM      6  C6  BNZ d   1       1.149   0.135   0.540  0.00  0.00     0.000 A 
ENDROOT
TORSDOF 0
ENDMDL
