MODEL 1
REMARK minimizedAffinity -3.79710793
REMARK minimizedRMSD -1
REMARK  0 active torsions:
REMARK  status: ('A' for Active; 'I' for Inactive)
ROOT
ATOM      1  C1  BNZ d   1      -2.663   1.544  -2.010  0.00  0.00     0.000 A 
ATOM      2  C2  BNZ d   1      -2.525   0.473  -1.168  0.00  0.00     0.000 A 
ATOM      3  C3  BNZ d   1      -2.419  -0.797  -1.663  0.00  0.00     0.000 A 
ATOM      4  C4  BNZ d   1      -2.491  -0.998  -2.995  0.00  0.00     0.000 A 
ATOM      5  C5  BNZ d   1      -2.639   0.071  -3.856  0.00  0.00     0.000 A 
ATOM      6  C6  BNZ d   1      -2.706   1.351  -3.357  0.00  0.00     0.000 A 
ENDROOT
TORSDOF 0
ENDMDL
