MODEL 1
REMARK minimizedAffinity -4.79068851
REMARK minimizedRMSD -1
REMARK  0 active torsions:
REMARK  status: ('A' for Active; 'I' for Inactive)
ROOT
ATOM      1  C1  BNZ d   1       0.737  -1.919   0.238  0.00  0.00     0.000 A 
ATOM      2  C2  BNZ d   1       1.959  -1.301   0.227  0.00  0.00     0.000 A 
ATOM      3  C3  BNZ d   1       2.055   0.060   0.319  0.00  0.00     0.000 A 
ATOM      4  C4  BNZ d   1       0.931   0.801   0.380  0.00  0.00     0.000 A 
ATOM      5  C5  BNZ d   1      -0.309   0.193   0.383  0.00  0.00     0.000 A 
ATOM      6  C6  BNZ d   1      -0.401  -1.179   0.330  0.00  0.00     0.000 A 
ENDROOT
TORSDOF 0
ENDMDL
