MODEL 1
REMARK minimizedAffinity 0.00716221146
REMARK minimizedRMSD -1
REMARK  0 active torsions:
REMARK  status: ('A' for Active; 'I' for Inactive)
ROOT
ATOM      1  C1  BNZ d   1       5.455   5.311  -5.383  0.00  0.00     0.000 A 
ATOM      2  C2  BNZ d   1       5.993   5.947  -4.296  0.00  0.00     0.000 A 
ATOM      3  C3  BNZ d   1       6.000   5.348  -3.068  0.00  0.00     0.000 A 
ATOM      4  C4  BNZ d   1       5.434   4.133  -2.919  0.00  0.00     0.000 A 
ATOM      5  C5  BNZ d   1       4.879   3.483  -4.004  0.00  0.00     0.000 A 
ATOM      6  C6  BNZ d   1       4.909   4.073  -5.247  0.00  0.00     0.000 A 
ENDROOT
TORSDOF 0
ENDMDL
