MODEL 1
REMARK minimizedAffinity -2.09329247
REMARK minimizedRMSD -1
REMARK  0 active torsions:
REMARK  status: ('A' for Active; 'I' for Inactive)
ROOT
ATOM      1  C1  BNZ d   1       1.440  -1.544  -1.439  0.00  0.00     0.000 A 
ATOM      2  C2  BNZ d   1       0.078  -1.650  -1.341  0.00  0.00     0.000 A 
ATOM      3  C3  BNZ d   1      -0.653  -2.225  -2.342  0.00  0.00     0.000 A 
ATOM      4  C4  BNZ d   1      -0.027  -2.656  -3.456  0.00  0.00     0.000 A 
ATOM      5  C5  BNZ d   1       1.344  -2.549  -3.574  0.00  0.00     0.000 A 
ATOM      6  C6  BNZ d   1       2.081  -2.005  -2.547  0.00  0.00     0.000 A 
ENDROOT
TORSDOF 0
ENDMDL
