MODEL 1
REMARK minimizedAffinity -1.76175737
REMARK minimizedRMSD -1
REMARK  0 active torsions:
REMARK  status: ('A' for Active; 'I' for Inactive)
ROOT
ATOM      1  C1  BNZ d   1       4.001   5.878  -5.027  0.00  0.00     0.000 A 
ATOM      2  C2  BNZ d   1       4.499   5.005  -5.957  0.00  0.00     0.000 A 
ATOM      3  C3  BNZ d   1       5.485   4.118  -5.627  0.00  0.00     0.000 A 
ATOM      4  C4  BNZ d   1       6.000   4.132  -4.381  0.00  0.00     0.000 A 
ATOM      5  C5  BNZ d   1       5.515   5.013  -3.434  0.00  0.00     0.000 A 
ATOM      6  C6  BNZ d   1       4.495   5.877  -3.759  0.00  0.00     0.000 A 
ENDROOT
TORSDOF 0
ENDMDL
