MODEL 1
REMARK minimizedAffinity -3.33930373
REMARK minimizedRMSD -1
REMARK  0 active torsions:
REMARK  status: ('A' for Active; 'I' for Inactive)
ROOT
ATOM      1  C1  BNZ d   1       4.276   5.998  -3.029  0.00  0.00     0.000 A 
ATOM      2  C2  BNZ d   1       5.124   5.254  -2.252  0.00  0.00     0.000 A 
ATOM      3  C3  BNZ d   1       6.000   4.371  -2.819  0.00  0.00     0.000 A 
ATOM      4  C4  BNZ d   1       6.000   4.204  -4.157  0.00  0.00     0.000 A 
ATOM      5  C5  BNZ d   1       5.145   4.939  -4.953  0.00  0.00     0.000 A 
ATOM      6  C6  BNZ d   1       4.292   5.855  -4.383  0.00  0.00     0.000 A 
ENDROOT
TORSDOF 0
ENDMDL
