MODEL 1
REMARK minimizedAffinity -3.18212581
REMARK minimizedRMSD -1
REMARK  0 active torsions:
REMARK  status: ('A' for Active; 'I' for Inactive)
ROOT
ATOM      1  C1  BNZ d   1       5.480   5.240  -2.101  0.00  0.00     0.000 A 
ATOM      2  C2  BNZ d   1       4.490   5.922  -2.758  0.00  0.00     0.000 A 
ATOM      3  C3  BNZ d   1       4.004   5.471  -3.953  0.00  0.00     0.000 A 
ATOM      4  C4  BNZ d   1       4.534   4.362  -4.508  0.00  0.00     0.000 A 
ATOM      5  C5  BNZ d   1       5.538   3.668  -3.862  0.00  0.00     0.000 A 
ATOM      6  C6  BNZ d   1       5.998   4.104  -2.641  0.00  0.00     0.000 A 
ENDROOT
TORSDOF 0
ENDMDL
