MODEL 1
REMARK minimizedAffinity -2.70665646
REMARK minimizedRMSD -1
REMARK  0 active torsions:
REMARK  status: ('A' for Active; 'I' for Inactive)
ROOT
ATOM      1  C1  BNZ d   1       5.205   3.638  -3.526  0.00  0.00     0.000 A 
ATOM      2  C2  BNZ d   1       5.622   3.689  -2.222  0.00  0.00     0.000 A 
ATOM      3  C3  BNZ d   1       5.999   4.874  -1.654  0.00  0.00     0.000 A 
ATOM      4  C4  BNZ d   1       5.997   5.998  -2.400  0.00  0.00     0.000 A 
ATOM      5  C5  BNZ d   1       5.587   5.961  -3.718  0.00  0.00     0.000 A 
ATOM      6  C6  BNZ d   1       5.171   4.774  -4.275  0.00  0.00     0.000 A 
ENDROOT
TORSDOF 0
ENDMDL
