MODEL 1
REMARK minimizedAffinity -2.72577047
REMARK minimizedRMSD -1
REMARK  0 active torsions:
REMARK  status: ('A' for Active; 'I' for Inactive)
ROOT
ATOM      1  C1  BNZ d   1       5.999   3.768  -3.251  0.00  0.00     0.000 A 
ATOM      2  C2  BNZ d   1       5.362   3.785  -4.463  0.00  0.00     0.000 A 
ATOM      3  C3  BNZ d   1       4.718   4.909  -4.899  0.00  0.00     0.000 A 
ATOM      4  C4  BNZ d   1       4.678   6.000  -4.107  0.00  0.00     0.000 A 
ATOM      5  C5  BNZ d   1       5.308   5.995  -2.878  0.00  0.00     0.000 A 
ATOM      6  C6  BNZ d   1       5.988   4.875  -2.459  0.00  0.00     0.000 A 
ENDROOT
TORSDOF 0
ENDMDL
