MODEL 1
REMARK minimizedAffinity -4.04817963
REMARK minimizedRMSD -1
REMARK  0 active torsions:
REMARK  status: ('A' for Active; 'I' for Inactive)
ROOT
ATOM      1  C1  BNZ d   1      -0.997  -2.154  -0.731  0.00  0.00     0.000 A 
ATOM      2  C2  BNZ d   1       0.045  -1.593  -1.420  0.00  0.00     0.000 A 
ATOM      3  C3  BNZ d   1       0.339  -1.993  -2.693  0.00  0.00     0.000 A 
ATOM      4  C4  BNZ d   1      -0.383  -2.981  -3.261  0.00  0.00     0.000 A 
ATOM      5  C5  BNZ d   1      -1.431  -3.563  -2.575  0.00  0.00     0.000 A 
ATOM      6  C6  BNZ d   1      -1.748  -3.131  -1.308  0.00  0.00     0.000 A 
ENDROOT
TORSDOF 0
ENDMDL
