MODEL 1
REMARK minimizedAffinity -2.62129235
REMARK minimizedRMSD -1
REMARK  0 active torsions:
REMARK  status: ('A' for Active; 'I' for Inactive)
ROOT
ATOM      1  C1  BNZ d   1       6.000   4.129  -2.507  0.00  0.00     0.000 A 
ATOM      2  C2  BNZ d   1       5.988   3.562  -3.754  0.00  0.00     0.000 A 
ATOM      3  C3  BNZ d   1       5.252   4.113  -4.766  0.00  0.00     0.000 A 
ATOM      4  C4  BNZ d   1       4.498   5.204  -4.519  0.00  0.00     0.000 A 
ATOM      5  C5  BNZ d   1       4.493   5.781  -3.265  0.00  0.00     0.000 A 
ATOM      6  C6  BNZ d   1       5.265   5.247  -2.260  0.00  0.00     0.000 A 
ENDROOT
TORSDOF 0
ENDMDL
