MODEL 1
REMARK minimizedAffinity -2.9701407
REMARK minimizedRMSD -1
REMARK  0 active torsions:
REMARK  status: ('A' for Active; 'I' for Inactive)
ROOT
ATOM      1  C1  BNZ d   1       4.907   5.163  -4.517  0.00  0.00     0.000 A 
ATOM      2  C2  BNZ d   1       5.589   5.869  -3.563  0.00  0.00     0.000 A 
ATOM      3  C3  BNZ d   1       6.000   5.267  -2.407  0.00  0.00     0.000 A 
ATOM      4  C4  BNZ d   1       5.695   3.971  -2.189  0.00  0.00     0.000 A 
ATOM      5  C5  BNZ d   1       5.000   3.248  -3.138  0.00  0.00     0.000 A 
ATOM      6  C6  BNZ d   1       4.621   3.847  -4.318  0.00  0.00     0.000 A 
ENDROOT
TORSDOF 0
ENDMDL
