MODEL 1
REMARK minimizedAffinity 0.716442704
REMARK minimizedRMSD -1
REMARK  0 active torsions:
REMARK  status: ('A' for Active; 'I' for Inactive)
ROOT
ATOM      1  C1  BNZ d   1       5.999   4.882  -1.707  0.00  0.00     0.000 A 
ATOM      2  C2  BNZ d   1       5.998   3.781  -2.522  0.00  0.00     0.000 A 
ATOM      3  C3  BNZ d   1       5.320   3.790  -3.709  0.00  0.00     0.000 A 
ATOM      4  C4  BNZ d   1       4.614   4.884  -4.061  0.00  0.00     0.000 A 
ATOM      5  C5  BNZ d   1       4.598   5.998  -3.246  0.00  0.00     0.000 A 
ATOM      6  C6  BNZ d   1       5.313   6.000  -2.070  0.00  0.00     0.000 A 
ENDROOT
TORSDOF 0
ENDMDL
