MODEL 1
REMARK minimizedAffinity -2.68338537
REMARK minimizedRMSD -1
REMARK  0 active torsions:
REMARK  status: ('A' for Active; 'I' for Inactive)
ROOT
ATOM      1  C1  BNZ d   1       5.999   5.480  -1.660  0.00  0.00     0.000 A 
ATOM      2  C2  BNZ d   1       5.998   5.999  -2.927  0.00  0.00     0.000 A 
ATOM      3  C3  BNZ d   1       5.076   5.591  -3.850  0.00  0.00     0.000 A 
ATOM      4  C4  BNZ d   1       4.184   4.635  -3.518  0.00  0.00     0.000 A 
ATOM      5  C5  BNZ d   1       4.179   4.095  -2.247  0.00  0.00     0.000 A 
ATOM      6  C6  BNZ d   1       5.083   4.537  -1.309  0.00  0.00     0.000 A 
ENDROOT
TORSDOF 0
ENDMDL
