MODEL 1
REMARK minimizedAffinity 0.398940295
REMARK minimizedRMSD -1
REMARK  0 active torsions:
REMARK  status: ('A' for Active; 'I' for Inactive)
ROOT
ATOM      1  C1  BNZ d   1       4.980   6.000  -3.580  0.00  0.00     0.000 A 
ATOM      2  C2  BNZ d   1       3.719   5.518  -3.809  0.00  0.00     0.000 A 
ATOM      3  C3  BNZ d   1       3.390   4.961  -5.013  0.00  0.00     0.000 A 
ATOM      4  C4  BNZ d   1       4.310   4.923  -5.999  0.00  0.00     0.000 A 
ATOM      5  C5  BNZ d   1       5.583   5.413  -5.787  0.00  0.00     0.000 A 
ATOM      6  C6  BNZ d   1       5.921   5.938  -4.561  0.00  0.00     0.000 A 
ENDROOT
TORSDOF 0
ENDMDL
