MODEL 1
REMARK minimizedAffinity 1.30417407
REMARK minimizedRMSD -1
REMARK  0 active torsions:
REMARK  status: ('A' for Active; 'I' for Inactive)
ROOT
ATOM      1  C1  BNZ d   1       4.333   6.000  -3.600  0.00  0.00     0.000 A 
ATOM      2  C2  BNZ d   1       3.753   5.997  -4.841  0.00  0.00     0.000 A 
ATOM      3  C3  BNZ d   1       4.276   5.245  -5.856  0.00  0.00     0.000 A 
ATOM      4  C4  BNZ d   1       5.399   4.529  -5.640  0.00  0.00     0.000 A 
ATOM      5  C5  BNZ d   1       6.000   4.529  -4.398  0.00  0.00     0.000 A 
ATOM      6  C6  BNZ d   1       5.449   5.256  -3.368  0.00  0.00     0.000 A 
ENDROOT
TORSDOF 0
ENDMDL
