MODEL 1
REMARK minimizedAffinity -3.79312849
REMARK minimizedRMSD -1
REMARK  0 active torsions:
REMARK  status: ('A' for Active; 'I' for Inactive)
ROOT
ATOM      1  C1  BNZ d   1       5.093   5.436  -2.889  0.00  0.00     0.000 A 
ATOM      2  C2  BNZ d   1       4.143   5.992  -3.703  0.00  0.00     0.000 A 
ATOM      3  C3  BNZ d   1       4.080   5.665  -5.029  0.00  0.00     0.000 A 
ATOM      4  C4  BNZ d   1       4.991   4.816  -5.547  0.00  0.00     0.000 A 
ATOM      5  C5  BNZ d   1       5.961   4.254  -4.741  0.00  0.00     0.000 A 
ATOM      6  C6  BNZ d   1       5.997   4.555  -3.398  0.00  0.00     0.000 A 
ENDROOT
TORSDOF 0
ENDMDL
