MODEL 1
REMARK minimizedAffinity -2.65283656
REMARK minimizedRMSD -1
REMARK  0 active torsions:
REMARK  status: ('A' for Active; 'I' for Inactive)
ROOT
ATOM      1  C1  BNZ d   1       4.599   3.957  -5.152  0.00  0.00     0.000 A 
ATOM      2  C2  BNZ d   1       4.478   4.101  -3.796  0.00  0.00     0.000 A 
ATOM      3  C3  BNZ d   1       5.094   5.133  -3.144  0.00  0.00     0.000 A 
ATOM      4  C4  BNZ d   1       5.861   5.995  -3.843  0.00  0.00     0.000 A 
ATOM      5  C5  BNZ d   1       6.000   5.857  -5.210  0.00  0.00     0.000 A 
ATOM      6  C6  BNZ d   1       5.347   4.840  -5.868  0.00  0.00     0.000 A 
ENDROOT
TORSDOF 0
ENDMDL
