MODEL 1
REMARK minimizedAffinity -2.47629309
REMARK minimizedRMSD -1
REMARK  0 active torsions:
REMARK  status: ('A' for Active; 'I' for Inactive)
ROOT
ATOM      1  C1  BNZ d   1      -2.206  -1.256   3.733  0.00  0.00     0.000 A 
ATOM      2  C2  BNZ d   1      -2.773  -1.710   4.893  0.00  0.00     0.000 A 
ATOM      3  C3  BNZ d   1      -2.896  -0.889   5.980  0.00  0.00     0.000 A 
ATOM      4  C4  BNZ d   1      -2.417   0.370   5.918  0.00  0.00     0.000 A 
ATOM      5  C5  BNZ d   1      -1.834   0.839   4.758  0.00  0.00     0.000 A 
ATOM      6  C6  BNZ d   1      -1.746   0.023   3.654  0.00  0.00     0.000 A 
ENDROOT
TORSDOF 0
ENDMDL
