MODEL 1
REMARK minimizedAffinity -1.25107026
REMARK minimizedRMSD -1
REMARK  0 active torsions:
REMARK  status: ('A' for Active; 'I' for Inactive)
ROOT
ATOM      1  C1  BNZ d   1       4.894   3.897  -4.849  0.00  0.00     0.000 A 
ATOM      2  C2  BNZ d   1       6.000   4.209  -4.103  0.00  0.00     0.000 A 
ATOM      3  C3  BNZ d   1       5.975   5.249  -3.216  0.00  0.00     0.000 A 
ATOM      4  C4  BNZ d   1       4.859   5.999  -3.105  0.00  0.00     0.000 A 
ATOM      5  C5  BNZ d   1       3.740   5.702  -3.857  0.00  0.00     0.000 A 
ATOM      6  C6  BNZ d   1       3.756   4.631  -4.720  0.00  0.00     0.000 A 
ENDROOT
TORSDOF 0
ENDMDL
