MODEL 1
REMARK minimizedAffinity -3.39093542
REMARK minimizedRMSD -1
REMARK  1 active torsions:
REMARK  status: ('A' for Active; 'I' for Inactive)
REMARK    1  A    between atoms: C3_4  and  O_7 
ROOT
ATOM      1  C   UNL d   1       0.858  -0.818   0.345  0.00  0.00    -0.033 A 
ATOM      2  C1  UNL d   1      -0.502  -0.512   0.258  0.00  0.00     0.039 A 
ATOM      3  C2  UNL d   1      -0.921   0.820   0.269  0.00  0.00    -0.080 A 
ATOM      4  C3  UNL d   1       0.027   1.834   0.368  0.00  0.00     0.150 A 
ATOM      5  C4  UNL d   1       1.383   1.536   0.452  0.00  0.00    -0.007 A 
ATOM      6  C5  UNL d   1       1.800   0.206   0.441  0.00  0.00     0.039 A 
ENDROOT
BRANCH   4   7
ATOM      7  O   UNL d   1      -0.335   3.148   0.388  0.00  0.00    -0.526 OA
ATOM      8  H5  UNL d   1      -1.304   3.201   0.352  0.00  0.00     0.418 HD
ENDBRANCH   4   7
TORSDOF 1
ENDMDL
