MODEL 1
REMARK minimizedAffinity -4.84813404
REMARK minimizedRMSD -1
REMARK  1 active torsions:
REMARK  status: ('A' for Active; 'I' for Inactive)
REMARK    1  A    between atoms: C3_4  and  O_7 
ROOT
ATOM      1  C   UNL d   1       0.405   3.045   0.272  0.00  0.00    -0.033 A 
ATOM      2  C1  UNL d   1      -0.696   2.348   0.775  0.00  0.00     0.039 A 
ATOM      3  C2  UNL d   1      -0.780   0.964   0.615  0.00  0.00    -0.080 A 
ATOM      4  C3  UNL d   1       0.241   0.289  -0.048  0.00  0.00     0.150 A 
ATOM      5  C4  UNL d   1       1.342   0.976  -0.549  0.00  0.00    -0.007 A 
ATOM      6  C5  UNL d   1       1.424   2.358  -0.389  0.00  0.00     0.039 A 
ENDROOT
BRANCH   4   7
ATOM      7  O   UNL d   1       0.200  -1.061  -0.233  0.00  0.00    -0.526 OA
ATOM      8  H5  UNL d   1      -0.632  -1.398   0.140  0.00  0.00     0.418 HD
ENDBRANCH   4   7
TORSDOF 1
ENDMDL
