MODEL 1
REMARK minimizedAffinity -5.51790428
REMARK minimizedRMSD -1
REMARK  1 active torsions:
REMARK  status: ('A' for Active; 'I' for Inactive)
REMARK    1  A    between atoms: C3_4  and  O_7 
ROOT
ATOM      1  C   UNL d   1       0.023   2.961   0.512  0.00  0.00    -0.033 A 
ATOM      2  C1  UNL d   1      -0.463   1.697   0.170  0.00  0.00     0.039 A 
ATOM      3  C2  UNL d   1       0.374   0.582   0.242  0.00  0.00    -0.080 A 
ATOM      4  C3  UNL d   1       1.694   0.744   0.657  0.00  0.00     0.150 A 
ATOM      5  C4  UNL d   1       2.183   1.999   1.002  0.00  0.00    -0.007 A 
ATOM      6  C5  UNL d   1       1.346   3.112   0.929  0.00  0.00     0.039 A 
ENDROOT
BRANCH   4   7
ATOM      7  O   UNL d   1       2.550  -0.314   0.737  0.00  0.00    -0.526 OA
ATOM      8  H5  UNL d   1       2.082  -1.112   0.441  0.00  0.00     0.418 HD
ENDBRANCH   4   7
TORSDOF 1
ENDMDL
