MODEL 1
REMARK minimizedAffinity -4.55803347
REMARK minimizedRMSD -1
REMARK  1 active torsions:
REMARK  status: ('A' for Active; 'I' for Inactive)
REMARK    1  A    between atoms: C3_4  and  O_7 
ROOT
ATOM      1  C   UNL d   1       1.882   1.417  -0.345  0.00  0.00    -0.033 A 
ATOM      2  C1  UNL d   1       2.296   0.396   0.514  0.00  0.00     0.039 A 
ATOM      3  C2  UNL d   1       1.525  -0.760   0.649  0.00  0.00    -0.080 A 
ATOM      4  C3  UNL d   1       0.345  -0.884  -0.079  0.00  0.00     0.150 A 
ATOM      5  C4  UNL d   1      -0.072   0.127  -0.939  0.00  0.00    -0.007 A 
ATOM      6  C5  UNL d   1       0.699   1.281  -1.072  0.00  0.00     0.039 A 
ENDROOT
BRANCH   4   7
ATOM      7  O   UNL d   1      -0.443  -1.992   0.023  0.00  0.00    -0.526 OA
ATOM      8  H5  UNL d   1      -0.045  -2.593   0.675  0.00  0.00     0.418 HD
ENDBRANCH   4   7
TORSDOF 1
ENDMDL
