MODEL 1
REMARK minimizedAffinity -4.84635258
REMARK minimizedRMSD -1
REMARK  1 active torsions:
REMARK  status: ('A' for Active; 'I' for Inactive)
REMARK    1  A    between atoms: C3_4  and  O_7 
ROOT
ATOM      1  C   UNL d   1       0.073  -0.358   0.449  0.00  0.00    -0.033 A 
ATOM      2  C1  UNL d   1       1.250   0.233  -0.014  0.00  0.00     0.039 A 
ATOM      3  C2  UNL d   1       1.270   1.590  -0.341  0.00  0.00    -0.080 A 
ATOM      4  C3  UNL d   1       0.108   2.345  -0.199  0.00  0.00     0.150 A 
ATOM      5  C4  UNL d   1      -1.067   1.763   0.266  0.00  0.00    -0.007 A 
ATOM      6  C5  UNL d   1      -1.085   0.407   0.590  0.00  0.00     0.039 A 
ENDROOT
BRANCH   4   7
ATOM      7  O   UNL d   1       0.078   3.672  -0.510  0.00  0.00    -0.526 OA
ATOM      8  H5  UNL d   1       0.953   3.929  -0.844  0.00  0.00     0.418 HD
ENDBRANCH   4   7
TORSDOF 1
ENDMDL
