MODEL 1
REMARK minimizedAffinity -4.36013365
REMARK minimizedRMSD -1
REMARK  1 active torsions:
REMARK  status: ('A' for Active; 'I' for Inactive)
REMARK    1  A    between atoms: C3_4  and  O_7 
ROOT
ATOM      1  C   UNL d   1      -0.011   3.037  -0.024  0.00  0.00    -0.033 A 
ATOM      2  C1  UNL d   1      -1.172   2.366   0.366  0.00  0.00     0.039 A 
ATOM      3  C2  UNL d   1      -1.224   0.971   0.318  0.00  0.00    -0.080 A 
ATOM      4  C3  UNL d   1      -0.110   0.261  -0.119  0.00  0.00     0.150 A 
ATOM      5  C4  UNL d   1       1.051   0.922  -0.505  0.00  0.00    -0.007 A 
ATOM      6  C5  UNL d   1       1.101   2.315  -0.458  0.00  0.00     0.039 A 
ENDROOT
BRANCH   4   7
ATOM      7  O   UNL d   1      -0.115  -1.101  -0.187  0.00  0.00    -0.526 OA
ATOM      8  H5  UNL d   1      -0.992  -1.419   0.082  0.00  0.00     0.418 HD
ENDBRANCH   4   7
TORSDOF 1
ENDMDL
