MODEL 1
REMARK minimizedAffinity -3.18327665
REMARK minimizedRMSD -1
REMARK  1 active torsions:
REMARK  status: ('A' for Active; 'I' for Inactive)
REMARK    1  A    between atoms: C3_4  and  O_7 
ROOT
ATOM      1  C   UNL d   1      -0.386  -0.119   0.294  0.00  0.00    -0.033 A 
ATOM      2  C1  UNL d   1       0.657   0.297  -0.537  0.00  0.00     0.039 A 
ATOM      3  C2  UNL d   1       0.787   1.645  -0.875  0.00  0.00    -0.080 A 
ATOM      4  C3  UNL d   1      -0.129   2.567  -0.376  0.00  0.00     0.150 A 
ATOM      5  C4  UNL d   1      -1.168   2.160   0.455  0.00  0.00    -0.007 A 
ATOM      6  C5  UNL d   1      -1.297   0.813   0.791  0.00  0.00     0.039 A 
ENDROOT
BRANCH   4   7
ATOM      7  O   UNL d   1      -0.046   3.892  -0.683  0.00  0.00    -0.526 OA
ATOM      8  H5  UNL d   1       0.703   4.022  -1.288  0.00  0.00     0.418 HD
ENDBRANCH   4   7
TORSDOF 1
ENDMDL
