MODEL 1
REMARK minimizedAffinity -4.51576614
REMARK minimizedRMSD -1
REMARK  1 active torsions:
REMARK  status: ('A' for Active; 'I' for Inactive)
REMARK    1  A    between atoms: C3_4  and  O_7 
ROOT
ATOM      1  C   UNL d   1       0.214  -0.140   0.090  0.00  0.00    -0.033 A 
ATOM      2  C1  UNL d   1      -1.107   0.313   0.092  0.00  0.00     0.039 A 
ATOM      3  C2  UNL d   1      -1.378   1.681   0.024  0.00  0.00    -0.080 A 
ATOM      4  C3  UNL d   1      -0.321   2.584  -0.046  0.00  0.00     0.150 A 
ATOM      5  C4  UNL d   1       0.997   2.140  -0.052  0.00  0.00    -0.007 A 
ATOM      6  C5  UNL d   1       1.266   0.774   0.017  0.00  0.00     0.039 A 
ENDROOT
BRANCH   4   7
ATOM      7  O   UNL d   1      -0.536   3.929  -0.109  0.00  0.00    -0.526 OA
ATOM      8  H5  UNL d   1      -1.493   4.090  -0.067  0.00  0.00     0.418 HD
ENDBRANCH   4   7
TORSDOF 1
ENDMDL
