MODEL 1
REMARK minimizedAffinity -4.57256699
REMARK minimizedRMSD -1
REMARK  1 active torsions:
REMARK  status: ('A' for Active; 'I' for Inactive)
REMARK    1  A    between atoms: C3_4  and  O_7 
ROOT
ATOM      1  C   UNL d   1      -0.403  -0.095   0.151  0.00  0.00    -0.033 A 
ATOM      2  C1  UNL d   1       0.899   0.334  -0.111  0.00  0.00     0.039 A 
ATOM      3  C2  UNL d   1       1.182   1.698  -0.204  0.00  0.00    -0.080 A 
ATOM      4  C3  UNL d   1       0.155   2.622  -0.031  0.00  0.00     0.150 A 
ATOM      5  C4  UNL d   1      -1.144   2.202   0.234  0.00  0.00    -0.007 A 
ATOM      6  C5  UNL d   1      -1.425   0.839   0.326  0.00  0.00     0.039 A 
ENDROOT
BRANCH   4   7
ATOM      7  O   UNL d   1       0.381   3.963  -0.117  0.00  0.00    -0.526 OA
ATOM      8  H5  UNL d   1       1.318   4.104  -0.334  0.00  0.00     0.418 HD
ENDBRANCH   4   7
TORSDOF 1
ENDMDL
