MODEL 1
REMARK minimizedAffinity -3.64777684
REMARK minimizedRMSD -1
REMARK  1 active torsions:
REMARK  status: ('A' for Active; 'I' for Inactive)
REMARK    1  A    between atoms: C3_4  and  O_7 
ROOT
ATOM      1  C   UNL d   1      -0.653  -3.280  -1.632  0.00  0.00    -0.033 A 
ATOM      2  C1  UNL d   1      -0.915  -2.800  -0.348  0.00  0.00     0.039 A 
ATOM      3  C2  UNL d   1      -0.329  -1.610   0.088  0.00  0.00    -0.080 A 
ATOM      4  C3  UNL d   1       0.516  -0.911  -0.770  0.00  0.00     0.150 A 
ATOM      5  C4  UNL d   1       0.779  -1.382  -2.052  0.00  0.00    -0.007 A 
ATOM      6  C5  UNL d   1       0.193  -2.571  -2.485  0.00  0.00     0.039 A 
ENDROOT
BRANCH   4   7
ATOM      7  O   UNL d   1       1.115   0.253  -0.388  0.00  0.00    -0.526 OA
ATOM      8  H5  UNL d   1       0.865   0.441   0.532  0.00  0.00     0.418 HD
ENDBRANCH   4   7
TORSDOF 1
ENDMDL
