MODEL 1
REMARK minimizedAffinity -3.70671964
REMARK minimizedRMSD -1
REMARK  1 active torsions:
REMARK  status: ('A' for Active; 'I' for Inactive)
REMARK    1  A    between atoms: C3_4  and  O_7 
ROOT
ATOM      1  C   UNL d   1      -0.177  -0.355   0.002  0.00  0.00    -0.033 A 
ATOM      2  C1  UNL d   1       0.922   0.340  -0.505  0.00  0.00     0.039 A 
ATOM      3  C2  UNL d   1       0.947   1.735  -0.464  0.00  0.00    -0.080 A 
ATOM      4  C3  UNL d   1      -0.131   2.423   0.086  0.00  0.00     0.150 A 
ATOM      5  C4  UNL d   1      -1.228   1.736   0.596  0.00  0.00    -0.007 A 
ATOM      6  C5  UNL d   1      -1.252   0.343   0.554  0.00  0.00     0.039 A 
ENDROOT
BRANCH   4   7
ATOM      7  O   UNL d   1      -0.154   3.784   0.143  0.00  0.00    -0.526 OA
ATOM      8  H5  UNL d   1       0.656   4.124  -0.273  0.00  0.00     0.418 HD
ENDBRANCH   4   7
TORSDOF 1
ENDMDL
