MODEL 1
REMARK minimizedAffinity -3.47095156
REMARK minimizedRMSD -1
REMARK  1 active torsions:
REMARK  status: ('A' for Active; 'I' for Inactive)
REMARK    1  A    between atoms: C3_4  and  O_7 
ROOT
ATOM      1  C   UNL d   1      -0.339  -0.156  -0.016  0.00  0.00    -0.033 A 
ATOM      2  C1  UNL d   1       0.917   0.369  -0.327  0.00  0.00     0.039 A 
ATOM      3  C2  UNL d   1       1.111   1.752  -0.348  0.00  0.00    -0.080 A 
ATOM      4  C3  UNL d   1       0.044   2.597  -0.056  0.00  0.00     0.150 A 
ATOM      5  C4  UNL d   1      -1.209   2.080   0.258  0.00  0.00    -0.007 A 
ATOM      6  C5  UNL d   1      -1.402   0.699   0.278  0.00  0.00     0.039 A 
ENDROOT
BRANCH   4   7
ATOM      7  O   UNL d   1       0.184   3.953  -0.069  0.00  0.00    -0.526 OA
ATOM      8  H5  UNL d   1       1.095   4.165  -0.331  0.00  0.00     0.418 HD
ENDBRANCH   4   7
TORSDOF 1
ENDMDL
