MODEL 1
REMARK minimizedAffinity -3.99985027
REMARK minimizedRMSD -1
REMARK  1 active torsions:
REMARK  status: ('A' for Active; 'I' for Inactive)
REMARK    1  A    between atoms: C3_4  and  O_7 
ROOT
ATOM      1  C   UNL d   1      -0.351   0.283  -0.043  0.00  0.00    -0.033 A 
ATOM      2  C1  UNL d   1      -0.696   1.008   1.099  0.00  0.00     0.039 A 
ATOM      3  C2  UNL d   1      -0.424   2.376   1.168  0.00  0.00    -0.080 A 
ATOM      4  C3  UNL d   1       0.192   3.006   0.090  0.00  0.00     0.150 A 
ATOM      5  C4  UNL d   1       0.534   2.290  -1.053  0.00  0.00    -0.007 A 
ATOM      6  C5  UNL d   1       0.263   0.924  -1.120  0.00  0.00     0.039 A 
ENDROOT
BRANCH   4   7
ATOM      7  O   UNL d   1       0.481   4.337   0.113  0.00  0.00    -0.526 OA
ATOM      8  H5  UNL d   1       0.214   4.695   0.976  0.00  0.00     0.418 HD
ENDBRANCH   4   7
TORSDOF 1
ENDMDL
