MODEL 1
REMARK minimizedAffinity 2.0281837
REMARK minimizedRMSD -1
REMARK  0 active torsions:
REMARK  status: ('A' for Active; 'I' for Inactive)
ROOT
ATOM      1  N1  IND d   1       5.370  -3.434  -4.279  0.00  0.00    -0.196 N 
ATOM      2  C2  IND d   1       5.499  -4.677  -4.832  0.00  0.00     0.054 A 
ATOM      3  C3  IND d   1       5.788  -5.589  -3.877  0.00  0.00    -0.031 A 
ATOM      4  C4  IND d   1       5.996  -5.279  -1.329  0.00  0.00     0.051 A 
ATOM      5  C5  IND d   1       5.996  -4.318  -0.358  0.00  0.00    -0.031 A 
ATOM      6  C6  IND d   1       5.781  -2.986  -0.649  0.00  0.00     0.015 A 
ATOM      7  C7  IND d   1       5.545  -2.566  -1.927  0.00  0.00    -0.016 A 
ATOM      8  C8  IND d   1       5.551  -3.538  -2.918  0.00  0.00    -0.047 A 
ATOM      9  C9  IND d   1       5.811  -4.885  -2.634  0.00  0.00    -0.096 A 
ATOM     10  HN1 IND d   1       5.204  -2.708  -4.710  0.00  0.00     0.298 HD
ENDROOT
TORSDOF 0
ENDMDL
