MODEL 1
REMARK minimizedAffinity -2.84802127
REMARK minimizedRMSD -1
REMARK  0 active torsions:
REMARK  status: ('A' for Active; 'I' for Inactive)
ROOT
ATOM      1  N1  IND d   1       6.000  -5.863  -0.103  0.00  0.00    -0.196 N 
ATOM      2  C2  IND d   1       5.999  -4.820   0.781  0.00  0.00     0.054 A 
ATOM      3  C3  IND d   1       5.891  -3.645   0.122  0.00  0.00    -0.031 A 
ATOM      4  C4  IND d   1       5.601  -3.203  -2.397  0.00  0.00     0.051 A 
ATOM      5  C5  IND d   1       5.580  -3.838  -3.607  0.00  0.00    -0.031 A 
ATOM      6  C6  IND d   1       5.698  -5.209  -3.713  0.00  0.00     0.015 A 
ATOM      7  C7  IND d   1       5.830  -6.000  -2.607  0.00  0.00    -0.016 A 
ATOM      8  C8  IND d   1       5.858  -5.357  -1.377  0.00  0.00    -0.047 A 
ATOM      9  C9  IND d   1       5.782  -3.963  -1.266  0.00  0.00    -0.096 A 
ATOM     10  HN1 IND d   1       6.076  -6.695   0.102  0.00  0.00     0.298 HD
ENDROOT
TORSDOF 0
ENDMDL
