MODEL 1
REMARK minimizedAffinity -4.03026009
REMARK minimizedRMSD -1
REMARK  0 active torsions:
REMARK  status: ('A' for Active; 'I' for Inactive)
ROOT
ATOM      1  N1  IND d   1       4.884  -5.144   4.973  0.00  0.00    -0.196 N 
ATOM      2  C2  IND d   1       4.665  -4.268   5.999  0.00  0.00     0.054 A 
ATOM      3  C3  IND d   1       4.929  -3.003   5.602  0.00  0.00    -0.031 A 
ATOM      4  C4  IND d   1       5.634  -2.130   3.285  0.00  0.00     0.051 A 
ATOM      5  C5  IND d   1       5.994  -2.556   2.037  0.00  0.00    -0.031 A 
ATOM      6  C6  IND d   1       6.000  -3.893   1.696  0.00  0.00     0.015 A 
ATOM      7  C7  IND d   1       5.633  -4.858   2.591  0.00  0.00    -0.016 A 
ATOM      8  C8  IND d   1       5.274  -4.430   3.861  0.00  0.00    -0.047 A 
ATOM      9  C9  IND d   1       5.307  -3.077   4.226  0.00  0.00    -0.096 A 
ATOM     10  HN1 IND d   1       4.793  -5.998   5.014  0.00  0.00     0.298 HD
ENDROOT
TORSDOF 0
ENDMDL
