MODEL 1
REMARK minimizedAffinity -3.74167395
REMARK minimizedRMSD -1
REMARK  0 active torsions:
REMARK  status: ('A' for Active; 'I' for Inactive)
ROOT
ATOM      1  N1  IND d   1       3.921  -5.100   5.649  0.00  0.00    -0.196 N 
ATOM      2  C2  IND d   1       3.445  -5.993   4.729  0.00  0.00     0.054 A 
ATOM      3  C3  IND d   1       3.838  -5.640   3.485  0.00  0.00    -0.031 A 
ATOM      4  C4  IND d   1       5.350  -3.696   2.736  0.00  0.00     0.051 A 
ATOM      5  C5  IND d   1       5.998  -2.590   3.212  0.00  0.00    -0.031 A 
ATOM      6  C6  IND d   1       5.988  -2.259   4.551  0.00  0.00     0.015 A 
ATOM      7  C7  IND d   1       5.337  -3.032   5.471  0.00  0.00    -0.016 A 
ATOM      8  C8  IND d   1       4.673  -4.151   4.991  0.00  0.00    -0.047 A 
ATOM      9  C9  IND d   1       4.643  -4.469   3.627  0.00  0.00    -0.096 A 
ATOM     10  HN1 IND d   1       3.775  -5.127   6.496  0.00  0.00     0.298 HD
ENDROOT
TORSDOF 0
ENDMDL
