MODEL 1
REMARK minimizedAffinity -0.901154518
REMARK minimizedRMSD -1
REMARK  0 active torsions:
REMARK  status: ('A' for Active; 'I' for Inactive)
ROOT
ATOM      1  N1  IND d   1       5.998  -4.677   2.529  0.00  0.00    -0.196 N 
ATOM      2  C2  IND d   1       5.128  -4.349   1.526  0.00  0.00     0.054 A 
ATOM      3  C3  IND d   1       4.064  -3.682   2.026  0.00  0.00    -0.031 A 
ATOM      4  C4  IND d   1       3.593  -2.929   4.442  0.00  0.00     0.051 A 
ATOM      5  C5  IND d   1       4.080  -3.029   5.715  0.00  0.00    -0.031 A 
ATOM      6  C6  IND d   1       5.256  -3.693   5.997  0.00  0.00     0.015 A 
ATOM      7  C7  IND d   1       5.998  -4.277   5.009  0.00  0.00    -0.016 A 
ATOM      8  C8  IND d   1       5.504  -4.184   3.716  0.00  0.00    -0.047 A 
ATOM      9  C9  IND d   1       4.289  -3.547   3.430  0.00  0.00    -0.096 A 
ATOM     10  HN1 IND d   1       6.730  -5.118   2.433  0.00  0.00     0.298 HD
ENDROOT
TORSDOF 0
ENDMDL
