MODEL 1
REMARK minimizedAffinity 0.859615564
REMARK minimizedRMSD -1
REMARK  0 active torsions:
REMARK  status: ('A' for Active; 'I' for Inactive)
ROOT
ATOM      1  N1  IND d   1       4.588  -4.788   2.554  0.00  0.00    -0.196 N 
ATOM      2  C2  IND d   1       5.368  -4.167   1.618  0.00  0.00     0.054 A 
ATOM      3  C3  IND d   1       5.998  -3.103   2.163  0.00  0.00    -0.031 A 
ATOM      4  C4  IND d   1       5.976  -2.257   4.595  0.00  0.00     0.051 A 
ATOM      5  C5  IND d   1       5.383  -2.477   5.806  0.00  0.00    -0.031 A 
ATOM      6  C6  IND d   1       4.478  -3.500   6.000  0.00  0.00     0.015 A 
ATOM      7  C7  IND d   1       4.140  -4.353   4.988  0.00  0.00    -0.016 A 
ATOM      8  C8  IND d   1       4.735  -4.129   3.754  0.00  0.00    -0.047 A 
ATOM      9  C9  IND d   1       5.622  -3.066   3.541  0.00  0.00    -0.096 A 
ATOM     10  HN1 IND d   1       4.090  -5.475   2.415  0.00  0.00     0.298 HD
ENDROOT
TORSDOF 0
ENDMDL
