MODEL 1
REMARK minimizedAffinity -3.18164802
REMARK minimizedRMSD -1
REMARK  0 active torsions:
REMARK  status: ('A' for Active; 'I' for Inactive)
ROOT
ATOM      1  N1  IND d   1       5.633  -4.849   2.535  0.00  0.00    -0.196 N 
ATOM      2  C2  IND d   1       5.995  -3.901   1.619  0.00  0.00     0.054 A 
ATOM      3  C3  IND d   1       5.994  -2.674   2.187  0.00  0.00    -0.031 A 
ATOM      4  C4  IND d   1       5.529  -2.002   4.628  0.00  0.00     0.051 A 
ATOM      5  C5  IND d   1       5.121  -2.515   5.827  0.00  0.00    -0.031 A 
ATOM      6  C6  IND d   1       4.860  -3.859   5.995  0.00  0.00     0.015 A 
ATOM      7  C7  IND d   1       5.009  -4.747   4.967  0.00  0.00    -0.016 A 
ATOM      8  C8  IND d   1       5.416  -4.229   3.746  0.00  0.00    -0.047 A 
ATOM      9  C9  IND d   1       5.642  -2.859   3.559  0.00  0.00    -0.096 A 
ATOM     10  HN1 IND d   1       5.553  -5.691   2.381  0.00  0.00     0.298 HD
ENDROOT
TORSDOF 0
ENDMDL
