MODEL 1
REMARK minimizedAffinity -0.717501044
REMARK minimizedRMSD -1
REMARK  0 active torsions:
REMARK  status: ('A' for Active; 'I' for Inactive)
ROOT
ATOM      1  N1  IND d   1       4.692  -5.244   3.053  0.00  0.00    -0.196 N 
ATOM      2  C2  IND d   1       5.411  -4.880   1.949  0.00  0.00     0.054 A 
ATOM      3  C3  IND d   1       5.999  -3.679   2.146  0.00  0.00    -0.031 A 
ATOM      4  C4  IND d   1       6.000  -2.182   4.241  0.00  0.00     0.051 A 
ATOM      5  C5  IND d   1       5.453  -2.075   5.489  0.00  0.00    -0.031 A 
ATOM      6  C6  IND d   1       4.609  -3.040   6.000  0.00  0.00     0.015 A 
ATOM      7  C7  IND d   1       4.289  -4.158   5.283  0.00  0.00    -0.016 A 
ATOM      8  C8  IND d   1       4.837  -4.266   4.013  0.00  0.00    -0.047 A 
ATOM      9  C9  IND d   1       5.660  -3.270   3.472  0.00  0.00    -0.096 A 
ATOM     10  HN1 IND d   1       4.227  -5.963   3.134  0.00  0.00     0.298 HD
ENDROOT
TORSDOF 0
ENDMDL
