MODEL 1
REMARK minimizedAffinity 3.340554
REMARK minimizedRMSD -1
REMARK  0 active torsions:
REMARK  status: ('A' for Active; 'I' for Inactive)
ROOT
ATOM      1  N1  IND d   1       5.912  -1.908   3.629  0.00  0.00    -0.196 N 
ATOM      2  C2  IND d   1       5.857  -1.163   4.774  0.00  0.00     0.054 A 
ATOM      3  C3  IND d   1       5.829  -1.970   5.859  0.00  0.00    -0.031 A 
ATOM      4  C4  IND d   1       5.965  -4.537   5.991  0.00  0.00     0.051 A 
ATOM      5  C5  IND d   1       5.990  -5.657   5.207  0.00  0.00    -0.031 A 
ATOM      6  C6  IND d   1       5.992  -5.582   3.829  0.00  0.00     0.015 A 
ATOM      7  C7  IND d   1       5.982  -4.379   3.181  0.00  0.00    -0.016 A 
ATOM      8  C8  IND d   1       5.950  -3.241   3.974  0.00  0.00    -0.047 A 
ATOM      9  C9  IND d   1       5.904  -3.311   5.372  0.00  0.00    -0.096 A 
ATOM     10  HN1 IND d   1       5.920  -1.596   2.828  0.00  0.00     0.298 HD
ENDROOT
TORSDOF 0
ENDMDL
