MODEL 1
REMARK minimizedAffinity 5.7530818
REMARK minimizedRMSD -1
REMARK  0 active torsions:
REMARK  status: ('A' for Active; 'I' for Inactive)
ROOT
ATOM      1  N1  IND d   1       6.000  -5.565  -1.140  0.00  0.00    -0.196 N 
ATOM      2  C2  IND d   1       6.000  -4.466  -0.326  0.00  0.00     0.054 A 
ATOM      3  C3  IND d   1       5.969  -3.334  -1.065  0.00  0.00    -0.031 A 
ATOM      4  C4  IND d   1       5.812  -3.051  -3.619  0.00  0.00     0.051 A 
ATOM      5  C5  IND d   1       5.822  -3.765  -4.784  0.00  0.00    -0.031 A 
ATOM      6  C6  IND d   1       5.891  -5.143  -4.794  0.00  0.00     0.015 A 
ATOM      7  C7  IND d   1       5.940  -5.863  -3.634  0.00  0.00    -0.016 A 
ATOM      8  C8  IND d   1       5.937  -5.141  -2.449  0.00  0.00    -0.047 A 
ATOM      9  C9  IND d   1       5.911  -3.740  -2.433  0.00  0.00    -0.096 A 
ATOM     10  HN1 IND d   1       6.034  -6.383  -0.877  0.00  0.00     0.298 HD
ENDROOT
TORSDOF 0
ENDMDL
