MODEL 1
REMARK minimizedAffinity -3.14318943
REMARK minimizedRMSD -1
REMARK  0 active torsions:
REMARK  status: ('A' for Active; 'I' for Inactive)
ROOT
ATOM      1  N1  IND d   1       5.799  -5.985   2.937  0.00  0.00    -0.196 N 
ATOM      2  C2  IND d   1       6.000  -5.360   1.738  0.00  0.00     0.054 A 
ATOM      3  C3  IND d   1       5.995  -4.018   1.900  0.00  0.00    -0.031 A 
ATOM      4  C4  IND d   1       5.778  -2.632   4.059  0.00  0.00     0.051 A 
ATOM      5  C5  IND d   1       5.541  -2.756   5.399  0.00  0.00    -0.031 A 
ATOM      6  C6  IND d   1       5.378  -3.988   6.000  0.00  0.00     0.015 A 
ATOM      7  C7  IND d   1       5.456  -5.147   5.281  0.00  0.00    -0.016 A 
ATOM      8  C8  IND d   1       5.690  -5.025   3.919  0.00  0.00    -0.047 A 
ATOM      9  C9  IND d   1       5.815  -3.776   3.296  0.00  0.00    -0.096 A 
ATOM     10  HN1 IND d   1       5.750  -6.835   3.058  0.00  0.00     0.298 HD
ENDROOT
TORSDOF 0
ENDMDL
