MODEL 1
REMARK minimizedAffinity 5.57442284
REMARK minimizedRMSD -1
REMARK  0 active torsions:
REMARK  status: ('A' for Active; 'I' for Inactive)
ROOT
ATOM      1  N1  IND d   1       3.878  -5.060   5.940  0.00  0.00    -0.196 N 
ATOM      2  C2  IND d   1       5.009  -5.825   5.997  0.00  0.00     0.054 A 
ATOM      3  C3  IND d   1       5.993  -5.264   5.259  0.00  0.00    -0.031 A 
ATOM      4  C4  IND d   1       5.998  -3.044   3.955  0.00  0.00     0.051 A 
ATOM      5  C5  IND d   1       5.182  -2.015   3.578  0.00  0.00    -0.031 A 
ATOM      6  C6  IND d   1       3.863  -1.945   3.979  0.00  0.00     0.015 A 
ATOM      7  C7  IND d   1       3.313  -2.901   4.786  0.00  0.00    -0.016 A 
ATOM      8  C8  IND d   1       4.136  -3.951   5.165  0.00  0.00    -0.047 A 
ATOM      9  C9  IND d   1       5.463  -4.050   4.726  0.00  0.00    -0.096 A 
ATOM     10  HN1 IND d   1       3.130  -5.242   6.323  0.00  0.00     0.298 HD
ENDROOT
TORSDOF 0
ENDMDL
