MODEL 1
REMARK minimizedAffinity -3.96210909
REMARK minimizedRMSD -1
REMARK  0 active torsions:
REMARK  status: ('A' for Active; 'I' for Inactive)
ROOT
ATOM      1  N1  IND d   1       6.000  -3.711   1.100  0.00  0.00    -0.196 N 
ATOM      2  C2  IND d   1       5.950  -5.060   0.883  0.00  0.00     0.054 A 
ATOM      3  C3  IND d   1       5.898  -5.724   2.060  0.00  0.00    -0.031 A 
ATOM      4  C4  IND d   1       5.780  -4.795   4.458  0.00  0.00     0.051 A 
ATOM      5  C5  IND d   1       5.834  -3.626   5.164  0.00  0.00    -0.031 A 
ATOM      6  C6  IND d   1       5.945  -2.401   4.539  0.00  0.00     0.015 A 
ATOM      7  C7  IND d   1       5.996  -2.298   3.178  0.00  0.00    -0.016 A 
ATOM      8  C8  IND d   1       5.949  -3.483   2.458  0.00  0.00    -0.047 A 
ATOM      9  C9  IND d   1       5.878  -4.732   3.088  0.00  0.00    -0.096 A 
ATOM     10  HN1 IND d   1       6.054  -3.107   0.491  0.00  0.00     0.298 HD
ENDROOT
TORSDOF 0
ENDMDL
