MODEL 1
REMARK minimizedAffinity 0.0581444278
REMARK minimizedRMSD -1
REMARK  0 active torsions:
REMARK  status: ('A' for Active; 'I' for Inactive)
ROOT
ATOM      1  N1  IND d   1       5.925  -3.121  -4.760  0.00  0.00    -0.196 N 
ATOM      2  C2  IND d   1       5.943  -4.199  -5.601  0.00  0.00     0.054 A 
ATOM      3  C3  IND d   1       5.999  -5.348  -4.892  0.00  0.00    -0.031 A 
ATOM      4  C4  IND d   1       5.969  -5.699  -2.341  0.00  0.00     0.051 A 
ATOM      5  C5  IND d   1       5.995  -5.014  -1.159  0.00  0.00    -0.031 A 
ATOM      6  C6  IND d   1       5.997  -3.634  -1.116  0.00  0.00     0.015 A 
ATOM      7  C7  IND d   1       5.960  -2.886  -2.259  0.00  0.00    -0.016 A 
ATOM      8  C8  IND d   1       5.941  -3.578  -3.461  0.00  0.00    -0.047 A 
ATOM      9  C9  IND d   1       5.982  -4.978  -3.512  0.00  0.00    -0.096 A 
ATOM     10  HN1 IND d   1       5.908  -2.296  -5.002  0.00  0.00     0.298 HD
ENDROOT
TORSDOF 0
ENDMDL
