MODEL 1
REMARK minimizedAffinity -1.27181756
REMARK minimizedRMSD -1
REMARK  0 active torsions:
REMARK  status: ('A' for Active; 'I' for Inactive)
ROOT
ATOM      1  N1  IND d   1       5.787  -4.499   2.953  0.00  0.00    -0.196 N 
ATOM      2  C2  IND d   1       5.644  -3.418   3.778  0.00  0.00     0.054 A 
ATOM      3  C3  IND d   1       5.615  -2.276   3.056  0.00  0.00    -0.031 A 
ATOM      4  C4  IND d   1       5.684  -1.952   0.503  0.00  0.00     0.051 A 
ATOM      5  C5  IND d   1       5.847  -2.640  -0.666  0.00  0.00    -0.031 A 
ATOM      6  C6  IND d   1       5.999  -4.012  -0.689  0.00  0.00     0.015 A 
ATOM      7  C7  IND d   1       5.982  -4.750   0.460  0.00  0.00    -0.016 A 
ATOM      8  C8  IND d   1       5.824  -4.053   1.650  0.00  0.00    -0.047 A 
ATOM      9  C9  IND d   1       5.712  -2.657   1.683  0.00  0.00    -0.096 A 
ATOM     10  HN1 IND d   1       5.845  -5.319   3.205  0.00  0.00     0.298 HD
ENDROOT
TORSDOF 0
ENDMDL
