MODEL 1
REMARK minimizedAffinity -2.4761889
REMARK minimizedRMSD -1
REMARK  0 active torsions:
REMARK  status: ('A' for Active; 'I' for Inactive)
ROOT
ATOM      1  N1  IND d   1       5.953  -1.739   4.201  0.00  0.00    -0.196 N 
ATOM      2  C2  IND d   1       5.882  -1.777   5.566  0.00  0.00     0.054 A 
ATOM      3  C3  IND d   1       5.817  -3.056   5.998  0.00  0.00    -0.031 A 
ATOM      4  C4  IND d   1       5.915  -5.246   4.649  0.00  0.00     0.051 A 
ATOM      5  C5  IND d   1       5.943  -5.721   3.367  0.00  0.00    -0.031 A 
ATOM      6  C6  IND d   1       5.979  -4.876   2.277  0.00  0.00     0.015 A 
ATOM      7  C7  IND d   1       6.000  -3.519   2.428  0.00  0.00    -0.016 A 
ATOM      8  C8  IND d   1       5.965  -3.032   3.727  0.00  0.00    -0.047 A 
ATOM      9  C9  IND d   1       5.885  -3.884   4.836  0.00  0.00    -0.096 A 
ATOM     10  HN1 IND d   1       5.985  -1.027   3.720  0.00  0.00     0.298 HD
ENDROOT
TORSDOF 0
ENDMDL
