MODEL 1
REMARK minimizedAffinity -1.90092731
REMARK minimizedRMSD -1
REMARK  0 active torsions:
REMARK  status: ('A' for Active; 'I' for Inactive)
ROOT
ATOM      1  N1  IND d   1       6.000  -2.646   2.044  0.00  0.00    -0.196 N 
ATOM      2  C2  IND d   1       6.000  -3.847   1.391  0.00  0.00     0.054 A 
ATOM      3  C3  IND d   1       5.999  -4.865   2.280  0.00  0.00    -0.031 A 
ATOM      4  C4  IND d   1       5.895  -4.793   4.851  0.00  0.00     0.051 A 
ATOM      5  C5  IND d   1       5.916  -3.924   5.906  0.00  0.00    -0.031 A 
ATOM      6  C6  IND d   1       5.965  -2.557   5.724  0.00  0.00     0.015 A 
ATOM      7  C7  IND d   1       5.983  -2.005   4.474  0.00  0.00    -0.016 A 
ATOM      8  C8  IND d   1       5.968  -2.885   3.401  0.00  0.00    -0.047 A 
ATOM      9  C9  IND d   1       5.961  -4.274   3.580  0.00  0.00    -0.096 A 
ATOM     10  HN1 IND d   1       6.017  -1.871   1.671  0.00  0.00     0.298 HD
ENDROOT
TORSDOF 0
ENDMDL
