MODEL 1
REMARK minimizedAffinity 2.93793607
REMARK minimizedRMSD -1
REMARK  1 active torsions:
REMARK  status: ('A' for Active; 'I' for Inactive)
REMARK    1  A    between atoms: C1_2  and  C2_3 
ROOT
ATOM      1  C2  UNL d   1       3.636  -4.484  -1.209  0.00  0.00    -0.077 A 
ATOM      2  C3  UNL d   1       2.675  -4.987  -0.321  0.00  0.00     0.002 A 
ATOM      3  C4  UNL d   1       1.599  -5.739  -0.796  0.00  0.00     0.002 A 
ATOM      4  C5  UNL d   1       1.475  -5.997  -2.159  0.00  0.00    -0.004 A 
ATOM      5  C6  UNL d   1       2.424  -5.500  -3.051  0.00  0.00     0.002 A 
ATOM      6  C7  UNL d   1       3.500  -4.747  -2.578  0.00  0.00     0.002 A 
ENDROOT
BRANCH   1   7
ATOM      7  C1  UNL d   1       4.824  -3.715  -0.693  0.00  0.00     0.055 C 
ATOM      8  C   UNL d   1       4.412  -2.348  -0.166  0.00  0.00     0.019 C 
ENDBRANCH   1   7
TORSDOF 1
ENDMDL
