MODEL 1
REMARK minimizedAffinity 3.97795463
REMARK minimizedRMSD -1
REMARK  1 active torsions:
REMARK  status: ('A' for Active; 'I' for Inactive)
REMARK    1  A    between atoms: C1_2  and  C2_3 
ROOT
ATOM      1  C2  UNL d   1       3.099  -5.306  -2.276  0.00  0.00    -0.077 A 
ATOM      2  C3  UNL d   1       3.515  -4.614  -1.130  0.00  0.00     0.002 A 
ATOM      3  C4  UNL d   1       2.725  -4.615   0.021  0.00  0.00     0.002 A 
ATOM      4  C5  UNL d   1       1.517  -5.309   0.039  0.00  0.00    -0.004 A 
ATOM      5  C6  UNL d   1       1.094  -5.999  -1.097  0.00  0.00     0.002 A 
ATOM      6  C7  UNL d   1       1.881  -5.998  -2.249  0.00  0.00     0.002 A 
ENDROOT
BRANCH   1   7
ATOM      7  C1  UNL d   1       3.973  -5.347  -3.503  0.00  0.00     0.055 C 
ATOM      8  C   UNL d   1       3.362  -4.548  -4.645  0.00  0.00     0.019 C 
ENDBRANCH   1   7
TORSDOF 1
ENDMDL
