MODEL 1
REMARK minimizedAffinity 8.72457886
REMARK minimizedRMSD -1
REMARK  1 active torsions:
REMARK  status: ('A' for Active; 'I' for Inactive)
REMARK    1  A    between atoms: C1_2  and  C2_3 
ROOT
ATOM      1  C2  UNL d   1      -0.427   3.339   1.165  0.00  0.00    -0.077 A 
ATOM      2  C3  UNL d   1       0.683   3.229   0.315  0.00  0.00     0.002 A 
ATOM      3  C4  UNL d   1       0.986   4.250  -0.587  0.00  0.00     0.002 A 
ATOM      4  C5  UNL d   1       0.187   5.390  -0.646  0.00  0.00    -0.004 A 
ATOM      5  C6  UNL d   1      -0.920   5.508   0.193  0.00  0.00     0.002 A 
ATOM      6  C7  UNL d   1      -1.226   4.488   1.095  0.00  0.00     0.002 A 
ENDROOT
BRANCH   1   7
ATOM      7  C1  UNL d   1      -0.727   2.261   2.173  0.00  0.00     0.055 C 
ATOM      8  C   UNL d   1       0.518   1.876   2.958  0.00  0.00     0.019 C 
ENDBRANCH   1   7
TORSDOF 1
ENDMDL
