MODEL 1
REMARK minimizedAffinity 7.10501909
REMARK minimizedRMSD -1
REMARK  1 active torsions:
REMARK  status: ('A' for Active; 'I' for Inactive)
REMARK    1  A    between atoms: C1_2  and  C2_3 
ROOT
ATOM      1  C2  UNL d   1       2.845  -5.902  -3.328  0.00  0.00    -0.077 A 
ATOM      2  C3  UNL d   1       3.032  -5.911  -1.938  0.00  0.00     0.002 A 
ATOM      3  C4  UNL d   1       1.933  -5.939  -1.078  0.00  0.00     0.002 A 
ATOM      4  C5  UNL d   1       0.640  -5.963  -1.598  0.00  0.00    -0.004 A 
ATOM      5  C6  UNL d   1       0.444  -5.952  -2.978  0.00  0.00     0.002 A 
ATOM      6  C7  UNL d   1       1.541  -5.922  -3.839  0.00  0.00     0.002 A 
ENDROOT
BRANCH   1   7
ATOM      7  C1  UNL d   1       4.030  -5.921  -4.258  0.00  0.00     0.055 C 
ATOM      8  C   UNL d   1       4.919  -4.703  -4.047  0.00  0.00     0.019 C 
ENDBRANCH   1   7
TORSDOF 1
ENDMDL
