MODEL 1
REMARK minimizedAffinity 10.0735168
REMARK minimizedRMSD -1
REMARK  1 active torsions:
REMARK  status: ('A' for Active; 'I' for Inactive)
REMARK    1  A    between atoms: C1_2  and  C2_3 
ROOT
ATOM      1  C2  UNL d   1       0.043   3.547   0.561  0.00  0.00    -0.077 A 
ATOM      2  C3  UNL d   1       0.453   3.832  -0.749  0.00  0.00     0.002 A 
ATOM      3  C4  UNL d   1       0.125   5.053  -1.341  0.00  0.00     0.002 A 
ATOM      4  C5  UNL d   1      -0.610   6.000  -0.629  0.00  0.00    -0.004 A 
ATOM      5  C6  UNL d   1      -1.024   5.724   0.673  0.00  0.00     0.002 A 
ATOM      6  C7  UNL d   1      -0.698   4.504   1.266  0.00  0.00     0.002 A 
ENDROOT
BRANCH   1   7
ATOM      7  C1  UNL d   1       0.437   2.250   1.219  0.00  0.00     0.055 C 
ATOM      8  C   UNL d   1       0.292   2.330   2.732  0.00  0.00     0.019 C 
ENDBRANCH   1   7
TORSDOF 1
ENDMDL
