MODEL 1
REMARK minimizedAffinity 6.59772015
REMARK minimizedRMSD -1
REMARK  1 active torsions:
REMARK  status: ('A' for Active; 'I' for Inactive)
REMARK    1  A    between atoms: C1_2  and  C2_3 
ROOT
ATOM      1  C2  UNL d   1       4.747  -2.209  -2.434  0.00  0.00    -0.077 A 
ATOM      2  C3  UNL d   1       3.589  -1.531  -2.029  0.00  0.00     0.002 A 
ATOM      3  C4  UNL d   1       3.357  -1.274  -0.676  0.00  0.00     0.002 A 
ATOM      4  C5  UNL d   1       4.281  -1.688   0.282  0.00  0.00    -0.004 A 
ATOM      5  C6  UNL d   1       5.435  -2.365  -0.111  0.00  0.00     0.002 A 
ATOM      6  C7  UNL d   1       5.667  -2.623  -1.462  0.00  0.00     0.002 A 
ENDROOT
BRANCH   1   7
ATOM      7  C1  UNL d   1       5.023  -2.443  -3.896  0.00  0.00     0.055 C 
ATOM      8  C   UNL d   1       4.757  -3.890  -4.284  0.00  0.00     0.019 C 
ENDBRANCH   1   7
TORSDOF 1
ENDMDL
