MODEL 1
REMARK minimizedAffinity 2.25180507
REMARK minimizedRMSD -1
REMARK  1 active torsions:
REMARK  status: ('A' for Active; 'I' for Inactive)
REMARK    1  A    between atoms: C1_2  and  C2_3 
ROOT
ATOM      1  C2  UNL d   1       0.826   1.461   2.328  0.00  0.00    -0.077 A 
ATOM      2  C3  UNL d   1       1.248   2.259   1.256  0.00  0.00     0.002 A 
ATOM      3  C4  UNL d   1       0.367   3.164   0.659  0.00  0.00     0.002 A 
ATOM      4  C5  UNL d   1      -0.938   3.282   1.132  0.00  0.00    -0.004 A 
ATOM      5  C6  UNL d   1      -1.368   2.492   2.197  0.00  0.00     0.002 A 
ATOM      6  C7  UNL d   1      -0.489   1.586   2.793  0.00  0.00     0.002 A 
ENDROOT
BRANCH   1   7
ATOM      7  C1  UNL d   1       1.788   0.520   3.004  0.00  0.00     0.055 C 
ATOM      8  C   UNL d   1       1.064  -0.427   3.950  0.00  0.00     0.019 C 
ENDBRANCH   1   7
TORSDOF 1
ENDMDL
