MODEL 1
REMARK minimizedAffinity 8.40182114
REMARK minimizedRMSD -1
REMARK  1 active torsions:
REMARK  status: ('A' for Active; 'I' for Inactive)
REMARK    1  A    between atoms: N_2  and  C1_3 
ROOT
ATOM      1  C1  UNL d   1       4.562   1.518  -2.175  0.00  0.00     0.143 A 
ATOM      2  C2  UNL d   1       3.615   0.567  -2.572  0.00  0.00    -0.057 A 
ATOM      3  C3  UNL d   1       2.668   0.066  -1.671  0.00  0.00     0.033 A 
ATOM      4  C4  UNL d   1       2.671   0.486  -0.345  0.00  0.00    -0.042 A 
ATOM      5  C5  UNL d   1       3.619   1.411   0.078  0.00  0.00     0.033 A 
ATOM      6  C6  UNL d   1       4.557   1.914  -0.829  0.00  0.00    -0.057 A 
ENDROOT
BRANCH   1   7
ATOM      7  N   UNL d   1       5.591   1.981  -2.999  0.00  0.00    -0.732 N 
ATOM      8  C   UNL d   1       5.661   3.376  -3.377  0.00  0.00     0.284 C 
ATOM      9  H3  UNL d   1       6.491   1.568  -2.766  0.00  0.00     0.395 HD
ENDBRANCH   1   7
TORSDOF 1
ENDMDL
