MODEL 1
REMARK minimizedAffinity 13.3594313
REMARK minimizedRMSD -1
REMARK  1 active torsions:
REMARK  status: ('A' for Active; 'I' for Inactive)
REMARK    1  A    between atoms: N_2  and  C1_3 
ROOT
ATOM      1  C1  UNL d   1       5.469   2.625  -1.611  0.00  0.00     0.143 A 
ATOM      2  C2  UNL d   1       5.993   2.637  -0.314  0.00  0.00    -0.057 A 
ATOM      3  C3  UNL d   1       5.358   1.956   0.731  0.00  0.00     0.033 A 
ATOM      4  C4  UNL d   1       4.169   1.272   0.503  0.00  0.00    -0.042 A 
ATOM      5  C5  UNL d   1       3.617   1.267  -0.773  0.00  0.00     0.033 A 
ATOM      6  C6  UNL d   1       4.258   1.944  -1.814  0.00  0.00    -0.057 A 
ENDROOT
BRANCH   1   7
ATOM      7  N   UNL d   1       6.000   3.364  -2.672  0.00  0.00    -0.732 N 
ATOM      8  C   UNL d   1       6.000   4.811  -2.634  0.00  0.00     0.284 C 
ATOM      9  H3  UNL d   1       6.858   2.958  -3.037  0.00  0.00     0.395 HD
ENDBRANCH   1   7
TORSDOF 1
ENDMDL
