MODEL 1
REMARK minimizedAffinity -4.30403376
REMARK minimizedRMSD -1
REMARK  0 active torsions:
REMARK  status: ('A' for Active; 'I' for Inactive)
ROOT
ATOM      1  C   UNL d   1       0.818   1.159   2.239  0.00  0.00     0.020 A 
ATOM      2  C1  UNL d   1      -0.498   1.473   2.576  0.00  0.00     0.020 A 
ATOM      3  C2  UNL d   1      -1.546   1.079   1.741  0.00  0.00     0.034 A 
ATOM      4  C3  UNL d   1      -1.280   0.369   0.565  0.00  0.00     0.017 A 
ATOM      5  C4  UNL d   1       0.042   0.054   0.227  0.00  0.00     0.017 A 
ATOM      6  C5  UNL d   1       1.087   0.451   1.067  0.00  0.00     0.034 A 
ATOM      7 Cl   UNL d   1       0.448  -0.820  -1.208  0.00  0.00    -0.070 Cl
ATOM      8 Cl1  UNL d   1      -2.624  -0.087  -0.420  0.00  0.00    -0.070 Cl
ENDROOT
TORSDOF 0
ENDMDL
