MODEL 1
REMARK minimizedAffinity -4.29146004
REMARK minimizedRMSD -1
REMARK  0 active torsions:
REMARK  status: ('A' for Active; 'I' for Inactive)
ROOT
ATOM      1  C   UNL d   1       0.841   1.065   1.975  0.00  0.00     0.020 A 
ATOM      2  C1  UNL d   1      -0.470   1.306   2.383  0.00  0.00     0.020 A 
ATOM      3  C2  UNL d   1      -1.537   0.890   1.585  0.00  0.00     0.034 A 
ATOM      4  C3  UNL d   1      -1.295   0.231   0.374  0.00  0.00     0.017 A 
ATOM      5  C4  UNL d   1       0.021  -0.010  -0.035  0.00  0.00     0.017 A 
ATOM      6  C5  UNL d   1       1.086   0.408   0.768  0.00  0.00     0.034 A 
ATOM      7 Cl   UNL d   1       0.399  -0.817  -1.516  0.00  0.00    -0.070 Cl
ATOM      8 Cl1  UNL d   1      -2.663  -0.255  -0.564  0.00  0.00    -0.070 Cl
ENDROOT
TORSDOF 0
ENDMDL
