MODEL 1
REMARK minimizedAffinity -4.4896841
REMARK minimizedRMSD -1
REMARK  0 active torsions:
REMARK  status: ('A' for Active; 'I' for Inactive)
ROOT
ATOM      1  C   UNL d   1      -0.178   1.103   3.301  0.00  0.00     0.020 A 
ATOM      2  C1  UNL d   1       1.150   0.763   3.049  0.00  0.00     0.020 A 
ATOM      3  C2  UNL d   1       1.511   0.229   1.810  0.00  0.00     0.034 A 
ATOM      4  C3  UNL d   1       0.542   0.032   0.820  0.00  0.00     0.017 A 
ATOM      5  C4  UNL d   1      -0.791   0.374   1.074  0.00  0.00     0.017 A 
ATOM      6  C5  UNL d   1      -1.147   0.909   2.316  0.00  0.00     0.034 A 
ATOM      7 Cl   UNL d   1      -2.043   0.160  -0.099  0.00  0.00    -0.070 Cl
ATOM      8 Cl1  UNL d   1       1.059  -0.633  -0.689  0.00  0.00    -0.070 Cl
ENDROOT
TORSDOF 0
ENDMDL
