MODEL 1
REMARK minimizedAffinity -3.76232314
REMARK minimizedRMSD -1
REMARK  0 active torsions:
REMARK  status: ('A' for Active; 'I' for Inactive)
ROOT
ATOM      1  C   UNL d   1      -0.870   1.646   2.342  0.00  0.00     0.020 A 
ATOM      2  C1  UNL d   1       0.445   1.763   1.895  0.00  0.00     0.020 A 
ATOM      3  C2  UNL d   1       0.889   0.991   0.820  0.00  0.00     0.034 A 
ATOM      4  C3  UNL d   1       0.017   0.098   0.187  0.00  0.00     0.017 A 
ATOM      5  C4  UNL d   1      -1.303  -0.020   0.636  0.00  0.00     0.017 A 
ATOM      6  C5  UNL d   1      -1.742   0.756   1.714  0.00  0.00     0.034 A 
ATOM      7 Cl   UNL d   1      -2.438  -1.100  -0.093  0.00  0.00    -0.070 Cl
ATOM      8 Cl1  UNL d   1       0.633  -0.825  -1.137  0.00  0.00    -0.070 Cl
ENDROOT
TORSDOF 0
ENDMDL
