MODEL 1
REMARK minimizedAffinity -3.57020116
REMARK minimizedRMSD -1
REMARK  0 active torsions:
REMARK  status: ('A' for Active; 'I' for Inactive)
ROOT
ATOM      1  C   UNL d   1      -1.732  -0.192  -0.289  0.00  0.00     0.020 A 
ATOM      2  C1  UNL d   1      -0.517  -0.682  -0.766  0.00  0.00     0.020 A 
ATOM      3  C2  UNL d   1       0.661  -0.434  -0.059  0.00  0.00     0.034 A 
ATOM      4  C3  UNL d   1       0.627   0.306   1.128  0.00  0.00     0.017 A 
ATOM      5  C4  UNL d   1      -0.593   0.797   1.607  0.00  0.00     0.017 A 
ATOM      6  C5  UNL d   1      -1.770   0.545   0.895  0.00  0.00     0.034 A 
ATOM      7 Cl   UNL d   1      -0.715   1.717   3.065  0.00  0.00    -0.070 Cl
ATOM      8 Cl1  UNL d   1       2.123   0.574   1.951  0.00  0.00    -0.070 Cl
ENDROOT
TORSDOF 0
ENDMDL
