MODEL 1
REMARK minimizedAffinity -3.611799
REMARK minimizedRMSD -1
REMARK  0 active torsions:
REMARK  status: ('A' for Active; 'I' for Inactive)
ROOT
ATOM      1  C   UNL d   1       0.539   0.910   2.648  0.00  0.00     0.020 A 
ATOM      2  C1  UNL d   1       1.608   0.104   2.257  0.00  0.00     0.020 A 
ATOM      3  C2  UNL d   1       1.534  -0.627   1.070  0.00  0.00     0.034 A 
ATOM      4  C3  UNL d   1       0.389  -0.553   0.268  0.00  0.00     0.017 A 
ATOM      5  C4  UNL d   1      -0.683   0.257   0.661  0.00  0.00     0.017 A 
ATOM      6  C5  UNL d   1      -0.604   0.986   1.851  0.00  0.00     0.034 A 
ATOM      7 Cl   UNL d   1      -2.129   0.399  -0.275  0.00  0.00    -0.070 Cl
ATOM      8 Cl1  UNL d   1       0.365  -1.484  -1.187  0.00  0.00    -0.070 Cl
ENDROOT
TORSDOF 0
ENDMDL
