MODEL 1
REMARK minimizedAffinity -5.32541466
REMARK minimizedRMSD -1
REMARK  0 active torsions:
REMARK  status: ('A' for Active; 'I' for Inactive)
ROOT
ATOM      1  C   UNL d   1      -1.900   0.978   0.858  0.00  0.00     0.020 A 
ATOM      2  C1  UNL d   1      -1.313   1.444   2.034  0.00  0.00     0.020 A 
ATOM      3  C2  UNL d   1       0.031   1.172   2.299  0.00  0.00     0.034 A 
ATOM      4  C3  UNL d   1       0.793   0.433   1.387  0.00  0.00     0.017 A 
ATOM      5  C4  UNL d   1       0.203  -0.034   0.207  0.00  0.00     0.017 A 
ATOM      6  C5  UNL d   1      -1.143   0.240  -0.054  0.00  0.00     0.034 A 
ATOM      7 Cl   UNL d   1       1.079  -0.953  -0.966  0.00  0.00    -0.070 Cl
ATOM      8 Cl1  UNL d   1       2.449   0.135   1.779  0.00  0.00    -0.070 Cl
ENDROOT
TORSDOF 0
ENDMDL
