MODEL 1
REMARK minimizedAffinity 0.190183952
REMARK minimizedRMSD -1
REMARK  0 active torsions:
REMARK  status: ('A' for Active; 'I' for Inactive)
ROOT
ATOM      1  C   UNL d   1       3.532   0.111  -4.672  0.00  0.00     0.020 A 
ATOM      2  C1  UNL d   1       3.472   0.862  -3.499  0.00  0.00     0.020 A 
ATOM      3  C2  UNL d   1       2.237   1.286  -3.003  0.00  0.00     0.034 A 
ATOM      4  C3  UNL d   1       1.057   0.959  -3.681  0.00  0.00     0.017 A 
ATOM      5  C4  UNL d   1       1.118   0.205  -4.858  0.00  0.00     0.017 A 
ATOM      6  C5  UNL d   1       2.357  -0.217  -5.350  0.00  0.00     0.034 A 
ATOM      7 Cl   UNL d   1      -0.295  -0.238  -5.750  0.00  0.00    -0.070 Cl
ATOM      8 Cl1  UNL d   1      -0.435   1.516  -3.010  0.00  0.00    -0.070 Cl
ENDROOT
TORSDOF 0
ENDMDL
