MODEL 1
REMARK minimizedAffinity -3.83314085
REMARK minimizedRMSD -1
REMARK  0 active torsions:
REMARK  status: ('A' for Active; 'I' for Inactive)
ROOT
ATOM      1  C   UNL d   1       0.154  -0.755  -0.817  0.00  0.00     0.020 A 
ATOM      2  C1  UNL d   1      -1.161  -0.349  -0.591  0.00  0.00     0.020 A 
ATOM      3  C2  UNL d   1      -1.484   0.358   0.569  0.00  0.00     0.034 A 
ATOM      4  C3  UNL d   1      -0.491   0.662   1.508  0.00  0.00     0.017 A 
ATOM      5  C4  UNL d   1       0.829   0.254   1.280  0.00  0.00     0.017 A 
ATOM      6  C5  UNL d   1       1.146  -0.454   0.116  0.00  0.00     0.034 A 
ATOM      7 Cl   UNL d   1       2.108   0.592   2.392  0.00  0.00    -0.070 Cl
ATOM      8 Cl1  UNL d   1      -0.961   1.540   2.919  0.00  0.00    -0.070 Cl
ENDROOT
TORSDOF 0
ENDMDL
