MODEL 1
REMARK minimizedAffinity -3.84584117
REMARK minimizedRMSD -1
REMARK  0 active torsions:
REMARK  status: ('A' for Active; 'I' for Inactive)
ROOT
ATOM      1  C   UNL d   1      -0.982   1.605   2.398  0.00  0.00     0.020 A 
ATOM      2  C1  UNL d   1       0.398   1.572   2.205  0.00  0.00     0.020 A 
ATOM      3  C2  UNL d   1       0.937   0.853   1.136  0.00  0.00     0.034 A 
ATOM      4  C3  UNL d   1       0.095   0.163   0.256  0.00  0.00     0.017 A 
ATOM      5  C4  UNL d   1      -1.291   0.197   0.451  0.00  0.00     0.017 A 
ATOM      6  C5  UNL d   1      -1.825   0.919   1.523  0.00  0.00     0.034 A 
ATOM      7 Cl   UNL d   1      -2.394  -0.629  -0.593  0.00  0.00    -0.070 Cl
ATOM      8 Cl1  UNL d   1       0.829  -0.706  -1.044  0.00  0.00    -0.070 Cl
ENDROOT
TORSDOF 0
ENDMDL
