MODEL 1
REMARK minimizedAffinity -3.85749507
REMARK minimizedRMSD -1
REMARK  0 active torsions:
REMARK  status: ('A' for Active; 'I' for Inactive)
ROOT
ATOM      1  C   UNL d   1       1.734   2.447   0.415  0.00  0.00     0.124 A 
ATOM      2  C1  UNL d   1       0.378   2.319   0.149  0.00  0.00     0.062 A 
ATOM      3  C2  UNL d   1      -0.192   1.056   0.010  0.00  0.00     0.162 A 
ATOM      4  C3  UNL d   1       0.595  -0.089   0.138  0.00  0.00    -0.034 A 
ATOM      5  C4  UNL d   1       1.959   0.049   0.404  0.00  0.00     0.162 A 
ATOM      6  C5  UNL d   1       2.523   1.313   0.542  0.00  0.00     0.062 A 
ATOM      7  F   UNL d   1       3.833   1.435   0.799  0.00  0.00    -0.097 F 
ATOM      8  F1  UNL d   1       2.744  -1.031   0.533  0.00  0.00    -0.096 F 
ATOM      9  I   UNL d   1      -0.252  -1.978  -0.070  0.00  0.00    -0.060 I 
ATOM     10  F2  UNL d   1      -1.505   0.962  -0.247  0.00  0.00    -0.096 F 
ATOM     11  F3  UNL d   1      -0.386   3.413   0.025  0.00  0.00    -0.097 F 
ATOM     12  F4  UNL d   1       2.279   3.663   0.547  0.00  0.00    -0.092 F 
ENDROOT
TORSDOF 0
ENDMDL
