MODEL 1
REMARK minimizedAffinity -0.728914142
REMARK minimizedRMSD -1
REMARK  0 active torsions:
REMARK  status: ('A' for Active; 'I' for Inactive)
ROOT
ATOM      1  C   UNL d   1       0.130   2.920   0.020  0.00  0.00     0.124 A 
ATOM      2  C1  UNL d   1      -1.115   2.340   0.222  0.00  0.00     0.062 A 
ATOM      3  C2  UNL d   1      -1.272   0.962   0.106  0.00  0.00     0.162 A 
ATOM      4  C3  UNL d   1      -0.180   0.154  -0.213  0.00  0.00    -0.034 A 
ATOM      5  C4  UNL d   1       1.068   0.745  -0.416  0.00  0.00     0.162 A 
ATOM      6  C5  UNL d   1       1.220   2.122  -0.298  0.00  0.00     0.062 A 
ATOM      7  F   UNL d   1       2.423   2.681  -0.494  0.00  0.00    -0.097 F 
ATOM      8  F1  UNL d   1       2.138  -0.003  -0.723  0.00  0.00    -0.096 F 
ATOM      9  I   UNL d   1      -0.411  -1.907  -0.387  0.00  0.00    -0.060 I 
ATOM     10  F2  UNL d   1      -2.486   0.429   0.306  0.00  0.00    -0.096 F 
ATOM     11  F3  UNL d   1      -2.169   3.109   0.528  0.00  0.00    -0.097 F 
ATOM     12  F4  UNL d   1       0.278   4.247   0.131  0.00  0.00    -0.092 F 
ENDROOT
TORSDOF 0
ENDMDL
