MODEL 1
REMARK minimizedAffinity -1.31566966
REMARK minimizedRMSD -1
REMARK  0 active torsions:
REMARK  status: ('A' for Active; 'I' for Inactive)
ROOT
ATOM      1  C   UNL d   1       0.074   2.403   0.183  0.00  0.00     0.124 A 
ATOM      2  C1  UNL d   1      -1.122   1.902   0.677  0.00  0.00     0.062 A 
ATOM      3  C2  UNL d   1      -1.380   0.535   0.631  0.00  0.00     0.162 A 
ATOM      4  C3  UNL d   1      -0.439  -0.342   0.090  0.00  0.00    -0.034 A 
ATOM      5  C4  UNL d   1       0.761   0.170  -0.406  0.00  0.00     0.162 A 
ATOM      6  C5  UNL d   1       1.015   1.537  -0.358  0.00  0.00     0.062 A 
ATOM      7  F   UNL d   1       2.171   2.020  -0.836  0.00  0.00    -0.097 F 
ATOM      8  F1  UNL d   1       1.688  -0.644  -0.933  0.00  0.00    -0.096 F 
ATOM      9  I   UNL d   1      -0.821  -2.386   0.021  0.00  0.00    -0.060 I 
ATOM     10  F2  UNL d   1      -2.544   0.078   1.116  0.00  0.00    -0.096 F 
ATOM     11  F3  UNL d   1      -2.032   2.736   1.199  0.00  0.00    -0.097 F 
ATOM     12  F4  UNL d   1       0.319   3.719   0.227  0.00  0.00    -0.092 F 
ENDROOT
TORSDOF 0
ENDMDL
