MODEL 1
REMARK minimizedAffinity -1.53783906
REMARK minimizedRMSD -1
REMARK  0 active torsions:
REMARK  status: ('A' for Active; 'I' for Inactive)
ROOT
ATOM      1  C   UNL d   1       0.866   3.012   0.325  0.00  0.00     0.124 A 
ATOM      2  C1  UNL d   1      -0.389   2.471   0.566  0.00  0.00     0.062 A 
ATOM      3  C2  UNL d   1      -0.569   1.091   0.567  0.00  0.00     0.162 A 
ATOM      4  C3  UNL d   1       0.511   0.241   0.326  0.00  0.00    -0.034 A 
ATOM      5  C4  UNL d   1       1.770   0.792   0.082  0.00  0.00     0.162 A 
ATOM      6  C5  UNL d   1       1.944   2.172   0.083  0.00  0.00     0.062 A 
ATOM      7  F   UNL d   1       3.158   2.692  -0.151  0.00  0.00    -0.097 F 
ATOM      8  F1  UNL d   1       2.829   0.003  -0.153  0.00  0.00    -0.096 F 
ATOM      9  I   UNL d   1       0.246  -1.824   0.326  0.00  0.00    -0.060 I 
ATOM     10  F2  UNL d   1      -1.793   0.596   0.804  0.00  0.00    -0.096 F 
ATOM     11  F3  UNL d   1      -1.433   3.280   0.799  0.00  0.00    -0.097 F 
ATOM     12  F4  UNL d   1       1.036   4.340   0.324  0.00  0.00    -0.092 F 
ENDROOT
TORSDOF 0
ENDMDL
