MODEL 1
REMARK minimizedAffinity -1.06486511
REMARK minimizedRMSD -1
REMARK  0 active torsions:
REMARK  status: ('A' for Active; 'I' for Inactive)
ROOT
ATOM      1  C   UNL d   1       0.310   2.607   0.143  0.00  0.00     0.124 A 
ATOM      2  C1  UNL d   1       1.204   1.711  -0.427  0.00  0.00     0.062 A 
ATOM      3  C2  UNL d   1       0.823   0.392  -0.658  0.00  0.00     0.162 A 
ATOM      4  C3  UNL d   1      -0.460  -0.039  -0.319  0.00  0.00    -0.034 A 
ATOM      5  C4  UNL d   1      -1.353   0.868   0.255  0.00  0.00     0.162 A 
ATOM      6  C5  UNL d   1      -0.967   2.184   0.484  0.00  0.00     0.062 A 
ATOM      7  F   UNL d   1      -1.832   3.048   1.035  0.00  0.00    -0.097 F 
ATOM      8  F1  UNL d   1      -2.594   0.487   0.593  0.00  0.00    -0.096 F 
ATOM      9  I   UNL d   1      -1.034  -2.010  -0.662  0.00  0.00    -0.060 I 
ATOM     10  F2  UNL d   1       1.707  -0.451  -1.210  0.00  0.00    -0.096 F 
ATOM     11  F3  UNL d   1       2.439   2.116  -0.757  0.00  0.00    -0.097 F 
ATOM     12  F4  UNL d   1       0.680   3.875   0.364  0.00  0.00    -0.092 F 
ENDROOT
TORSDOF 0
ENDMDL
