MODEL 1
REMARK minimizedAffinity 0.669394016
REMARK minimizedRMSD -1
REMARK  0 active torsions:
REMARK  status: ('A' for Active; 'I' for Inactive)
ROOT
ATOM      1  C   UNL d   1      -1.128   2.080   0.760  0.00  0.00     0.124 A 
ATOM      2  C1  UNL d   1      -1.739   0.834   0.785  0.00  0.00     0.062 A 
ATOM      3  C2  UNL d   1      -1.022  -0.304   0.427  0.00  0.00     0.162 A 
ATOM      4  C3  UNL d   1       0.315  -0.201   0.042  0.00  0.00    -0.034 A 
ATOM      5  C4  UNL d   1       0.922   1.056   0.019  0.00  0.00     0.162 A 
ATOM      6  C5  UNL d   1       0.201   2.190   0.377  0.00  0.00     0.062 A 
ATOM      7  F   UNL d   1       0.792   3.393   0.353  0.00  0.00    -0.097 F 
ATOM      8  F1  UNL d   1       2.205   1.190  -0.347  0.00  0.00    -0.096 F 
ATOM      9  I   UNL d   1       1.391  -1.901  -0.494  0.00  0.00    -0.060 I 
ATOM     10  F2  UNL d   1      -1.637  -1.496   0.460  0.00  0.00    -0.096 F 
ATOM     11  F3  UNL d   1      -3.023   0.725   1.154  0.00  0.00    -0.097 F 
ATOM     12  F4  UNL d   1      -1.821   3.173   1.104  0.00  0.00    -0.092 F 
ENDROOT
TORSDOF 0
ENDMDL
