MODEL 1
REMARK minimizedAffinity -0.971341968
REMARK minimizedRMSD -1
REMARK  0 active torsions:
REMARK  status: ('A' for Active; 'I' for Inactive)
ROOT
ATOM      1  C   UNL d   1       0.654  -1.105   0.997  0.00  0.00     0.124 A 
ATOM      2  C1  UNL d   1      -0.607  -0.599   0.710  0.00  0.00     0.062 A 
ATOM      3  C2  UNL d   1      -0.741   0.664   0.141  0.00  0.00     0.162 A 
ATOM      4  C3  UNL d   1       0.388   1.430  -0.146  0.00  0.00    -0.034 A 
ATOM      5  C4  UNL d   1       1.652   0.916   0.147  0.00  0.00     0.162 A 
ATOM      6  C5  UNL d   1       1.782  -0.347   0.715  0.00  0.00     0.062 A 
ATOM      7  F   UNL d   1       3.000  -0.834   0.992  0.00  0.00    -0.097 F 
ATOM      8  F1  UNL d   1       2.759   1.626  -0.116  0.00  0.00    -0.096 F 
ATOM      9  I   UNL d   1       0.191   3.320  -0.997  0.00  0.00    -0.060 I 
ATOM     10  F2  UNL d   1      -1.972   1.127  -0.126  0.00  0.00    -0.096 F 
ATOM     11  F3  UNL d   1      -1.698  -1.329   0.982  0.00  0.00    -0.097 F 
ATOM     12  F4  UNL d   1       0.780  -2.320   1.546  0.00  0.00    -0.092 F 
ENDROOT
TORSDOF 0
ENDMDL
