MODEL 1
REMARK minimizedAffinity -0.835212886
REMARK minimizedRMSD -1
REMARK  0 active torsions:
REMARK  status: ('A' for Active; 'I' for Inactive)
ROOT
ATOM      1  C   UNL d   1      -0.961   2.173   0.486  0.00  0.00     0.124 A 
ATOM      2  C1  UNL d   1       0.404   2.160   0.235  0.00  0.00     0.062 A 
ATOM      3  C2  UNL d   1       1.073   0.951   0.066  0.00  0.00     0.162 A 
ATOM      4  C3  UNL d   1       0.378  -0.255   0.145  0.00  0.00    -0.034 A 
ATOM      5  C4  UNL d   1      -0.995  -0.234   0.398  0.00  0.00     0.162 A 
ATOM      6  C5  UNL d   1      -1.659   0.977   0.567  0.00  0.00     0.062 A 
ATOM      7  F   UNL d   1      -2.978   0.988   0.809  0.00  0.00    -0.097 F 
ATOM      8  F1  UNL d   1      -1.695  -1.375   0.481  0.00  0.00    -0.096 F 
ATOM      9  I   UNL d   1       1.374  -2.065  -0.108  0.00  0.00    -0.060 I 
ATOM     10  F2  UNL d   1       2.393   0.968  -0.175  0.00  0.00    -0.096 F 
ATOM     11  F3  UNL d   1       1.082   3.315   0.157  0.00  0.00    -0.097 F 
ATOM     12  F4  UNL d   1      -1.601   3.338   0.650  0.00  0.00    -0.092 F 
ENDROOT
TORSDOF 0
ENDMDL
