MODEL 1
REMARK minimizedAffinity 1.77726603
REMARK minimizedRMSD -1
REMARK  0 active torsions:
REMARK  status: ('A' for Active; 'I' for Inactive)
ROOT
ATOM      1  C   UNL d   1      -0.634   1.631   0.482  0.00  0.00     0.124 A 
ATOM      2  C1  UNL d   1      -1.174   0.383   0.759  0.00  0.00     0.062 A 
ATOM      3  C2  UNL d   1      -0.860  -0.710  -0.045  0.00  0.00     0.162 A 
ATOM      4  C3  UNL d   1       0.000  -0.559  -1.133  0.00  0.00    -0.034 A 
ATOM      5  C4  UNL d   1       0.538   0.700  -1.405  0.00  0.00     0.162 A 
ATOM      6  C5  UNL d   1       0.221   1.789  -0.599  0.00  0.00     0.062 A 
ATOM      7  F   UNL d   1       0.743   2.994  -0.868  0.00  0.00    -0.097 F 
ATOM      8  F1  UNL d   1       1.368   0.881  -2.444  0.00  0.00    -0.096 F 
ATOM      9  I   UNL d   1       0.472  -2.189  -2.336  0.00  0.00    -0.060 I 
ATOM     10  F2  UNL d   1      -1.396  -1.904   0.247  0.00  0.00    -0.096 F 
ATOM     11  F3  UNL d   1      -2.001   0.228   1.803  0.00  0.00    -0.097 F 
ATOM     12  F4  UNL d   1      -0.939   2.680   1.256  0.00  0.00    -0.092 F 
ENDROOT
TORSDOF 0
ENDMDL
