MODEL 1
REMARK minimizedAffinity 1.10997498
REMARK minimizedRMSD -1
REMARK  0 active torsions:
REMARK  status: ('A' for Active; 'I' for Inactive)
ROOT
ATOM      1  C   UNL d   1      -0.341  -2.744  -1.447  0.00  0.00     0.124 A 
ATOM      2  C1  UNL d   1      -1.452  -1.925  -1.588  0.00  0.00     0.062 A 
ATOM      3  C2  UNL d   1      -1.422  -0.616  -1.116  0.00  0.00     0.162 A 
ATOM      4  C3  UNL d   1      -0.275  -0.117  -0.499  0.00  0.00    -0.034 A 
ATOM      5  C4  UNL d   1       0.839  -0.947  -0.360  0.00  0.00     0.162 A 
ATOM      6  C5  UNL d   1       0.804  -2.255  -0.834  0.00  0.00     0.062 A 
ATOM      7  F   UNL d   1       1.878  -3.045  -0.696  0.00  0.00    -0.097 F 
ATOM      8  F1  UNL d   1       1.958  -0.500   0.228  0.00  0.00    -0.096 F 
ATOM      9  I   UNL d   1      -0.225   1.839   0.208  0.00  0.00    -0.060 I 
ATOM     10  F2  UNL d   1      -2.511   0.153  -1.266  0.00  0.00    -0.096 F 
ATOM     11  F3  UNL d   1      -2.560  -2.396  -2.180  0.00  0.00    -0.097 F 
ATOM     12  F4  UNL d   1      -0.373  -4.004  -1.902  0.00  0.00    -0.092 F 
ENDROOT
TORSDOF 0
ENDMDL
