MODEL 1
REMARK minimizedAffinity -1.09125304
REMARK minimizedRMSD -1
REMARK  0 active torsions:
REMARK  status: ('A' for Active; 'I' for Inactive)
ROOT
ATOM      1  C   UNL d   1       0.780   2.737   0.058  0.00  0.00     0.124 A 
ATOM      2  C1  UNL d   1      -0.586   2.496   0.109  0.00  0.00     0.062 A 
ATOM      3  C2  UNL d   1      -1.069   1.191   0.076  0.00  0.00     0.162 A 
ATOM      4  C3  UNL d   1      -0.184   0.116  -0.009  0.00  0.00    -0.034 A 
ATOM      5  C4  UNL d   1       1.188   0.366  -0.061  0.00  0.00     0.162 A 
ATOM      6  C5  UNL d   1       1.666   1.672  -0.027  0.00  0.00     0.062 A 
ATOM      7  F   UNL d   1       2.986   1.903  -0.077  0.00  0.00    -0.097 F 
ATOM      8  F1  UNL d   1       2.066  -0.645  -0.142  0.00  0.00    -0.096 F 
ATOM      9  I   UNL d   1      -0.902  -1.837  -0.059  0.00  0.00    -0.060 I 
ATOM     10  F2  UNL d   1      -2.394   0.988   0.127  0.00  0.00    -0.096 F 
ATOM     11  F3  UNL d   1      -1.444   3.524   0.191  0.00  0.00    -0.097 F 
ATOM     12  F4  UNL d   1       1.241   3.994   0.089  0.00  0.00    -0.092 F 
ENDROOT
TORSDOF 0
ENDMDL
