MODEL 1
REMARK minimizedAffinity 0.862046242
REMARK minimizedRMSD -1
REMARK  0 active torsions:
REMARK  status: ('A' for Active; 'I' for Inactive)
ROOT
ATOM      1  C   UNL d   1       0.269   1.683  -0.015  0.00  0.00     0.124 A 
ATOM      2  C1  UNL d   1       1.045   0.589   0.346  0.00  0.00     0.062 A 
ATOM      3  C2  UNL d   1       0.569  -0.703   0.146  0.00  0.00     0.162 A 
ATOM      4  C3  UNL d   1      -0.690  -0.910  -0.419  0.00  0.00    -0.034 A 
ATOM      5  C4  UNL d   1      -1.465   0.194  -0.778  0.00  0.00     0.162 A 
ATOM      6  C5  UNL d   1      -0.984   1.484  -0.576  0.00  0.00     0.062 A 
ATOM      7  F   UNL d   1      -1.735   2.539  -0.925  0.00  0.00    -0.097 F 
ATOM      8  F1  UNL d   1      -2.679   0.031  -1.323  0.00  0.00    -0.096 F 
ATOM      9  I   UNL d   1      -1.405  -2.841  -0.719  0.00  0.00    -0.060 I 
ATOM     10  F2  UNL d   1       1.340  -1.741   0.503  0.00  0.00    -0.096 F 
ATOM     11  F3  UNL d   1       2.256   0.779   0.889  0.00  0.00    -0.097 F 
ATOM     12  F4  UNL d   1       0.729   2.925   0.180  0.00  0.00    -0.092 F 
ENDROOT
TORSDOF 0
ENDMDL
