MODEL 1
REMARK minimizedAffinity 0.262371302
REMARK minimizedRMSD -1
REMARK  0 active torsions:
REMARK  status: ('A' for Active; 'I' for Inactive)
ROOT
ATOM      1  C   UNL d   1       0.411   1.612   0.270  0.00  0.00     0.124 A 
ATOM      2  C1  UNL d   1      -0.801   1.383  -0.368  0.00  0.00     0.062 A 
ATOM      3  C2  UNL d   1      -1.153   0.094  -0.758  0.00  0.00     0.162 A 
ATOM      4  C3  UNL d   1      -0.294  -0.976  -0.511  0.00  0.00    -0.034 A 
ATOM      5  C4  UNL d   1       0.923  -0.738   0.131  0.00  0.00     0.162 A 
ATOM      6  C5  UNL d   1       1.271   0.552   0.519  0.00  0.00     0.062 A 
ATOM      7  F   UNL d   1       2.442   0.771   1.135  0.00  0.00    -0.097 F 
ATOM      8  F1  UNL d   1       1.773  -1.744   0.384  0.00  0.00    -0.096 F 
ATOM      9  I   UNL d   1      -0.817  -2.904  -1.093  0.00  0.00    -0.060 I 
ATOM     10  F2  UNL d   1      -2.330  -0.098  -1.373  0.00  0.00    -0.096 F 
ATOM     11  F3  UNL d   1      -1.633   2.405  -0.610  0.00  0.00    -0.097 F 
ATOM     12  F4  UNL d   1       0.748   2.853   0.644  0.00  0.00    -0.092 F 
ENDROOT
TORSDOF 0
ENDMDL
