MODEL 1
REMARK minimizedAffinity -0.969460964
REMARK minimizedRMSD -1
REMARK  0 active torsions:
REMARK  status: ('A' for Active; 'I' for Inactive)
ROOT
ATOM      1  C   UNL d   1       0.345   2.833   0.767  0.00  0.00     0.124 A 
ATOM      2  C1  UNL d   1      -0.590   2.110   1.495  0.00  0.00     0.062 A 
ATOM      3  C2  UNL d   1      -0.898   0.801   1.134  0.00  0.00     0.162 A 
ATOM      4  C3  UNL d   1      -0.269   0.207   0.040  0.00  0.00    -0.034 A 
ATOM      5  C4  UNL d   1       0.670   0.941  -0.687  0.00  0.00     0.162 A 
ATOM      6  C5  UNL d   1       0.974   2.249  -0.323  0.00  0.00     0.062 A 
ATOM      7  F   UNL d   1       1.877   2.946  -1.027  0.00  0.00    -0.097 F 
ATOM      8  F1  UNL d   1       1.293   0.400  -1.745  0.00  0.00    -0.096 F 
ATOM      9  I   UNL d   1      -0.726  -1.750  -0.503  0.00  0.00    -0.060 I 
ATOM     10  F2  UNL d   1      -1.805   0.126   1.855  0.00  0.00    -0.096 F 
ATOM     11  F3  UNL d   1      -1.200   2.673   2.548  0.00  0.00    -0.097 F 
ATOM     12  F4  UNL d   1       0.638   4.093   1.116  0.00  0.00    -0.092 F 
ENDROOT
TORSDOF 0
ENDMDL
