MODEL 1
REMARK minimizedAffinity 16.2460613
REMARK minimizedRMSD -1
REMARK  0 active torsions:
REMARK  status: ('A' for Active; 'I' for Inactive)
ROOT
ATOM      1  C   UNL d   1       0.246  -0.781   0.252  0.00  0.00     0.124 A 
ATOM      2  C1  UNL d   1      -0.981  -0.152   0.413  0.00  0.00     0.062 A 
ATOM      3  C2  UNL d   1      -1.041   1.156   0.885  0.00  0.00     0.162 A 
ATOM      4  C3  UNL d   1       0.131   1.845   1.199  0.00  0.00    -0.034 A 
ATOM      5  C4  UNL d   1       1.361   1.206   1.035  0.00  0.00     0.162 A 
ATOM      6  C5  UNL d   1       1.415  -0.101   0.563  0.00  0.00     0.062 A 
ATOM      7  F   UNL d   1       2.602  -0.707   0.408  0.00  0.00    -0.097 F 
ATOM      8  F1  UNL d   1       2.507   1.839   1.327  0.00  0.00    -0.096 F 
ATOM      9  I   UNL d   1       0.045   3.801   1.905  0.00  0.00    -0.060 I 
ATOM     10  F2  UNL d   1      -2.240   1.738   1.031  0.00  0.00    -0.096 F 
ATOM     11  F3  UNL d   1      -2.112  -0.807   0.114  0.00  0.00    -0.097 F 
ATOM     12  F4  UNL d   1       0.300  -2.040  -0.202  0.00  0.00    -0.092 F 
ENDROOT
TORSDOF 0
ENDMDL
