MODEL 1
REMARK minimizedAffinity 4.29024887
REMARK minimizedRMSD -1
REMARK  0 active torsions:
REMARK  status: ('A' for Active; 'I' for Inactive)
ROOT
ATOM      1  C   UNL d   1      -1.233  -3.471  -1.505  0.00  0.00     0.124 A 
ATOM      2  C1  UNL d   1      -0.365  -3.047  -2.501  0.00  0.00     0.062 A 
ATOM      3  C2  UNL d   1       0.513  -1.994  -2.263  0.00  0.00     0.162 A 
ATOM      4  C3  UNL d   1       0.529  -1.358  -1.022  0.00  0.00    -0.034 A 
ATOM      5  C4  UNL d   1      -0.347  -1.790  -0.024  0.00  0.00     0.162 A 
ATOM      6  C5  UNL d   1      -1.223  -2.842  -0.267  0.00  0.00     0.062 A 
ATOM      7  F   UNL d   1      -2.060  -3.251   0.697  0.00  0.00    -0.097 F 
ATOM      8  F1  UNL d   1      -0.357  -1.200   1.181  0.00  0.00    -0.096 F 
ATOM      9  I   UNL d   1       1.841   0.217  -0.662  0.00  0.00    -0.060 I 
ATOM     10  F2  UNL d   1       1.340  -1.605  -3.245  0.00  0.00    -0.096 F 
ATOM     11  F3  UNL d   1      -0.374  -3.652  -3.698  0.00  0.00    -0.097 F 
ATOM     12  F4  UNL d   1      -2.078  -4.484  -1.737  0.00  0.00    -0.092 F 
ENDROOT
TORSDOF 0
ENDMDL
