MODEL 1
REMARK minimizedAffinity 4.98757076
REMARK minimizedRMSD -1
REMARK  0 active torsions:
REMARK  status: ('A' for Active; 'I' for Inactive)
ROOT
ATOM      1  C   UNL d   1      -0.299   1.154   0.750  0.00  0.00     0.124 A 
ATOM      2  C1  UNL d   1      -1.270   0.177   0.918  0.00  0.00     0.062 A 
ATOM      3  C2  UNL d   1      -1.258  -0.966   0.125  0.00  0.00     0.162 A 
ATOM      4  C3  UNL d   1      -0.269  -1.140  -0.844  0.00  0.00    -0.034 A 
ATOM      5  C4  UNL d   1       0.704  -0.152  -1.008  0.00  0.00     0.162 A 
ATOM      6  C5  UNL d   1       0.687   0.989  -0.213  0.00  0.00     0.062 A 
ATOM      7  F   UNL d   1       1.626   1.932  -0.377  0.00  0.00    -0.097 F 
ATOM      8  F1  UNL d   1       1.669  -0.287  -1.930  0.00  0.00    -0.096 F 
ATOM      9  I   UNL d   1      -0.247  -2.848  -2.032  0.00  0.00    -0.060 I 
ATOM     10  F2  UNL d   1      -2.209  -1.894   0.309  0.00  0.00    -0.096 F 
ATOM     11  F3  UNL d   1      -2.225   0.335   1.847  0.00  0.00    -0.097 F 
ATOM     12  F4  UNL d   1      -0.314   2.254   1.514  0.00  0.00    -0.092 F 
ENDROOT
TORSDOF 0
ENDMDL
