MODEL 1
REMARK minimizedAffinity 8.77623558
REMARK minimizedRMSD -1
REMARK  1 active torsions:
REMARK  status: ('A' for Active; 'I' for Inactive)
REMARK    1  A    between atoms: C1_2  and  C2_3 
ROOT
ATOM      1  C2  UNL d   1       2.406   0.582   1.469  0.00  0.00    -0.081 A 
ATOM      2  C3  UNL d   1       2.669   0.658   0.095  0.00  0.00     0.006 A 
ATOM      3  C4  UNL d   1       3.799   0.040  -0.445  0.00  0.00     0.002 A 
ATOM      4  C5  UNL d   1       4.680  -0.672   0.376  0.00  0.00    -0.080 A 
ATOM      5  C6  UNL d   1       5.880  -1.366  -0.195  0.00  0.00     0.076 C 
ATOM      6  C7  UNL d   1       4.427  -0.734   1.751  0.00  0.00     0.002 A 
ATOM      7  C8  UNL d   1       3.298  -0.115   2.292  0.00  0.00     0.006 A 
ENDROOT
BRANCH   1   8
ATOM      8  C1  UNL d   1       1.155   1.193   2.045  0.00  0.00     0.054 C 
ATOM      9  C   UNL d   1       0.836   0.613   3.415  0.00  0.00     0.018 C 
ENDBRANCH   1   8
TORSDOF 1
ENDMDL
