MODEL 1
REMARK minimizedAffinity 19.209341
REMARK minimizedRMSD -1
REMARK  1 active torsions:
REMARK  status: ('A' for Active; 'I' for Inactive)
REMARK    1  A    between atoms: C1_2  and  C2_3 
ROOT
ATOM      1  C2  UNL d   1       3.581   0.044  -0.014  0.00  0.00    -0.081 A 
ATOM      2  C3  UNL d   1       3.362   1.131  -0.868  0.00  0.00     0.006 A 
ATOM      3  C4  UNL d   1       2.446   2.128  -0.524  0.00  0.00     0.002 A 
ATOM      4  C5  UNL d   1       1.740   2.058   0.681  0.00  0.00    -0.080 A 
ATOM      5  C6  UNL d   1       0.775   3.137   1.076  0.00  0.00     0.076 C 
ATOM      6  C7  UNL d   1       1.946   0.962   1.526  0.00  0.00     0.002 A 
ATOM      7  C8  UNL d   1       2.861  -0.035   1.183  0.00  0.00     0.006 A 
ENDROOT
BRANCH   1   8
ATOM      8  C1  UNL d   1       4.616  -0.999  -0.352  0.00  0.00     0.054 C 
ATOM      9  C   UNL d   1       5.998  -0.380  -0.501  0.00  0.00     0.018 C 
ENDBRANCH   1   8
TORSDOF 1
ENDMDL
