MODEL 1
REMARK minimizedAffinity 20.4632988
REMARK minimizedRMSD -1
REMARK  1 active torsions:
REMARK  status: ('A' for Active; 'I' for Inactive)
REMARK    1  A    between atoms: C1_2  and  C2_3 
ROOT
ATOM      1  C2  UNL d   1      -4.349  -5.295  -1.005  0.00  0.00    -0.081 A 
ATOM      2  C3  UNL d   1      -3.794  -4.080  -1.425  0.00  0.00     0.006 A 
ATOM      3  C4  UNL d   1      -4.317  -3.407  -2.531  0.00  0.00     0.002 A 
ATOM      4  C5  UNL d   1      -5.409  -3.932  -3.231  0.00  0.00    -0.080 A 
ATOM      5  C6  UNL d   1      -6.000  -3.204  -4.401  0.00  0.00     0.076 C 
ATOM      6  C7  UNL d   1      -5.952  -5.155  -2.822  0.00  0.00     0.002 A 
ATOM      7  C8  UNL d   1      -5.429  -5.829  -1.717  0.00  0.00     0.006 A 
ENDROOT
BRANCH   1   8
ATOM      8  C1  UNL d   1      -3.828  -5.991   0.226  0.00  0.00     0.054 C 
ATOM      9  C   UNL d   1      -4.706  -5.706   1.436  0.00  0.00     0.018 C 
ENDBRANCH   1   8
TORSDOF 1
ENDMDL
