MODEL 1
REMARK minimizedAffinity 5.2411561
REMARK minimizedRMSD -1
REMARK  1 active torsions:
REMARK  status: ('A' for Active; 'I' for Inactive)
REMARK    1  A    between atoms: C1_2  and  C2_3 
ROOT
ATOM      1  C2  UNL d   1       3.480   1.152  -1.664  0.00  0.00    -0.081 A 
ATOM      2  C3  UNL d   1       4.302   0.312  -0.904  0.00  0.00     0.006 A 
ATOM      3  C4  UNL d   1       3.895  -0.124   0.360  0.00  0.00     0.002 A 
ATOM      4  C5  UNL d   1       2.657   0.268   0.880  0.00  0.00    -0.080 A 
ATOM      5  C6  UNL d   1       2.195  -0.217   2.222  0.00  0.00     0.076 C 
ATOM      6  C7  UNL d   1       1.843   1.122   0.128  0.00  0.00     0.002 A 
ATOM      7  C8  UNL d   1       2.250   1.558  -1.134  0.00  0.00     0.006 A 
ENDROOT
BRANCH   1   8
ATOM      8  C1  UNL d   1       3.887   1.571  -3.053  0.00  0.00     0.054 C 
ATOM      9  C   UNL d   1       2.682   2.002  -3.877  0.00  0.00     0.018 C 
ENDBRANCH   1   8
TORSDOF 1
ENDMDL
