MODEL 1
REMARK minimizedAffinity 20.5805244
REMARK minimizedRMSD -1
REMARK  1 active torsions:
REMARK  status: ('A' for Active; 'I' for Inactive)
REMARK    1  A    between atoms: C1_2  and  C2_3 
ROOT
ATOM      1  C2  UNL d   1      -2.502  -2.763  -1.938  0.00  0.00    -0.081 A 
ATOM      2  C3  UNL d   1      -2.502  -4.077  -2.422  0.00  0.00     0.006 A 
ATOM      3  C4  UNL d   1      -2.124  -4.345  -3.740  0.00  0.00     0.002 A 
ATOM      4  C5  UNL d   1      -1.733  -3.307  -4.592  0.00  0.00    -0.080 A 
ATOM      5  C6  UNL d   1      -1.297  -3.585  -6.000  0.00  0.00     0.076 C 
ATOM      6  C7  UNL d   1      -1.750  -1.993  -4.113  0.00  0.00     0.002 A 
ATOM      7  C8  UNL d   1      -2.127  -1.723  -2.796  0.00  0.00     0.006 A 
ENDROOT
BRANCH   1   8
ATOM      8  C1  UNL d   1      -2.846  -2.477  -0.498  0.00  0.00     0.054 C 
ATOM      9  C   UNL d   1      -1.596  -2.418   0.368  0.00  0.00     0.018 C 
ENDBRANCH   1   8
TORSDOF 1
ENDMDL
