MODEL 1
REMARK minimizedAffinity 7.80170012
REMARK minimizedRMSD -1
REMARK  1 active torsions:
REMARK  status: ('A' for Active; 'I' for Inactive)
REMARK    1  A    between atoms: C1_2  and  C2_3 
ROOT
ATOM      1  C2  UNL d   1      -1.731  -3.026   0.660  0.00  0.00    -0.081 A 
ATOM      2  C3  UNL d   1      -0.511  -2.753   0.029  0.00  0.00     0.006 A 
ATOM      3  C4  UNL d   1      -0.474  -2.424  -1.328  0.00  0.00     0.002 A 
ATOM      4  C5  UNL d   1      -1.655  -2.353  -2.074  0.00  0.00    -0.080 A 
ATOM      5  C6  UNL d   1      -1.632  -1.970  -3.524  0.00  0.00     0.076 C 
ATOM      6  C7  UNL d   1      -2.872  -2.642  -1.448  0.00  0.00     0.002 A 
ATOM      7  C8  UNL d   1      -2.910  -2.973  -0.092  0.00  0.00     0.006 A 
ENDROOT
BRANCH   1   8
ATOM      8  C1  UNL d   1      -1.781  -3.319   2.137  0.00  0.00     0.054 C 
ATOM      9  C   UNL d   1      -1.979  -4.805   2.401  0.00  0.00     0.018 C 
ENDBRANCH   1   8
TORSDOF 1
ENDMDL
