MODEL 1
REMARK minimizedAffinity 25.1470566
REMARK minimizedRMSD -1
REMARK  1 active torsions:
REMARK  status: ('A' for Active; 'I' for Inactive)
REMARK    1  A    between atoms: C1_2  and  C2_3 
ROOT
ATOM      1  C2  UNL d   1      -4.152  -4.533  -2.567  0.00  0.00    -0.081 A 
ATOM      2  C3  UNL d   1      -3.199  -4.049  -3.472  0.00  0.00     0.006 A 
ATOM      3  C4  UNL d   1      -1.881  -4.509  -3.427  0.00  0.00     0.002 A 
ATOM      4  C5  UNL d   1      -1.496  -5.466  -2.483  0.00  0.00    -0.080 A 
ATOM      5  C6  UNL d   1      -0.091  -5.991  -2.443  0.00  0.00     0.076 C 
ATOM      6  C7  UNL d   1      -2.443  -5.938  -1.567  0.00  0.00     0.002 A 
ATOM      7  C8  UNL d   1      -3.760  -5.477  -1.611  0.00  0.00     0.006 A 
ENDROOT
BRANCH   1   8
ATOM      8  C1  UNL d   1      -5.589  -4.087  -2.655  0.00  0.00     0.054 C 
ATOM      9  C   UNL d   1      -5.871  -3.387  -3.976  0.00  0.00     0.018 C 
ENDBRANCH   1   8
TORSDOF 1
ENDMDL
