MODEL 1
REMARK minimizedAffinity 8.43847466
REMARK minimizedRMSD -1
REMARK  1 active torsions:
REMARK  status: ('A' for Active; 'I' for Inactive)
REMARK    1  A    between atoms: C1_2  and  C2_3 
ROOT
ATOM      1  C2  UNL d   1       2.662   0.437   1.652  0.00  0.00    -0.081 A 
ATOM      2  C3  UNL d   1       1.854   1.321   0.927  0.00  0.00     0.006 A 
ATOM      3  C4  UNL d   1       2.177   1.659  -0.389  0.00  0.00     0.002 A 
ATOM      4  C5  UNL d   1       3.309   1.114  -1.004  0.00  0.00    -0.080 A 
ATOM      5  C6  UNL d   1       3.651   1.445  -2.427  0.00  0.00     0.076 C 
ATOM      6  C7  UNL d   1       4.126   0.244  -0.274  0.00  0.00     0.002 A 
ATOM      7  C8  UNL d   1       3.804  -0.094   1.042  0.00  0.00     0.006 A 
ENDROOT
BRANCH   1   8
ATOM      8  C1  UNL d   1       2.280   0.020   3.049  0.00  0.00     0.054 C 
ATOM      9  C   UNL d   1       0.954   0.637   3.468  0.00  0.00     0.018 C 
ENDBRANCH   1   8
TORSDOF 1
ENDMDL
