MODEL 1
REMARK minimizedAffinity 11.5888767
REMARK minimizedRMSD -1
REMARK  1 active torsions:
REMARK  status: ('A' for Active; 'I' for Inactive)
REMARK    1  A    between atoms: C1_2  and  C2_3 
ROOT
ATOM      1  C2  UNL d   1      -2.353  -3.136  -1.751  0.00  0.00    -0.081 A 
ATOM      2  C3  UNL d   1      -1.677  -4.106  -2.502  0.00  0.00     0.006 A 
ATOM      3  C4  UNL d   1      -1.510  -3.945  -3.879  0.00  0.00     0.002 A 
ATOM      4  C5  UNL d   1      -2.008  -2.809  -4.527  0.00  0.00    -0.080 A 
ATOM      5  C6  UNL d   1      -1.809  -2.609  -6.000  0.00  0.00     0.076 C 
ATOM      6  C7  UNL d   1      -2.698  -1.849  -3.779  0.00  0.00     0.002 A 
ATOM      7  C8  UNL d   1      -2.866  -2.010  -2.402  0.00  0.00     0.006 A 
ENDROOT
BRANCH   1   8
ATOM      8  C1  UNL d   1      -2.478  -3.276  -0.255  0.00  0.00     0.054 C 
ATOM      9  C   UNL d   1      -1.184  -2.891   0.447  0.00  0.00     0.018 C 
ENDBRANCH   1   8
TORSDOF 1
ENDMDL
