MODEL 1
REMARK minimizedAffinity 7.04674101
REMARK minimizedRMSD -1
REMARK  1 active torsions:
REMARK  status: ('A' for Active; 'I' for Inactive)
REMARK    1  A    between atoms: C1_2  and  C2_3 
ROOT
ATOM      1  C2  UNL d   1       1.464   1.451   1.514  0.00  0.00    -0.081 A 
ATOM      2  C3  UNL d   1       0.725   0.357   1.980  0.00  0.00     0.006 A 
ATOM      3  C4  UNL d   1      -0.625   0.503   2.310  0.00  0.00     0.002 A 
ATOM      4  C5  UNL d   1      -1.259   1.743   2.173  0.00  0.00    -0.080 A 
ATOM      5  C6  UNL d   1      -2.714   1.906   2.495  0.00  0.00     0.076 C 
ATOM      6  C7  UNL d   1      -0.515   2.840   1.725  0.00  0.00     0.002 A 
ATOM      7  C8  UNL d   1       0.834   2.694   1.395  0.00  0.00     0.006 A 
ENDROOT
BRANCH   1   8
ATOM      8  C1  UNL d   1       2.902   1.282   1.096  0.00  0.00     0.054 C 
ATOM      9  C   UNL d   1       3.008   0.578  -0.250  0.00  0.00     0.018 C 
ENDBRANCH   1   8
TORSDOF 1
ENDMDL
