MODEL 1
REMARK minimizedAffinity -2.21548676
REMARK minimizedRMSD -1
REMARK  1 active torsions:
REMARK  status: ('A' for Active; 'I' for Inactive)
REMARK    1  A    between atoms: C1_2  and  C2_3 
ROOT
ATOM      1  C2  UNL d   1      -0.022  -0.332   0.589  0.00  0.00    -0.073 A 
ATOM      2  C3  UNL d   1       0.558  -0.456  -0.679  0.00  0.00    -0.002 A 
ATOM      3  C4  UNL d   1       0.938   0.680  -1.394  0.00  0.00     0.004 A 
ATOM      4  C5  UNL d   1       0.750   1.950  -0.848  0.00  0.00    -0.004 A 
ATOM      5  C6  UNL d   1       0.183   2.094   0.423  0.00  0.00    -0.075 A 
ATOM      6  C7  UNL d   1      -0.028   3.452   1.024  0.00  0.00     0.076 C 
ATOM      7  C8  UNL d   1      -0.199   0.948   1.134  0.00  0.00     0.001 A 
ENDROOT
BRANCH   1   8
ATOM      8  C1  UNL d   1      -0.429  -1.556   1.368  0.00  0.00     0.053 C 
ATOM      9  C   UNL d   1      -1.031  -2.627   0.472  0.00  0.00     0.018 C 
ENDBRANCH   1   8
TORSDOF 1
ENDMDL
