MODEL 1
REMARK minimizedAffinity -5.94176292
REMARK minimizedRMSD -1
REMARK  1 active torsions:
REMARK  status: ('A' for Active; 'I' for Inactive)
REMARK    1  A    between atoms: C1_2  and  C2_3 
ROOT
ATOM      1  C2  UNL d   1       0.213  -0.255   0.805  0.00  0.00    -0.073 A 
ATOM      2  C3  UNL d   1      -0.229  -0.773   2.028  0.00  0.00    -0.002 A 
ATOM      3  C4  UNL d   1      -0.655  -2.099   2.118  0.00  0.00     0.004 A 
ATOM      4  C5  UNL d   1      -0.636  -2.921   0.992  0.00  0.00    -0.004 A 
ATOM      5  C6  UNL d   1      -0.186  -2.425  -0.236  0.00  0.00    -0.075 A 
ATOM      6  C7  UNL d   1      -0.161  -3.295  -1.458  0.00  0.00     0.076 C 
ATOM      7  C8  UNL d   1       0.237  -1.091  -0.320  0.00  0.00     0.001 A 
ENDROOT
BRANCH   1   8
ATOM      8  C1  UNL d   1       0.679   1.175   0.704  0.00  0.00     0.053 C 
ATOM      9  C   UNL d   1       2.086   1.356   1.252  0.00  0.00     0.018 C 
ENDBRANCH   1   8
TORSDOF 1
ENDMDL
