MODEL 1
REMARK minimizedAffinity -4.69535589
REMARK minimizedRMSD -1
REMARK  1 active torsions:
REMARK  status: ('A' for Active; 'I' for Inactive)
REMARK    1  A    between atoms: C1_2  and  C2_3 
ROOT
ATOM      1  C2  UNL d   1      -0.145  -0.045  -0.026  0.00  0.00    -0.073 A 
ATOM      2  C3  UNL d   1      -0.485  -0.601   1.213  0.00  0.00    -0.002 A 
ATOM      3  C4  UNL d   1      -0.639  -1.981   1.348  0.00  0.00     0.004 A 
ATOM      4  C5  UNL d   1      -0.448  -2.820   0.250  0.00  0.00    -0.004 A 
ATOM      5  C6  UNL d   1      -0.096  -2.285  -0.993  0.00  0.00    -0.075 A 
ATOM      6  C7  UNL d   1       0.111  -3.173  -2.185  0.00  0.00     0.076 C 
ATOM      7  C8  UNL d   1       0.054  -0.897  -1.122  0.00  0.00     0.001 A 
ENDROOT
BRANCH   1   8
ATOM      8  C1  UNL d   1       0.029   1.444  -0.176  0.00  0.00     0.053 C 
ATOM      9  C   UNL d   1       1.404   1.906   0.278  0.00  0.00     0.018 C 
ENDBRANCH   1   8
TORSDOF 1
ENDMDL
