MODEL 1
REMARK minimizedAffinity -4.09828424
REMARK minimizedRMSD -1
REMARK  1 active torsions:
REMARK  status: ('A' for Active; 'I' for Inactive)
REMARK    1  A    between atoms: C1_2  and  C2_3 
ROOT
ATOM      1  C2  UNL d   1       0.399  -0.446   0.306  0.00  0.00    -0.073 A 
ATOM      2  C3  UNL d   1       0.535  -0.502   1.697  0.00  0.00    -0.002 A 
ATOM      3  C4  UNL d   1       0.996   0.608   2.406  0.00  0.00     0.004 A 
ATOM      4  C5  UNL d   1       1.320   1.786   1.733  0.00  0.00    -0.004 A 
ATOM      5  C6  UNL d   1       1.180   1.865   0.343  0.00  0.00    -0.075 A 
ATOM      6  C7  UNL d   1       1.526   3.124  -0.396  0.00  0.00     0.076 C 
ATOM      7  C8  UNL d   1       0.718   0.746  -0.362  0.00  0.00     0.001 A 
ENDROOT
BRANCH   1   8
ATOM      8  C1  UNL d   1      -0.105  -1.640  -0.463  0.00  0.00     0.053 C 
ATOM      9  C   UNL d   1      -0.416  -2.816   0.449  0.00  0.00     0.018 C 
ENDBRANCH   1   8
TORSDOF 1
ENDMDL
