MODEL 1
REMARK minimizedAffinity -6.05658722
REMARK minimizedRMSD -1
REMARK  1 active torsions:
REMARK  status: ('A' for Active; 'I' for Inactive)
REMARK    1  A    between atoms: C1_2  and  C2_3 
ROOT
ATOM      1  C2  UNL d   1      -0.025  -0.525   0.962  0.00  0.00    -0.073 A 
ATOM      2  C3  UNL d   1       0.012  -0.471   2.360  0.00  0.00    -0.002 A 
ATOM      3  C4  UNL d   1       0.569   0.632   3.009  0.00  0.00     0.004 A 
ATOM      4  C5  UNL d   1       1.089   1.693   2.268  0.00  0.00    -0.004 A 
ATOM      5  C6  UNL d   1       1.051   1.663   0.870  0.00  0.00    -0.075 A 
ATOM      6  C7  UNL d   1       1.607   2.796   0.058  0.00  0.00     0.076 C 
ATOM      7  C8  UNL d   1       0.492   0.551   0.226  0.00  0.00     0.001 A 
ENDROOT
BRANCH   1   8
ATOM      8  C1  UNL d   1      -0.631  -1.711   0.258  0.00  0.00     0.053 C 
ATOM      9  C   UNL d   1      -1.421  -2.596   1.209  0.00  0.00     0.018 C 
ENDBRANCH   1   8
TORSDOF 1
ENDMDL
