MODEL 1
REMARK minimizedAffinity -1.76304758
REMARK minimizedRMSD -1
REMARK  1 active torsions:
REMARK  status: ('A' for Active; 'I' for Inactive)
REMARK    1  A    between atoms: C1_2  and  C2_3 
ROOT
ATOM      1  C2  UNL d   1      -0.864  -2.093  -0.708  0.00  0.00    -0.073 A 
ATOM      2  C3  UNL d   1      -1.388  -2.441   0.543  0.00  0.00    -0.002 A 
ATOM      3  C4  UNL d   1      -1.243  -1.581   1.632  0.00  0.00     0.004 A 
ATOM      4  C5  UNL d   1      -0.580  -0.363   1.481  0.00  0.00    -0.004 A 
ATOM      5  C6  UNL d   1      -0.059   0.008   0.237  0.00  0.00    -0.075 A 
ATOM      6  C7  UNL d   1       0.659   1.313   0.059  0.00  0.00     0.076 C 
ATOM      7  C8  UNL d   1      -0.207  -0.863  -0.851  0.00  0.00     0.001 A 
ENDROOT
BRANCH   1   8
ATOM      8  C1  UNL d   1      -1.024  -3.016  -1.888  0.00  0.00     0.053 C 
ATOM      9  C   UNL d   1      -0.282  -2.506  -3.114  0.00  0.00     0.018 C 
ENDBRANCH   1   8
TORSDOF 1
ENDMDL
