MODEL 1
REMARK minimizedAffinity -3.45642853
REMARK minimizedRMSD -1
REMARK  1 active torsions:
REMARK  status: ('A' for Active; 'I' for Inactive)
REMARK    1  A    between atoms: C1_2  and  C2_3 
ROOT
ATOM      1  C2  UNL d   1      -0.174  -0.256   0.209  0.00  0.00    -0.073 A 
ATOM      2  C3  UNL d   1      -0.499  -0.769   1.471  0.00  0.00    -0.002 A 
ATOM      3  C4  UNL d   1      -0.991  -2.068   1.598  0.00  0.00     0.004 A 
ATOM      4  C5  UNL d   1      -1.158  -2.870   0.468  0.00  0.00    -0.004 A 
ATOM      5  C6  UNL d   1      -0.828  -2.379  -0.799  0.00  0.00    -0.075 A 
ATOM      6  C7  UNL d   1      -1.003  -3.228  -2.024  0.00  0.00     0.076 C 
ATOM      7  C8  UNL d   1      -0.336  -1.072  -0.919  0.00  0.00     0.001 A 
ENDROOT
BRANCH   1   8
ATOM      8  C1  UNL d   1       0.364   1.144   0.068  0.00  0.00     0.053 C 
ATOM      9  C   UNL d   1      -0.743   2.159  -0.172  0.00  0.00     0.018 C 
ENDBRANCH   1   8
TORSDOF 1
ENDMDL
