MODEL 1
REMARK minimizedAffinity -3.95734143
REMARK minimizedRMSD -1
REMARK  1 active torsions:
REMARK  status: ('A' for Active; 'I' for Inactive)
REMARK    1  A    between atoms: C1_2  and  C2_3 
ROOT
ATOM      1  C2  UNL d   1       0.148   0.406   0.995  0.00  0.00    -0.073 A 
ATOM      2  C3  UNL d   1      -0.563   0.612  -0.192  0.00  0.00    -0.002 A 
ATOM      3  C4  UNL d   1      -0.358   1.768  -0.946  0.00  0.00     0.004 A 
ATOM      4  C5  UNL d   1       0.564   2.726  -0.525  0.00  0.00    -0.004 A 
ATOM      5  C6  UNL d   1       1.293   2.533   0.653  0.00  0.00    -0.075 A 
ATOM      6  C7  UNL d   1       2.288   3.555   1.121  0.00  0.00     0.076 C 
ATOM      7  C8  UNL d   1       1.080   1.371   1.406  0.00  0.00     0.001 A 
ENDROOT
BRANCH   1   8
ATOM      8  C1  UNL d   1      -0.065  -0.844   1.809  0.00  0.00     0.053 C 
ATOM      9  C   UNL d   1      -1.079  -1.777   1.166  0.00  0.00     0.018 C 
ENDBRANCH   1   8
TORSDOF 1
ENDMDL
