MODEL 1
REMARK minimizedAffinity -3.97419357
REMARK minimizedRMSD -1
REMARK  1 active torsions:
REMARK  status: ('A' for Active; 'I' for Inactive)
REMARK    1  A    between atoms: C1_2  and  C2_3 
ROOT
ATOM      1  C2  UNL d   1       0.021  -0.660   0.091  0.00  0.00    -0.073 A 
ATOM      2  C3  UNL d   1      -0.527  -1.287   1.215  0.00  0.00    -0.002 A 
ATOM      3  C4  UNL d   1      -1.100  -2.554   1.106  0.00  0.00     0.004 A 
ATOM      4  C5  UNL d   1      -1.125  -3.210  -0.124  0.00  0.00    -0.004 A 
ATOM      5  C6  UNL d   1      -0.571  -2.605  -1.257  0.00  0.00    -0.075 A 
ATOM      6  C7  UNL d   1      -0.591  -3.297  -2.589  0.00  0.00     0.076 C 
ATOM      7  C8  UNL d   1       0.000  -1.331  -1.140  0.00  0.00     0.001 A 
ENDROOT
BRANCH   1   8
ATOM      8  C1  UNL d   1       0.647   0.706   0.205  0.00  0.00     0.053 C 
ATOM      9  C   UNL d   1       0.043   1.694  -0.781  0.00  0.00     0.018 C 
ENDBRANCH   1   8
TORSDOF 1
ENDMDL
