MODEL 1
REMARK minimizedAffinity -3.18163943
REMARK minimizedRMSD -1
REMARK  1 active torsions:
REMARK  status: ('A' for Active; 'I' for Inactive)
REMARK    1  A    between atoms: C1_2  and  C2_3 
ROOT
ATOM      1  C2  UNL d   1      -0.768  -2.045  -0.691  0.00  0.00    -0.073 A 
ATOM      2  C3  UNL d   1      -1.194  -2.595   0.524  0.00  0.00    -0.002 A 
ATOM      3  C4  UNL d   1      -1.230  -1.811   1.678  0.00  0.00     0.004 A 
ATOM      4  C5  UNL d   1      -0.849  -0.470   1.628  0.00  0.00    -0.004 A 
ATOM      5  C6  UNL d   1      -0.432   0.101   0.422  0.00  0.00    -0.075 A 
ATOM      6  C7  UNL d   1      -0.017   1.541   0.352  0.00  0.00     0.076 C 
ATOM      7  C8  UNL d   1      -0.395  -0.694  -0.733  0.00  0.00     0.001 A 
ENDROOT
BRANCH   1   8
ATOM      8  C1  UNL d   1      -0.733  -2.885  -1.941  0.00  0.00     0.053 C 
ATOM      9  C   UNL d   1      -0.040  -2.170  -3.090  0.00  0.00     0.018 C 
ENDBRANCH   1   8
TORSDOF 1
ENDMDL
