MODEL 1
REMARK minimizedAffinity -2.90323615
REMARK minimizedRMSD -1
REMARK  1 active torsions:
REMARK  status: ('A' for Active; 'I' for Inactive)
REMARK    1  A    between atoms: C1_2  and  C2_3 
ROOT
ATOM      1  C2  UNL d   1       0.409   1.521   0.150  0.00  0.00    -0.073 A 
ATOM      2  C3  UNL d   1       1.557   1.933  -0.535  0.00  0.00    -0.002 A 
ATOM      3  C4  UNL d   1       2.171   3.146  -0.217  0.00  0.00     0.004 A 
ATOM      4  C5  UNL d   1       1.647   3.954   0.792  0.00  0.00    -0.004 A 
ATOM      5  C6  UNL d   1       0.507   3.553   1.496  0.00  0.00    -0.075 A 
ATOM      6  C7  UNL d   1      -0.070   4.412   2.583  0.00  0.00     0.076 C 
ATOM      7  C8  UNL d   1      -0.105   2.336   1.169  0.00  0.00     0.001 A 
ENDROOT
BRANCH   1   8
ATOM      8  C1  UNL d   1      -0.253   0.210  -0.185  0.00  0.00     0.053 C 
ATOM      9  C   UNL d   1      -0.706  -0.536   1.060  0.00  0.00     0.018 C 
ENDBRANCH   1   8
TORSDOF 1
ENDMDL
