MODEL 1
REMARK minimizedAffinity -2.51180387
REMARK minimizedRMSD -1
REMARK  2 active torsions:
REMARK  status: ('A' for Active; 'I' for Inactive)
REMARK    1  A    between atoms: C2'_3  and  C1'_4 
REMARK    2  A    between atoms: C1'_4  and  C1_5 
ROOT
ATOM      1  C1  I4B d   1       0.143  -0.606  -1.671  0.00  0.00    -0.075 A 
ATOM      2  C2  I4B d   1       0.110  -1.969  -1.830  0.00  0.00     0.003 A 
ATOM      3  C3  I4B d   1       0.664  -2.564  -2.989  0.00  0.00     0.002 A 
ATOM      4  C4  I4B d   1       1.192  -1.762  -3.980  0.00  0.00    -0.004 A 
ATOM      5  C5  I4B d   1       1.245  -0.382  -3.806  0.00  0.00     0.002 A 
ATOM      6  C6  I4B d   1       0.729   0.200  -2.639  0.00  0.00     0.003 A 
ENDROOT
BRANCH   1   7
ATOM      7  C1' I4B d   1      -0.481  -0.007  -0.450  0.00  0.00     0.060 C 
BRANCH   7   8
ATOM      8  C2' I4B d   1       0.457  -0.244   0.717  0.00  0.00    -0.013 C 
ATOM      9  C4' I4B d   1       1.435   0.891   0.869  0.00  0.00     0.013 C 
ATOM     10  C3' I4B d   1      -0.376  -0.412   1.953  0.00  0.00     0.013 C 
ENDBRANCH   7   8
ENDBRANCH   1   7
TORSDOF 2
ENDMDL
