MODEL 1
REMARK minimizedAffinity -2.17289925
REMARK minimizedRMSD -1
REMARK  2 active torsions:
REMARK  status: ('A' for Active; 'I' for Inactive)
REMARK    1  A    between atoms: C2'_3  and  C1'_4 
REMARK    2  A    between atoms: C1'_4  and  C1_5 
ROOT
ATOM      1  C1  I4B d   1      -0.294   0.322  -1.203  0.00  0.00    -0.075 A 
ATOM      2  C2  I4B d   1      -1.613   0.614  -0.960  0.00  0.00     0.003 A 
ATOM      3  C3  I4B d   1      -2.211   0.239   0.268  0.00  0.00     0.002 A 
ATOM      4  C4  I4B d   1      -1.473  -0.466   1.196  0.00  0.00    -0.004 A 
ATOM      5  C5  I4B d   1      -0.130  -0.741   0.957  0.00  0.00     0.002 A 
ATOM      6  C6  I4B d   1       0.467  -0.334  -0.245  0.00  0.00     0.003 A 
ENDROOT
BRANCH   1   7
ATOM      7  C1' I4B d   1       0.297   0.703  -2.523  0.00  0.00     0.060 C 
BRANCH   7   8
ATOM      8  C2' I4B d   1       1.021  -0.507  -3.078  0.00  0.00    -0.013 C 
ATOM      9  C4' I4B d   1       0.071  -1.428  -3.798  0.00  0.00     0.013 C 
ATOM     10  C3' I4B d   1       2.103  -0.020  -3.995  0.00  0.00     0.013 C 
ENDBRANCH   7   8
ENDBRANCH   1   7
TORSDOF 2
ENDMDL
