MODEL 1
REMARK minimizedAffinity -2.38183475
REMARK minimizedRMSD -1
REMARK  2 active torsions:
REMARK  status: ('A' for Active; 'I' for Inactive)
REMARK    1  A    between atoms: C2'_3  and  C1'_4 
REMARK    2  A    between atoms: C1'_4  and  C1_5 
ROOT
ATOM      1  C1  I4B d   1       0.170   0.147   0.348  0.00  0.00    -0.075 A 
ATOM      2  C2  I4B d   1       0.810   0.377   1.540  0.00  0.00     0.003 A 
ATOM      3  C3  I4B d   1       0.172   0.065   2.764  0.00  0.00     0.002 A 
ATOM      4  C4  I4B d   1      -1.118  -0.426   2.752  0.00  0.00    -0.004 A 
ATOM      5  C5  I4B d   1      -1.757  -0.680   1.542  0.00  0.00     0.002 A 
ATOM      6  C6  I4B d   1      -1.105  -0.403   0.332  0.00  0.00     0.003 A 
ENDROOT
BRANCH   1   7
ATOM      7  C1' I4B d   1       0.861   0.520  -0.925  0.00  0.00     0.060 C 
BRANCH   7   8
ATOM      8  C2' I4B d   1      -0.122   0.329  -2.063  0.00  0.00    -0.013 C 
ATOM      9  C4' I4B d   1      -1.005   1.537  -2.229  0.00  0.00     0.013 C 
ATOM     10  C3' I4B d   1       0.663   0.056  -3.311  0.00  0.00     0.013 C 
ENDBRANCH   7   8
ENDBRANCH   1   7
TORSDOF 2
ENDMDL
