MODEL 1
REMARK minimizedAffinity -4.64274645
REMARK minimizedRMSD -1
REMARK  2 active torsions:
REMARK  status: ('A' for Active; 'I' for Inactive)
REMARK    1  A    between atoms: C2'_3  and  C1'_4 
REMARK    2  A    between atoms: C1'_4  and  C1_5 
ROOT
ATOM      1  C1  I4B d   1       0.159   0.188  -0.400  0.00  0.00    -0.075 A 
ATOM      2  C2  I4B d   1      -0.999  -0.222   0.212  0.00  0.00     0.003 A 
ATOM      3  C3  I4B d   1      -1.022  -0.459   1.608  0.00  0.00     0.002 A 
ATOM      4  C4  I4B d   1       0.140  -0.324   2.340  0.00  0.00    -0.004 A 
ATOM      5  C5  I4B d   1       1.307   0.114   1.722  0.00  0.00     0.002 A 
ATOM      6  C6  I4B d   1       1.315   0.383   0.346  0.00  0.00     0.003 A 
ENDROOT
BRANCH   1   7
ATOM      7  C1' I4B d   1       0.157   0.397  -1.881  0.00  0.00     0.060 C 
BRANCH   7   8
ATOM      8  C2' I4B d   1       1.000  -0.694  -2.508  0.00  0.00    -0.013 C 
ATOM      9  C4' I4B d   1       0.142  -1.705  -3.221  0.00  0.00     0.013 C 
ATOM     10  C3' I4B d   1       1.970  -0.045  -3.451  0.00  0.00     0.013 C 
ENDBRANCH   7   8
ENDBRANCH   1   7
TORSDOF 2
ENDMDL
