MODEL 1
REMARK minimizedAffinity -4.36633539
REMARK minimizedRMSD -1
REMARK  2 active torsions:
REMARK  status: ('A' for Active; 'I' for Inactive)
REMARK    1  A    between atoms: C2'_3  and  C1'_4 
REMARK    2  A    between atoms: C1'_4  and  C1_5 
ROOT
ATOM      1  C1  I4B d   1      -0.228   0.196  -0.358  0.00  0.00    -0.075 A 
ATOM      2  C2  I4B d   1      -1.402  -0.264   0.184  0.00  0.00     0.003 A 
ATOM      3  C3  I4B d   1      -1.489  -0.531   1.572  0.00  0.00     0.002 A 
ATOM      4  C4  I4B d   1      -0.372  -0.374   2.366  0.00  0.00    -0.004 A 
ATOM      5  C5  I4B d   1       0.811   0.114   1.818  0.00  0.00     0.002 A 
ATOM      6  C6  I4B d   1       0.880   0.412   0.450  0.00  0.00     0.003 A 
ENDROOT
BRANCH   1   7
ATOM      7  C1' I4B d   1      -0.161   0.436  -1.833  0.00  0.00     0.060 C 
BRANCH   7   8
ATOM      8  C2' I4B d   1       0.744  -0.618  -2.437  0.00  0.00    -0.013 C 
ATOM      9  C4' I4B d   1      -0.029  -1.554  -3.329  0.00  0.00     0.013 C 
ATOM     10  C3' I4B d   1       1.828   0.084  -3.200  0.00  0.00     0.013 C 
ENDBRANCH   7   8
ENDBRANCH   1   7
TORSDOF 2
ENDMDL
