MODEL 1
REMARK minimizedAffinity -2.24277091
REMARK minimizedRMSD -1
REMARK  2 active torsions:
REMARK  status: ('A' for Active; 'I' for Inactive)
REMARK    1  A    between atoms: C2'_3  and  C1'_4 
REMARK    2  A    between atoms: C1'_4  and  C1_5 
ROOT
ATOM      1  C1  I4B d   1      -0.247  -0.079  -0.569  0.00  0.00    -0.075 A 
ATOM      2  C2  I4B d   1      -1.417  -0.558  -0.035  0.00  0.00     0.003 A 
ATOM      3  C3  I4B d   1      -1.565  -0.678   1.368  0.00  0.00     0.002 A 
ATOM      4  C4  I4B d   1      -0.506  -0.357   2.192  0.00  0.00    -0.004 A 
ATOM      5  C5  I4B d   1       0.672   0.151   1.651  0.00  0.00     0.002 A 
ATOM      6  C6  I4B d   1       0.798   0.303   0.262  0.00  0.00     0.003 A 
ENDROOT
BRANCH   1   7
ATOM      7  C1' I4B d   1      -0.114   0.003  -2.057  0.00  0.00     0.060 C 
BRANCH   7   8
ATOM      8  C2' I4B d   1       0.444  -1.316  -2.549  0.00  0.00    -0.013 C 
ATOM      9  C4' I4B d   1      -0.572  -2.066  -3.369  0.00  0.00     0.013 C 
ATOM     10  C3' I4B d   1       1.679  -1.027  -3.349  0.00  0.00     0.013 C 
ENDBRANCH   7   8
ENDBRANCH   1   7
TORSDOF 2
ENDMDL
