MODEL 1
REMARK minimizedAffinity -5.27325869
REMARK minimizedRMSD -1
REMARK  2 active torsions:
REMARK  status: ('A' for Active; 'I' for Inactive)
REMARK    1  A    between atoms: C2'_3  and  C1'_4 
REMARK    2  A    between atoms: C1'_4  and  C1_5 
ROOT
ATOM      1  C1  I4B d   1       0.074  -0.499  -0.760  0.00  0.00    -0.075 A 
ATOM      2  C2  I4B d   1      -0.076  -1.713  -1.383  0.00  0.00     0.003 A 
ATOM      3  C3  I4B d   1       0.615  -1.985  -2.588  0.00  0.00     0.002 A 
ATOM      4  C4  I4B d   1       1.400  -1.004  -3.159  0.00  0.00    -0.004 A 
ATOM      5  C5  I4B d   1       1.568   0.218  -2.514  0.00  0.00     0.002 A 
ATOM      6  C6  I4B d   1       0.911   0.468  -1.300  0.00  0.00     0.003 A 
ENDROOT
BRANCH   1   7
ATOM      7  C1' I4B d   1      -0.696  -0.233   0.495  0.00  0.00     0.060 C 
BRANCH   7   8
ATOM      8  C2' I4B d   1       0.253  -0.383   1.666  0.00  0.00    -0.013 C 
ATOM      9  C4' I4B d   1       0.180   0.808   2.584  0.00  0.00     0.013 C 
ATOM     10  C3' I4B d   1      -0.101  -1.648   2.390  0.00  0.00     0.013 C 
ENDBRANCH   7   8
ENDBRANCH   1   7
TORSDOF 2
ENDMDL
