MODEL 1
REMARK minimizedAffinity -2.92828035
REMARK minimizedRMSD -1
REMARK  2 active torsions:
REMARK  status: ('A' for Active; 'I' for Inactive)
REMARK    1  A    between atoms: C2'_3  and  C1'_4 
REMARK    2  A    between atoms: C1'_4  and  C1_5 
ROOT
ATOM      1  C1  I4B d   1       0.314  -0.074   1.035  0.00  0.00    -0.075 A 
ATOM      2  C2  I4B d   1       0.334   0.624   2.216  0.00  0.00     0.003 A 
ATOM      3  C3  I4B d   1      -0.256   0.074   3.380  0.00  0.00     0.002 A 
ATOM      4  C4  I4B d   1      -0.896  -1.147   3.306  0.00  0.00    -0.004 A 
ATOM      5  C5  I4B d   1      -0.895  -1.864   2.113  0.00  0.00     0.002 A 
ATOM      6  C6  I4B d   1      -0.276  -1.330   0.973  0.00  0.00     0.003 A 
ENDROOT
BRANCH   1   7
ATOM      7  C1' I4B d   1       0.917   0.551  -0.183  0.00  0.00     0.060 C 
BRANCH   7   8
ATOM      8  C2' I4B d   1      -0.022   0.309  -1.346  0.00  0.00    -0.013 C 
ATOM      9  C4' I4B d   1      -1.366   0.945  -1.103  0.00  0.00     0.013 C 
ATOM     10  C3' I4B d   1       0.622   0.859  -2.584  0.00  0.00     0.013 C 
ENDBRANCH   7   8
ENDBRANCH   1   7
TORSDOF 2
ENDMDL
