MODEL 1
REMARK minimizedAffinity -1.93424499
REMARK minimizedRMSD -1
REMARK  2 active torsions:
REMARK  status: ('A' for Active; 'I' for Inactive)
REMARK    1  A    between atoms: C2'_3  and  C1'_4 
REMARK    2  A    between atoms: C1'_4  and  C1_5 
ROOT
ATOM      1  C1  I4B d   1       0.045  -0.453  -1.382  0.00  0.00    -0.075 A 
ATOM      2  C2  I4B d   1      -1.042  -0.687  -0.576  0.00  0.00     0.003 A 
ATOM      3  C3  I4B d   1      -0.953  -0.472   0.821  0.00  0.00     0.002 A 
ATOM      4  C4  I4B d   1       0.248  -0.075   1.372  0.00  0.00    -0.004 A 
ATOM      5  C5  I4B d   1       1.342   0.183   0.552  0.00  0.00     0.002 A 
ATOM      6  C6  I4B d   1       1.237   0.005  -0.836  0.00  0.00     0.003 A 
ENDROOT
BRANCH   1   7
ATOM      7  C1' I4B d   1      -0.074  -0.721  -2.848  0.00  0.00     0.060 C 
BRANCH   7   8
ATOM      8  C2' I4B d   1       1.324  -0.885  -3.408  0.00  0.00    -0.013 C 
ATOM      9  C4' I4B d   1       1.836  -2.285  -3.197  0.00  0.00     0.013 C 
ATOM     10  C3' I4B d   1       1.283  -0.538  -4.866  0.00  0.00     0.013 C 
ENDBRANCH   7   8
ENDBRANCH   1   7
TORSDOF 2
ENDMDL
