MODEL 1
REMARK minimizedAffinity -4.28484488
REMARK minimizedRMSD -1
REMARK  2 active torsions:
REMARK  status: ('A' for Active; 'I' for Inactive)
REMARK    1  A    between atoms: C2'_3  and  C1'_4 
REMARK    2  A    between atoms: C1'_4  and  C1_5 
ROOT
ATOM      1  C1  I4B d   1       0.157   0.147  -0.182  0.00  0.00    -0.075 A 
ATOM      2  C2  I4B d   1      -0.980  -0.196   0.506  0.00  0.00     0.003 A 
ATOM      3  C3  I4B d   1      -0.958  -0.286   1.919  0.00  0.00     0.002 A 
ATOM      4  C4  I4B d   1       0.227  -0.076   2.595  0.00  0.00    -0.004 A 
ATOM      5  C5  I4B d   1       1.373   0.294   1.898  0.00  0.00     0.002 A 
ATOM      6  C6  I4B d   1       1.336   0.418   0.501  0.00  0.00     0.003 A 
ENDROOT
BRANCH   1   7
ATOM      7  C1' I4B d   1       0.107   0.201  -1.676  0.00  0.00     0.060 C 
BRANCH   7   8
ATOM      8  C2' I4B d   1       1.055  -0.852  -2.213  0.00  0.00    -0.013 C 
ATOM      9  C4' I4B d   1       0.302  -1.977  -2.873  0.00  0.00     0.013 C 
ATOM     10  C3' I4B d   1       1.988  -0.185  -3.179  0.00  0.00     0.013 C 
ENDBRANCH   7   8
ENDBRANCH   1   7
TORSDOF 2
ENDMDL
