MODEL 1
REMARK minimizedAffinity -1.69370198
REMARK minimizedRMSD -1
REMARK  2 active torsions:
REMARK  status: ('A' for Active; 'I' for Inactive)
REMARK    1  A    between atoms: C2'_3  and  C1'_4 
REMARK    2  A    between atoms: C1'_4  and  C1_5 
ROOT
ATOM      1  C1  I4B d   1       0.244   0.164  -1.225  0.00  0.00    -0.075 A 
ATOM      2  C2  I4B d   1      -1.101   0.316  -1.000  0.00  0.00     0.003 A 
ATOM      3  C3  I4B d   1      -1.604   0.351   0.323  0.00  0.00     0.002 A 
ATOM      4  C4  I4B d   1      -0.737   0.181   1.384  0.00  0.00    -0.004 A 
ATOM      5  C5  I4B d   1       0.629   0.050   1.155  0.00  0.00     0.002 A 
ATOM      6  C6  I4B d   1       1.125   0.053  -0.157  0.00  0.00     0.003 A 
ENDROOT
BRANCH   1   7
ATOM      7  C1' I4B d   1       0.737   0.097  -2.636  0.00  0.00     0.060 C 
BRANCH   7   8
ATOM      8  C2' I4B d   1       1.218  -1.316  -2.896  0.00  0.00    -0.013 C 
ATOM      9  C4' I4B d   1       0.253  -2.066  -3.776  0.00  0.00     0.013 C 
ATOM     10  C3' I4B d   1       2.576  -1.234  -3.528  0.00  0.00     0.013 C 
ENDBRANCH   7   8
ENDBRANCH   1   7
TORSDOF 2
ENDMDL
