MODEL 1
REMARK minimizedAffinity -1.42761981
REMARK minimizedRMSD -1
REMARK  0 active torsions:
REMARK  status: ('A' for Active; 'I' for Inactive)
ROOT
ATOM      1  C   UNL d   1       1.088   2.152   1.922  0.00  0.00     0.172 C 
ATOM      2  N   UNL d   1       1.210   1.858   0.513  0.00  0.00    -0.070 N 
ATOM      3  C1  UNL d   1       1.353   0.610  -0.033  0.00  0.00    -0.004 A 
ATOM      4  C2  UNL d   1       1.434   0.755  -1.401  0.00  0.00    -0.047 A 
ATOM      5  C3  UNL d   1       1.337   2.138  -1.687  0.00  0.00    -0.047 A 
ATOM      6  C4  UNL d   1       1.200   2.797  -0.484  0.00  0.00    -0.004 A 
ENDROOT
TORSDOF 0
ENDMDL
