MODEL 1
REMARK minimizedAffinity -1.09766352
REMARK minimizedRMSD -1
REMARK  0 active torsions:
REMARK  status: ('A' for Active; 'I' for Inactive)
ROOT
ATOM      1  C   UNL d   1       1.579   5.012  -0.877  0.00  0.00     0.172 C 
ATOM      2  N   UNL d   1       1.455   3.578  -0.752  0.00  0.00    -0.070 N 
ATOM      3  C1  UNL d   1       1.486   2.681  -1.787  0.00  0.00    -0.004 A 
ATOM      4  C2  UNL d   1       1.336   1.419  -1.255  0.00  0.00    -0.047 A 
ATOM      5  C3  UNL d   1       1.208   1.562   0.147  0.00  0.00    -0.047 A 
ATOM      6  C4  UNL d   1       1.285   2.909   0.431  0.00  0.00    -0.004 A 
ENDROOT
TORSDOF 0
ENDMDL
