MODEL 1
REMARK minimizedAffinity 1.15239334
REMARK minimizedRMSD -1
REMARK  0 active torsions:
REMARK  status: ('A' for Active; 'I' for Inactive)
ROOT
ATOM      1  C   UNL d   1       2.515   6.000  -1.498  0.00  0.00     0.172 C 
ATOM      2  N   UNL d   1       2.100   4.684  -1.072  0.00  0.00    -0.070 N 
ATOM      3  C1  UNL d   1       1.877   3.612  -1.894  0.00  0.00    -0.004 A 
ATOM      4  C2  UNL d   1       1.499   2.547  -1.105  0.00  0.00    -0.047 A 
ATOM      5  C3  UNL d   1       1.494   2.994   0.237  0.00  0.00    -0.047 A 
ATOM      6  C4  UNL d   1       1.870   4.321   0.229  0.00  0.00    -0.004 A 
ENDROOT
TORSDOF 0
ENDMDL
