MODEL 1
REMARK minimizedAffinity -1.77797222
REMARK minimizedRMSD -1
REMARK  0 active torsions:
REMARK  status: ('A' for Active; 'I' for Inactive)
ROOT
ATOM      1  C   UNL d   1       1.395   4.643  -0.464  0.00  0.00     0.172 C 
ATOM      2  N   UNL d   1       1.244   3.284  -0.928  0.00  0.00    -0.070 N 
ATOM      3  C1  UNL d   1       1.970   2.207  -0.494  0.00  0.00    -0.004 A 
ATOM      4  C2  UNL d   1       1.525   1.095  -1.176  0.00  0.00    -0.047 A 
ATOM      5  C3  UNL d   1       0.496   1.519  -2.051  0.00  0.00    -0.047 A 
ATOM      6  C4  UNL d   1       0.343   2.878  -1.876  0.00  0.00    -0.004 A 
ENDROOT
TORSDOF 0
ENDMDL
