MODEL 1
REMARK minimizedAffinity 2.68072963
REMARK minimizedRMSD -1
REMARK  0 active torsions:
REMARK  status: ('A' for Active; 'I' for Inactive)
ROOT
ATOM      1  C   UNL d   1       1.510  -0.018  -1.922  0.00  0.00     0.172 C 
ATOM      2  N   UNL d   1       1.339   1.409  -1.777  0.00  0.00    -0.070 N 
ATOM      3  C1  UNL d   1       1.932   2.191  -0.821  0.00  0.00    -0.004 A 
ATOM      4  C2  UNL d   1       1.517   3.489  -1.021  0.00  0.00    -0.047 A 
ATOM      5  C3  UNL d   1       0.644   3.488  -2.135  0.00  0.00    -0.047 A 
ATOM      6  C4  UNL d   1       0.552   2.188  -2.584  0.00  0.00    -0.004 A 
ENDROOT
TORSDOF 0
ENDMDL
