MODEL 1
REMARK minimizedAffinity -0.548319221
REMARK minimizedRMSD -1
REMARK  0 active torsions:
REMARK  status: ('A' for Active; 'I' for Inactive)
ROOT
ATOM      1  C   UNL d   1       1.513   5.243  -0.642  0.00  0.00     0.172 C 
ATOM      2  N   UNL d   1       1.307   3.818  -0.748  0.00  0.00    -0.070 N 
ATOM      3  C1  UNL d   1       1.101   2.960   0.300  0.00  0.00    -0.004 A 
ATOM      4  C2  UNL d   1       0.949   1.692  -0.216  0.00  0.00    -0.047 A 
ATOM      5  C3  UNL d   1       1.069   1.790  -1.623  0.00  0.00    -0.047 A 
ATOM      6  C4  UNL d   1       1.290   3.117  -1.925  0.00  0.00    -0.004 A 
ENDROOT
TORSDOF 0
ENDMDL
