MODEL 1
REMARK minimizedAffinity -3.40650845
REMARK minimizedRMSD -1
REMARK  0 active torsions:
REMARK  status: ('A' for Active; 'I' for Inactive)
ROOT
ATOM      1  C   UNL d   1       1.713   3.850  -0.452  0.00  0.00     0.172 C 
ATOM      2  N   UNL d   1       1.383   2.445  -0.498  0.00  0.00    -0.070 N 
ATOM      3  C1  UNL d   1       1.260   1.690  -1.634  0.00  0.00    -0.004 A 
ATOM      4  C2  UNL d   1       0.939   0.405  -1.255  0.00  0.00    -0.047 A 
ATOM      5  C3  UNL d   1       0.865   0.386   0.158  0.00  0.00    -0.047 A 
ATOM      6  C4  UNL d   1       1.144   1.662   0.601  0.00  0.00    -0.004 A 
ENDROOT
TORSDOF 0
ENDMDL
