MODEL 1
REMARK minimizedAffinity -1.06288147
REMARK minimizedRMSD -1
REMARK  0 active torsions:
REMARK  status: ('A' for Active; 'I' for Inactive)
ROOT
ATOM      1  C   UNL d   1       1.730   5.309  -1.172  0.00  0.00     0.172 C 
ATOM      2  N   UNL d   1       1.327   3.922  -1.191  0.00  0.00    -0.070 N 
ATOM      3  C1  UNL d   1       1.179   3.120  -0.091  0.00  0.00    -0.004 A 
ATOM      4  C2  UNL d   1       0.785   1.874  -0.528  0.00  0.00    -0.047 A 
ATOM      5  C3  UNL d   1       0.695   1.929  -1.940  0.00  0.00    -0.047 A 
ATOM      6  C4  UNL d   1       1.036   3.209  -2.323  0.00  0.00    -0.004 A 
ENDROOT
TORSDOF 0
ENDMDL
