MODEL 1
REMARK minimizedAffinity -1.29810464
REMARK minimizedRMSD -1
REMARK  0 active torsions:
REMARK  status: ('A' for Active; 'I' for Inactive)
ROOT
ATOM      1  C   UNL d   1       1.523   1.724  -2.199  0.00  0.00     0.172 C 
ATOM      2  N   UNL d   1       1.344   0.416  -1.612  0.00  0.00    -0.070 N 
ATOM      3  C1  UNL d   1       1.222  -0.759  -2.303  0.00  0.00    -0.004 A 
ATOM      4  C2  UNL d   1       1.070  -1.775  -1.384  0.00  0.00    -0.047 A 
ATOM      5  C3  UNL d   1       1.101  -1.189  -0.097  0.00  0.00    -0.047 A 
ATOM      6  C4  UNL d   1       1.272   0.168  -0.267  0.00  0.00    -0.004 A 
ENDROOT
TORSDOF 0
ENDMDL
