MODEL 1
REMARK minimizedAffinity -0.32971698
REMARK minimizedRMSD -1
REMARK  0 active torsions:
REMARK  status: ('A' for Active; 'I' for Inactive)
ROOT
ATOM      1  C   UNL d   1       2.414   5.997  -1.065  0.00  0.00     0.172 C 
ATOM      2  N   UNL d   1       2.036   4.606  -0.996  0.00  0.00    -0.070 N 
ATOM      3  C1  UNL d   1       2.035   3.725  -2.045  0.00  0.00    -0.004 A 
ATOM      4  C2  UNL d   1       1.613   2.503  -1.569  0.00  0.00    -0.047 A 
ATOM      5  C3  UNL d   1       1.350   2.653  -0.187  0.00  0.00    -0.047 A 
ATOM      6  C4  UNL d   1       1.620   3.965   0.142  0.00  0.00    -0.004 A 
ENDROOT
TORSDOF 0
ENDMDL
