MODEL 1
REMARK minimizedAffinity 3.49547315
REMARK minimizedRMSD -1
REMARK  0 active torsions:
REMARK  status: ('A' for Active; 'I' for Inactive)
ROOT
ATOM      1  C   UNL d   1       2.629   5.996  -1.124  0.00  0.00     0.172 C 
ATOM      2  N   UNL d   1       1.997   4.827  -1.689  0.00  0.00    -0.070 N 
ATOM      3  C1  UNL d   1       0.940   4.833  -2.560  0.00  0.00    -0.004 A 
ATOM      4  C2  UNL d   1       0.635   3.523  -2.861  0.00  0.00    -0.047 A 
ATOM      5  C3  UNL d   1       1.539   2.702  -2.146  0.00  0.00    -0.047 A 
ATOM      6  C4  UNL d   1       2.371   3.535  -1.429  0.00  0.00    -0.004 A 
ENDROOT
TORSDOF 0
ENDMDL
