MODEL 1
REMARK minimizedAffinity 1.19247103
REMARK minimizedRMSD -1
REMARK  0 active torsions:
REMARK  status: ('A' for Active; 'I' for Inactive)
ROOT
ATOM      1  C   UNL d   1       1.983   4.373  -1.470  0.00  0.00     0.172 C 
ATOM      2  N   UNL d   1       1.743   2.951  -1.545  0.00  0.00    -0.070 N 
ATOM      3  C1  UNL d   1       1.100   2.304  -2.566  0.00  0.00    -0.004 A 
ATOM      4  C2  UNL d   1       1.076   0.959  -2.264  0.00  0.00    -0.047 A 
ATOM      5  C3  UNL d   1       1.725   0.793  -1.018  0.00  0.00    -0.047 A 
ATOM      6  C4  UNL d   1       2.128   2.043  -0.595  0.00  0.00    -0.004 A 
ENDROOT
TORSDOF 0
ENDMDL
