MODEL 1
REMARK minimizedAffinity -2.82723379
REMARK minimizedRMSD -1
REMARK  0 active torsions:
REMARK  status: ('A' for Active; 'I' for Inactive)
ROOT
ATOM      1  C   UNL d   1       1.456   0.523  -0.972  0.00  0.00     0.172 C 
ATOM      2  N   UNL d   1       1.257   1.839  -0.411  0.00  0.00    -0.070 N 
ATOM      3  C1  UNL d   1       0.996   2.115   0.905  0.00  0.00    -0.004 A 
ATOM      4  C2  UNL d   1       0.872   3.481   1.033  0.00  0.00    -0.047 A 
ATOM      5  C3  UNL d   1       1.064   4.046  -0.250  0.00  0.00    -0.047 A 
ATOM      6  C4  UNL d   1       1.300   3.007  -1.126  0.00  0.00    -0.004 A 
ENDROOT
TORSDOF 0
ENDMDL
