MODEL 1
REMARK minimizedAffinity -4.39647388
REMARK minimizedRMSD -1
REMARK  0 active torsions:
REMARK  status: ('A' for Active; 'I' for Inactive)
ROOT
ATOM      1  C1  BNZ d   1      -0.417   1.372  -0.306  0.00  0.00     0.000 A 
ATOM      2  C2  BNZ d   1      -1.649   1.832   0.076  0.00  0.00     0.000 A 
ATOM      3  C3  BNZ d   1      -2.629   2.059  -0.849  0.00  0.00     0.000 A 
ATOM      4  C4  BNZ d   1      -2.364   1.863  -2.157  0.00  0.00     0.000 A 
ATOM      5  C5  BNZ d   1      -1.124   1.408  -2.559  0.00  0.00     0.000 A 
ATOM      6  C6  BNZ d   1      -0.153   1.144  -1.621  0.00  0.00     0.000 A 
ENDROOT
TORSDOF 0
ENDMDL
