MODEL 1
REMARK minimizedAffinity -2.8582952
REMARK minimizedRMSD -1
REMARK  0 active torsions:
REMARK  status: ('A' for Active; 'I' for Inactive)
ROOT
ATOM      1  C1  BNZ d   1      -0.883   1.668   1.685  0.00  0.00     0.000 A 
ATOM      2  C2  BNZ d   1      -2.037   1.584   0.952  0.00  0.00     0.000 A 
ATOM      3  C3  BNZ d   1      -2.029   1.047  -0.305  0.00  0.00     0.000 A 
ATOM      4  C4  BNZ d   1      -0.864   0.633  -0.842  0.00  0.00     0.000 A 
ATOM      5  C5  BNZ d   1       0.309   0.720  -0.119  0.00  0.00     0.000 A 
ATOM      6  C6  BNZ d   1       0.292   1.225   1.160  0.00  0.00     0.000 A 
ENDROOT
TORSDOF 0
ENDMDL
