MODEL 1
REMARK minimizedAffinity -1.28295529
REMARK minimizedRMSD -1
REMARK  0 active torsions:
REMARK  status: ('A' for Active; 'I' for Inactive)
ROOT
ATOM      1  C1  BNZ d   1       1.123  -0.826  -0.748  0.00  0.00     0.000 A 
ATOM      2  C2  BNZ d   1       1.392  -0.876   0.594  0.00  0.00     0.000 A 
ATOM      3  C3  BNZ d   1       0.755  -0.040   1.467  0.00  0.00     0.000 A 
ATOM      4  C4  BNZ d   1      -0.121   0.871   0.994  0.00  0.00     0.000 A 
ATOM      5  C5  BNZ d   1      -0.396   0.939  -0.357  0.00  0.00     0.000 A 
ATOM      6  C6  BNZ d   1       0.219   0.070  -1.229  0.00  0.00     0.000 A 
ENDROOT
TORSDOF 0
ENDMDL
