MODEL 1
REMARK minimizedAffinity 1.55016959
REMARK minimizedRMSD -1
REMARK  0 active torsions:
REMARK  status: ('A' for Active; 'I' for Inactive)
ROOT
ATOM      1  C1  BNZ d   1      -5.295   3.657  -4.045  0.00  0.00     0.000 A 
ATOM      2  C2  BNZ d   1      -5.921   3.696  -5.263  0.00  0.00     0.000 A 
ATOM      3  C3  BNZ d   1      -6.000   4.862  -5.972  0.00  0.00     0.000 A 
ATOM      4  C4  BNZ d   1      -5.490   5.994  -5.446  0.00  0.00     0.000 A 
ATOM      5  C5  BNZ d   1      -4.865   5.973  -4.215  0.00  0.00     0.000 A 
ATOM      6  C6  BNZ d   1      -4.753   4.790  -3.521  0.00  0.00     0.000 A 
ENDROOT
TORSDOF 0
ENDMDL
