MODEL 1
REMARK minimizedAffinity 2.02181554
REMARK minimizedRMSD -1
REMARK  0 active torsions:
REMARK  status: ('A' for Active; 'I' for Inactive)
ROOT
ATOM      1  C1  BNZ d   1      -0.272   0.608   1.710  0.00  0.00     0.000 A 
ATOM      2  C2  BNZ d   1       0.553  -0.441   2.018  0.00  0.00     0.000 A 
ATOM      3  C3  BNZ d   1       1.311  -1.042   1.052  0.00  0.00     0.000 A 
ATOM      4  C4  BNZ d   1       1.214  -0.620  -0.225  0.00  0.00     0.000 A 
ATOM      5  C5  BNZ d   1       0.380   0.430  -0.553  0.00  0.00     0.000 A 
ATOM      6  C6  BNZ d   1      -0.352   1.058   0.428  0.00  0.00     0.000 A 
ENDROOT
TORSDOF 0
ENDMDL
