MODEL 1
REMARK minimizedAffinity 1.54713643
REMARK minimizedRMSD -1
REMARK  0 active torsions:
REMARK  status: ('A' for Active; 'I' for Inactive)
ROOT
ATOM      1  C1  BNZ d   1      -5.538   5.974  -3.921  0.00  0.00     0.000 A 
ATOM      2  C2  BNZ d   1      -5.993   5.993  -5.212  0.00  0.00     0.000 A 
ATOM      3  C3  BNZ d   1      -5.995   4.856  -5.971  0.00  0.00     0.000 A 
ATOM      4  C4  BNZ d   1      -5.507   3.712  -5.451  0.00  0.00     0.000 A 
ATOM      5  C5  BNZ d   1      -5.036   3.678  -4.154  0.00  0.00     0.000 A 
ATOM      6  C6  BNZ d   1      -5.071   4.815  -3.380  0.00  0.00     0.000 A 
ENDROOT
TORSDOF 0
ENDMDL
