MODEL 1
REMARK minimizedAffinity 6.31204557
REMARK minimizedRMSD -1
REMARK  0 active torsions:
REMARK  status: ('A' for Active; 'I' for Inactive)
ROOT
ATOM      1  C1  BNZ d   1       0.118   2.112   0.394  0.00  0.00     0.000 A 
ATOM      2  C2  BNZ d   1       0.049   2.507   1.703  0.00  0.00     0.000 A 
ATOM      3  C3  BNZ d   1      -1.144   2.872   2.262  0.00  0.00     0.000 A 
ATOM      4  C4  BNZ d   1      -2.258   2.879   1.502  0.00  0.00     0.000 A 
ATOM      5  C5  BNZ d   1      -2.203   2.492   0.178  0.00  0.00     0.000 A 
ATOM      6  C6  BNZ d   1      -1.008   2.088  -0.371  0.00  0.00     0.000 A 
ENDROOT
TORSDOF 0
ENDMDL
