MODEL 1
REMARK minimizedAffinity 4.91145849
REMARK minimizedRMSD -1
REMARK  0 active torsions:
REMARK  status: ('A' for Active; 'I' for Inactive)
ROOT
ATOM      1  C1  BNZ d   1      -0.182   0.203  -1.481  0.00  0.00     0.000 A 
ATOM      2  C2  BNZ d   1      -0.932  -0.936  -1.361  0.00  0.00     0.000 A 
ATOM      3  C3  BNZ d   1      -2.297  -0.875  -1.326  0.00  0.00     0.000 A 
ATOM      4  C4  BNZ d   1      -2.908   0.327  -1.369  0.00  0.00     0.000 A 
ATOM      5  C5  BNZ d   1      -2.165   1.485  -1.480  0.00  0.00     0.000 A 
ATOM      6  C6  BNZ d   1      -0.793   1.417  -1.555  0.00  0.00     0.000 A 
ENDROOT
TORSDOF 0
ENDMDL
