MODEL 1
REMARK minimizedAffinity 5.47485685
REMARK minimizedRMSD -1
REMARK  0 active torsions:
REMARK  status: ('A' for Active; 'I' for Inactive)
ROOT
ATOM      1  C1  BNZ d   1       0.679  -2.474  -1.186  0.00  0.00     0.000 A 
ATOM      2  C2  BNZ d   1      -0.517  -1.918  -1.556  0.00  0.00     0.000 A 
ATOM      3  C3  BNZ d   1      -0.565  -0.677  -2.125  0.00  0.00     0.000 A 
ATOM      4  C4  BNZ d   1       0.576   0.023  -2.288  0.00  0.00     0.000 A 
ATOM      5  C5  BNZ d   1       1.788  -0.520  -1.912  0.00  0.00     0.000 A 
ATOM      6  C6  BNZ d   1       1.837  -1.786  -1.375  0.00  0.00     0.000 A 
ENDROOT
TORSDOF 0
ENDMDL
