MODEL 1
REMARK minimizedAffinity 0.760861814
REMARK minimizedRMSD -1
REMARK  0 active torsions:
REMARK  status: ('A' for Active; 'I' for Inactive)
ROOT
ATOM      1  C1  BNZ d   1      -0.451   2.163  -0.515  0.00  0.00     0.000 A 
ATOM      2  C2  BNZ d   1       0.381   2.163   0.573  0.00  0.00     0.000 A 
ATOM      3  C3  BNZ d   1      -0.095   2.468   1.818  0.00  0.00     0.000 A 
ATOM      4  C4  BNZ d   1      -1.391   2.811   1.966  0.00  0.00     0.000 A 
ATOM      5  C5  BNZ d   1      -2.240   2.825   0.878  0.00  0.00     0.000 A 
ATOM      6  C6  BNZ d   1      -1.766   2.479  -0.367  0.00  0.00     0.000 A 
ENDROOT
TORSDOF 0
ENDMDL
