MODEL 1
REMARK minimizedAffinity 3.7963779
REMARK minimizedRMSD -1
REMARK  0 active torsions:
REMARK  status: ('A' for Active; 'I' for Inactive)
ROOT
ATOM      1  C1  BNZ d   1       2.212  -4.645  -4.451  0.00  0.00     0.000 A 
ATOM      2  C2  BNZ d   1       1.920  -3.390  -3.987  0.00  0.00     0.000 A 
ATOM      3  C3  BNZ d   1       1.938  -3.117  -2.648  0.00  0.00     0.000 A 
ATOM      4  C4  BNZ d   1       2.209  -4.107  -1.773  0.00  0.00     0.000 A 
ATOM      5  C5  BNZ d   1       2.497  -5.380  -2.225  0.00  0.00     0.000 A 
ATOM      6  C6  BNZ d   1       2.516  -5.642  -3.576  0.00  0.00     0.000 A 
ENDROOT
TORSDOF 0
ENDMDL
