MODEL 1
REMARK minimizedAffinity -4.50616264
REMARK minimizedRMSD -1
REMARK  0 active torsions:
REMARK  status: ('A' for Active; 'I' for Inactive)
ROOT
ATOM      1  C1  BNZ d   1      -0.206   3.557   0.471  0.00  0.00     0.000 A 
ATOM      2  C2  BNZ d   1      -0.314   3.017  -0.783  0.00  0.00     0.000 A 
ATOM      3  C3  BNZ d   1      -0.146   1.676  -0.984  0.00  0.00     0.000 A 
ATOM      4  C4  BNZ d   1       0.168   0.883   0.061  0.00  0.00     0.000 A 
ATOM      5  C5  BNZ d   1       0.289   1.414   1.330  0.00  0.00     0.000 A 
ATOM      6  C6  BNZ d   1       0.082   2.759   1.535  0.00  0.00     0.000 A 
ENDROOT
TORSDOF 0
ENDMDL
