MODEL 1
REMARK minimizedAffinity -2.1122086
REMARK minimizedRMSD -1
REMARK  0 active torsions:
REMARK  status: ('A' for Active; 'I' for Inactive)
ROOT
ATOM      1  C1  BNZ d   1       0.428   2.617   1.728  0.00  0.00     0.000 A 
ATOM      2  C2  BNZ d   1       0.443   1.295   1.369  0.00  0.00     0.000 A 
ATOM      3  C3  BNZ d   1       0.450   0.927   0.053  0.00  0.00     0.000 A 
ATOM      4  C4  BNZ d   1       0.402   1.879  -0.902  0.00  0.00     0.000 A 
ATOM      5  C5  BNZ d   1       0.377   3.215  -0.556  0.00  0.00     0.000 A 
ATOM      6  C6  BNZ d   1       0.409   3.583   0.770  0.00  0.00     0.000 A 
ENDROOT
TORSDOF 0
ENDMDL
