MODEL 1
REMARK minimizedAffinity -1.86745286
REMARK minimizedRMSD -1
REMARK  1 active torsions:
REMARK  status: ('A' for Active; 'I' for Inactive)
REMARK    1  A    between atoms: C1_2  and  C2_3 
ROOT
ATOM      1  C2  UNL d   1      -1.758   0.401  -0.190  0.00  0.00    -0.077 A 
ATOM      2  C3  UNL d   1      -2.025   1.756   0.053  0.00  0.00     0.002 A 
ATOM      3  C4  UNL d   1      -3.251   2.147   0.595  0.00  0.00     0.002 A 
ATOM      4  C5  UNL d   1      -4.216   1.191   0.903  0.00  0.00    -0.004 A 
ATOM      5  C6  UNL d   1      -3.960  -0.158   0.663  0.00  0.00     0.002 A 
ATOM      6  C7  UNL d   1      -2.737  -0.552   0.119  0.00  0.00     0.002 A 
ENDROOT
BRANCH   1   7
ATOM      7  C1  UNL d   1      -0.418  -0.028  -0.729  0.00  0.00     0.055 C 
ATOM      8  C   UNL d   1      -0.424  -1.499  -1.120  0.00  0.00     0.019 C 
ENDBRANCH   1   7
TORSDOF 1
ENDMDL
