MODEL 1
REMARK minimizedAffinity -2.65476894
REMARK minimizedRMSD -1
REMARK  1 active torsions:
REMARK  status: ('A' for Active; 'I' for Inactive)
REMARK    1  A    between atoms: C1_2  and  C2_3 
ROOT
ATOM      1  C2  UNL d   1       0.046  -0.363  -0.260  0.00  0.00    -0.077 A 
ATOM      2  C3  UNL d   1      -0.634  -1.563  -0.005  0.00  0.00     0.002 A 
ATOM      3  C4  UNL d   1       0.048  -2.781  -0.034  0.00  0.00     0.002 A 
ATOM      4  C5  UNL d   1       1.413  -2.810  -0.313  0.00  0.00    -0.004 A 
ATOM      5  C6  UNL d   1       2.097  -1.623  -0.569  0.00  0.00     0.002 A 
ATOM      6  C7  UNL d   1       1.417  -0.405  -0.541  0.00  0.00     0.002 A 
ENDROOT
BRANCH   1   7
ATOM      7  C1  UNL d   1      -0.678   0.956  -0.180  0.00  0.00     0.055 C 
ATOM      8  C   UNL d   1      -2.153   0.760   0.140  0.00  0.00     0.019 C 
ENDBRANCH   1   7
TORSDOF 1
ENDMDL
