MODEL 1
REMARK minimizedAffinity -4.90244722
REMARK minimizedRMSD -1
REMARK  1 active torsions:
REMARK  status: ('A' for Active; 'I' for Inactive)
REMARK    1  A    between atoms: C1_2  and  C2_3 
ROOT
ATOM      1  C2  UNL d   1       1.058   0.208   0.484  0.00  0.00    -0.077 A 
ATOM      2  C3  UNL d   1       2.348  -0.334   0.574  0.00  0.00     0.002 A 
ATOM      3  C4  UNL d   1       2.661  -1.524  -0.086  0.00  0.00     0.002 A 
ATOM      4  C5  UNL d   1       1.693  -2.179  -0.844  0.00  0.00    -0.004 A 
ATOM      5  C6  UNL d   1       0.406  -1.649  -0.938  0.00  0.00     0.002 A 
ATOM      6  C7  UNL d   1       0.091  -0.460  -0.278  0.00  0.00     0.002 A 
ENDROOT
BRANCH   1   7
ATOM      7  C1  UNL d   1       0.732   1.517   1.155  0.00  0.00     0.055 C 
ATOM      8  C   UNL d   1       1.309   2.694   0.383  0.00  0.00     0.019 C 
ENDBRANCH   1   7
TORSDOF 1
ENDMDL
