MODEL 1
REMARK minimizedAffinity 4.7740283
REMARK minimizedRMSD -1
REMARK  3 active torsions:
REMARK  status: ('A' for Active; 'I' for Inactive)
REMARK    1  A    between atoms: C3'_2  and  C2'_3 
REMARK    2  A    between atoms: C2'_3  and  C1'_4 
REMARK    3  A    between atoms: C1'_4  and  C1_5 
ROOT
ATOM      1  C1  N4B d   1      -5.210   2.760  -4.666  0.00  0.00    -0.075 A 
ATOM      2  C2  N4B d   1      -5.834   3.834  -5.339  0.00  0.00     0.002 A 
ATOM      3  C3  N4B d   1      -5.071   4.766  -5.999  0.00  0.00     0.002 A 
ATOM      4  C4  N4B d   1      -3.688   4.655  -5.984  0.00  0.00    -0.004 A 
ATOM      5  C5  N4B d   1      -3.095   3.601  -5.353  0.00  0.00     0.002 A 
ATOM      6  C6  N4B d   1      -3.850   2.655  -4.689  0.00  0.00     0.002 A 
ENDROOT
BRANCH   1   7
ATOM      7  C1' N4B d   1      -5.998   1.764  -3.859  0.00  0.00     0.057 C 
BRANCH   7   8
ATOM      8  C2' N4B d   1      -5.623   1.905  -2.387  0.00  0.00     0.009 C 
BRANCH   8   9
ATOM      9  C3' N4B d   1      -5.029   3.268  -2.079  0.00  0.00     0.004 C 
ATOM     10  C4' N4B d   1      -5.998   4.182  -1.391  0.00  0.00     0.003 C 
ENDBRANCH   8   9
ENDBRANCH   7   8
ENDBRANCH   1   7
TORSDOF 3
ENDMDL
