MODEL 1
REMARK minimizedAffinity -3.28178358
REMARK minimizedRMSD -1
REMARK  0 active torsions:
REMARK  status: ('A' for Active; 'I' for Inactive)
ROOT
ATOM      1  N1  IND d   1       0.759   0.686  -1.009  0.00  0.00    -0.196 N 
ATOM      2  C2  IND d   1       0.499   1.854  -0.347  0.00  0.00     0.054 A 
ATOM      3  C3  IND d   1      -0.258   1.616   0.747  0.00  0.00    -0.031 A 
ATOM      4  C4  IND d   1      -1.101  -0.624   1.697  0.00  0.00     0.051 A 
ATOM      5  C5  IND d   1      -1.149  -1.961   1.421  0.00  0.00    -0.031 A 
ATOM      6  C6  IND d   1      -0.549  -2.496   0.299  0.00  0.00     0.015 A 
ATOM      7  C7  IND d   1       0.134  -1.711  -0.586  0.00  0.00    -0.016 A 
ATOM      8  C8  IND d   1       0.179  -0.351  -0.312  0.00  0.00    -0.047 A 
ATOM      9  C9  IND d   1      -0.465   0.203   0.802  0.00  0.00    -0.096 A 
ATOM     10  HN1 IND d   1       1.208   0.612  -1.738  0.00  0.00     0.298 HD
ENDROOT
TORSDOF 0
ENDMDL
