MODEL 1
REMARK minimizedAffinity -5.08389902
REMARK minimizedRMSD -1
REMARK  0 active torsions:
REMARK  status: ('A' for Active; 'I' for Inactive)
ROOT
ATOM      1  N1  IND d   1      -1.110   0.549   0.843  0.00  0.00    -0.196 N 
ATOM      2  C2  IND d   1      -0.589   1.407  -0.085  0.00  0.00     0.054 A 
ATOM      3  C3  IND d   1       0.331   0.774  -0.847  0.00  0.00    -0.031 A 
ATOM      4  C4  IND d   1       1.063  -1.694  -0.814  0.00  0.00     0.051 A 
ATOM      5  C5  IND d   1       0.895  -2.858  -0.118  0.00  0.00    -0.031 A 
ATOM      6  C6  IND d   1       0.030  -2.949   0.953  0.00  0.00     0.015 A 
ATOM      7  C7  IND d   1      -0.710  -1.876   1.364  0.00  0.00    -0.016 A 
ATOM      8  C8  IND d   1      -0.537  -0.690   0.664  0.00  0.00    -0.047 A 
ATOM      9  C9  IND d   1       0.371  -0.581  -0.397  0.00  0.00    -0.096 A 
ATOM     10  HN1 IND d   1      -1.697   0.750   1.438  0.00  0.00     0.298 HD
ENDROOT
TORSDOF 0
ENDMDL
