MODEL 1
REMARK minimizedAffinity -5.12456131
REMARK minimizedRMSD -1
REMARK  0 active torsions:
REMARK  status: ('A' for Active; 'I' for Inactive)
ROOT
ATOM      1  N1  IND d   1       1.350  -0.075  -0.845  0.00  0.00    -0.196 N 
ATOM      2  C2  IND d   1       1.078   1.188  -0.397  0.00  0.00     0.054 A 
ATOM      3  C3  IND d   1       0.109   1.154   0.545  0.00  0.00    -0.031 A 
ATOM      4  C4  IND d   1      -1.098  -0.872   1.578  0.00  0.00     0.051 A 
ATOM      5  C5  IND d   1      -1.214  -2.229   1.466  0.00  0.00    -0.031 A 
ATOM      6  C6  IND d   1      -0.464  -2.952   0.561  0.00  0.00     0.015 A 
ATOM      7  C7  IND d   1       0.442  -2.344  -0.261  0.00  0.00    -0.016 A 
ATOM      8  C8  IND d   1       0.558  -0.965  -0.154  0.00  0.00    -0.047 A 
ATOM      9  C9  IND d   1      -0.231  -0.221   0.732  0.00  0.00    -0.096 A 
ATOM     10  HN1 IND d   1       1.921  -0.278  -1.455  0.00  0.00     0.298 HD
ENDROOT
TORSDOF 0
ENDMDL
