MODEL 1
REMARK minimizedAffinity -3.83579946
REMARK minimizedRMSD -1
REMARK  0 active torsions:
REMARK  status: ('A' for Active; 'I' for Inactive)
ROOT
ATOM      1  N1  IND d   1       1.048   0.321  -1.272  0.00  0.00    -0.196 N 
ATOM      2  C2  IND d   1       0.575   1.544  -0.887  0.00  0.00     0.054 A 
ATOM      3  C3  IND d   1      -0.354   1.405   0.086  0.00  0.00    -0.031 A 
ATOM      4  C4  IND d   1      -1.177  -0.729   1.267  0.00  0.00     0.051 A 
ATOM      5  C5  IND d   1      -1.064  -2.091   1.234  0.00  0.00    -0.031 A 
ATOM      6  C6  IND d   1      -0.222  -2.731   0.348  0.00  0.00     0.015 A 
ATOM      7  C7  IND d   1       0.550  -2.029  -0.535  0.00  0.00    -0.016 A 
ATOM      8  C8  IND d   1       0.432  -0.647  -0.508  0.00  0.00    -0.047 A 
ATOM      9  C9  IND d   1      -0.452   0.006   0.360  0.00  0.00    -0.096 A 
ATOM     10  HN1 IND d   1       1.631   0.180  -1.887  0.00  0.00     0.298 HD
ENDROOT
TORSDOF 0
ENDMDL
