MODEL 1
REMARK minimizedAffinity -3.55937123
REMARK minimizedRMSD -1
REMARK  0 active torsions:
REMARK  status: ('A' for Active; 'I' for Inactive)
ROOT
ATOM      1  N1  IND d   1      -0.435   2.150   0.585  0.00  0.00    -0.196 N 
ATOM      2  C2  IND d   1       0.332   2.698  -0.405  0.00  0.00     0.054 A 
ATOM      3  C3  IND d   1       0.889   1.726  -1.162  0.00  0.00    -0.031 A 
ATOM      4  C4  IND d   1       0.594  -0.827  -1.020  0.00  0.00     0.051 A 
ATOM      5  C5  IND d   1       0.018  -1.804  -0.257  0.00  0.00    -0.031 A 
ATOM      6  C6  IND d   1      -0.756  -1.507   0.845  0.00  0.00     0.015 A 
ATOM      7  C7  IND d   1      -0.994  -0.216   1.222  0.00  0.00    -0.016 A 
ATOM      8  C8  IND d   1      -0.405   0.779   0.454  0.00  0.00    -0.047 A 
ATOM      9  C9  IND d   1       0.417   0.482  -0.641  0.00  0.00    -0.096 A 
ATOM     10  HN1 IND d   1      -0.865   2.588   1.188  0.00  0.00     0.298 HD
ENDROOT
TORSDOF 0
ENDMDL
