MODEL 1
REMARK minimizedAffinity -5.09931993
REMARK minimizedRMSD -1
REMARK  0 active torsions:
REMARK  status: ('A' for Active; 'I' for Inactive)
ROOT
ATOM      1  N1  IND d   1       0.281  -1.823   0.842  0.00  0.00    -0.196 N 
ATOM      2  C2  IND d   1       0.797  -2.686  -0.084  0.00  0.00     0.054 A 
ATOM      3  C3  IND d   1       1.008  -2.045  -1.257  0.00  0.00    -0.031 A 
ATOM      4  C4  IND d   1       0.672   0.438  -1.847  0.00  0.00     0.051 A 
ATOM      5  C5  IND d   1       0.187   1.610  -1.339  0.00  0.00    -0.031 A 
ATOM      6  C6  IND d   1      -0.299   1.700  -0.051  0.00  0.00     0.015 A 
ATOM      7  C7  IND d   1      -0.308   0.619   0.785  0.00  0.00    -0.016 A 
ATOM      8  C8  IND d   1       0.178  -0.575   0.270  0.00  0.00    -0.047 A 
ATOM      9  C9  IND d   1       0.633  -0.682  -1.051  0.00  0.00    -0.096 A 
ATOM     10  HN1 IND d   1       0.059  -2.027   1.648  0.00  0.00     0.298 HD
ENDROOT
TORSDOF 0
ENDMDL
