MODEL 1
REMARK minimizedAffinity -3.53875613
REMARK minimizedRMSD -1
REMARK  0 active torsions:
REMARK  status: ('A' for Active; 'I' for Inactive)
ROOT
ATOM      1  N1  IND d   1      -0.309  -1.467   1.112  0.00  0.00    -0.196 N 
ATOM      2  C2  IND d   1      -0.054  -2.797   0.923  0.00  0.00     0.054 A 
ATOM      3  C3  IND d   1       0.299  -3.030  -0.361  0.00  0.00    -0.031 A 
ATOM      4  C4  IND d   1       0.625  -1.363  -2.296  0.00  0.00     0.051 A 
ATOM      5  C5  IND d   1       0.476  -0.043  -2.618  0.00  0.00    -0.031 A 
ATOM      6  C6  IND d   1       0.051   0.889  -1.693  0.00  0.00     0.015 A 
ATOM      7  C7  IND d   1      -0.230   0.536  -0.403  0.00  0.00    -0.016 A 
ATOM      8  C8  IND d   1      -0.086  -0.805  -0.075  0.00  0.00    -0.047 A 
ATOM      9  C9  IND d   1       0.303  -1.762  -1.020  0.00  0.00    -0.096 A 
ATOM     10  HN1 IND d   1      -0.564  -1.105   1.849  0.00  0.00     0.298 HD
ENDROOT
TORSDOF 0
ENDMDL
