MODEL 1
REMARK minimizedAffinity -4.94763851
REMARK minimizedRMSD -1
REMARK  0 active torsions:
REMARK  status: ('A' for Active; 'I' for Inactive)
ROOT
ATOM      1  N1  IND d   1       0.818   0.658  -0.907  0.00  0.00    -0.196 N 
ATOM      2  C2  IND d   1       0.614   1.693  -0.037  0.00  0.00     0.054 A 
ATOM      3  C3  IND d   1       0.070   1.239   1.114  0.00  0.00    -0.031 A 
ATOM      4  C4  IND d   1      -0.474  -1.174   1.827  0.00  0.00     0.051 A 
ATOM      5  C5  IND d   1      -0.496  -2.457   1.357  0.00  0.00    -0.031 A 
ATOM      6  C6  IND d   1      -0.070  -2.774   0.083  0.00  0.00     0.015 A 
ATOM      7  C7  IND d   1       0.407  -1.817  -0.767  0.00  0.00    -0.016 A 
ATOM      8  C8  IND d   1       0.424  -0.512  -0.296  0.00  0.00    -0.047 A 
ATOM      9  C9  IND d   1      -0.047  -0.178   0.981  0.00  0.00    -0.096 A 
ATOM     10  HN1 IND d   1       1.139   0.726  -1.702  0.00  0.00     0.298 HD
ENDROOT
TORSDOF 0
ENDMDL
