MODEL 1
REMARK minimizedAffinity -1.33442688
REMARK minimizedRMSD -1
REMARK  0 active torsions:
REMARK  status: ('A' for Active; 'I' for Inactive)
ROOT
ATOM      1  N1  IND d   1       0.413   0.162  -1.681  0.00  0.00    -0.196 N 
ATOM      2  C2  IND d   1       0.234   1.489  -1.405  0.00  0.00     0.054 A 
ATOM      3  C3  IND d   1      -0.392   1.642  -0.216  0.00  0.00    -0.031 A 
ATOM      4  C4  IND d   1      -1.121  -0.142   1.490  0.00  0.00     0.051 A 
ATOM      5  C5  IND d   1      -1.201  -1.495   1.666  0.00  0.00    -0.031 A 
ATOM      6  C6  IND d   1      -0.736  -2.383   0.717  0.00  0.00     0.015 A 
ATOM      7  C7  IND d   1      -0.160  -1.948  -0.443  0.00  0.00    -0.016 A 
ATOM      8  C8  IND d   1      -0.083  -0.575  -0.628  0.00  0.00    -0.047 A 
ATOM      9  C9  IND d   1      -0.592   0.330   0.312  0.00  0.00    -0.096 A 
ATOM     10  HN1 IND d   1       0.775  -0.158  -2.392  0.00  0.00     0.298 HD
ENDROOT
TORSDOF 0
ENDMDL
