MODEL 1
REMARK minimizedAffinity -5.07882738
REMARK minimizedRMSD -1
REMARK  0 active torsions:
REMARK  status: ('A' for Active; 'I' for Inactive)
ROOT
ATOM      1  N1  IND d   1       0.251   0.489  -1.168  0.00  0.00    -0.196 N 
ATOM      2  C2  IND d   1      -0.009   1.028   0.061  0.00  0.00     0.054 A 
ATOM      3  C3  IND d   1      -0.342   0.056   0.940  0.00  0.00    -0.031 A 
ATOM      4  C4  IND d   1      -0.425  -2.495   0.603  0.00  0.00     0.051 A 
ATOM      5  C5  IND d   1      -0.304  -3.459  -0.359  0.00  0.00    -0.031 A 
ATOM      6  C6  IND d   1       0.018  -3.150  -1.664  0.00  0.00     0.015 A 
ATOM      7  C7  IND d   1       0.243  -1.861  -2.057  0.00  0.00    -0.016 A 
ATOM      8  C8  IND d   1       0.113  -0.879  -1.085  0.00  0.00    -0.047 A 
ATOM      9  C9  IND d   1      -0.255  -1.182   0.232  0.00  0.00    -0.096 A 
ATOM     10  HN1 IND d   1       0.465   0.931  -1.874  0.00  0.00     0.298 HD
ENDROOT
TORSDOF 0
ENDMDL
