MODEL 1
REMARK minimizedAffinity -4.99795246
REMARK minimizedRMSD -1
REMARK  0 active torsions:
REMARK  status: ('A' for Active; 'I' for Inactive)
ROOT
ATOM      1  N1  IND d   1       0.340   0.423  -1.018  0.00  0.00    -0.196 N 
ATOM      2  C2  IND d   1      -0.214   0.975   0.104  0.00  0.00     0.054 A 
ATOM      3  C3  IND d   1      -0.716   0.008   0.905  0.00  0.00    -0.031 A 
ATOM      4  C4  IND d   1      -0.647  -2.550   0.621  0.00  0.00     0.051 A 
ATOM      5  C5  IND d   1      -0.279  -3.526  -0.261  0.00  0.00    -0.031 A 
ATOM      6  C6  IND d   1       0.330  -3.231  -1.463  0.00  0.00     0.015 A 
ATOM      7  C7  IND d   1       0.604  -1.942  -1.825  0.00  0.00    -0.016 A 
ATOM      8  C8  IND d   1       0.225  -0.947  -0.935  0.00  0.00    -0.047 A 
ATOM      9  C9  IND d   1      -0.432  -1.239   0.268  0.00  0.00    -0.096 A 
ATOM     10  HN1 IND d   1       0.701   0.858  -1.666  0.00  0.00     0.298 HD
ENDROOT
TORSDOF 0
ENDMDL
