MODEL 1
REMARK minimizedAffinity -2.64996219
REMARK minimizedRMSD -1
REMARK  0 active torsions:
REMARK  status: ('A' for Active; 'I' for Inactive)
ROOT
ATOM      1  N1  IND d   1      -0.558  -0.859   0.094  0.00  0.00    -0.196 N 
ATOM      2  C2  IND d   1      -0.463  -1.229   1.407  0.00  0.00     0.054 A 
ATOM      3  C3  IND d   1       0.312  -0.354   2.087  0.00  0.00    -0.031 A 
ATOM      4  C4  IND d   1       1.441   1.810   1.268  0.00  0.00     0.051 A 
ATOM      5  C5  IND d   1       1.670   2.544   0.138  0.00  0.00    -0.031 A 
ATOM      6  C6  IND d   1       1.155   2.176  -1.088  0.00  0.00     0.015 A 
ATOM      7  C7  IND d   1       0.379   1.060  -1.229  0.00  0.00    -0.016 A 
ATOM      8  C8  IND d   1       0.151   0.308  -0.085  0.00  0.00    -0.047 A 
ATOM      9  C9  IND d   1       0.706   0.654   1.154  0.00  0.00    -0.096 A 
ATOM     10  HN1 IND d   1      -0.988  -1.285  -0.517  0.00  0.00     0.298 HD
ENDROOT
TORSDOF 0
ENDMDL
