MODEL 1
REMARK minimizedAffinity -5.31534004
REMARK minimizedRMSD -1
REMARK  0 active torsions:
REMARK  status: ('A' for Active; 'I' for Inactive)
ROOT
ATOM      1  N1  IND d   1       0.221  -0.090  -2.191  0.00  0.00    -0.196 N 
ATOM      2  C2  IND d   1      -0.066   0.786  -1.181  0.00  0.00     0.054 A 
ATOM      3  C3  IND d   1      -0.205   0.124  -0.010  0.00  0.00    -0.031 A 
ATOM      4  C4  IND d   1       0.093  -2.381   0.499  0.00  0.00     0.051 A 
ATOM      5  C5  IND d   1       0.321  -3.584  -0.109  0.00  0.00    -0.031 A 
ATOM      6  C6  IND d   1       0.533  -3.686  -1.469  0.00  0.00     0.015 A 
ATOM      7  C7  IND d   1       0.538  -2.582  -2.273  0.00  0.00    -0.016 A 
ATOM      8  C8  IND d   1       0.300  -1.359  -1.661  0.00  0.00    -0.047 A 
ATOM      9  C9  IND d   1       0.042  -1.255  -0.288  0.00  0.00    -0.096 A 
ATOM     10  HN1 IND d   1       0.332   0.117  -3.018  0.00  0.00     0.298 HD
ENDROOT
TORSDOF 0
ENDMDL
