MODEL 1
REMARK minimizedAffinity -2.09875298
REMARK minimizedRMSD -1
REMARK  0 active torsions:
REMARK  status: ('A' for Active; 'I' for Inactive)
ROOT
ATOM      1  N1  IND d   1       1.381   0.355  -0.030  0.00  0.00    -0.196 N 
ATOM      2  C2  IND d   1       0.465   1.369  -0.053  0.00  0.00     0.054 A 
ATOM      3  C3  IND d   1      -0.771   0.893   0.219  0.00  0.00    -0.031 A 
ATOM      4  C4  IND d   1      -1.504  -1.497   0.833  0.00  0.00     0.051 A 
ATOM      5  C5  IND d   1      -1.029  -2.774   0.946  0.00  0.00    -0.031 A 
ATOM      6  C6  IND d   1       0.301  -3.078   0.738  0.00  0.00     0.015 A 
ATOM      7  C7  IND d   1       1.212  -2.111   0.419  0.00  0.00    -0.016 A 
ATOM      8  C8  IND d   1       0.732  -0.815   0.296  0.00  0.00    -0.047 A 
ATOM      9  C9  IND d   1      -0.624  -0.507   0.464  0.00  0.00    -0.096 A 
ATOM     10  HN1 IND d   1       2.222   0.435  -0.191  0.00  0.00     0.298 HD
ENDROOT
TORSDOF 0
ENDMDL
