MODEL 1
REMARK minimizedAffinity -0.0646642298
REMARK minimizedRMSD -1
REMARK  0 active torsions:
REMARK  status: ('A' for Active; 'I' for Inactive)
ROOT
ATOM      1  N1  IND d   1       0.057  -0.090  -1.571  0.00  0.00    -0.196 N 
ATOM      2  C2  IND d   1       0.035   1.192  -1.098  0.00  0.00     0.054 A 
ATOM      3  C3  IND d   1      -0.434   1.218   0.169  0.00  0.00    -0.031 A 
ATOM      4  C4  IND d   1      -1.128  -0.735   1.696  0.00  0.00     0.051 A 
ATOM      5  C5  IND d   1      -1.315  -2.089   1.696  0.00  0.00    -0.031 A 
ATOM      6  C6  IND d   1      -1.045  -2.862   0.585  0.00  0.00     0.015 A 
ATOM      7  C7  IND d   1      -0.566  -2.308  -0.569  0.00  0.00    -0.016 A 
ATOM      8  C8  IND d   1      -0.383  -0.933  -0.574  0.00  0.00    -0.047 A 
ATOM      9  C9  IND d   1      -0.695  -0.138   0.536  0.00  0.00    -0.096 A 
ATOM     10  HN1 IND d   1       0.305  -0.330  -2.359  0.00  0.00     0.298 HD
ENDROOT
TORSDOF 0
ENDMDL
