MODEL 1
REMARK minimizedAffinity -5.23164177
REMARK minimizedRMSD -1
REMARK  0 active torsions:
REMARK  status: ('A' for Active; 'I' for Inactive)
ROOT
ATOM      1  N1  IND d   1       0.358  -0.064  -2.211  0.00  0.00    -0.196 N 
ATOM      2  C2  IND d   1       0.048   1.143  -1.650  0.00  0.00     0.054 A 
ATOM      3  C3  IND d   1      -0.202   0.997  -0.329  0.00  0.00    -0.031 A 
ATOM      4  C4  IND d   1      -0.060  -1.112   1.140  0.00  0.00     0.051 A 
ATOM      5  C5  IND d   1       0.149  -2.461   1.070  0.00  0.00    -0.031 A 
ATOM      6  C6  IND d   1       0.447  -3.092  -0.120  0.00  0.00     0.015 A 
ATOM      7  C7  IND d   1       0.559  -2.393  -1.289  0.00  0.00    -0.016 A 
ATOM      8  C8  IND d   1       0.340  -1.024  -1.223  0.00  0.00    -0.047 A 
ATOM      9  C9  IND d   1      -0.004  -0.384  -0.026  0.00  0.00    -0.096 A 
ATOM     10  HN1 IND d   1       0.535  -0.201  -3.041  0.00  0.00     0.298 HD
ENDROOT
TORSDOF 0
ENDMDL
