MODEL 1
REMARK minimizedAffinity -2.29518294
REMARK minimizedRMSD -1
REMARK  0 active torsions:
REMARK  status: ('A' for Active; 'I' for Inactive)
ROOT
ATOM      1  N1  IND d   1       0.170   0.935  -1.124  0.00  0.00    -0.196 N 
ATOM      2  C2  IND d   1      -0.481   1.394  -0.013  0.00  0.00     0.054 A 
ATOM      3  C3  IND d   1      -0.853   0.361   0.775  0.00  0.00    -0.031 A 
ATOM      4  C4  IND d   1      -0.408  -2.158   0.487  0.00  0.00     0.051 A 
ATOM      5  C5  IND d   1       0.116  -3.066  -0.389  0.00  0.00    -0.031 A 
ATOM      6  C6  IND d   1       0.700  -2.679  -1.578  0.00  0.00     0.015 A 
ATOM      7  C7  IND d   1       0.791  -1.362  -1.931  0.00  0.00    -0.016 A 
ATOM      8  C8  IND d   1       0.253  -0.438  -1.047  0.00  0.00    -0.047 A 
ATOM      9  C9  IND d   1      -0.378  -0.828   0.141  0.00  0.00    -0.096 A 
ATOM     10  HN1 IND d   1       0.476   1.421  -1.763  0.00  0.00     0.298 HD
ENDROOT
TORSDOF 0
ENDMDL
