MODEL 1
REMARK minimizedAffinity -4.88575077
REMARK minimizedRMSD -1
REMARK  0 active torsions:
REMARK  status: ('A' for Active; 'I' for Inactive)
ROOT
ATOM      1  N1  IND d   1       1.406   0.013  -0.412  0.00  0.00    -0.196 N 
ATOM      2  C2  IND d   1       0.903   1.237  -0.068  0.00  0.00     0.054 A 
ATOM      3  C3  IND d   1      -0.288   1.097   0.555  0.00  0.00    -0.031 A 
ATOM      4  C4  IND d   1      -1.552  -1.050   1.206  0.00  0.00     0.051 A 
ATOM      5  C5  IND d   1      -1.507  -2.409   1.071  0.00  0.00    -0.031 A 
ATOM      6  C6  IND d   1      -0.466  -3.043   0.424  0.00  0.00     0.015 A 
ATOM      7  C7  IND d   1       0.579  -2.339  -0.105  0.00  0.00    -0.016 A 
ATOM      8  C8  IND d   1       0.533  -0.958   0.024  0.00  0.00    -0.047 A 
ATOM      9  C9  IND d   1      -0.542  -0.306   0.643  0.00  0.00    -0.096 A 
ATOM     10  HN1 IND d   1       2.144  -0.126  -0.831  0.00  0.00     0.298 HD
ENDROOT
TORSDOF 0
ENDMDL
