MODEL 1
REMARK minimizedAffinity 0.467362761
REMARK minimizedRMSD -1
REMARK  2 active torsions:
REMARK  status: ('A' for Active; 'I' for Inactive)
REMARK    1  A    between atoms: C2'_3  and  C1'_4 
REMARK    2  A    between atoms: C1'_4  and  C1_5 
ROOT
ATOM      1  C1  I4B d   1      -0.372  -0.086   0.204  0.00  0.00    -0.075 A 
ATOM      2  C2  I4B d   1       0.475   0.954  -0.087  0.00  0.00     0.003 A 
ATOM      3  C3  I4B d   1       1.316   0.891  -1.225  0.00  0.00     0.002 A 
ATOM      4  C4  I4B d   1       1.314  -0.244  -2.010  0.00  0.00    -0.004 A 
ATOM      5  C5  I4B d   1       0.438  -1.288  -1.726  0.00  0.00     0.002 A 
ATOM      6  C6  I4B d   1      -0.419  -1.204  -0.620  0.00  0.00     0.003 A 
ENDROOT
BRANCH   1   7
ATOM      7  C1' I4B d   1      -1.223  -0.001   1.431  0.00  0.00     0.060 C 
BRANCH   7   8
ATOM      8  C2' I4B d   1      -2.606   0.451   1.010  0.00  0.00    -0.013 C 
ATOM      9  C4' I4B d   1      -3.634  -0.618   1.274  0.00  0.00     0.013 C 
ATOM     10  C3' I4B d   1      -2.930   1.710   1.758  0.00  0.00     0.013 C 
ENDBRANCH   7   8
ENDBRANCH   1   7
TORSDOF 2
ENDMDL
