MODEL 1
REMARK minimizedAffinity -1.55928755
REMARK minimizedRMSD -1
REMARK  2 active torsions:
REMARK  status: ('A' for Active; 'I' for Inactive)
REMARK    1  A    between atoms: C2'_3  and  C1'_4 
REMARK    2  A    between atoms: C1'_4  and  C1_5 
ROOT
ATOM      1  C1  I4B d   1      -1.336   0.044   1.656  0.00  0.00    -0.075 A 
ATOM      2  C2  I4B d   1      -0.826   0.796   2.684  0.00  0.00     0.003 A 
ATOM      3  C3  I4B d   1      -1.693   1.528   3.531  0.00  0.00     0.002 A 
ATOM      4  C4  I4B d   1      -3.051   1.520   3.284  0.00  0.00    -0.004 A 
ATOM      5  C5  I4B d   1      -3.568   0.738   2.255  0.00  0.00     0.002 A 
ATOM      6  C6  I4B d   1      -2.707  -0.014   1.443  0.00  0.00     0.003 A 
ENDROOT
BRANCH   1   7
ATOM      7  C1' I4B d   1      -0.389  -0.690   0.760  0.00  0.00     0.060 C 
BRANCH   7   8
ATOM      8  C2' I4B d   1      -0.212   0.128  -0.503  0.00  0.00    -0.013 C 
ATOM      9  C4' I4B d   1       0.928   1.103  -0.367  0.00  0.00     0.013 C 
ATOM     10  C3' I4B d   1       0.021  -0.822  -1.640  0.00  0.00     0.013 C 
ENDBRANCH   7   8
ENDBRANCH   1   7
TORSDOF 2
ENDMDL
