MODEL 1
REMARK minimizedAffinity -0.866970062
REMARK minimizedRMSD -1
REMARK  2 active torsions:
REMARK  status: ('A' for Active; 'I' for Inactive)
REMARK    1  A    between atoms: C2'_3  and  C1'_4 
REMARK    2  A    between atoms: C1'_4  and  C1_5 
ROOT
ATOM      1  C1  I4B d   1      -1.939   0.149   1.234  0.00  0.00    -0.075 A 
ATOM      2  C2  I4B d   1      -3.026  -0.421   0.620  0.00  0.00     0.003 A 
ATOM      3  C3  I4B d   1      -4.337  -0.070   1.023  0.00  0.00     0.002 A 
ATOM      4  C4  I4B d   1      -4.514   0.810   2.070  0.00  0.00    -0.004 A 
ATOM      5  C5  I4B d   1      -3.411   1.405   2.676  0.00  0.00     0.002 A 
ATOM      6  C6  I4B d   1      -2.115   1.082   2.248  0.00  0.00     0.003 A 
ENDROOT
BRANCH   1   7
ATOM      7  C1' I4B d   1      -0.568  -0.269   0.806  0.00  0.00     0.060 C 
BRANCH   7   8
ATOM      8  C2' I4B d   1      -0.689  -1.593   0.080  0.00  0.00    -0.013 C 
ATOM      9  C4' I4B d   1       0.390  -1.745  -0.960  0.00  0.00     0.013 C 
ATOM     10  C3' I4B d   1      -0.615  -2.689   1.101  0.00  0.00     0.013 C 
ENDBRANCH   7   8
ENDBRANCH   1   7
TORSDOF 2
ENDMDL
