MODEL 1
REMARK minimizedAffinity 1.73821223
REMARK minimizedRMSD -1
REMARK  2 active torsions:
REMARK  status: ('A' for Active; 'I' for Inactive)
REMARK    1  A    between atoms: C2'_3  and  C1'_4 
REMARK    2  A    between atoms: C1'_4  and  C1_5 
ROOT
ATOM      1  C1  I4B d   1      -0.016   0.561   1.507  0.00  0.00    -0.075 A 
ATOM      2  C2  I4B d   1       0.015   0.467   2.876  0.00  0.00     0.003 A 
ATOM      3  C3  I4B d   1       0.961   1.213   3.620  0.00  0.00     0.002 A 
ATOM      4  C4  I4B d   1       1.883   1.997   2.956  0.00  0.00    -0.004 A 
ATOM      5  C5  I4B d   1       1.835   2.108   1.569  0.00  0.00     0.002 A 
ATOM      6  C6  I4B d   1       0.871   1.396   0.841  0.00  0.00     0.003 A 
ENDROOT
BRANCH   1   7
ATOM      7  C1' I4B d   1      -1.007  -0.266   0.750  0.00  0.00     0.060 C 
BRANCH   7   8
ATOM      8  C2' I4B d   1      -0.266  -1.438   0.140  0.00  0.00    -0.013 C 
ATOM      9  C4' I4B d   1      -0.719  -2.743   0.741  0.00  0.00     0.013 C 
ATOM     10  C3' I4B d   1      -0.502  -1.414  -1.341  0.00  0.00     0.013 C 
ENDBRANCH   7   8
ENDBRANCH   1   7
TORSDOF 2
ENDMDL
