MODEL 1
REMARK minimizedAffinity -1.89866781
REMARK minimizedRMSD -1
REMARK  2 active torsions:
REMARK  status: ('A' for Active; 'I' for Inactive)
REMARK    1  A    between atoms: C2'_3  and  C1'_4 
REMARK    2  A    between atoms: C1'_4  and  C1_5 
ROOT
ATOM      1  C1  I4B d   1       0.206   0.497   1.181  0.00  0.00    -0.075 A 
ATOM      2  C2  I4B d   1       0.232   0.273   2.535  0.00  0.00     0.003 A 
ATOM      3  C3  I4B d   1       1.064   1.056   3.371  0.00  0.00     0.002 A 
ATOM      4  C4  I4B d   1       1.886   2.012   2.809  0.00  0.00    -0.004 A 
ATOM      5  C5  I4B d   1       1.842   2.252   1.439  0.00  0.00     0.002 A 
ATOM      6  C6  I4B d   1       0.987   1.499   0.620  0.00  0.00     0.003 A 
ENDROOT
BRANCH   1   7
ATOM      7  C1' I4B d   1      -0.660  -0.371   0.324  0.00  0.00     0.060 C 
BRANCH   7   8
ATOM      8  C2' I4B d   1       0.242  -1.316  -0.445  0.00  0.00    -0.013 C 
ATOM      9  C4' I4B d   1       0.031  -2.743  -0.013  0.00  0.00     0.013 C 
ATOM     10  C3' I4B d   1      -0.047  -1.144  -1.907  0.00  0.00     0.013 C 
ENDBRANCH   7   8
ENDBRANCH   1   7
TORSDOF 2
ENDMDL
