MODEL 1
REMARK minimizedAffinity -2.63101053
REMARK minimizedRMSD -1
REMARK  2 active torsions:
REMARK  status: ('A' for Active; 'I' for Inactive)
REMARK    1  A    between atoms: C2'_3  and  C1'_4 
REMARK    2  A    between atoms: C1'_4  and  C1_5 
ROOT
ATOM      1  C1  I4B d   1       0.185   0.030   1.029  0.00  0.00    -0.075 A 
ATOM      2  C2  I4B d   1       0.735   0.631  -0.075  0.00  0.00     0.003 A 
ATOM      3  C3  I4B d   1       0.892  -0.097  -1.280  0.00  0.00     0.002 A 
ATOM      4  C4  I4B d   1       0.534  -1.429  -1.319  0.00  0.00    -0.004 A 
ATOM      5  C5  I4B d   1      -0.044  -2.031  -0.206  0.00  0.00     0.002 A 
ATOM      6  C6  I4B d   1      -0.232  -1.293   0.973  0.00  0.00     0.003 A 
ENDROOT
BRANCH   1   7
ATOM      7  C1' I4B d   1       0.065   0.819   2.294  0.00  0.00     0.060 C 
BRANCH   7   8
ATOM      8  C2' I4B d   1       1.432   0.871   2.944  0.00  0.00    -0.013 C 
ATOM      9  C4' I4B d   1       1.945   2.285   3.025  0.00  0.00     0.013 C 
ATOM     10  C3' I4B d   1       1.320   0.257   4.308  0.00  0.00     0.013 C 
ENDBRANCH   7   8
ENDBRANCH   1   7
TORSDOF 2
ENDMDL
