MODEL 1
REMARK minimizedAffinity -2.23418093
REMARK minimizedRMSD -1
REMARK  2 active torsions:
REMARK  status: ('A' for Active; 'I' for Inactive)
REMARK    1  A    between atoms: C2'_3  and  C1'_4 
REMARK    2  A    between atoms: C1'_4  and  C1_5 
ROOT
ATOM      1  C1  I4B d   1       1.294   1.325  -0.098  0.00  0.00    -0.075 A 
ATOM      2  C2  I4B d   1       2.196   0.981  -1.073  0.00  0.00     0.003 A 
ATOM      3  C3  I4B d   1       1.995  -0.184  -1.853  0.00  0.00     0.002 A 
ATOM      4  C4  I4B d   1       0.912  -0.998  -1.590  0.00  0.00    -0.004 A 
ATOM      5  C5  I4B d   1      -0.014  -0.636  -0.616  0.00  0.00     0.002 A 
ATOM      6  C6  I4B d   1       0.171   0.539   0.127  0.00  0.00     0.003 A 
ENDROOT
BRANCH   1   7
ATOM      7  C1' I4B d   1       1.555   2.544   0.729  0.00  0.00     0.060 C 
BRANCH   7   8
ATOM      8  C2' I4B d   1       2.295   2.111   1.978  0.00  0.00    -0.013 C 
ATOM      9  C4' I4B d   1       2.917   3.290   2.680  0.00  0.00     0.013 C 
ATOM     10  C3' I4B d   1       1.320   1.403   2.871  0.00  0.00     0.013 C 
ENDBRANCH   7   8
ENDBRANCH   1   7
TORSDOF 2
ENDMDL
