MODEL 1
REMARK minimizedAffinity -4.7626667
REMARK minimizedRMSD -1
REMARK  2 active torsions:
REMARK  status: ('A' for Active; 'I' for Inactive)
REMARK    1  A    between atoms: C2'_3  and  C1'_4 
REMARK    2  A    between atoms: C1'_4  and  C1_5 
ROOT
ATOM      1  C1  I4B d   1      -0.133   0.005   0.132  0.00  0.00    -0.075 A 
ATOM      2  C2  I4B d   1       0.590   1.166   0.017  0.00  0.00     0.003 A 
ATOM      3  C3  I4B d   1       1.484   1.344  -1.066  0.00  0.00     0.002 A 
ATOM      4  C4  I4B d   1       1.661   0.323  -1.976  0.00  0.00    -0.004 A 
ATOM      5  C5  I4B d   1       0.911  -0.845  -1.871  0.00  0.00     0.002 A 
ATOM      6  C6  I4B d   1      -0.001  -1.001  -0.817  0.00  0.00     0.003 A 
ENDROOT
BRANCH   1   7
ATOM      7  C1' I4B d   1      -1.044  -0.164   1.307  0.00  0.00     0.060 C 
BRANCH   7   8
ATOM      8  C2' I4B d   1      -2.459   0.120   0.845  0.00  0.00    -0.013 C 
ATOM      9  C4' I4B d   1      -3.267  -1.147   0.752  0.00  0.00     0.013 C 
ATOM     10  C3' I4B d   1      -3.076   1.087   1.811  0.00  0.00     0.013 C 
ENDBRANCH   7   8
ENDBRANCH   1   7
TORSDOF 2
ENDMDL
