MODEL 1
REMARK minimizedAffinity -5.20283365
REMARK minimizedRMSD -1
REMARK  2 active torsions:
REMARK  status: ('A' for Active; 'I' for Inactive)
REMARK    1  A    between atoms: C2'_3  and  C1'_4 
REMARK    2  A    between atoms: C1'_4  and  C1_5 
ROOT
ATOM      1  C1  I4B d   1      -1.497   0.849   2.365  0.00  0.00    -0.075 A 
ATOM      2  C2  I4B d   1      -2.288   0.031   1.597  0.00  0.00     0.003 A 
ATOM      3  C3  I4B d   1      -3.698   0.103   1.699  0.00  0.00     0.002 A 
ATOM      4  C4  I4B d   1      -4.271   0.965   2.612  0.00  0.00    -0.004 A 
ATOM      5  C5  I4B d   1      -3.468   1.810   3.373  0.00  0.00     0.002 A 
ATOM      6  C6  I4B d   1      -2.072   1.761   3.240  0.00  0.00     0.003 A 
ENDROOT
BRANCH   1   7
ATOM      7  C1' I4B d   1      -0.010   0.723   2.256  0.00  0.00     0.060 C 
BRANCH   7   8
ATOM      8  C2' I4B d   1       0.596   1.211   3.556  0.00  0.00    -0.013 C 
ATOM      9  C4' I4B d   1       0.625   0.116   4.589  0.00  0.00     0.013 C 
ATOM     10  C3' I4B d   1       1.978   1.715   3.261  0.00  0.00     0.013 C 
ENDBRANCH   7   8
ENDBRANCH   1   7
TORSDOF 2
ENDMDL
