MODEL 1
REMARK minimizedAffinity 4.68466425
REMARK minimizedRMSD -1
REMARK  0 active torsions:
REMARK  status: ('A' for Active; 'I' for Inactive)
ROOT
ATOM      1  C   UNL d   1      -0.732   5.310  -5.999  0.00  0.00     0.077 C 
ATOM      2  C1  UNL d   1      -1.007   4.050  -5.234  0.00  0.00    -0.074 A 
ATOM      3  C2  UNL d   1      -0.084   2.999  -5.225  0.00  0.00    -0.005 A 
ATOM      4  C3  UNL d   1      -0.349   1.836  -4.501  0.00  0.00     0.006 A 
ATOM      5  C4  UNL d   1      -1.538   1.713  -3.780  0.00  0.00    -0.005 A 
ATOM      6  C5  UNL d   1      -2.472   2.754  -3.777  0.00  0.00    -0.074 A 
ATOM      7  C6  UNL d   1      -3.749   2.642  -2.999  0.00  0.00     0.077 C 
ATOM      8  C7  UNL d   1      -2.195   3.922  -4.501  0.00  0.00    -0.001 A 
ENDROOT
TORSDOF 0
ENDMDL
