MODEL 1
REMARK minimizedAffinity 6.87704754
REMARK minimizedRMSD -1
REMARK  0 active torsions:
REMARK  status: ('A' for Active; 'I' for Inactive)
ROOT
ATOM      1  C   UNL d   1      -2.495   3.364   0.359  0.00  0.00     0.077 C 
ATOM      2  C1  UNL d   1      -2.762   3.029  -1.078  0.00  0.00    -0.074 A 
ATOM      3  C2  UNL d   1      -3.881   2.275  -1.445  0.00  0.00    -0.005 A 
ATOM      4  C3  UNL d   1      -4.122   1.980  -2.787  0.00  0.00     0.006 A 
ATOM      5  C4  UNL d   1      -3.247   2.436  -3.774  0.00  0.00    -0.005 A 
ATOM      6  C5  UNL d   1      -2.124   3.192  -3.427  0.00  0.00    -0.074 A 
ATOM      7  C6  UNL d   1      -1.179   3.698  -4.476  0.00  0.00     0.077 C 
ATOM      8  C7  UNL d   1      -1.893   3.490  -2.077  0.00  0.00    -0.001 A 
ENDROOT
TORSDOF 0
ENDMDL
