MODEL 1
REMARK minimizedAffinity 1.32244396
REMARK minimizedRMSD -1
REMARK  0 active torsions:
REMARK  status: ('A' for Active; 'I' for Inactive)
ROOT
ATOM      1  C   UNL d   1      -4.319   2.280  -2.645  0.00  0.00     0.077 C 
ATOM      2  C1  UNL d   1      -3.026   2.361  -3.401  0.00  0.00    -0.074 A 
ATOM      3  C2  UNL d   1      -2.651   3.537  -4.059  0.00  0.00    -0.005 A 
ATOM      4  C3  UNL d   1      -1.441   3.601  -4.750  0.00  0.00     0.006 A 
ATOM      5  C4  UNL d   1      -0.596   2.492  -4.790  0.00  0.00    -0.005 A 
ATOM      6  C5  UNL d   1      -0.953   1.308  -4.137  0.00  0.00    -0.074 A 
ATOM      7  C6  UNL d   1      -0.052   0.110  -4.162  0.00  0.00     0.077 C 
ATOM      8  C7  UNL d   1      -2.167   1.254  -3.439  0.00  0.00    -0.001 A 
ENDROOT
TORSDOF 0
ENDMDL
