MODEL 1
REMARK minimizedAffinity 10.8083267
REMARK minimizedRMSD -1
REMARK  0 active torsions:
REMARK  status: ('A' for Active; 'I' for Inactive)
ROOT
ATOM      1  C   UNL d   1      -0.938  -3.030   1.799  0.00  0.00     0.077 C 
ATOM      2  C1  UNL d   1       0.355  -2.965   1.042  0.00  0.00    -0.074 A 
ATOM      3  C2  UNL d   1       0.482  -2.160  -0.095  0.00  0.00    -0.005 A 
ATOM      4  C3  UNL d   1       1.694  -2.102  -0.784  0.00  0.00     0.006 A 
ATOM      5  C4  UNL d   1       2.788  -2.847  -0.343  0.00  0.00    -0.005 A 
ATOM      6  C5  UNL d   1       2.680  -3.657   0.791  0.00  0.00    -0.074 A 
ATOM      7  C6  UNL d   1       3.849  -4.457   1.284  0.00  0.00     0.077 C 
ATOM      8  C7  UNL d   1       1.461  -3.705   1.482  0.00  0.00    -0.001 A 
ENDROOT
TORSDOF 0
ENDMDL
