MODEL 1
REMARK minimizedAffinity 3.04502583
REMARK minimizedRMSD -1
REMARK  0 active torsions:
REMARK  status: ('A' for Active; 'I' for Inactive)
ROOT
ATOM      1  C   UNL d   1      -2.804   4.307   0.317  0.00  0.00     0.077 C 
ATOM      2  C1  UNL d   1      -3.149   3.896  -1.084  0.00  0.00    -0.074 A 
ATOM      3  C2  UNL d   1      -4.275   3.109  -1.345  0.00  0.00    -0.005 A 
ATOM      4  C3  UNL d   1      -4.589   2.743  -2.654  0.00  0.00     0.006 A 
ATOM      5  C4  UNL d   1      -3.780   3.158  -3.713  0.00  0.00    -0.005 A 
ATOM      6  C5  UNL d   1      -2.650   3.946  -3.471  0.00  0.00    -0.074 A 
ATOM      7  C6  UNL d   1      -1.776   4.409  -4.598  0.00  0.00     0.077 C 
ATOM      8  C7  UNL d   1      -2.346   4.316  -2.154  0.00  0.00    -0.001 A 
ENDROOT
TORSDOF 0
ENDMDL
