MODEL 1
REMARK minimizedAffinity 2.57032633
REMARK minimizedRMSD -1
REMARK  0 active torsions:
REMARK  status: ('A' for Active; 'I' for Inactive)
ROOT
ATOM      1  C   UNL d   1       2.852  -3.532  -0.359  0.00  0.00     0.077 C 
ATOM      2  C1  UNL d   1       1.850  -2.746   0.433  0.00  0.00    -0.074 A 
ATOM      3  C2  UNL d   1       2.153  -1.467   0.910  0.00  0.00    -0.005 A 
ATOM      4  C3  UNL d   1       1.207  -0.745   1.637  0.00  0.00     0.006 A 
ATOM      5  C4  UNL d   1      -0.050  -1.293   1.894  0.00  0.00    -0.005 A 
ATOM      6  C5  UNL d   1      -0.372  -2.571   1.424  0.00  0.00    -0.074 A 
ATOM      7  C6  UNL d   1      -1.722  -3.171   1.684  0.00  0.00     0.077 C 
ATOM      8  C7  UNL d   1       0.582  -3.288   0.689  0.00  0.00    -0.001 A 
ENDROOT
TORSDOF 0
ENDMDL
