MODEL 1
REMARK minimizedAffinity 16.0695915
REMARK minimizedRMSD -1
REMARK  3 active torsions:
REMARK  status: ('A' for Active; 'I' for Inactive)
REMARK    1  A    between atoms: C3'_2  and  C2'_3 
REMARK    2  A    between atoms: C2'_3  and  C1'_4 
REMARK    3  A    between atoms: C1'_4  and  C1_5 
ROOT
ATOM      1  C1  N4B d   1      -3.834   3.634  -2.995  0.00  0.00    -0.075 A 
ATOM      2  C2  N4B d   1      -3.698   4.922  -2.432  0.00  0.00     0.002 A 
ATOM      3  C3  N4B d   1      -3.428   5.999  -3.240  0.00  0.00     0.002 A 
ATOM      4  C4  N4B d   1      -3.271   5.811  -4.605  0.00  0.00    -0.004 A 
ATOM      5  C5  N4B d   1      -3.430   4.568  -5.144  0.00  0.00     0.002 A 
ATOM      6  C6  N4B d   1      -3.705   3.477  -4.344  0.00  0.00     0.002 A 
ENDROOT
BRANCH   1   7
ATOM      7  C1' N4B d   1      -4.044   2.413  -2.142  0.00  0.00     0.057 C 
BRANCH   7   8
ATOM      8  C2' N4B d   1      -3.460   1.197  -2.855  0.00  0.00     0.009 C 
BRANCH   8   9
ATOM      9  C3' N4B d   1      -2.680   0.302  -1.907  0.00  0.00     0.004 C 
ATOM     10  C4' N4B d   1      -1.833   1.077  -0.942  0.00  0.00     0.003 C 
ENDBRANCH   8   9
ENDBRANCH   7   8
ENDBRANCH   1   7
TORSDOF 3
ENDMDL
