MODEL 1
REMARK minimizedAffinity 9.30891895
REMARK minimizedRMSD -1
REMARK  3 active torsions:
REMARK  status: ('A' for Active; 'I' for Inactive)
REMARK    1  A    between atoms: C3'_2  and  C2'_3 
REMARK    2  A    between atoms: C2'_3  and  C1'_4 
REMARK    3  A    between atoms: C1'_4  and  C1_5 
ROOT
ATOM      1  C1  N4B d   1      -0.150  -2.976   1.643  0.00  0.00    -0.075 A 
ATOM      2  C2  N4B d   1      -1.495  -2.614   1.410  0.00  0.00     0.002 A 
ATOM      3  C3  N4B d   1      -2.316  -3.446   0.689  0.00  0.00     0.002 A 
ATOM      4  C4  N4B d   1      -1.811  -4.633   0.178  0.00  0.00    -0.004 A 
ATOM      5  C5  N4B d   1      -0.518  -4.987   0.429  0.00  0.00     0.002 A 
ATOM      6  C6  N4B d   1       0.317  -4.162   1.155  0.00  0.00     0.002 A 
ENDROOT
BRANCH   1   7
ATOM      7  C1' N4B d   1       0.808  -2.059   2.352  0.00  0.00     0.057 C 
BRANCH   7   8
ATOM      8  C2' N4B d   1       1.462  -2.813   3.506  0.00  0.00     0.009 C 
BRANCH   8   9
ATOM      9  C3' N4B d   1       1.031  -2.269   4.857  0.00  0.00     0.004 C 
ATOM     10  C4' N4B d   1       1.463  -3.140   5.999  0.00  0.00     0.003 C 
ENDBRANCH   8   9
ENDBRANCH   7   8
ENDBRANCH   1   7
TORSDOF 3
ENDMDL
