MODEL 1
REMARK minimizedAffinity -4.4974103
REMARK minimizedRMSD -1
REMARK  0 active torsions:
REMARK  status: ('A' for Active; 'I' for Inactive)
ROOT
ATOM      1  C   UNL d   1      -0.757  -0.010   0.606  0.00  0.00     0.020 A 
ATOM      2  C1  UNL d   1      -1.051   1.199  -0.022  0.00  0.00     0.020 A 
ATOM      3  C2  UNL d   1      -0.323   1.598  -1.145  0.00  0.00     0.034 A 
ATOM      4  C3  UNL d   1       0.703   0.787  -1.643  0.00  0.00     0.017 A 
ATOM      5  C4  UNL d   1       0.997  -0.427  -1.012  0.00  0.00     0.017 A 
ATOM      6  C5  UNL d   1       0.265  -0.821   0.112  0.00  0.00     0.034 A 
ATOM      7 Cl   UNL d   1       2.249  -1.481  -1.568  0.00  0.00    -0.070 Cl
ATOM      8 Cl1  UNL d   1       1.562   1.342  -3.035  0.00  0.00    -0.070 Cl
ENDROOT
TORSDOF 0
ENDMDL
