MODEL 1
REMARK minimizedAffinity -2.76949787
REMARK minimizedRMSD -1
REMARK  0 active torsions:
REMARK  status: ('A' for Active; 'I' for Inactive)
ROOT
ATOM      1  C   UNL d   1      -3.094  -0.130   3.886  0.00  0.00     0.020 A 
ATOM      2  C1  UNL d   1      -3.385  -0.728   2.661  0.00  0.00     0.020 A 
ATOM      3  C2  UNL d   1      -2.884  -0.178   1.479  0.00  0.00     0.034 A 
ATOM      4  C3  UNL d   1      -2.091   0.974   1.520  0.00  0.00     0.017 A 
ATOM      5  C4  UNL d   1      -1.799   1.574   2.750  0.00  0.00     0.017 A 
ATOM      6  C5  UNL d   1      -2.303   1.019   3.931  0.00  0.00     0.034 A 
ATOM      7 Cl   UNL d   1      -0.827   2.997   2.881  0.00  0.00    -0.070 Cl
ATOM      8 Cl1  UNL d   1      -1.506   1.600   0.019  0.00  0.00    -0.070 Cl
ENDROOT
TORSDOF 0
ENDMDL
