MODEL 1
REMARK minimizedAffinity -4.88534641
REMARK minimizedRMSD -1
REMARK  0 active torsions:
REMARK  status: ('A' for Active; 'I' for Inactive)
ROOT
ATOM      1  C   UNL d   1       2.475  -0.819  -0.478  0.00  0.00     0.020 A 
ATOM      2  C1  UNL d   1       3.170  -0.069  -1.425  0.00  0.00     0.020 A 
ATOM      3  C2  UNL d   1       2.486   0.844  -2.231  0.00  0.00     0.034 A 
ATOM      4  C3  UNL d   1       1.103   1.009  -2.090  0.00  0.00     0.017 A 
ATOM      5  C4  UNL d   1       0.407   0.255  -1.139  0.00  0.00     0.017 A 
ATOM      6  C5  UNL d   1       1.096  -0.658  -0.335  0.00  0.00     0.034 A 
ATOM      7 Cl   UNL d   1      -1.300   0.403  -0.908  0.00  0.00    -0.070 Cl
ATOM      8 Cl1  UNL d   1       0.322   2.156  -3.120  0.00  0.00    -0.070 Cl
ENDROOT
TORSDOF 0
ENDMDL
