MODEL 1
REMARK minimizedAffinity -4.35705471
REMARK minimizedRMSD -1
REMARK  0 active torsions:
REMARK  status: ('A' for Active; 'I' for Inactive)
ROOT
ATOM      1  C   UNL d   1       1.007  -2.226   0.010  0.00  0.00     0.020 A 
ATOM      2  C1  UNL d   1       2.040  -1.978  -0.893  0.00  0.00     0.020 A 
ATOM      3  C2  UNL d   1       2.098  -0.757  -1.570  0.00  0.00     0.034 A 
ATOM      4  C3  UNL d   1       1.121   0.219  -1.344  0.00  0.00     0.017 A 
ATOM      5  C4  UNL d   1       0.085  -0.031  -0.437  0.00  0.00     0.017 A 
ATOM      6  C5  UNL d   1       0.032  -1.254   0.237  0.00  0.00     0.034 A 
ATOM      7 Cl   UNL d   1      -1.157   1.126  -0.107  0.00  0.00    -0.070 Cl
ATOM      8 Cl1  UNL d   1       1.255   1.706  -2.215  0.00  0.00    -0.070 Cl
ENDROOT
TORSDOF 0
ENDMDL
