MODEL 1
REMARK minimizedAffinity -3.37914968
REMARK minimizedRMSD -1
REMARK  0 active torsions:
REMARK  status: ('A' for Active; 'I' for Inactive)
ROOT
ATOM      1  C   UNL d   1       0.740  -1.735   0.421  0.00  0.00     0.020 A 
ATOM      2  C1  UNL d   1      -0.239  -0.769   0.648  0.00  0.00     0.020 A 
ATOM      3  C2  UNL d   1      -0.195   0.445  -0.042  0.00  0.00     0.034 A 
ATOM      4  C3  UNL d   1       0.829   0.695  -0.962  0.00  0.00     0.017 A 
ATOM      5  C4  UNL d   1       1.811  -0.276  -1.190  0.00  0.00     0.017 A 
ATOM      6  C5  UNL d   1       1.762  -1.490  -0.496  0.00  0.00     0.034 A 
ATOM      7 Cl   UNL d   1       3.105  -0.040  -2.310  0.00  0.00    -0.070 Cl
ATOM      8 Cl1  UNL d   1       0.821   2.217  -1.780  0.00  0.00    -0.070 Cl
ENDROOT
TORSDOF 0
ENDMDL
