MODEL 1
REMARK minimizedAffinity -3.62421298
REMARK minimizedRMSD -1
REMARK  0 active torsions:
REMARK  status: ('A' for Active; 'I' for Inactive)
ROOT
ATOM      1  C   UNL d   1       0.852   1.457  -2.433  0.00  0.00     0.020 A 
ATOM      2  C1  UNL d   1       1.724   0.394  -2.666  0.00  0.00     0.020 A 
ATOM      3  C2  UNL d   1       1.660  -0.750  -1.867  0.00  0.00     0.034 A 
ATOM      4  C3  UNL d   1       0.723  -0.833  -0.831  0.00  0.00     0.017 A 
ATOM      5  C4  UNL d   1      -0.152   0.234  -0.598  0.00  0.00     0.017 A 
ATOM      6  C5  UNL d   1      -0.084   1.377  -1.401  0.00  0.00     0.034 A 
ATOM      7 Cl   UNL d   1      -1.336   0.204   0.662  0.00  0.00    -0.070 Cl
ATOM      8 Cl1  UNL d   1       0.700  -2.277   0.117  0.00  0.00    -0.070 Cl
ENDROOT
TORSDOF 0
ENDMDL
