MODEL 1
REMARK minimizedAffinity -0.455606997
REMARK minimizedRMSD -1
REMARK  0 active torsions:
REMARK  status: ('A' for Active; 'I' for Inactive)
ROOT
ATOM      1  C   UNL d   1       1.360  -2.041  -0.435  0.00  0.00     0.020 A 
ATOM      2  C1  UNL d   1       1.712  -1.363  -1.600  0.00  0.00     0.020 A 
ATOM      3  C2  UNL d   1       1.173  -0.102  -1.864  0.00  0.00     0.034 A 
ATOM      4  C3  UNL d   1       0.279   0.484  -0.961  0.00  0.00     0.017 A 
ATOM      5  C4  UNL d   1      -0.074  -0.198   0.209  0.00  0.00     0.017 A 
ATOM      6  C5  UNL d   1       0.469  -1.460   0.468  0.00  0.00     0.034 A 
ATOM      7 Cl   UNL d   1      -1.171   0.461   1.371  0.00  0.00    -0.070 Cl
ATOM      8 Cl1  UNL d   1      -0.349   2.046  -1.351  0.00  0.00    -0.070 Cl
ENDROOT
TORSDOF 0
ENDMDL
