MODEL 1
REMARK minimizedAffinity -4.14072037
REMARK minimizedRMSD -1
REMARK  0 active torsions:
REMARK  status: ('A' for Active; 'I' for Inactive)
ROOT
ATOM      1  C   UNL d   1      -0.292  -0.099   0.186  0.00  0.00     0.020 A 
ATOM      2  C1  UNL d   1       0.579  -1.188   0.139  0.00  0.00     0.020 A 
ATOM      3  C2  UNL d   1       1.750  -1.113  -0.616  0.00  0.00     0.034 A 
ATOM      4  C3  UNL d   1       2.055   0.053  -1.329  0.00  0.00     0.017 A 
ATOM      5  C4  UNL d   1       1.181   1.145  -1.281  0.00  0.00     0.017 A 
ATOM      6  C5  UNL d   1       0.009   1.064  -0.523  0.00  0.00     0.034 A 
ATOM      7 Cl   UNL d   1       1.489   2.616  -2.134  0.00  0.00    -0.070 Cl
ATOM      8 Cl1  UNL d   1       3.522   0.076  -2.243  0.00  0.00    -0.070 Cl
ENDROOT
TORSDOF 0
ENDMDL
