MODEL 1
REMARK minimizedAffinity -4.01966
REMARK minimizedRMSD -1
REMARK  0 active torsions:
REMARK  status: ('A' for Active; 'I' for Inactive)
ROOT
ATOM      1  C   UNL d   1      -0.521  -0.559   0.567  0.00  0.00     0.020 A 
ATOM      2  C1  UNL d   1       0.306  -1.646   0.289  0.00  0.00     0.020 A 
ATOM      3  C2  UNL d   1       1.221  -1.575  -0.763  0.00  0.00     0.034 A 
ATOM      4  C3  UNL d   1       1.312  -0.415  -1.541  0.00  0.00     0.017 A 
ATOM      5  C4  UNL d   1       0.481   0.676  -1.261  0.00  0.00     0.017 A 
ATOM      6  C5  UNL d   1      -0.434   0.600  -0.206  0.00  0.00     0.034 A 
ATOM      7 Cl   UNL d   1       0.534   2.141  -2.176  0.00  0.00    -0.070 Cl
ATOM      8 Cl1  UNL d   1       2.466  -0.397  -2.826  0.00  0.00    -0.070 Cl
ENDROOT
TORSDOF 0
ENDMDL
