MODEL 1
REMARK minimizedAffinity -3.55992126
REMARK minimizedRMSD -1
REMARK  0 active torsions:
REMARK  status: ('A' for Active; 'I' for Inactive)
ROOT
ATOM      1  C   UNL d   1       0.005   0.036   0.110  0.00  0.00     0.020 A 
ATOM      2  C1  UNL d   1       0.715  -1.143  -0.112  0.00  0.00     0.020 A 
ATOM      3  C2  UNL d   1       1.767  -1.162  -1.030  0.00  0.00     0.034 A 
ATOM      4  C3  UNL d   1       2.111  -0.001  -1.731  0.00  0.00     0.017 A 
ATOM      5  C4  UNL d   1       1.397   1.182  -1.509  0.00  0.00     0.017 A 
ATOM      6  C5  UNL d   1       0.345   1.196  -0.587  0.00  0.00     0.034 A 
ATOM      7 Cl   UNL d   1       1.763   2.655  -2.336  0.00  0.00    -0.070 Cl
ATOM      8 Cl1  UNL d   1       3.422  -0.097  -2.852  0.00  0.00    -0.070 Cl
ENDROOT
TORSDOF 0
ENDMDL
