MODEL 1
REMARK minimizedAffinity -4.93129683
REMARK minimizedRMSD -1
REMARK  0 active torsions:
REMARK  status: ('A' for Active; 'I' for Inactive)
ROOT
ATOM      1  C   UNL d   1       2.231   1.111  -1.586  0.00  0.00     0.020 A 
ATOM      2  C1  UNL d   1       2.605  -0.194  -1.905  0.00  0.00     0.020 A 
ATOM      3  C2  UNL d   1       1.848  -1.270  -1.438  0.00  0.00     0.034 A 
ATOM      4  C3  UNL d   1       0.714  -1.045  -0.649  0.00  0.00     0.017 A 
ATOM      5  C4  UNL d   1       0.340   0.266  -0.330  0.00  0.00     0.017 A 
ATOM      6  C5  UNL d   1       1.101   1.340  -0.801  0.00  0.00     0.034 A 
ATOM      7 Cl   UNL d   1      -1.047   0.624   0.638  0.00  0.00    -0.070 Cl
ATOM      8 Cl1  UNL d   1      -0.174  -2.423  -0.106  0.00  0.00    -0.070 Cl
ENDROOT
TORSDOF 0
ENDMDL
