MODEL 1
REMARK minimizedAffinity -5.73623323
REMARK minimizedRMSD -1
REMARK  0 active torsions:
REMARK  status: ('A' for Active; 'I' for Inactive)
ROOT
ATOM      1  C   UNL d   1       2.277   1.024  -1.938  0.00  0.00     0.020 A 
ATOM      2  C1  UNL d   1       2.929  -0.208  -1.934  0.00  0.00     0.020 A 
ATOM      3  C2  UNL d   1       2.351  -1.302  -1.287  0.00  0.00     0.034 A 
ATOM      4  C3  UNL d   1       1.116  -1.166  -0.642  0.00  0.00     0.017 A 
ATOM      5  C4  UNL d   1       0.462   0.071  -0.647  0.00  0.00     0.017 A 
ATOM      6  C5  UNL d   1       1.046   1.163  -1.297  0.00  0.00     0.034 A 
ATOM      7 Cl   UNL d   1      -1.064   0.316   0.126  0.00  0.00    -0.070 Cl
ATOM      8 Cl1  UNL d   1       0.459  -2.561   0.138  0.00  0.00    -0.070 Cl
ENDROOT
TORSDOF 0
ENDMDL
