MODEL 1
REMARK minimizedAffinity -2.07523537
REMARK minimizedRMSD -1
REMARK  0 active torsions:
REMARK  status: ('A' for Active; 'I' for Inactive)
ROOT
ATOM      1  C   UNL d   1       4.835  -0.128   4.923  0.00  0.00     0.020 A 
ATOM      2  C1  UNL d   1       5.630  -0.619   5.958  0.00  0.00     0.020 A 
ATOM      3  C2  UNL d   1       5.964  -1.975   5.999  0.00  0.00     0.034 A 
ATOM      4  C3  UNL d   1       5.504  -2.843   5.003  0.00  0.00     0.017 A 
ATOM      5  C4  UNL d   1       4.706  -2.350   3.964  0.00  0.00     0.017 A 
ATOM      6  C5  UNL d   1       4.374  -0.992   3.928  0.00  0.00     0.034 A 
ATOM      7 Cl   UNL d   1       4.100  -3.360   2.700  0.00  0.00    -0.070 Cl
ATOM      8 Cl1  UNL d   1       5.956  -4.507   5.116  0.00  0.00    -0.070 Cl
ENDROOT
TORSDOF 0
ENDMDL
