MODEL 1
REMARK minimizedAffinity -4.5230689
REMARK minimizedRMSD -1
REMARK  0 active torsions:
REMARK  status: ('A' for Active; 'I' for Inactive)
ROOT
ATOM      1  C   UNL d   1       4.756  -1.606   4.091  0.00  0.00     0.020 A 
ATOM      2  C1  UNL d   1       5.463  -2.172   5.151  0.00  0.00     0.020 A 
ATOM      3  C2  UNL d   1       5.317  -3.531   5.440  0.00  0.00     0.034 A 
ATOM      4  C3  UNL d   1       4.464  -4.327   4.668  0.00  0.00     0.017 A 
ATOM      5  C4  UNL d   1       3.755  -3.757   3.604  0.00  0.00     0.017 A 
ATOM      6  C5  UNL d   1       3.904  -2.397   3.319  0.00  0.00     0.034 A 
ATOM      7 Cl   UNL d   1       2.683  -4.676   2.606  0.00  0.00    -0.070 Cl
ATOM      8 Cl1  UNL d   1       4.333  -6.000   5.081  0.00  0.00    -0.070 Cl
ENDROOT
TORSDOF 0
ENDMDL
