MODEL 1
REMARK minimizedAffinity -5.25932121
REMARK minimizedRMSD -1
REMARK  0 active torsions:
REMARK  status: ('A' for Active; 'I' for Inactive)
ROOT
ATOM      1  C   UNL d   1       1.078   1.358  -2.252  0.00  0.00     0.020 A 
ATOM      2  C1  UNL d   1       1.858   0.224  -2.473  0.00  0.00     0.020 A 
ATOM      3  C2  UNL d   1       1.648  -0.927  -1.710  0.00  0.00     0.034 A 
ATOM      4  C3  UNL d   1       0.656  -0.946  -0.722  0.00  0.00     0.017 A 
ATOM      5  C4  UNL d   1      -0.126   0.193  -0.502  0.00  0.00     0.017 A 
ATOM      6  C5  UNL d   1       0.088   1.343  -1.268  0.00  0.00     0.034 A 
ATOM      7 Cl   UNL d   1      -1.369   0.246   0.699  0.00  0.00    -0.070 Cl
ATOM      8 Cl1  UNL d   1       0.452  -2.403   0.183  0.00  0.00    -0.070 Cl
ENDROOT
TORSDOF 0
ENDMDL
