MODEL 1
REMARK minimizedAffinity -4.16404295
REMARK minimizedRMSD -1
REMARK  0 active torsions:
REMARK  status: ('A' for Active; 'I' for Inactive)
ROOT
ATOM      1  C   UNL d   1       0.019  -1.560  -0.059  0.00  0.00     0.020 A 
ATOM      2  C1  UNL d   1       1.094  -2.001  -0.829  0.00  0.00     0.020 A 
ATOM      3  C2  UNL d   1       1.777  -1.103  -1.653  0.00  0.00     0.034 A 
ATOM      4  C3  UNL d   1       1.385   0.239  -1.709  0.00  0.00     0.017 A 
ATOM      5  C4  UNL d   1       0.305   0.680  -0.935  0.00  0.00     0.017 A 
ATOM      6  C5  UNL d   1      -0.375  -0.222  -0.112  0.00  0.00     0.034 A 
ATOM      7 Cl   UNL d   1      -0.237   2.322  -0.951  0.00  0.00    -0.070 Cl
ATOM      8 Cl1  UNL d   1       2.274   1.293  -2.750  0.00  0.00    -0.070 Cl
ENDROOT
TORSDOF 0
ENDMDL
