MODEL 1
REMARK minimizedAffinity -3.94832301
REMARK minimizedRMSD -1
REMARK  0 active torsions:
REMARK  status: ('A' for Active; 'I' for Inactive)
ROOT
ATOM      1  C   UNL d   1      -0.055   1.868  -1.028  0.00  0.00     0.020 A 
ATOM      2  C1  UNL d   1      -1.083   1.314  -0.266  0.00  0.00     0.020 A 
ATOM      3  C2  UNL d   1      -1.090  -0.055   0.007  0.00  0.00     0.034 A 
ATOM      4  C3  UNL d   1      -0.067  -0.876  -0.482  0.00  0.00     0.017 A 
ATOM      5  C4  UNL d   1       0.964  -0.319  -1.247  0.00  0.00     0.017 A 
ATOM      6  C5  UNL d   1       0.966   1.053  -1.518  0.00  0.00     0.034 A 
ATOM      7 Cl   UNL d   1       2.261  -1.268  -1.885  0.00  0.00    -0.070 Cl
ATOM      8 Cl1  UNL d   1      -0.139  -2.560  -0.105  0.00  0.00    -0.070 Cl
ENDROOT
TORSDOF 0
ENDMDL
