MODEL 1
REMARK minimizedAffinity -0.272859871
REMARK minimizedRMSD -1
REMARK  3 active torsions:
REMARK  status: ('A' for Active; 'I' for Inactive)
REMARK    1  A    between atoms: C3'_2  and  C2'_3 
REMARK    2  A    between atoms: C2'_3  and  C1'_4 
REMARK    3  A    between atoms: C1'_4  and  C1_5 
ROOT
ATOM      1  C1  N4B d   1       0.805   1.986  -1.162  0.00  0.00    -0.075 A 
ATOM      2  C2  N4B d   1       0.666   0.766  -1.859  0.00  0.00     0.002 A 
ATOM      3  C3  N4B d   1       0.769  -0.426  -1.184  0.00  0.00     0.002 A 
ATOM      4  C4  N4B d   1       1.028  -0.422   0.178  0.00  0.00    -0.004 A 
ATOM      5  C5  N4B d   1       1.136   0.761   0.849  0.00  0.00     0.002 A 
ATOM      6  C6  N4B d   1       1.031   1.966   0.184  0.00  0.00     0.002 A 
ENDROOT
BRANCH   1   7
ATOM      7  C1' N4B d   1       0.786   3.313  -1.871  0.00  0.00     0.057 C 
BRANCH   7   8
ATOM      8  C2' N4B d   1       1.999   4.131  -1.436  0.00  0.00     0.009 C 
BRANCH   8   9
ATOM      9  C3' N4B d   1       1.636   5.579  -1.157  0.00  0.00     0.004 C 
ATOM     10  C4' N4B d   1       1.958   5.999   0.246  0.00  0.00     0.003 C 
ENDBRANCH   8   9
ENDBRANCH   7   8
ENDBRANCH   1   7
TORSDOF 3
ENDMDL
