MODEL 1
REMARK minimizedAffinity -4.36662626
REMARK minimizedRMSD -1
REMARK  3 active torsions:
REMARK  status: ('A' for Active; 'I' for Inactive)
REMARK    1  A    between atoms: C3'_2  and  C2'_3 
REMARK    2  A    between atoms: C2'_3  and  C1'_4 
REMARK    3  A    between atoms: C1'_4  and  C1_5 
ROOT
ATOM      1  C1  N4B d   1       1.190   1.510  -0.790  0.00  0.00    -0.075 A 
ATOM      2  C2  N4B d   1       0.866   2.189   0.405  0.00  0.00     0.002 A 
ATOM      3  C3  N4B d   1       1.036   3.549   0.489  0.00  0.00     0.002 A 
ATOM      4  C4  N4B d   1       1.543   4.246  -0.597  0.00  0.00    -0.004 A 
ATOM      5  C5  N4B d   1       1.829   3.587  -1.756  0.00  0.00     0.002 A 
ATOM      6  C6  N4B d   1       1.660   2.220  -1.857  0.00  0.00     0.002 A 
ENDROOT
BRANCH   1   7
ATOM      7  C1' N4B d   1       1.102   0.013  -0.902  0.00  0.00     0.057 C 
BRANCH   7   8
ATOM      8  C2' N4B d   1       2.234  -0.616  -0.094  0.00  0.00     0.009 C 
BRANCH   8   9
ATOM      9  C3' N4B d   1       2.242  -2.131  -0.212  0.00  0.00     0.004 C 
ATOM     10  C4' N4B d   1       3.537  -2.741   0.234  0.00  0.00     0.003 C 
ENDBRANCH   8   9
ENDBRANCH   7   8
ENDBRANCH   1   7
TORSDOF 3
ENDMDL
