MODEL 1
REMARK minimizedAffinity -5.02202225
REMARK minimizedRMSD -1
REMARK  3 active torsions:
REMARK  status: ('A' for Active; 'I' for Inactive)
REMARK    1  A    between atoms: C3'_2  and  C2'_3 
REMARK    2  A    between atoms: C2'_3  and  C1'_4 
REMARK    3  A    between atoms: C1'_4  and  C1_5 
ROOT
ATOM      1  C1  N4B d   1       1.107   1.321  -0.687  0.00  0.00    -0.075 A 
ATOM      2  C2  N4B d   1       1.173   2.383  -1.615  0.00  0.00     0.002 A 
ATOM      3  C3  N4B d   1       1.243   3.680  -1.170  0.00  0.00     0.002 A 
ATOM      4  C4  N4B d   1       1.230   3.940   0.192  0.00  0.00    -0.004 A 
ATOM      5  C5  N4B d   1       1.192   2.907   1.083  0.00  0.00     0.002 A 
ATOM      6  C6  N4B d   1       1.125   1.598   0.649  0.00  0.00     0.002 A 
ENDROOT
BRANCH   1   7
ATOM      7  C1' N4B d   1       0.943  -0.108  -1.126  0.00  0.00     0.057 C 
BRANCH   7   8
ATOM      8  C2' N4B d   1       1.437  -1.033  -0.018  0.00  0.00     0.009 C 
BRANCH   8   9
ATOM      9  C3' N4B d   1       1.041  -2.479  -0.265  0.00  0.00     0.004 C 
ATOM     10  C4' N4B d   1      -0.125  -2.610  -1.199  0.00  0.00     0.003 C 
ENDBRANCH   8   9
ENDBRANCH   7   8
ENDBRANCH   1   7
TORSDOF 3
ENDMDL
