MODEL 1
REMARK minimizedAffinity 1.22802067
REMARK minimizedRMSD -1
REMARK  3 active torsions:
REMARK  status: ('A' for Active; 'I' for Inactive)
REMARK    1  A    between atoms: C3'_2  and  C2'_3 
REMARK    2  A    between atoms: C2'_3  and  C1'_4 
REMARK    3  A    between atoms: C1'_4  and  C1_5 
ROOT
ATOM      1  C1  N4B d   1       1.094   1.966  -1.176  0.00  0.00    -0.075 A 
ATOM      2  C2  N4B d   1       0.735   0.632  -1.471  0.00  0.00     0.002 A 
ATOM      3  C3  N4B d   1       0.822  -0.333  -0.498  0.00  0.00     0.002 A 
ATOM      4  C4  N4B d   1       1.280   0.006   0.766  0.00  0.00    -0.004 A 
ATOM      5  C5  N4B d   1       1.600   1.301   1.050  0.00  0.00     0.002 A 
ATOM      6  C6  N4B d   1       1.515   2.283   0.083  0.00  0.00     0.002 A 
ENDROOT
BRANCH   1   7
ATOM      7  C1' N4B d   1       1.098   3.039  -2.230  0.00  0.00     0.057 C 
BRANCH   7   8
ATOM      8  C2' N4B d   1       2.134   4.097  -1.864  0.00  0.00     0.009 C 
BRANCH   8   9
ATOM      9  C3' N4B d   1       1.491   5.436  -1.547  0.00  0.00     0.004 C 
ATOM     10  C4' N4B d   1       1.927   5.992  -0.224  0.00  0.00     0.003 C 
ENDBRANCH   8   9
ENDBRANCH   7   8
ENDBRANCH   1   7
TORSDOF 3
ENDMDL
