MODEL 1
REMARK minimizedAffinity -2.90391302
REMARK minimizedRMSD -1
REMARK  3 active torsions:
REMARK  status: ('A' for Active; 'I' for Inactive)
REMARK    1  A    between atoms: C3'_2  and  C2'_3 
REMARK    2  A    between atoms: C2'_3  and  C1'_4 
REMARK    3  A    between atoms: C1'_4  and  C1_5 
ROOT
ATOM      1  C1  N4B d   1       1.081   2.401  -1.115  0.00  0.00    -0.075 A 
ATOM      2  C2  N4B d   1       1.132   1.190  -1.840  0.00  0.00     0.002 A 
ATOM      3  C3  N4B d   1       1.255  -0.004  -1.173  0.00  0.00     0.002 A 
ATOM      4  C4  N4B d   1       1.347  -0.011   0.210  0.00  0.00    -0.004 A 
ATOM      5  C5  N4B d   1       1.271   1.161   0.904  0.00  0.00     0.002 A 
ATOM      6  C6  N4B d   1       1.143   2.368   0.248  0.00  0.00     0.002 A 
ENDROOT
BRANCH   1   7
ATOM      7  C1' N4B d   1       1.034   3.737  -1.805  0.00  0.00     0.057 C 
BRANCH   7   8
ATOM      8  C2' N4B d   1       2.247   4.561  -1.383  0.00  0.00     0.009 C 
BRANCH   8   9
ATOM      9  C3' N4B d   1       1.855   5.954  -0.920  0.00  0.00     0.004 C 
ATOM     10  C4' N4B d   1       1.437   5.991   0.519  0.00  0.00     0.003 C 
ENDBRANCH   8   9
ENDBRANCH   7   8
ENDBRANCH   1   7
TORSDOF 3
ENDMDL
