MODEL 1
REMARK minimizedAffinity 4.33570623
REMARK minimizedRMSD -1
REMARK  2 active torsions:
REMARK  status: ('A' for Active; 'I' for Inactive)
REMARK    1  A    between atoms: C1_2  and  C2_3 
REMARK    2  A    between atoms: C2_3  and  C3_4 
ROOT
ATOM      1  C3  UNL d   1      -0.508  -2.686  -1.710  0.00  0.00    -0.075 A 
ATOM      2  C4  UNL d   1      -0.255  -2.052  -2.934  0.00  0.00     0.002 A 
ATOM      3  C5  UNL d   1      -0.124  -2.798  -4.106  0.00  0.00     0.002 A 
ATOM      4  C6  UNL d   1      -0.234  -4.187  -4.066  0.00  0.00    -0.004 A 
ATOM      5  C7  UNL d   1      -0.469  -4.829  -2.852  0.00  0.00     0.002 A 
ATOM      6  C8  UNL d   1      -0.604  -4.084  -1.679  0.00  0.00     0.002 A 
ENDROOT
BRANCH   1   7
ATOM      7  C2  UNL d   1      -0.679  -1.882  -0.443  0.00  0.00     0.056 C 
BRANCH   7   8
ATOM      8  C1  UNL d   1      -0.842  -2.734   0.820  0.00  0.00     0.007 C 
ATOM      9  C   UNL d   1      -1.931  -2.222   1.753  0.00  0.00     0.009 C 
ENDBRANCH   7   8
ENDBRANCH   1   7
TORSDOF 2
ENDMDL
