MODEL 1
REMARK minimizedAffinity 11.5843678
REMARK minimizedRMSD -1
REMARK  2 active torsions:
REMARK  status: ('A' for Active; 'I' for Inactive)
REMARK    1  A    between atoms: C1_2  and  C2_3 
REMARK    2  A    between atoms: C2_3  and  C3_4 
ROOT
ATOM      1  C3  UNL d   1       2.875   5.240  -2.148  0.00  0.00    -0.075 A 
ATOM      2  C4  UNL d   1       2.856   5.750  -3.454  0.00  0.00     0.002 A 
ATOM      3  C5  UNL d   1       4.049   5.999  -4.134  0.00  0.00     0.002 A 
ATOM      4  C6  UNL d   1       5.272   5.753  -3.515  0.00  0.00    -0.004 A 
ATOM      5  C7  UNL d   1       5.303   5.262  -2.212  0.00  0.00     0.002 A 
ATOM      6  C8  UNL d   1       4.111   5.007  -1.530  0.00  0.00     0.002 A 
ENDROOT
BRANCH   1   7
ATOM      7  C2  UNL d   1       1.588   4.940  -1.417  0.00  0.00     0.056 C 
BRANCH   7   8
ATOM      8  C1  UNL d   1       1.787   4.469   0.028  0.00  0.00     0.007 C 
ATOM      9  C   UNL d   1       0.496   4.452   0.837  0.00  0.00     0.009 C 
ENDBRANCH   7   8
ENDBRANCH   1   7
TORSDOF 2
ENDMDL
