MODEL 1
REMARK minimizedAffinity 3.86744595
REMARK minimizedRMSD -1
REMARK  2 active torsions:
REMARK  status: ('A' for Active; 'I' for Inactive)
REMARK    1  A    between atoms: C1_2  and  C2_3 
REMARK    2  A    between atoms: C2_3  and  C3_4 
ROOT
ATOM      1  C3  UNL d   1      -0.060  -2.155  -1.255  0.00  0.00    -0.075 A 
ATOM      2  C4  UNL d   1       1.204  -1.642  -1.581  0.00  0.00     0.002 A 
ATOM      3  C5  UNL d   1       1.738  -1.830  -2.856  0.00  0.00     0.002 A 
ATOM      4  C6  UNL d   1       1.021  -2.540  -3.817  0.00  0.00    -0.004 A 
ATOM      5  C7  UNL d   1      -0.229  -3.068  -3.499  0.00  0.00     0.002 A 
ATOM      6  C8  UNL d   1      -0.767  -2.878  -2.225  0.00  0.00     0.002 A 
ENDROOT
BRANCH   1   7
ATOM      7  C2  UNL d   1      -0.656  -1.930   0.114  0.00  0.00     0.056 C 
BRANCH   7   8
ATOM      8  C1  UNL d   1      -1.563  -3.067   0.594  0.00  0.00     0.007 C 
ATOM      9  C   UNL d   1      -3.046  -2.742   0.479  0.00  0.00     0.009 C 
ENDBRANCH   7   8
ENDBRANCH   1   7
TORSDOF 2
ENDMDL
