MODEL 1
REMARK minimizedAffinity -0.587117732
REMARK minimizedRMSD -1
REMARK  2 active torsions:
REMARK  status: ('A' for Active; 'I' for Inactive)
REMARK    1  A    between atoms: C1_2  and  C2_3 
REMARK    2  A    between atoms: C2_3  and  C3_4 
ROOT
ATOM      1  C3  UNL d   1       3.714   4.726  -3.039  0.00  0.00    -0.075 A 
ATOM      2  C4  UNL d   1       4.849   5.498  -2.753  0.00  0.00     0.002 A 
ATOM      3  C5  UNL d   1       5.981   5.421  -3.564  0.00  0.00     0.002 A 
ATOM      4  C6  UNL d   1       5.997   4.565  -4.663  0.00  0.00    -0.004 A 
ATOM      5  C7  UNL d   1       4.881   3.781  -4.947  0.00  0.00     0.002 A 
ATOM      6  C8  UNL d   1       3.745   3.860  -4.140  0.00  0.00     0.002 A 
ENDROOT
BRANCH   1   7
ATOM      7  C2  UNL d   1       2.475   4.828  -2.182  0.00  0.00     0.056 C 
BRANCH   7   8
ATOM      8  C1  UNL d   1       2.668   4.334  -0.744  0.00  0.00     0.007 C 
ATOM      9  C   UNL d   1       1.393   4.389   0.086  0.00  0.00     0.009 C 
ENDBRANCH   7   8
ENDBRANCH   1   7
TORSDOF 2
ENDMDL
