MODEL 1
REMARK minimizedAffinity 1.73408568
REMARK minimizedRMSD -1
REMARK  2 active torsions:
REMARK  status: ('A' for Active; 'I' for Inactive)
REMARK    1  A    between atoms: C1_2  and  C2_3 
REMARK    2  A    between atoms: C2_3  and  C3_4 
ROOT
ATOM      1  C3  UNL d   1      -0.629  -2.798  -0.446  0.00  0.00    -0.075 A 
ATOM      2  C4  UNL d   1      -0.184  -1.524  -0.825  0.00  0.00     0.002 A 
ATOM      3  C5  UNL d   1       0.226  -1.277  -2.135  0.00  0.00     0.002 A 
ATOM      4  C6  UNL d   1       0.205  -2.301  -3.079  0.00  0.00    -0.004 A 
ATOM      5  C7  UNL d   1      -0.219  -3.576  -2.710  0.00  0.00     0.002 A 
ATOM      6  C8  UNL d   1      -0.633  -3.824  -1.400  0.00  0.00     0.002 A 
ENDROOT
BRANCH   1   7
ATOM      7  C2  UNL d   1      -1.101  -3.065   0.964  0.00  0.00     0.056 C 
BRANCH   7   8
ATOM      8  C1  UNL d   1      -2.270  -2.180   1.408  0.00  0.00     0.007 C 
ATOM      9  C   UNL d   1      -3.618  -2.659   0.884  0.00  0.00     0.009 C 
ENDBRANCH   7   8
ENDBRANCH   1   7
TORSDOF 2
ENDMDL
