MODEL 1
REMARK minimizedAffinity 0.832374394
REMARK minimizedRMSD -1
REMARK  2 active torsions:
REMARK  status: ('A' for Active; 'I' for Inactive)
REMARK    1  A    between atoms: C1_2  and  C2_3 
REMARK    2  A    between atoms: C2_3  and  C3_4 
ROOT
ATOM      1  C3  UNL d   1       0.046  -1.935  -1.860  0.00  0.00    -0.075 A 
ATOM      2  C4  UNL d   1       0.086  -1.116  -0.723  0.00  0.00     0.002 A 
ATOM      3  C5  UNL d   1      -0.645  -1.450   0.417  0.00  0.00     0.002 A 
ATOM      4  C6  UNL d   1      -1.432  -2.600   0.431  0.00  0.00    -0.004 A 
ATOM      5  C7  UNL d   1      -1.493  -3.412  -0.699  0.00  0.00     0.002 A 
ATOM      6  C8  UNL d   1      -0.759  -3.082  -1.840  0.00  0.00     0.002 A 
ENDROOT
BRANCH   1   7
ATOM      7  C2  UNL d   1       0.858  -1.594  -3.087  0.00  0.00     0.056 C 
BRANCH   7   8
ATOM      8  C1  UNL d   1       2.244  -2.248  -3.119  0.00  0.00     0.007 C 
ATOM      9  C   UNL d   1       3.215  -1.644  -2.113  0.00  0.00     0.009 C 
ENDBRANCH   7   8
ENDBRANCH   1   7
TORSDOF 2
ENDMDL
