MODEL 1
REMARK minimizedAffinity 3.84016562
REMARK minimizedRMSD -1
REMARK  2 active torsions:
REMARK  status: ('A' for Active; 'I' for Inactive)
REMARK    1  A    between atoms: C1_2  and  C2_3 
REMARK    2  A    between atoms: C2_3  and  C3_4 
ROOT
ATOM      1  C3  UNL d   1       4.265   4.920  -3.169  0.00  0.00    -0.075 A 
ATOM      2  C4  UNL d   1       3.748   5.605  -4.278  0.00  0.00     0.002 A 
ATOM      3  C5  UNL d   1       4.296   5.414  -5.547  0.00  0.00     0.002 A 
ATOM      4  C6  UNL d   1       5.372   4.546  -5.721  0.00  0.00    -0.004 A 
ATOM      5  C7  UNL d   1       5.904   3.873  -4.624  0.00  0.00     0.002 A 
ATOM      6  C8  UNL d   1       5.355   4.059  -3.354  0.00  0.00     0.002 A 
ENDROOT
BRANCH   1   7
ATOM      7  C2  UNL d   1       3.657   5.099  -1.798  0.00  0.00     0.056 C 
BRANCH   7   8
ATOM      8  C1  UNL d   1       4.652   5.570  -0.732  0.00  0.00     0.007 C 
ATOM      9  C   UNL d   1       5.994   5.997  -1.310  0.00  0.00     0.009 C 
ENDBRANCH   7   8
ENDBRANCH   1   7
TORSDOF 2
ENDMDL
