MODEL 1
REMARK minimizedAffinity 10.6964188
REMARK minimizedRMSD -1
REMARK  2 active torsions:
REMARK  status: ('A' for Active; 'I' for Inactive)
REMARK    1  A    between atoms: C1_2  and  C2_3 
REMARK    2  A    between atoms: C2_3  and  C3_4 
ROOT
ATOM      1  C3  UNL d   1       0.078  -2.084  -1.742  0.00  0.00    -0.075 A 
ATOM      2  C4  UNL d   1       1.440  -2.087  -2.078  0.00  0.00     0.002 A 
ATOM      3  C5  UNL d   1       1.839  -2.084  -3.415  0.00  0.00     0.002 A 
ATOM      4  C6  UNL d   1       0.885  -2.089  -4.430  0.00  0.00    -0.004 A 
ATOM      5  C7  UNL d   1      -0.470  -2.103  -4.108  0.00  0.00     0.002 A 
ATOM      6  C8  UNL d   1      -0.873  -2.101  -2.771  0.00  0.00     0.002 A 
ENDROOT
BRANCH   1   7
ATOM      7  C2  UNL d   1      -0.360  -2.057  -0.297  0.00  0.00     0.056 C 
BRANCH   7   8
ATOM      8  C1  UNL d   1      -1.733  -1.412  -0.074  0.00  0.00     0.007 C 
ATOM      9  C   UNL d   1      -1.655   0.081   0.214  0.00  0.00     0.009 C 
ENDBRANCH   7   8
ENDBRANCH   1   7
TORSDOF 2
ENDMDL
