MODEL 1
REMARK minimizedAffinity 6.82907343
REMARK minimizedRMSD -1
REMARK  2 active torsions:
REMARK  status: ('A' for Active; 'I' for Inactive)
REMARK    1  A    between atoms: C1_2  and  C2_3 
REMARK    2  A    between atoms: C2_3  and  C3_4 
ROOT
ATOM      1  C3  UNL d   1      -0.216  -2.119  -2.364  0.00  0.00    -0.075 A 
ATOM      2  C4  UNL d   1      -1.601  -1.938  -2.493  0.00  0.00     0.002 A 
ATOM      3  C5  UNL d   1      -2.421  -1.926  -1.364  0.00  0.00     0.002 A 
ATOM      4  C6  UNL d   1      -1.870  -2.103  -0.097  0.00  0.00    -0.004 A 
ATOM      5  C7  UNL d   1      -0.498  -2.300   0.041  0.00  0.00     0.002 A 
ATOM      6  C8  UNL d   1       0.326  -2.308  -1.086  0.00  0.00     0.002 A 
ENDROOT
BRANCH   1   7
ATOM      7  C2  UNL d   1       0.681  -2.103  -3.579  0.00  0.00     0.056 C 
BRANCH   7   8
ATOM      8  C1  UNL d   1       2.150  -2.414  -3.274  0.00  0.00     0.007 C 
ATOM      9  C   UNL d   1       2.961  -2.762  -4.515  0.00  0.00     0.009 C 
ENDBRANCH   7   8
ENDBRANCH   1   7
TORSDOF 2
ENDMDL
