MODEL 1
REMARK minimizedAffinity 9.01893044
REMARK minimizedRMSD -1
REMARK  2 active torsions:
REMARK  status: ('A' for Active; 'I' for Inactive)
REMARK    1  A    between atoms: C1_2  and  C2_3 
REMARK    2  A    between atoms: C2_3  and  C3_4 
ROOT
ATOM      1  C3  UNL d   1      -0.641  -2.674  -2.372  0.00  0.00    -0.075 A 
ATOM      2  C4  UNL d   1      -1.962  -2.343  -2.034  0.00  0.00     0.002 A 
ATOM      3  C5  UNL d   1      -2.371  -2.337  -0.700  0.00  0.00     0.002 A 
ATOM      4  C6  UNL d   1      -1.471  -2.671   0.310  0.00  0.00    -0.004 A 
ATOM      5  C7  UNL d   1      -0.162  -3.017  -0.016  0.00  0.00     0.002 A 
ATOM      6  C8  UNL d   1       0.252  -3.019  -1.349  0.00  0.00     0.002 A 
ENDROOT
BRANCH   1   7
ATOM      7  C2  UNL d   1      -0.184  -2.653  -3.811  0.00  0.00     0.056 C 
BRANCH   7   8
ATOM      8  C1  UNL d   1       0.795  -1.521  -4.138  0.00  0.00     0.007 C 
ATOM      9  C   UNL d   1       2.226  -1.823  -3.715  0.00  0.00     0.009 C 
ENDBRANCH   7   8
ENDBRANCH   1   7
TORSDOF 2
ENDMDL
