MODEL 1
REMARK minimizedAffinity 4.00072289
REMARK minimizedRMSD -1
REMARK  2 active torsions:
REMARK  status: ('A' for Active; 'I' for Inactive)
REMARK    1  A    between atoms: C1_2  and  C2_3 
REMARK    2  A    between atoms: C2_3  and  C3_4 
ROOT
ATOM      1  C3  UNL d   1       0.644  -2.327  -1.738  0.00  0.00    -0.075 A 
ATOM      2  C4  UNL d   1      -0.230  -2.065  -2.803  0.00  0.00     0.002 A 
ATOM      3  C5  UNL d   1      -1.606  -1.982  -2.587  0.00  0.00     0.002 A 
ATOM      4  C6  UNL d   1      -2.125  -2.169  -1.308  0.00  0.00    -0.004 A 
ATOM      5  C7  UNL d   1      -1.268  -2.445  -0.245  0.00  0.00     0.002 A 
ATOM      6  C8  UNL d   1       0.109  -2.525  -0.458  0.00  0.00     0.002 A 
ENDROOT
BRANCH   1   7
ATOM      7  C2  UNL d   1       2.136  -2.389  -1.960  0.00  0.00     0.056 C 
BRANCH   7   8
ATOM      8  C1  UNL d   1       2.550  -2.331  -3.434  0.00  0.00     0.007 C 
ATOM      9  C   UNL d   1       3.802  -1.498  -3.674  0.00  0.00     0.009 C 
ENDBRANCH   7   8
ENDBRANCH   1   7
TORSDOF 2
ENDMDL
