MODEL 1
REMARK minimizedAffinity 1.15302801
REMARK minimizedRMSD -1
REMARK  2 active torsions:
REMARK  status: ('A' for Active; 'I' for Inactive)
REMARK    1  A    between atoms: C1_2  and  C2_3 
REMARK    2  A    between atoms: C2_3  and  C3_4 
ROOT
ATOM      1  C3  UNL d   1       4.458   4.939  -3.989  0.00  0.00    -0.075 A 
ATOM      2  C4  UNL d   1       4.473   4.804  -5.385  0.00  0.00     0.002 A 
ATOM      3  C5  UNL d   1       5.233   3.804  -5.992  0.00  0.00     0.002 A 
ATOM      4  C6  UNL d   1       5.994   2.934  -5.215  0.00  0.00    -0.004 A 
ATOM      5  C7  UNL d   1       6.000   3.069  -3.828  0.00  0.00     0.002 A 
ATOM      6  C8  UNL d   1       5.237   4.066  -3.217  0.00  0.00     0.002 A 
ENDROOT
BRANCH   1   7
ATOM      7  C2  UNL d   1       3.615   6.000  -3.324  0.00  0.00     0.056 C 
BRANCH   7   8
ATOM      8  C1  UNL d   1       2.148   6.000  -3.767  0.00  0.00     0.007 C 
ATOM      9  C   UNL d   1       1.181   5.652  -2.643  0.00  0.00     0.009 C 
ENDBRANCH   7   8
ENDBRANCH   1   7
TORSDOF 2
ENDMDL
