MODEL 1
REMARK minimizedAffinity -5.53765535
REMARK minimizedRMSD -1
REMARK  0 active torsions:
REMARK  status: ('A' for Active; 'I' for Inactive)
ROOT
ATOM      1  C   UNL d   1      -1.690   3.029   1.003  0.00  0.00     0.020 A 
ATOM      2  C1  UNL d   1      -1.077   3.116  -0.246  0.00  0.00     0.020 A 
ATOM      3  C2  UNL d   1      -0.347   2.034  -0.743  0.00  0.00     0.034 A 
ATOM      4  C3  UNL d   1      -0.228   0.860   0.010  0.00  0.00     0.017 A 
ATOM      5  C4  UNL d   1      -0.844   0.774   1.264  0.00  0.00     0.017 A 
ATOM      6  C5  UNL d   1      -1.574   1.860   1.756  0.00  0.00     0.034 A 
ATOM      7 Cl   UNL d   1      -0.742  -0.641   2.251  0.00  0.00    -0.070 Cl
ATOM      8 Cl1  UNL d   1       0.689  -0.439  -0.666  0.00  0.00    -0.070 Cl
ENDROOT
TORSDOF 0
ENDMDL
