MODEL 1
REMARK minimizedAffinity -3.61741495
REMARK minimizedRMSD -1
REMARK  0 active torsions:
REMARK  status: ('A' for Active; 'I' for Inactive)
ROOT
ATOM      1  C   UNL d   1      -0.449  -3.545  -1.232  0.00  0.00     0.020 A 
ATOM      2  C1  UNL d   1       0.694  -3.482  -2.028  0.00  0.00     0.020 A 
ATOM      3  C2  UNL d   1       1.412  -2.289  -2.126  0.00  0.00     0.034 A 
ATOM      4  C3  UNL d   1       0.988  -1.153  -1.427  0.00  0.00     0.017 A 
ATOM      5  C4  UNL d   1      -0.159  -1.217  -0.627  0.00  0.00     0.017 A 
ATOM      6  C5  UNL d   1      -0.874  -2.414  -0.532  0.00  0.00     0.034 A 
ATOM      7 Cl   UNL d   1      -0.743   0.143   0.266  0.00  0.00    -0.070 Cl
ATOM      8 Cl1  UNL d   1       1.925   0.290  -1.594  0.00  0.00    -0.070 Cl
ENDROOT
TORSDOF 0
ENDMDL
