MODEL 1
REMARK minimizedAffinity -3.46367645
REMARK minimizedRMSD -1
REMARK  0 active torsions:
REMARK  status: ('A' for Active; 'I' for Inactive)
ROOT
ATOM      1  C   UNL d   1      -1.181  -0.675   2.132  0.00  0.00     0.020 A 
ATOM      2  C1  UNL d   1      -1.640   0.636   2.015  0.00  0.00     0.020 A 
ATOM      3  C2  UNL d   1      -1.126   1.470   1.020  0.00  0.00     0.034 A 
ATOM      4  C3  UNL d   1      -0.150   0.994   0.137  0.00  0.00     0.017 A 
ATOM      5  C4  UNL d   1       0.310  -0.323   0.255  0.00  0.00     0.017 A 
ATOM      6  C5  UNL d   1      -0.207  -1.153   1.254  0.00  0.00     0.034 A 
ATOM      7 Cl   UNL d   1       1.513  -0.982  -0.797  0.00  0.00    -0.070 Cl
ATOM      8 Cl1  UNL d   1       0.440   2.080  -1.070  0.00  0.00    -0.070 Cl
ENDROOT
TORSDOF 0
ENDMDL
