MODEL 1
REMARK minimizedAffinity -4.23570728
REMARK minimizedRMSD -1
REMARK  0 active torsions:
REMARK  status: ('A' for Active; 'I' for Inactive)
ROOT
ATOM      1  C   UNL d   1      -2.567   1.597  -0.307  0.00  0.00     0.020 A 
ATOM      2  C1  UNL d   1      -2.372   1.713   1.068  0.00  0.00     0.020 A 
ATOM      3  C2  UNL d   1      -1.279   1.089   1.673  0.00  0.00     0.034 A 
ATOM      4  C3  UNL d   1      -0.377   0.346   0.903  0.00  0.00     0.017 A 
ATOM      5  C4  UNL d   1      -0.574   0.230  -0.478  0.00  0.00     0.017 A 
ATOM      6  C5  UNL d   1      -1.670   0.857  -1.079  0.00  0.00     0.034 A 
ATOM      7 Cl   UNL d   1       0.495  -0.671  -1.495  0.00  0.00    -0.070 Cl
ATOM      8 Cl1  UNL d   1       0.952  -0.399   1.717  0.00  0.00    -0.070 Cl
ENDROOT
TORSDOF 0
ENDMDL
