MODEL 1
REMARK minimizedAffinity -3.71453691
REMARK minimizedRMSD -1
REMARK  0 active torsions:
REMARK  status: ('A' for Active; 'I' for Inactive)
ROOT
ATOM      1  C   UNL d   1      -1.940   1.151   1.866  0.00  0.00     0.020 A 
ATOM      2  C1  UNL d   1      -1.428  -0.123   2.108  0.00  0.00     0.020 A 
ATOM      3  C2  UNL d   1      -0.437  -0.647   1.275  0.00  0.00     0.034 A 
ATOM      4  C3  UNL d   1       0.044   0.102   0.196  0.00  0.00     0.017 A 
ATOM      5  C4  UNL d   1      -0.471   1.381  -0.047  0.00  0.00     0.017 A 
ATOM      6  C5  UNL d   1      -1.462   1.901   0.791  0.00  0.00     0.034 A 
ATOM      7 Cl   UNL d   1       0.074   2.366  -1.359  0.00  0.00    -0.070 Cl
ATOM      8 Cl1  UNL d   1       1.270  -0.608  -0.793  0.00  0.00    -0.070 Cl
ENDROOT
TORSDOF 0
ENDMDL
