MODEL 1
REMARK minimizedAffinity -2.71233296
REMARK minimizedRMSD -1
REMARK  0 active torsions:
REMARK  status: ('A' for Active; 'I' for Inactive)
ROOT
ATOM      1  C   UNL d   1       0.537   1.462  -1.435  0.00  0.00     0.020 A 
ATOM      2  C1  UNL d   1       0.990   0.160  -1.231  0.00  0.00     0.020 A 
ATOM      3  C2  UNL d   1       0.417  -0.631  -0.232  0.00  0.00     0.034 A 
ATOM      4  C3  UNL d   1      -0.612  -0.119   0.567  0.00  0.00     0.017 A 
ATOM      5  C4  UNL d   1      -1.066   1.189   0.361  0.00  0.00     0.017 A 
ATOM      6  C5  UNL d   1      -0.489   1.976  -0.640  0.00  0.00     0.034 A 
ATOM      7 Cl   UNL d   1      -2.332   1.890   1.307  0.00  0.00    -0.070 Cl
ATOM      8 Cl1  UNL d   1      -1.275  -1.152   1.783  0.00  0.00    -0.070 Cl
ENDROOT
TORSDOF 0
ENDMDL
