MODEL 1
REMARK minimizedAffinity -1.15780449
REMARK minimizedRMSD -1
REMARK  0 active torsions:
REMARK  status: ('A' for Active; 'I' for Inactive)
ROOT
ATOM      1  C   UNL d   1       1.016   0.089  -1.381  0.00  0.00     0.020 A 
ATOM      2  C1  UNL d   1       0.320   1.281  -1.582  0.00  0.00     0.020 A 
ATOM      3  C2  UNL d   1      -0.461   1.814  -0.554  0.00  0.00     0.034 A 
ATOM      4  C3  UNL d   1      -0.548   1.156   0.678  0.00  0.00     0.017 A 
ATOM      5  C4  UNL d   1       0.151  -0.039   0.878  0.00  0.00     0.017 A 
ATOM      6  C5  UNL d   1       0.932  -0.569  -0.154  0.00  0.00     0.034 A 
ATOM      7 Cl   UNL d   1       0.093  -0.908   2.371  0.00  0.00    -0.070 Cl
ATOM      8 Cl1  UNL d   1      -1.532   1.874   1.904  0.00  0.00    -0.070 Cl
ENDROOT
TORSDOF 0
ENDMDL
