MODEL 1
REMARK minimizedAffinity -0.529334426
REMARK minimizedRMSD -1
REMARK  0 active torsions:
REMARK  status: ('A' for Active; 'I' for Inactive)
ROOT
ATOM      1  C   UNL d   1       1.330  -1.034  -1.122  0.00  0.00     0.020 A 
ATOM      2  C1  UNL d   1       0.843  -1.415   0.127  0.00  0.00     0.020 A 
ATOM      3  C2  UNL d   1       0.075  -0.523   0.879  0.00  0.00     0.034 A 
ATOM      4  C3  UNL d   1      -0.209   0.754   0.382  0.00  0.00     0.017 A 
ATOM      5  C4  UNL d   1       0.280   1.135  -0.873  0.00  0.00     0.017 A 
ATOM      6  C5  UNL d   1       1.048   0.239  -1.621  0.00  0.00     0.034 A 
ATOM      7 Cl   UNL d   1      -0.029   2.694  -1.553  0.00  0.00    -0.070 Cl
ATOM      8 Cl1  UNL d   1      -1.166   1.804   1.365  0.00  0.00    -0.070 Cl
ENDROOT
TORSDOF 0
ENDMDL
