MODEL 1
REMARK minimizedAffinity -4.20260334
REMARK minimizedRMSD -1
REMARK  0 active torsions:
REMARK  status: ('A' for Active; 'I' for Inactive)
ROOT
ATOM      1  C   UNL d   1       0.670  -0.540   0.186  0.00  0.00     0.020 A 
ATOM      2  C1  UNL d   1      -0.105  -0.603   1.343  0.00  0.00     0.020 A 
ATOM      3  C2  UNL d   1      -1.010   0.420   1.634  0.00  0.00     0.034 A 
ATOM      4  C3  UNL d   1      -1.143   1.510   0.766  0.00  0.00     0.017 A 
ATOM      5  C4  UNL d   1      -0.365   1.572  -0.395  0.00  0.00     0.017 A 
ATOM      6  C5  UNL d   1       0.540   0.545  -0.682  0.00  0.00     0.034 A 
ATOM      7 Cl   UNL d   1      -0.473   2.885  -1.514  0.00  0.00    -0.070 Cl
ATOM      8 Cl1  UNL d   1      -2.282   2.739   1.188  0.00  0.00    -0.070 Cl
ENDROOT
TORSDOF 0
ENDMDL
