MODEL 1
REMARK minimizedAffinity -3.80874085
REMARK minimizedRMSD -1
REMARK  0 active torsions:
REMARK  status: ('A' for Active; 'I' for Inactive)
ROOT
ATOM      1  C   UNL d   1       0.175  -1.090   1.306  0.00  0.00     0.020 A 
ATOM      2  C1  UNL d   1       0.983  -0.822   0.202  0.00  0.00     0.020 A 
ATOM      3  C2  UNL d   1       0.726   0.294  -0.597  0.00  0.00     0.034 A 
ATOM      4  C3  UNL d   1      -0.342   1.146  -0.293  0.00  0.00     0.017 A 
ATOM      5  C4  UNL d   1      -1.152   0.877   0.816  0.00  0.00     0.017 A 
ATOM      6  C5  UNL d   1      -0.890  -0.242   1.613  0.00  0.00     0.034 A 
ATOM      7 Cl   UNL d   1      -2.487   1.883   1.255  0.00  0.00    -0.070 Cl
ATOM      8 Cl1  UNL d   1      -0.601   2.509  -1.324  0.00  0.00    -0.070 Cl
ENDROOT
TORSDOF 0
ENDMDL
