MODEL 1
REMARK minimizedAffinity -5.75383139
REMARK minimizedRMSD -1
REMARK  0 active torsions:
REMARK  status: ('A' for Active; 'I' for Inactive)
ROOT
ATOM      1  C   UNL d   1      -1.398   2.323   1.407  0.00  0.00     0.020 A 
ATOM      2  C1  UNL d   1      -1.315   2.282   0.016  0.00  0.00     0.020 A 
ATOM      3  C2  UNL d   1      -0.737   1.181  -0.618  0.00  0.00     0.034 A 
ATOM      4  C3  UNL d   1      -0.238   0.114   0.140  0.00  0.00     0.017 A 
ATOM      5  C4  UNL d   1      -0.322   0.156   1.537  0.00  0.00     0.017 A 
ATOM      6  C5  UNL d   1      -0.902   1.261   2.166  0.00  0.00     0.034 A 
ATOM      7 Cl   UNL d   1       0.271  -1.122   2.539  0.00  0.00    -0.070 Cl
ATOM      8 Cl1  UNL d   1       0.464  -1.216  -0.710  0.00  0.00    -0.070 Cl
ENDROOT
TORSDOF 0
ENDMDL
