MODEL 1
REMARK minimizedAffinity -4.31387472
REMARK minimizedRMSD -1
REMARK  0 active torsions:
REMARK  status: ('A' for Active; 'I' for Inactive)
ROOT
ATOM      1  C   UNL d   1      -1.947   1.140   1.616  0.00  0.00     0.020 A 
ATOM      2  C1  UNL d   1      -1.226  -0.027   1.866  0.00  0.00     0.020 A 
ATOM      3  C2  UNL d   1      -0.116  -0.344   1.080  0.00  0.00     0.034 A 
ATOM      4  C3  UNL d   1       0.276   0.507   0.040  0.00  0.00     0.017 A 
ATOM      5  C4  UNL d   1      -0.449   1.678  -0.210  0.00  0.00     0.017 A 
ATOM      6  C5  UNL d   1      -1.559   1.990   0.580  0.00  0.00     0.034 A 
ATOM      7 Cl   UNL d   1      -0.027   2.777  -1.476  0.00  0.00    -0.070 Cl
ATOM      8 Cl1  UNL d   1       1.658   0.053  -0.893  0.00  0.00    -0.070 Cl
ENDROOT
TORSDOF 0
ENDMDL
