MODEL 1
REMARK minimizedAffinity -5.95945263
REMARK minimizedRMSD -1
REMARK  0 active torsions:
REMARK  status: ('A' for Active; 'I' for Inactive)
ROOT
ATOM      1  C   UNL d   1      -2.080   2.416   1.111  0.00  0.00     0.020 A 
ATOM      2  C1  UNL d   1      -1.768   1.100   1.449  0.00  0.00     0.020 A 
ATOM      3  C2  UNL d   1      -0.648   0.482   0.888  0.00  0.00     0.034 A 
ATOM      4  C3  UNL d   1       0.164   1.180  -0.013  0.00  0.00     0.017 A 
ATOM      5  C4  UNL d   1      -0.150   2.501  -0.352  0.00  0.00     0.017 A 
ATOM      6  C5  UNL d   1      -1.273   3.115   0.212  0.00  0.00     0.034 A 
ATOM      7 Cl   UNL d   1       0.804   3.427  -1.457  0.00  0.00    -0.070 Cl
ATOM      8 Cl1  UNL d   1       1.533   0.353  -0.667  0.00  0.00    -0.070 Cl
ENDROOT
TORSDOF 0
ENDMDL
