MODEL 1
REMARK minimizedAffinity -4.29895878
REMARK minimizedRMSD -1
REMARK  0 active torsions:
REMARK  status: ('A' for Active; 'I' for Inactive)
ROOT
ATOM      1  C   UNL d   1      -1.295   2.008  -0.065  0.00  0.00     0.020 A 
ATOM      2  C1  UNL d   1      -1.478   1.966   1.316  0.00  0.00     0.020 A 
ATOM      3  C2  UNL d   1      -0.953   0.906   2.058  0.00  0.00     0.034 A 
ATOM      4  C3  UNL d   1      -0.242  -0.116   1.419  0.00  0.00     0.017 A 
ATOM      5  C4  UNL d   1      -0.058  -0.073   0.033  0.00  0.00     0.017 A 
ATOM      6  C5  UNL d   1      -0.586   0.991  -0.706  0.00  0.00     0.034 A 
ATOM      7 Cl   UNL d   1       0.809  -1.297  -0.826  0.00  0.00    -0.070 Cl
ATOM      8 Cl1  UNL d   1       0.380  -1.396   2.399  0.00  0.00    -0.070 Cl
ENDROOT
TORSDOF 0
ENDMDL
