MODEL 1
REMARK minimizedAffinity -5.1435833
REMARK minimizedRMSD -1
REMARK  0 active torsions:
REMARK  status: ('A' for Active; 'I' for Inactive)
ROOT
ATOM      1  C   UNL d   1      -0.537   3.912  -0.209  0.00  0.00     0.020 A 
ATOM      2  C1  UNL d   1      -1.483   3.524   0.739  0.00  0.00     0.020 A 
ATOM      3  C2  UNL d   1      -1.493   2.212   1.218  0.00  0.00     0.034 A 
ATOM      4  C3  UNL d   1      -0.556   1.284   0.749  0.00  0.00     0.017 A 
ATOM      5  C4  UNL d   1       0.393   1.675  -0.203  0.00  0.00     0.017 A 
ATOM      6  C5  UNL d   1       0.399   2.990  -0.679  0.00  0.00     0.034 A 
ATOM      7 Cl   UNL d   1       1.581   0.587  -0.829  0.00  0.00    -0.070 Cl
ATOM      8 Cl1  UNL d   1      -0.627  -0.321   1.385  0.00  0.00    -0.070 Cl
ENDROOT
TORSDOF 0
ENDMDL
