MODEL 1
REMARK minimizedAffinity -4.85106277
REMARK minimizedRMSD -1
REMARK  0 active torsions:
REMARK  status: ('A' for Active; 'I' for Inactive)
ROOT
ATOM      1  C   UNL d   1       0.386   1.201  -1.240  0.00  0.00     0.020 A 
ATOM      2  C1  UNL d   1       0.916  -0.045  -0.907  0.00  0.00     0.020 A 
ATOM      3  C2  UNL d   1       0.461  -0.717   0.229  0.00  0.00     0.034 A 
ATOM      4  C3  UNL d   1      -0.528  -0.143   1.037  0.00  0.00     0.017 A 
ATOM      5  C4  UNL d   1      -1.059   1.107   0.702  0.00  0.00     0.017 A 
ATOM      6  C5  UNL d   1      -0.600   1.776  -0.437  0.00  0.00     0.034 A 
ATOM      7 Cl   UNL d   1      -2.281   1.879   1.650  0.00  0.00    -0.070 Cl
ATOM      8 Cl1  UNL d   1      -1.044  -1.030   2.427  0.00  0.00    -0.070 Cl
ENDROOT
TORSDOF 0
ENDMDL
