MODEL 1
REMARK minimizedAffinity -5.28027725
REMARK minimizedRMSD -1
REMARK  0 active torsions:
REMARK  status: ('A' for Active; 'I' for Inactive)
ROOT
ATOM      1  C   UNL d   1      -0.738   4.202  -1.615  0.00  0.00     0.020 A 
ATOM      2  C1  UNL d   1       0.397   3.449  -1.914  0.00  0.00     0.020 A 
ATOM      3  C2  UNL d   1       0.457   2.102  -1.552  0.00  0.00     0.034 A 
ATOM      4  C3  UNL d   1      -0.620   1.504  -0.887  0.00  0.00     0.017 A 
ATOM      5  C4  UNL d   1      -1.759   2.260  -0.588  0.00  0.00     0.017 A 
ATOM      6  C5  UNL d   1      -1.813   3.609  -0.953  0.00  0.00     0.034 A 
ATOM      7 Cl   UNL d   1      -3.127   1.591   0.230  0.00  0.00    -0.070 Cl
ATOM      8 Cl1  UNL d   1      -0.477  -0.167  -0.469  0.00  0.00    -0.070 Cl
ENDROOT
TORSDOF 0
ENDMDL
