MODEL 1
REMARK minimizedAffinity 3.18376207
REMARK minimizedRMSD -1
REMARK  0 active torsions:
REMARK  status: ('A' for Active; 'I' for Inactive)
ROOT
ATOM      1  C   UNL d   1       2.148  -0.868   2.724  0.00  0.00     0.078 C 
ATOM      2  C1  UNL d   1       2.185  -2.251   3.304  0.00  0.00    -0.077 A 
ATOM      3  C2  UNL d   1       3.284  -2.691   4.052  0.00  0.00    -0.001 A 
ATOM      4  C3  UNL d   1       3.309  -3.983   4.577  0.00  0.00     0.003 A 
ATOM      5  C4  UNL d   1       2.238  -4.848   4.359  0.00  0.00    -0.005 A 
ATOM      6  C5  UNL d   1       1.141  -4.420   3.614  0.00  0.00     0.003 A 
ATOM      7  C6  UNL d   1       1.114  -3.128   3.088  0.00  0.00    -0.001 A 
ENDROOT
TORSDOF 0
ENDMDL
