MODEL 1
REMARK minimizedAffinity -2.91053748
REMARK minimizedRMSD -1
REMARK  0 active torsions:
REMARK  status: ('A' for Active; 'I' for Inactive)
ROOT
ATOM      1  C   UNL d   1       1.526  -5.966  -5.997  0.00  0.00     0.078 C 
ATOM      2  C1  UNL d   1       2.743  -5.983  -5.122  0.00  0.00    -0.077 A 
ATOM      3  C2  UNL d   1       2.628  -5.993  -3.727  0.00  0.00    -0.001 A 
ATOM      4  C3  UNL d   1       3.771  -6.000  -2.924  0.00  0.00     0.003 A 
ATOM      5  C4  UNL d   1       5.036  -5.995  -3.508  0.00  0.00    -0.005 A 
ATOM      6  C5  UNL d   1       5.160  -5.983  -4.896  0.00  0.00     0.003 A 
ATOM      7  C6  UNL d   1       4.019  -5.977  -5.700  0.00  0.00    -0.001 A 
ENDROOT
TORSDOF 0
ENDMDL
