MODEL 1
REMARK minimizedAffinity -2.68651247
REMARK minimizedRMSD -1
REMARK  0 active torsions:
REMARK  status: ('A' for Active; 'I' for Inactive)
ROOT
ATOM      1  C   UNL d   1       2.001  -5.990  -1.449  0.00  0.00     0.078 C 
ATOM      2  C1  UNL d   1       2.576  -6.000  -2.834  0.00  0.00    -0.077 A 
ATOM      3  C2  UNL d   1       3.961  -5.998  -3.040  0.00  0.00    -0.001 A 
ATOM      4  C3  UNL d   1       4.483  -5.997  -4.334  0.00  0.00     0.003 A 
ATOM      5  C4  UNL d   1       3.626  -5.998  -5.434  0.00  0.00    -0.005 A 
ATOM      6  C5  UNL d   1       2.246  -5.998  -5.239  0.00  0.00     0.003 A 
ATOM      7  C6  UNL d   1       1.723  -5.998  -3.945  0.00  0.00    -0.001 A 
ENDROOT
TORSDOF 0
ENDMDL
