MODEL 1
REMARK minimizedAffinity 1.58507407
REMARK minimizedRMSD -1
REMARK  0 active torsions:
REMARK  status: ('A' for Active; 'I' for Inactive)
ROOT
ATOM      1  C   UNL d   1       0.415  -2.198   0.018  0.00  0.00     0.078 C 
ATOM      2  C1  UNL d   1      -0.877  -2.172  -0.743  0.00  0.00    -0.077 A 
ATOM      3  C2  UNL d   1      -1.183  -1.113  -1.606  0.00  0.00    -0.001 A 
ATOM      4  C3  UNL d   1      -2.394  -1.096  -2.301  0.00  0.00     0.003 A 
ATOM      5  C4  UNL d   1      -3.308  -2.135  -2.138  0.00  0.00    -0.005 A 
ATOM      6  C5  UNL d   1      -3.013  -3.192  -1.280  0.00  0.00     0.003 A 
ATOM      7  C6  UNL d   1      -1.803  -3.210  -0.584  0.00  0.00    -0.001 A 
ENDROOT
TORSDOF 0
ENDMDL
