MODEL 1
REMARK minimizedAffinity 2.29497099
REMARK minimizedRMSD -1
REMARK  0 active torsions:
REMARK  status: ('A' for Active; 'I' for Inactive)
ROOT
ATOM      1  C   UNL d   1      -5.961   5.241  -1.085  0.00  0.00     0.078 C 
ATOM      2  C1  UNL d   1      -5.346   4.131  -0.287  0.00  0.00    -0.077 A 
ATOM      3  C2  UNL d   1      -5.963   3.649   0.874  0.00  0.00    -0.001 A 
ATOM      4  C3  UNL d   1      -5.374   2.622   1.613  0.00  0.00     0.003 A 
ATOM      5  C4  UNL d   1      -4.164   2.068   1.199  0.00  0.00    -0.005 A 
ATOM      6  C5  UNL d   1      -3.542   2.542   0.047  0.00  0.00     0.003 A 
ATOM      7  C6  UNL d   1      -4.129   3.569  -0.693  0.00  0.00    -0.001 A 
ENDROOT
TORSDOF 0
ENDMDL
