MODEL 1
REMARK minimizedAffinity 8.25689316
REMARK minimizedRMSD -1
REMARK  0 active torsions:
REMARK  status: ('A' for Active; 'I' for Inactive)
ROOT
ATOM      1  C   UNL d   1      -2.586   3.350  -1.537  0.00  0.00     0.078 C 
ATOM      2  C1  UNL d   1      -3.684   3.341  -0.516  0.00  0.00    -0.077 A 
ATOM      3  C2  UNL d   1      -3.456   2.876   0.785  0.00  0.00    -0.001 A 
ATOM      4  C3  UNL d   1      -4.490   2.864   1.722  0.00  0.00     0.003 A 
ATOM      5  C4  UNL d   1      -5.760   3.316   1.368  0.00  0.00    -0.005 A 
ATOM      6  C5  UNL d   1      -5.997   3.778   0.075  0.00  0.00     0.003 A 
ATOM      7  C6  UNL d   1      -4.965   3.791  -0.863  0.00  0.00    -0.001 A 
ENDROOT
TORSDOF 0
ENDMDL
