MODEL 1
REMARK minimizedAffinity 7.01273012
REMARK minimizedRMSD -1
REMARK  0 active torsions:
REMARK  status: ('A' for Active; 'I' for Inactive)
ROOT
ATOM      1  C   UNL d   1       1.494  -2.905   2.997  0.00  0.00     0.078 C 
ATOM      2  C1  UNL d   1       1.532  -3.977   4.045  0.00  0.00    -0.077 A 
ATOM      3  C2  UNL d   1       2.720  -4.282   4.721  0.00  0.00    -0.001 A 
ATOM      4  C3  UNL d   1       2.743  -5.289   5.688  0.00  0.00     0.003 A 
ATOM      5  C4  UNL d   1       1.582  -6.000   5.986  0.00  0.00    -0.005 A 
ATOM      6  C5  UNL d   1       0.396  -5.704   5.317  0.00  0.00     0.003 A 
ATOM      7  C6  UNL d   1       0.371  -4.698   4.350  0.00  0.00    -0.001 A 
ENDROOT
TORSDOF 0
ENDMDL
