MODEL 1
REMARK minimizedAffinity -3.05689669
REMARK minimizedRMSD -1
REMARK  0 active torsions:
REMARK  status: ('A' for Active; 'I' for Inactive)
ROOT
ATOM      1  C   UNL d   1       0.194  -0.645  -0.273  0.00  0.00    -0.002 A 
ATOM      2  C1  UNL d   1      -0.239   0.021  -1.411  0.00  0.00     0.010 A 
ATOM      3  C2  UNL d   1       0.039   1.378  -1.589  0.00  0.00     0.041 A 
ATOM      4  C3  UNL d   1       0.769   2.060  -0.596  0.00  0.00    -0.075 A 
ATOM      5  S   UNL d   1       1.228   3.722  -0.600  0.00  0.00     0.015 SA
ATOM      6  C4  UNL d   1       2.011   3.587   0.908  0.00  0.00     0.022 A 
ATOM      7  C5  UNL d   1       1.933   2.312   1.416  0.00  0.00     0.026 A 
ATOM      8  C6  UNL d   1       1.217   1.411   0.558  0.00  0.00    -0.082 A 
ATOM      9  C7  UNL d   1       0.918   0.036   0.710  0.00  0.00     0.045 A 
ENDROOT
TORSDOF 0
ENDMDL
