MODEL 1
REMARK minimizedAffinity -3.72708344
REMARK minimizedRMSD -1
REMARK  0 active torsions:
REMARK  status: ('A' for Active; 'I' for Inactive)
ROOT
ATOM      1  C   UNL d   1      -0.323  -3.361   0.606  0.00  0.00    -0.002 A 
ATOM      2  C1  UNL d   1       0.892  -3.029   0.024  0.00  0.00     0.010 A 
ATOM      3  C2  UNL d   1       1.171  -1.709  -0.335  0.00  0.00     0.041 A 
ATOM      4  C3  UNL d   1       0.199  -0.718  -0.095  0.00  0.00    -0.075 A 
ATOM      5  S   UNL d   1       0.320   0.965  -0.451  0.00  0.00     0.015 SA
ATOM      6  C4  UNL d   1      -1.238   1.283   0.162  0.00  0.00     0.022 A 
ATOM      7  C5  UNL d   1      -1.851   0.145   0.630  0.00  0.00     0.026 A 
ATOM      8  C6  UNL d   1      -1.032  -1.027   0.490  0.00  0.00    -0.082 A 
ATOM      9  C7  UNL d   1      -1.285  -2.375   0.842  0.00  0.00     0.045 A 
ENDROOT
TORSDOF 0
ENDMDL
