MODEL 1
REMARK minimizedAffinity -2.14244866
REMARK minimizedRMSD -1
REMARK  0 active torsions:
REMARK  status: ('A' for Active; 'I' for Inactive)
ROOT
ATOM      1  C   UNL d   1      -1.266  -2.100   1.574  0.00  0.00    -0.002 A 
ATOM      2  C1  UNL d   1      -1.203  -0.823   2.113  0.00  0.00     0.010 A 
ATOM      3  C2  UNL d   1      -0.702   0.241   1.361  0.00  0.00     0.041 A 
ATOM      4  C3  UNL d   1      -0.263  -0.001   0.045  0.00  0.00    -0.075 A 
ATOM      5  S   UNL d   1       0.388   1.149  -1.063  0.00  0.00     0.015 SA
ATOM      6  C4  UNL d   1       0.596  -0.028  -2.278  0.00  0.00     0.022 A 
ATOM      7  C5  UNL d   1       0.185  -1.273  -1.866  0.00  0.00     0.026 A 
ATOM      8  C6  UNL d   1      -0.317  -1.279  -0.521  0.00  0.00    -0.082 A 
ATOM      9  C7  UNL d   1      -0.829  -2.337   0.268  0.00  0.00     0.045 A 
ENDROOT
TORSDOF 0
ENDMDL
