MODEL 1
REMARK minimizedAffinity -3.44816589
REMARK minimizedRMSD -1
REMARK  0 active torsions:
REMARK  status: ('A' for Active; 'I' for Inactive)
ROOT
ATOM      1  C   UNL d   1      -0.965  -2.224   1.744  0.00  0.00    -0.002 A 
ATOM      2  C1  UNL d   1      -1.125  -1.120   2.568  0.00  0.00     0.010 A 
ATOM      3  C2  UNL d   1      -0.822   0.162   2.105  0.00  0.00     0.041 A 
ATOM      4  C3  UNL d   1      -0.351   0.317   0.786  0.00  0.00    -0.075 A 
ATOM      5  S   UNL d   1       0.083   1.790   0.003  0.00  0.00     0.015 SA
ATOM      6  C4  UNL d   1       0.490   0.988  -1.444  0.00  0.00     0.022 A 
ATOM      7  C5  UNL d   1       0.306  -0.371  -1.350  0.00  0.00     0.026 A 
ATOM      8  C6  UNL d   1      -0.183  -0.781  -0.063  0.00  0.00    -0.082 A 
ATOM      9  C7  UNL d   1      -0.498  -2.067   0.436  0.00  0.00     0.045 A 
ENDROOT
TORSDOF 0
ENDMDL
