MODEL 1
REMARK minimizedAffinity -4.68493319
REMARK minimizedRMSD -1
REMARK  0 active torsions:
REMARK  status: ('A' for Active; 'I' for Inactive)
ROOT
ATOM      1  C   UNL d   1      -0.250  -1.705   1.874  0.00  0.00    -0.002 A 
ATOM      2  C1  UNL d   1      -0.421  -2.117   0.560  0.00  0.00     0.010 A 
ATOM      3  C2  UNL d   1      -0.265  -1.214  -0.493  0.00  0.00     0.041 A 
ATOM      4  C3  UNL d   1       0.071   0.123  -0.201  0.00  0.00    -0.075 A 
ATOM      5  S   UNL d   1       0.314   1.404  -1.329  0.00  0.00     0.015 SA
ATOM      6  C4  UNL d   1       0.651   2.528  -0.094  0.00  0.00     0.022 A 
ATOM      7  C5  UNL d   1       0.584   1.957   1.155  0.00  0.00     0.026 A 
ATOM      8  C6  UNL d   1       0.249   0.561   1.114  0.00  0.00    -0.082 A 
ATOM      9  C7  UNL d   1       0.083  -0.378   2.160  0.00  0.00     0.045 A 
ENDROOT
TORSDOF 0
ENDMDL
