MODEL 1
REMARK minimizedAffinity -0.491686016
REMARK minimizedRMSD -1
REMARK  0 active torsions:
REMARK  status: ('A' for Active; 'I' for Inactive)
ROOT
ATOM      1  C   UNL d   1      -0.815  -1.475   1.568  0.00  0.00    -0.002 A 
ATOM      2  C1  UNL d   1      -0.305  -0.251   1.159  0.00  0.00     0.010 A 
ATOM      3  C2  UNL d   1       0.125  -0.065  -0.157  0.00  0.00     0.041 A 
ATOM      4  C3  UNL d   1       0.031  -1.140  -1.063  0.00  0.00    -0.075 A 
ATOM      5  S   UNL d   1       0.495  -1.143  -2.723  0.00  0.00     0.015 SA
ATOM      6  C4  UNL d   1       0.026  -2.769  -2.928  0.00  0.00     0.022 A 
ATOM      7  C5  UNL d   1      -0.474  -3.311  -1.769  0.00  0.00     0.026 A 
ATOM      8  C6  UNL d   1      -0.481  -2.381  -0.674  0.00  0.00    -0.082 A 
ATOM      9  C7  UNL d   1      -0.907  -2.539   0.666  0.00  0.00     0.045 A 
ENDROOT
TORSDOF 0
ENDMDL
