MODEL 1
REMARK minimizedAffinity -0.404964238
REMARK minimizedRMSD -1
REMARK  0 active torsions:
REMARK  status: ('A' for Active; 'I' for Inactive)
ROOT
ATOM      1  C   UNL d   1       0.549  -3.345  -0.355  0.00  0.00    -0.002 A 
ATOM      2  C1  UNL d   1      -0.541  -3.547   0.479  0.00  0.00     0.010 A 
ATOM      3  C2  UNL d   1      -1.092  -2.485   1.199  0.00  0.00     0.041 A 
ATOM      4  C3  UNL d   1      -0.524  -1.203   1.063  0.00  0.00    -0.075 A 
ATOM      5  S   UNL d   1      -1.032   0.247   1.846  0.00  0.00     0.015 SA
ATOM      6  C4  UNL d   1       0.186   1.170   1.091  0.00  0.00     0.022 A 
ATOM      7  C5  UNL d   1       0.970   0.406   0.259  0.00  0.00     0.026 A 
ATOM      8  C6  UNL d   1       0.574  -0.974   0.229  0.00  0.00    -0.082 A 
ATOM      9  C7  UNL d   1       1.110  -2.071  -0.487  0.00  0.00     0.045 A 
ENDROOT
TORSDOF 0
ENDMDL
