MODEL 1
REMARK minimizedAffinity 0.03597885
REMARK minimizedRMSD -1
REMARK  0 active torsions:
REMARK  status: ('A' for Active; 'I' for Inactive)
ROOT
ATOM      1  C   UNL d   1       0.386  -0.009  -2.470  0.00  0.00    -0.002 A 
ATOM      2  C1  UNL d   1       0.028   1.039  -1.634  0.00  0.00     0.010 A 
ATOM      3  C2  UNL d   1      -0.224   0.813  -0.280  0.00  0.00     0.041 A 
ATOM      4  C3  UNL d   1      -0.107  -0.497   0.226  0.00  0.00    -0.075 A 
ATOM      5  S   UNL d   1      -0.367  -1.010   1.851  0.00  0.00     0.015 SA
ATOM      6  C4  UNL d   1      -0.008  -2.633   1.474  0.00  0.00     0.022 A 
ATOM      7  C5  UNL d   1       0.304  -2.797   0.145  0.00  0.00     0.026 A 
ATOM      8  C6  UNL d   1       0.252  -1.568  -0.596  0.00  0.00    -0.082 A 
ATOM      9  C7  UNL d   1       0.500  -1.307  -1.965  0.00  0.00     0.045 A 
ENDROOT
TORSDOF 0
ENDMDL
