MODEL 1
REMARK minimizedAffinity 8.80124283
REMARK minimizedRMSD -1
REMARK  0 active torsions:
REMARK  status: ('A' for Active; 'I' for Inactive)
ROOT
ATOM      1  C   UNL d   1      -1.761  -3.393   4.494  0.00  0.00     0.020 A 
ATOM      2  C1  UNL d   1      -2.028  -2.524   5.551  0.00  0.00     0.020 A 
ATOM      3  C2  UNL d   1      -3.340  -2.354   6.000  0.00  0.00     0.034 A 
ATOM      4  C3  UNL d   1      -4.388  -3.055   5.392  0.00  0.00     0.017 A 
ATOM      5  C4  UNL d   1      -4.118  -3.927   4.332  0.00  0.00     0.017 A 
ATOM      6  C5  UNL d   1      -2.803  -4.093   3.886  0.00  0.00     0.034 A 
ATOM      7 Cl   UNL d   1      -5.359  -4.826   3.532  0.00  0.00    -0.070 Cl
ATOM      8 Cl1  UNL d   1      -5.985  -2.797   6.000  0.00  0.00    -0.070 Cl
ENDROOT
TORSDOF 0
ENDMDL
