MODEL 1
REMARK minimizedAffinity 21.5820713
REMARK minimizedRMSD -1
REMARK  0 active torsions:
REMARK  status: ('A' for Active; 'I' for Inactive)
ROOT
ATOM      1  C   UNL d   1       1.135   6.000  -4.780  0.00  0.00     0.020 A 
ATOM      2  C1  UNL d   1       2.214   5.830  -3.913  0.00  0.00     0.020 A 
ATOM      3  C2  UNL d   1       2.209   4.782  -2.990  0.00  0.00     0.034 A 
ATOM      4  C3  UNL d   1       1.124   3.899  -2.932  0.00  0.00     0.017 A 
ATOM      5  C4  UNL d   1       0.042   4.071  -3.803  0.00  0.00     0.017 A 
ATOM      6  C5  UNL d   1       0.052   5.122  -4.725  0.00  0.00     0.034 A 
ATOM      7 Cl   UNL d   1      -1.333   3.023  -3.792  0.00  0.00    -0.070 Cl
ATOM      8 Cl1  UNL d   1       1.185   2.625  -1.767  0.00  0.00    -0.070 Cl
ENDROOT
TORSDOF 0
ENDMDL
