MODEL 1
REMARK minimizedAffinity 15.1919441
REMARK minimizedRMSD -1
REMARK  0 active torsions:
REMARK  status: ('A' for Active; 'I' for Inactive)
ROOT
ATOM      1  C   UNL d   1      -0.256   2.336   0.296  0.00  0.00     0.020 A 
ATOM      2  C1  UNL d   1      -1.450   2.057  -0.368  0.00  0.00     0.020 A 
ATOM      3  C2  UNL d   1      -1.660   2.543  -1.660  0.00  0.00     0.034 A 
ATOM      4  C3  UNL d   1      -0.675   3.310  -2.293  0.00  0.00     0.017 A 
ATOM      5  C4  UNL d   1       0.524   3.589  -1.625  0.00  0.00     0.017 A 
ATOM      6  C5  UNL d   1       0.729   3.100  -0.331  0.00  0.00     0.034 A 
ATOM      7 Cl   UNL d   1       1.786   4.527  -2.341  0.00  0.00    -0.070 Cl
ATOM      8 Cl1  UNL d   1      -1.001   3.878  -3.891  0.00  0.00    -0.070 Cl
ENDROOT
TORSDOF 0
ENDMDL
