MODEL 1
REMARK minimizedAffinity 17.4411011
REMARK minimizedRMSD -1
REMARK  0 active torsions:
REMARK  status: ('A' for Active; 'I' for Inactive)
ROOT
ATOM      1  C   UNL d   1      -1.084   1.694   0.448  0.00  0.00     0.020 A 
ATOM      2  C1  UNL d   1       0.195   2.109   0.815  0.00  0.00     0.020 A 
ATOM      3  C2  UNL d   1       0.965   2.865  -0.071  0.00  0.00     0.034 A 
ATOM      4  C3  UNL d   1       0.456   3.208  -1.329  0.00  0.00     0.017 A 
ATOM      5  C4  UNL d   1      -0.828   2.790  -1.697  0.00  0.00     0.017 A 
ATOM      6  C5  UNL d   1      -1.595   2.034  -0.805  0.00  0.00     0.034 A 
ATOM      7 Cl   UNL d   1      -1.524   3.175  -3.232  0.00  0.00    -0.070 Cl
ATOM      8 Cl1  UNL d   1       1.464   4.145  -2.375  0.00  0.00    -0.070 Cl
ENDROOT
TORSDOF 0
ENDMDL
