MODEL 1
REMARK minimizedAffinity 17.0964813
REMARK minimizedRMSD -1
REMARK  0 active torsions:
REMARK  status: ('A' for Active; 'I' for Inactive)
ROOT
ATOM      1  C   UNL d   1      -5.851   6.000  -0.500  0.00  0.00     0.020 A 
ATOM      2  C1  UNL d   1      -5.246   5.767   0.735  0.00  0.00     0.020 A 
ATOM      3  C2  UNL d   1      -4.026   5.091   0.799  0.00  0.00     0.034 A 
ATOM      4  C3  UNL d   1      -3.406   4.647  -0.374  0.00  0.00     0.017 A 
ATOM      5  C4  UNL d   1      -4.013   4.881  -1.613  0.00  0.00     0.017 A 
ATOM      6  C5  UNL d   1      -5.235   5.558  -1.671  0.00  0.00     0.034 A 
ATOM      7 Cl   UNL d   1      -3.308   4.363  -3.104  0.00  0.00    -0.070 Cl
ATOM      8 Cl1  UNL d   1      -1.897   3.818  -0.221  0.00  0.00    -0.070 Cl
ENDROOT
TORSDOF 0
ENDMDL
