MODEL 1
REMARK minimizedAffinity 21.8624191
REMARK minimizedRMSD -1
REMARK  0 active torsions:
REMARK  status: ('A' for Active; 'I' for Inactive)
ROOT
ATOM      1  C   UNL d   1       0.735   5.999  -4.618  0.00  0.00     0.020 A 
ATOM      2  C1  UNL d   1       1.810   5.919  -3.733  0.00  0.00     0.020 A 
ATOM      3  C2  UNL d   1       1.805   4.965  -2.713  0.00  0.00     0.034 A 
ATOM      4  C3  UNL d   1       0.723   4.088  -2.575  0.00  0.00     0.017 A 
ATOM      5  C4  UNL d   1      -0.355   4.169  -3.464  0.00  0.00     0.017 A 
ATOM      6  C5  UNL d   1      -0.345   5.126  -4.483  0.00  0.00     0.034 A 
ATOM      7 Cl   UNL d   1      -1.725   3.121  -3.357  0.00  0.00    -0.070 Cl
ATOM      8 Cl1  UNL d   1       0.784   2.933  -1.291  0.00  0.00    -0.070 Cl
ENDROOT
TORSDOF 0
ENDMDL
