MODEL 1
REMARK minimizedAffinity 20.6711292
REMARK minimizedRMSD -1
REMARK  0 active torsions:
REMARK  status: ('A' for Active; 'I' for Inactive)
ROOT
ATOM      1  C   UNL d   1       1.075   6.000  -5.679  0.00  0.00     0.020 A 
ATOM      2  C1  UNL d   1       2.243   6.000  -4.918  0.00  0.00     0.020 A 
ATOM      3  C2  UNL d   1       2.357   5.153  -3.813  0.00  0.00     0.034 A 
ATOM      4  C3  UNL d   1       1.300   4.304  -3.465  0.00  0.00     0.017 A 
ATOM      5  C4  UNL d   1       0.127   4.305  -4.230  0.00  0.00     0.017 A 
ATOM      6  C5  UNL d   1       0.019   5.154  -5.335  0.00  0.00     0.034 A 
ATOM      7 Cl   UNL d   1      -1.219   3.286  -3.863  0.00  0.00    -0.070 Cl
ATOM      8 Cl1  UNL d   1       1.509   3.284  -2.087  0.00  0.00    -0.070 Cl
ENDROOT
TORSDOF 0
ENDMDL
