MODEL 1
REMARK minimizedAffinity 15.3291855
REMARK minimizedRMSD -1
REMARK  0 active torsions:
REMARK  status: ('A' for Active; 'I' for Inactive)
ROOT
ATOM      1  C   UNL d   1      -5.999   2.227  -4.100  0.00  0.00     0.020 A 
ATOM      2  C1  UNL d   1      -5.034   1.238  -4.290  0.00  0.00     0.020 A 
ATOM      3  C2  UNL d   1      -3.692   1.510  -4.020  0.00  0.00     0.034 A 
ATOM      4  C3  UNL d   1      -3.310   2.775  -3.556  0.00  0.00     0.017 A 
ATOM      5  C4  UNL d   1      -4.279   3.766  -3.365  0.00  0.00     0.017 A 
ATOM      6  C5  UNL d   1      -5.622   3.488  -3.638  0.00  0.00     0.034 A 
ATOM      7 Cl   UNL d   1      -3.884   5.350  -2.796  0.00  0.00    -0.070 Cl
ATOM      8 Cl1  UNL d   1      -1.632   3.042  -3.241  0.00  0.00    -0.070 Cl
ENDROOT
TORSDOF 0
ENDMDL
