MODEL 1
REMARK minimizedAffinity 15.822979
REMARK minimizedRMSD -1
REMARK  0 active torsions:
REMARK  status: ('A' for Active; 'I' for Inactive)
ROOT
ATOM      1  C   UNL d   1       1.141   5.979  -5.124  0.00  0.00     0.020 A 
ATOM      2  C1  UNL d   1       2.144   6.000  -4.156  0.00  0.00     0.020 A 
ATOM      3  C2  UNL d   1       2.036   5.193  -3.021  0.00  0.00     0.034 A 
ATOM      4  C3  UNL d   1       0.923   4.362  -2.852  0.00  0.00     0.017 A 
ATOM      5  C4  UNL d   1      -0.084   4.342  -3.824  0.00  0.00     0.017 A 
ATOM      6  C5  UNL d   1       0.029   5.152  -4.958  0.00  0.00     0.034 A 
ATOM      7 Cl   UNL d   1      -1.487   3.342  -3.685  0.00  0.00    -0.070 Cl
ATOM      8 Cl1  UNL d   1       0.855   3.390  -1.425  0.00  0.00    -0.070 Cl
ENDROOT
TORSDOF 0
ENDMDL
