MODEL 1
REMARK minimizedAffinity 11.3552113
REMARK minimizedRMSD -1
REMARK  0 active torsions:
REMARK  status: ('A' for Active; 'I' for Inactive)
ROOT
ATOM      1  C   UNL d   1       0.187   3.028  -0.419  0.00  0.00     0.020 A 
ATOM      2  C1  UNL d   1      -0.858   2.282   0.124  0.00  0.00     0.020 A 
ATOM      3  C2  UNL d   1      -1.884   1.813  -0.701  0.00  0.00     0.034 A 
ATOM      4  C3  UNL d   1      -1.866   2.090  -2.073  0.00  0.00     0.017 A 
ATOM      5  C4  UNL d   1      -0.817   2.839  -2.617  0.00  0.00     0.017 A 
ATOM      6  C5  UNL d   1       0.207   3.306  -1.787  0.00  0.00     0.034 A 
ATOM      7 Cl   UNL d   1      -0.726   3.222  -4.300  0.00  0.00    -0.070 Cl
ATOM      8 Cl1  UNL d   1      -3.166   1.479  -3.033  0.00  0.00    -0.070 Cl
ENDROOT
TORSDOF 0
ENDMDL
