MODEL 1
REMARK minimizedAffinity 6.34951591
REMARK minimizedRMSD -1
REMARK  0 active torsions:
REMARK  status: ('A' for Active; 'I' for Inactive)
ROOT
ATOM      1  C   UNL d   1       3.305  -2.204  -5.999  0.00  0.00     0.020 A 
ATOM      2  C1  UNL d   1       1.967  -2.180  -5.608  0.00  0.00     0.020 A 
ATOM      3  C2  UNL d   1       1.558  -2.882  -4.472  0.00  0.00     0.034 A 
ATOM      4  C3  UNL d   1       2.489  -3.612  -3.724  0.00  0.00     0.017 A 
ATOM      5  C4  UNL d   1       3.832  -3.635  -4.117  0.00  0.00     0.017 A 
ATOM      6  C5  UNL d   1       4.235  -2.930  -5.255  0.00  0.00     0.034 A 
ATOM      7 Cl   UNL d   1       5.038  -4.513  -3.244  0.00  0.00    -0.070 Cl
ATOM      8 Cl1  UNL d   1       1.914  -4.457  -2.330  0.00  0.00    -0.070 Cl
ENDROOT
TORSDOF 0
ENDMDL
