MODEL 1
REMARK minimizedAffinity 15.5192766
REMARK minimizedRMSD -1
REMARK  0 active torsions:
REMARK  status: ('A' for Active; 'I' for Inactive)
ROOT
ATOM      1  C   UNL d   1      -0.930   1.559   0.964  0.00  0.00     0.020 A 
ATOM      2  C1  UNL d   1       0.387   1.927   1.237  0.00  0.00     0.020 A 
ATOM      3  C2  UNL d   1       1.110   2.676   0.306  0.00  0.00     0.034 A 
ATOM      4  C3  UNL d   1       0.517   3.060  -0.902  0.00  0.00     0.017 A 
ATOM      5  C4  UNL d   1      -0.805   2.690  -1.175  0.00  0.00     0.017 A 
ATOM      6  C5  UNL d   1      -1.524   1.940  -0.240  0.00  0.00     0.034 A 
ATOM      7 Cl   UNL d   1      -1.605   3.126  -2.644  0.00  0.00    -0.070 Cl
ATOM      8 Cl1  UNL d   1       1.470   3.986  -2.007  0.00  0.00    -0.070 Cl
ENDROOT
TORSDOF 0
ENDMDL
