MODEL 1
REMARK minimizedAffinity 17.450861
REMARK minimizedRMSD -1
REMARK  0 active torsions:
REMARK  status: ('A' for Active; 'I' for Inactive)
ROOT
ATOM      1  C   UNL d   1      -3.786   6.000   0.803  0.00  0.00     0.020 A 
ATOM      2  C1  UNL d   1      -4.854   5.622   1.615  0.00  0.00     0.020 A 
ATOM      3  C2  UNL d   1      -5.083   4.270   1.884  0.00  0.00     0.034 A 
ATOM      4  C3  UNL d   1      -4.242   3.293   1.340  0.00  0.00     0.017 A 
ATOM      5  C4  UNL d   1      -3.170   3.673   0.525  0.00  0.00     0.017 A 
ATOM      6  C5  UNL d   1      -2.945   5.027   0.259  0.00  0.00     0.034 A 
ATOM      7 Cl   UNL d   1      -2.089   2.524  -0.182  0.00  0.00    -0.070 Cl
ATOM      8 Cl1  UNL d   1      -4.583   1.641   1.714  0.00  0.00    -0.070 Cl
ENDROOT
TORSDOF 0
ENDMDL
