MODEL 1
REMARK minimizedAffinity 14.299387
REMARK minimizedRMSD -1
REMARK  0 active torsions:
REMARK  status: ('A' for Active; 'I' for Inactive)
ROOT
ATOM      1  C   UNL d   1       2.233  -1.555  -4.861  0.00  0.00     0.020 A 
ATOM      2  C1  UNL d   1       1.631  -2.090  -5.999  0.00  0.00     0.020 A 
ATOM      3  C2  UNL d   1       1.194  -3.416  -6.000  0.00  0.00     0.034 A 
ATOM      4  C3  UNL d   1       1.359  -4.212  -4.861  0.00  0.00     0.017 A 
ATOM      5  C4  UNL d   1       1.964  -3.675  -3.719  0.00  0.00     0.017 A 
ATOM      6  C5  UNL d   1       2.399  -2.346  -3.724  0.00  0.00     0.034 A 
ATOM      7 Cl   UNL d   1       2.202  -4.595  -2.275  0.00  0.00    -0.070 Cl
ATOM      8 Cl1  UNL d   1       0.795  -5.844  -4.932  0.00  0.00    -0.070 Cl
ENDROOT
TORSDOF 0
ENDMDL
