MODEL 1
REMARK minimizedAffinity 15.306036
REMARK minimizedRMSD -1
REMARK  0 active torsions:
REMARK  status: ('A' for Active; 'I' for Inactive)
ROOT
ATOM      1  C   UNL d   1      -5.718   5.937   3.736  0.00  0.00     0.020 A 
ATOM      2  C1  UNL d   1      -4.399   5.945   4.188  0.00  0.00     0.020 A 
ATOM      3  C2  UNL d   1      -3.346   5.964   3.271  0.00  0.00     0.034 A 
ATOM      4  C3  UNL d   1      -3.611   5.973   1.896  0.00  0.00     0.017 A 
ATOM      5  C4  UNL d   1      -4.935   5.965   1.443  0.00  0.00     0.017 A 
ATOM      6  C5  UNL d   1      -5.985   5.946   2.366  0.00  0.00     0.034 A 
ATOM      7 Cl   UNL d   1      -5.340   5.976  -0.237  0.00  0.00    -0.070 Cl
ATOM      8 Cl1  UNL d   1      -2.261   5.997   0.818  0.00  0.00    -0.070 Cl
ENDROOT
TORSDOF 0
ENDMDL
