MODEL 1
REMARK minimizedAffinity 14.4077387
REMARK minimizedRMSD -1
REMARK  0 active torsions:
REMARK  status: ('A' for Active; 'I' for Inactive)
ROOT
ATOM      1  C   UNL d   1      -5.997   5.827  -1.064  0.00  0.00     0.020 A 
ATOM      2  C1  UNL d   1      -4.812   5.783  -1.797  0.00  0.00     0.020 A 
ATOM      3  C2  UNL d   1      -3.581   5.805  -1.138  0.00  0.00     0.034 A 
ATOM      4  C3  UNL d   1      -3.532   5.872   0.259  0.00  0.00     0.017 A 
ATOM      5  C4  UNL d   1      -4.722   5.917   0.995  0.00  0.00     0.017 A 
ATOM      6  C5  UNL d   1      -5.952   5.894   0.329  0.00  0.00     0.034 A 
ATOM      7 Cl   UNL d   1      -4.742   6.000   2.721  0.00  0.00    -0.070 Cl
ATOM      8 Cl1  UNL d   1      -1.975   5.897   1.008  0.00  0.00    -0.070 Cl
ENDROOT
TORSDOF 0
ENDMDL
