MODEL 1
REMARK minimizedAffinity 20.8988857
REMARK minimizedRMSD -1
REMARK  0 active torsions:
REMARK  status: ('A' for Active; 'I' for Inactive)
ROOT
ATOM      1  C   UNL d   1      -4.796   5.630  -1.719  0.00  0.00     0.020 A 
ATOM      2  C1  UNL d   1      -6.000   5.621  -1.016  0.00  0.00     0.020 A 
ATOM      3  C2  UNL d   1      -5.995   5.709   0.377  0.00  0.00     0.034 A 
ATOM      4  C3  UNL d   1      -4.784   5.807   1.072  0.00  0.00     0.017 A 
ATOM      5  C4  UNL d   1      -3.576   5.816   0.366  0.00  0.00     0.017 A 
ATOM      6  C5  UNL d   1      -3.587   5.728  -1.030  0.00  0.00     0.034 A 
ATOM      7 Cl   UNL d   1      -2.043   5.935   1.153  0.00  0.00    -0.070 Cl
ATOM      8 Cl1  UNL d   1      -4.853   5.914   2.796  0.00  0.00    -0.070 Cl
ENDROOT
TORSDOF 0
ENDMDL
