MODEL 1
REMARK minimizedAffinity 6.81632423
REMARK minimizedRMSD -1
REMARK  0 active torsions:
REMARK  status: ('A' for Active; 'I' for Inactive)
ROOT
ATOM      1  C   UNL d   1       0.491   5.262  -0.784  0.00  0.00     0.020 A 
ATOM      2  C1  UNL d   1      -0.185   5.448  -1.989  0.00  0.00     0.020 A 
ATOM      3  C2  UNL d   1      -1.004   4.435  -2.493  0.00  0.00     0.034 A 
ATOM      4  C3  UNL d   1      -1.149   3.233  -1.792  0.00  0.00     0.017 A 
ATOM      5  C4  UNL d   1      -0.470   3.047  -0.583  0.00  0.00     0.017 A 
ATOM      6  C5  UNL d   1       0.349   4.064  -0.083  0.00  0.00     0.034 A 
ATOM      7 Cl   UNL d   1      -0.599   1.590   0.338  0.00  0.00    -0.070 Cl
ATOM      8 Cl1  UNL d   1      -2.178   2.024  -2.475  0.00  0.00    -0.070 Cl
ENDROOT
TORSDOF 0
ENDMDL
