MODEL 1
REMARK minimizedAffinity 7.85696507
REMARK minimizedRMSD -1
REMARK  0 active torsions:
REMARK  status: ('A' for Active; 'I' for Inactive)
ROOT
ATOM      1  C   UNL d   1       0.378   3.789  -0.353  0.00  0.00     0.020 A 
ATOM      2  C1  UNL d   1       0.031   5.135  -0.252  0.00  0.00     0.020 A 
ATOM      3  C2  UNL d   1      -0.890   5.688  -1.145  0.00  0.00     0.034 A 
ATOM      4  C3  UNL d   1      -1.466   4.893  -2.143  0.00  0.00     0.017 A 
ATOM      5  C4  UNL d   1      -1.117   3.542  -2.243  0.00  0.00     0.017 A 
ATOM      6  C5  UNL d   1      -0.195   2.994  -1.347  0.00  0.00     0.034 A 
ATOM      7 Cl   UNL d   1      -1.786   2.499  -3.448  0.00  0.00    -0.070 Cl
ATOM      8 Cl1  UNL d   1      -2.598   5.643  -3.213  0.00  0.00    -0.070 Cl
ENDROOT
TORSDOF 0
ENDMDL
