MODEL 1
REMARK minimizedAffinity 10.9972763
REMARK minimizedRMSD -1
REMARK  0 active torsions:
REMARK  status: ('A' for Active; 'I' for Inactive)
ROOT
ATOM      1  C   UNL d   1      -3.076   1.621   2.696  0.00  0.00     0.020 A 
ATOM      2  C1  UNL d   1      -3.037   0.425   1.980  0.00  0.00     0.020 A 
ATOM      3  C2  UNL d   1      -1.827  -0.251   1.815  0.00  0.00     0.034 A 
ATOM      4  C3  UNL d   1      -0.650   0.268   2.365  0.00  0.00     0.017 A 
ATOM      5  C4  UNL d   1      -0.689   1.469   3.083  0.00  0.00     0.017 A 
ATOM      6  C5  UNL d   1      -1.904   2.142   3.246  0.00  0.00     0.034 A 
ATOM      7 Cl   UNL d   1       0.722   2.172   3.792  0.00  0.00    -0.070 Cl
ATOM      8 Cl1  UNL d   1       0.812  -0.621   2.122  0.00  0.00    -0.070 Cl
ENDROOT
TORSDOF 0
ENDMDL
