MODEL 1
REMARK minimizedAffinity 2.90470886
REMARK minimizedRMSD -1
REMARK  1 active torsions:
REMARK  status: ('A' for Active; 'I' for Inactive)
REMARK    1  A    between atoms: C1_2  and  C2_3 
ROOT
ATOM      1  C2  UNL d   1      -2.579  -3.226   4.650  0.00  0.00    -0.077 A 
ATOM      2  C3  UNL d   1      -2.435  -4.504   4.092  0.00  0.00     0.002 A 
ATOM      3  C4  UNL d   1      -1.795  -4.670   2.863  0.00  0.00     0.002 A 
ATOM      4  C5  UNL d   1      -1.290  -3.563   2.183  0.00  0.00    -0.004 A 
ATOM      5  C6  UNL d   1      -1.431  -2.288   2.728  0.00  0.00     0.002 A 
ATOM      6  C7  UNL d   1      -2.071  -2.120   3.957  0.00  0.00     0.002 A 
ENDROOT
BRANCH   1   7
ATOM      7  C1  UNL d   1      -3.225  -3.050   5.999  0.00  0.00     0.055 C 
ATOM      8  C   UNL d   1      -4.695  -3.442   5.964  0.00  0.00     0.019 C 
ENDBRANCH   1   7
TORSDOF 1
ENDMDL
