MODEL 1
REMARK minimizedAffinity 1.45262337
REMARK minimizedRMSD -1
REMARK  1 active torsions:
REMARK  status: ('A' for Active; 'I' for Inactive)
REMARK    1  A    between atoms: C1_2  and  C2_3 
ROOT
ATOM      1  C2  UNL d   1      -4.309   4.388   5.825  0.00  0.00    -0.077 A 
ATOM      2  C3  UNL d   1      -4.882   3.118   5.985  0.00  0.00     0.002 A 
ATOM      3  C4  UNL d   1      -4.096   1.970   5.868  0.00  0.00     0.002 A 
ATOM      4  C5  UNL d   1      -2.735   2.080   5.595  0.00  0.00    -0.004 A 
ATOM      5  C6  UNL d   1      -2.156   3.338   5.433  0.00  0.00     0.002 A 
ATOM      6  C7  UNL d   1      -2.940   4.487   5.548  0.00  0.00     0.002 A 
ENDROOT
BRANCH   1   7
ATOM      7  C1  UNL d   1      -5.144   5.630   6.000  0.00  0.00     0.055 C 
ATOM      8  C   UNL d   1      -5.995   5.902   4.768  0.00  0.00     0.019 C 
ENDBRANCH   1   7
TORSDOF 1
ENDMDL
