MODEL 1
REMARK minimizedAffinity 6.86037827
REMARK minimizedRMSD -1
REMARK  1 active torsions:
REMARK  status: ('A' for Active; 'I' for Inactive)
REMARK    1  A    between atoms: C1_2  and  C2_3 
ROOT
ATOM      1  C2  UNL d   1      -1.306  -1.093  -0.475  0.00  0.00    -0.077 A 
ATOM      2  C3  UNL d   1      -0.757  -2.075   0.361  0.00  0.00     0.002 A 
ATOM      3  C4  UNL d   1      -1.294  -2.305   1.629  0.00  0.00     0.002 A 
ATOM      4  C5  UNL d   1      -2.385  -1.559   2.071  0.00  0.00    -0.004 A 
ATOM      5  C6  UNL d   1      -2.937  -0.578   1.248  0.00  0.00     0.002 A 
ATOM      6  C7  UNL d   1      -2.401  -0.347  -0.019  0.00  0.00     0.002 A 
ENDROOT
BRANCH   1   7
ATOM      7  C1  UNL d   1      -0.760  -0.878  -1.862  0.00  0.00     0.055 C 
ATOM      8  C   UNL d   1       0.359   0.154  -1.862  0.00  0.00     0.019 C 
ENDBRANCH   1   7
TORSDOF 1
ENDMDL
