MODEL 1
REMARK minimizedAffinity 0.489350319
REMARK minimizedRMSD -1
REMARK  1 active torsions:
REMARK  status: ('A' for Active; 'I' for Inactive)
REMARK    1  A    between atoms: C1_2  and  C2_3 
ROOT
ATOM      1  C2  UNL d   1      -2.264   3.721  -4.226  0.00  0.00    -0.077 A 
ATOM      2  C3  UNL d   1      -2.906   4.533  -3.280  0.00  0.00     0.002 A 
ATOM      3  C4  UNL d   1      -3.750   5.566  -3.692  0.00  0.00     0.002 A 
ATOM      4  C5  UNL d   1      -3.964   5.793  -5.050  0.00  0.00    -0.004 A 
ATOM      5  C6  UNL d   1      -3.328   4.993  -5.999  0.00  0.00     0.002 A 
ATOM      6  C7  UNL d   1      -2.483   3.961  -5.588  0.00  0.00     0.002 A 
ENDROOT
BRANCH   1   7
ATOM      7  C1  UNL d   1      -1.391   2.576  -3.783  0.00  0.00     0.055 C 
ATOM      8  C   UNL d   1      -0.065   2.569  -4.529  0.00  0.00     0.019 C 
ENDBRANCH   1   7
TORSDOF 1
ENDMDL
