MODEL 1
REMARK minimizedAffinity -4.53367567
REMARK minimizedRMSD -1
REMARK  1 active torsions:
REMARK  status: ('A' for Active; 'I' for Inactive)
REMARK    1  A    between atoms: C1_2  and  C2_3 
ROOT
ATOM      1  C2  UNL d   1       0.224   0.057   1.270  0.00  0.00    -0.077 A 
ATOM      2  C3  UNL d   1       1.604  -0.087   1.070  0.00  0.00     0.002 A 
ATOM      3  C4  UNL d   1       2.505   0.304   2.062  0.00  0.00     0.002 A 
ATOM      4  C5  UNL d   1       2.037   0.837   3.261  0.00  0.00    -0.004 A 
ATOM      5  C6  UNL d   1       0.666   0.986   3.468  0.00  0.00     0.002 A 
ATOM      6  C7  UNL d   1      -0.237   0.597   2.477  0.00  0.00     0.002 A 
ENDROOT
BRANCH   1   7
ATOM      7  C1  UNL d   1      -0.752  -0.409   0.221  0.00  0.00     0.055 C 
ATOM      8  C   UNL d   1      -2.167  -0.484   0.776  0.00  0.00     0.019 C 
ENDBRANCH   1   7
TORSDOF 1
ENDMDL
