MODEL 1
REMARK minimizedAffinity 9.71986961
REMARK minimizedRMSD -1
REMARK  1 active torsions:
REMARK  status: ('A' for Active; 'I' for Inactive)
REMARK    1  A    between atoms: C1_2  and  C2_3 
ROOT
ATOM      1  C2  UNL d   1      -4.826   3.383   3.016  0.00  0.00    -0.077 A 
ATOM      2  C3  UNL d   1      -4.664   4.197   1.886  0.00  0.00     0.002 A 
ATOM      3  C4  UNL d   1      -5.167   5.499   1.877  0.00  0.00     0.002 A 
ATOM      4  C5  UNL d   1      -5.831   6.000   2.994  0.00  0.00    -0.004 A 
ATOM      5  C6  UNL d   1      -5.999   5.197   4.122  0.00  0.00     0.002 A 
ATOM      6  C7  UNL d   1      -5.498   3.895   4.133  0.00  0.00     0.002 A 
ENDROOT
BRANCH   1   7
ATOM      7  C1  UNL d   1      -4.241   1.995   3.047  0.00  0.00     0.055 C 
ATOM      8  C   UNL d   1      -2.762   2.025   3.404  0.00  0.00     0.019 C 
ENDBRANCH   1   7
TORSDOF 1
ENDMDL
