MODEL 1
REMARK minimizedAffinity -1.99933219
REMARK minimizedRMSD -1
REMARK  1 active torsions:
REMARK  status: ('A' for Active; 'I' for Inactive)
REMARK    1  A    between atoms: C1_2  and  C2_3 
ROOT
ATOM      1  C2  UNL d   1      -3.747   4.676  -5.178  0.00  0.00    -0.077 A 
ATOM      2  C3  UNL d   1      -4.696   5.319  -5.985  0.00  0.00     0.002 A 
ATOM      3  C4  UNL d   1      -5.818   5.920  -5.413  0.00  0.00     0.002 A 
ATOM      4  C5  UNL d   1      -6.000   5.889  -4.032  0.00  0.00    -0.004 A 
ATOM      5  C6  UNL d   1      -5.063   5.250  -3.221  0.00  0.00     0.002 A 
ATOM      6  C7  UNL d   1      -3.941   4.648  -3.791  0.00  0.00     0.002 A 
ENDROOT
BRANCH   1   7
ATOM      7  C1  UNL d   1      -2.510   4.070  -5.789  0.00  0.00     0.055 C 
ATOM      8  C   UNL d   1      -1.906   3.010  -4.879  0.00  0.00     0.019 C 
ENDBRANCH   1   7
TORSDOF 1
ENDMDL
