MODEL 1
REMARK minimizedAffinity 7.13784027
REMARK minimizedRMSD -1
REMARK  1 active torsions:
REMARK  status: ('A' for Active; 'I' for Inactive)
REMARK    1  A    between atoms: C1_2  and  C2_3 
ROOT
ATOM      1  C2  UNL d   1      -0.838  -1.337  -0.425  0.00  0.00    -0.077 A 
ATOM      2  C3  UNL d   1      -1.548  -0.431   0.376  0.00  0.00     0.002 A 
ATOM      3  C4  UNL d   1      -1.600  -0.603   1.761  0.00  0.00     0.002 A 
ATOM      4  C5  UNL d   1      -0.942  -1.676   2.357  0.00  0.00    -0.004 A 
ATOM      5  C6  UNL d   1      -0.235  -2.584   1.569  0.00  0.00     0.002 A 
ATOM      6  C7  UNL d   1      -0.182  -2.415   0.185  0.00  0.00     0.002 A 
ENDROOT
BRANCH   1   7
ATOM      7  C1  UNL d   1      -0.739  -1.126  -1.913  0.00  0.00     0.055 C 
ATOM      8  C   UNL d   1      -1.241  -2.342  -2.679  0.00  0.00     0.019 C 
ENDBRANCH   1   7
TORSDOF 1
ENDMDL
