MODEL 1
REMARK minimizedAffinity 5.2600441
REMARK minimizedRMSD -1
REMARK  1 active torsions:
REMARK  status: ('A' for Active; 'I' for Inactive)
REMARK    1  A    between atoms: C1_2  and  C2_3 
ROOT
ATOM      1  C2  UNL d   1      -5.071   4.520   3.866  0.00  0.00    -0.077 A 
ATOM      2  C3  UNL d   1      -4.462   4.405   2.608  0.00  0.00     0.002 A 
ATOM      3  C4  UNL d   1      -3.651   3.307   2.315  0.00  0.00     0.002 A 
ATOM      4  C5  UNL d   1      -3.446   2.314   3.271  0.00  0.00    -0.004 A 
ATOM      5  C6  UNL d   1      -4.046   2.421   4.525  0.00  0.00     0.002 A 
ATOM      6  C7  UNL d   1      -4.855   3.519   4.821  0.00  0.00     0.002 A 
ENDROOT
BRANCH   1   7
ATOM      7  C1  UNL d   1      -5.985   5.679   4.167  0.00  0.00     0.055 C 
ATOM      8  C   UNL d   1      -6.000   6.000   5.655  0.00  0.00     0.019 C 
ENDBRANCH   1   7
TORSDOF 1
ENDMDL
