MODEL 1
REMARK minimizedAffinity 1.57601619
REMARK minimizedRMSD -1
REMARK  1 active torsions:
REMARK  status: ('A' for Active; 'I' for Inactive)
REMARK    1  A    between atoms: C1_2  and  C2_3 
ROOT
ATOM      1  C2  UNL d   1       5.227   3.244   5.057  0.00  0.00    -0.077 A 
ATOM      2  C3  UNL d   1       4.716   3.827   3.889  0.00  0.00     0.002 A 
ATOM      3  C4  UNL d   1       4.845   5.200   3.670  0.00  0.00     0.002 A 
ATOM      4  C5  UNL d   1       5.489   6.000   4.611  0.00  0.00    -0.004 A 
ATOM      5  C6  UNL d   1       5.999   5.430   5.777  0.00  0.00     0.002 A 
ATOM      6  C7  UNL d   1       5.870   4.058   5.999  0.00  0.00     0.002 A 
ENDROOT
BRANCH   1   7
ATOM      7  C1  UNL d   1       5.133   1.756   5.273  0.00  0.00     0.055 C 
ATOM      8  C   UNL d   1       4.088   1.130   4.360  0.00  0.00     0.019 C 
ENDBRANCH   1   7
TORSDOF 1
ENDMDL
