MODEL 1
REMARK minimizedAffinity 4.09597492
REMARK minimizedRMSD -1
REMARK  1 active torsions:
REMARK  status: ('A' for Active; 'I' for Inactive)
REMARK    1  A    between atoms: C1_2  and  C2_3 
ROOT
ATOM      1  C2  UNL d   1      -0.189   1.586  -3.934  0.00  0.00    -0.077 A 
ATOM      2  C3  UNL d   1       0.794   1.267  -2.987  0.00  0.00     0.002 A 
ATOM      3  C4  UNL d   1       0.574   0.247  -2.058  0.00  0.00     0.002 A 
ATOM      4  C5  UNL d   1      -0.624  -0.463  -2.071  0.00  0.00    -0.004 A 
ATOM      5  C6  UNL d   1      -1.609  -0.151  -3.008  0.00  0.00     0.002 A 
ATOM      6  C7  UNL d   1      -1.392   0.868  -3.936  0.00  0.00     0.002 A 
ENDROOT
BRANCH   1   7
ATOM      7  C1  UNL d   1       0.065   2.652  -4.968  0.00  0.00     0.055 C 
ATOM      8  C   UNL d   1      -1.182   2.930  -5.795  0.00  0.00     0.019 C 
ENDBRANCH   1   7
TORSDOF 1
ENDMDL
