MODEL 1
REMARK minimizedAffinity 18.2703056
REMARK minimizedRMSD -1
REMARK  1 active torsions:
REMARK  status: ('A' for Active; 'I' for Inactive)
REMARK    1  A    between atoms: C1_2  and  C2_3 
ROOT
ATOM      1  C2  UNL d   1      -2.587   1.665   1.397  0.00  0.00    -0.077 A 
ATOM      2  C3  UNL d   1      -1.959   2.553   0.513  0.00  0.00     0.002 A 
ATOM      3  C4  UNL d   1      -1.256   3.656   1.001  0.00  0.00     0.002 A 
ATOM      4  C5  UNL d   1      -1.171   3.878   2.374  0.00  0.00    -0.004 A 
ATOM      5  C6  UNL d   1      -1.793   3.001   3.261  0.00  0.00     0.002 A 
ATOM      6  C7  UNL d   1      -2.498   1.899   2.775  0.00  0.00     0.002 A 
ENDROOT
BRANCH   1   7
ATOM      7  C1  UNL d   1      -3.305   0.447   0.874  0.00  0.00     0.055 C 
ATOM      8  C   UNL d   1      -2.538  -0.827   1.196  0.00  0.00     0.019 C 
ENDBRANCH   1   7
TORSDOF 1
ENDMDL
