MODEL 1
REMARK minimizedAffinity -0.274545044
REMARK minimizedRMSD -1
REMARK  1 active torsions:
REMARK  status: ('A' for Active; 'I' for Inactive)
REMARK    1  A    between atoms: C1_2  and  C2_3 
ROOT
ATOM      1  C2  UNL d   1      -0.922  -1.963  -0.662  0.00  0.00    -0.077 A 
ATOM      2  C3  UNL d   1      -1.296  -0.930  -1.533  0.00  0.00     0.002 A 
ATOM      3  C4  UNL d   1      -0.959   0.394  -1.245  0.00  0.00     0.002 A 
ATOM      4  C5  UNL d   1      -0.243   0.696  -0.089  0.00  0.00    -0.004 A 
ATOM      5  C6  UNL d   1       0.132  -0.324   0.785  0.00  0.00     0.002 A 
ATOM      6  C7  UNL d   1      -0.205  -1.648   0.499  0.00  0.00     0.002 A 
ENDROOT
BRANCH   1   7
ATOM      7  C1  UNL d   1      -1.242  -3.397  -0.996  0.00  0.00     0.055 C 
ATOM      8  C   UNL d   1      -1.470  -4.221   0.262  0.00  0.00     0.019 C 
ENDBRANCH   1   7
TORSDOF 1
ENDMDL
