MODEL 1
REMARK minimizedAffinity -4.17510319
REMARK minimizedRMSD -1
REMARK  1 active torsions:
REMARK  status: ('A' for Active; 'I' for Inactive)
REMARK    1  A    between atoms: C1_2  and  C2_3 
ROOT
ATOM      1  C2  UNL d   1      -0.954   0.484  -1.140  0.00  0.00    -0.081 A 
ATOM      2  C3  UNL d   1      -1.716   0.422   0.033  0.00  0.00     0.006 A 
ATOM      3  C4  UNL d   1      -1.179  -0.129   1.199  0.00  0.00     0.002 A 
ATOM      4  C5  UNL d   1       0.131  -0.620   1.213  0.00  0.00    -0.080 A 
ATOM      5  C6  UNL d   1       0.730  -1.187   2.466  0.00  0.00     0.076 C 
ATOM      6  C7  UNL d   1       0.887  -0.574   0.037  0.00  0.00     0.002 A 
ATOM      7  C8  UNL d   1       0.350  -0.024  -1.129  0.00  0.00     0.006 A 
ENDROOT
BRANCH   1   8
ATOM      8  C1  UNL d   1      -1.507   1.137  -2.381  0.00  0.00     0.054 C 
ATOM      9  C   UNL d   1      -1.296   2.644  -2.354  0.00  0.00     0.018 C 
ENDBRANCH   1   8
TORSDOF 1
ENDMDL
