MODEL 1
REMARK minimizedAffinity -4.02295542
REMARK minimizedRMSD -1
REMARK  1 active torsions:
REMARK  status: ('A' for Active; 'I' for Inactive)
REMARK    1  A    between atoms: C1_2  and  C2_3 
ROOT
ATOM      1  C2  UNL d   1       0.536  -0.179  -0.518  0.00  0.00    -0.081 A 
ATOM      2  C3  UNL d   1       1.660  -1.003  -0.651  0.00  0.00     0.006 A 
ATOM      3  C4  UNL d   1       2.300  -1.515   0.480  0.00  0.00     0.002 A 
ATOM      4  C5  UNL d   1       1.824  -1.217   1.761  0.00  0.00    -0.080 A 
ATOM      5  C6  UNL d   1       2.484  -1.785   2.983  0.00  0.00     0.076 C 
ATOM      6  C7  UNL d   1       0.712  -0.379   1.894  0.00  0.00     0.002 A 
ATOM      7  C8  UNL d   1       0.071   0.133   0.764  0.00  0.00     0.006 A 
ENDROOT
BRANCH   1   8
ATOM      8  C1  UNL d   1      -0.196   0.322  -1.737  0.00  0.00     0.054 C 
ATOM      9  C   UNL d   1      -0.393   1.830  -1.684  0.00  0.00     0.018 C 
ENDBRANCH   1   8
TORSDOF 1
ENDMDL
