MODEL 1
REMARK minimizedAffinity -6.37830019
REMARK minimizedRMSD -1
REMARK  1 active torsions:
REMARK  status: ('A' for Active; 'I' for Inactive)
REMARK    1  A    between atoms: C1_2  and  C2_3 
ROOT
ATOM      1  C2  UNL d   1       0.102  -0.199  -0.694  0.00  0.00    -0.081 A 
ATOM      2  C3  UNL d   1       1.315  -0.888  -0.818  0.00  0.00     0.006 A 
ATOM      3  C4  UNL d   1       2.036  -1.263   0.318  0.00  0.00     0.002 A 
ATOM      4  C5  UNL d   1       1.552  -0.964   1.596  0.00  0.00    -0.080 A 
ATOM      5  C6  UNL d   1       2.301  -1.388   2.824  0.00  0.00     0.076 C 
ATOM      6  C7  UNL d   1       0.349  -0.261   1.720  0.00  0.00     0.002 A 
ATOM      7  C8  UNL d   1      -0.372   0.115   0.584  0.00  0.00     0.006 A 
ENDROOT
BRANCH   1   8
ATOM      8  C1  UNL d   1      -0.710   0.150  -1.915  0.00  0.00     0.054 C 
ATOM      9  C   UNL d   1      -0.658   1.643  -2.205  0.00  0.00     0.018 C 
ENDBRANCH   1   8
TORSDOF 1
ENDMDL
