MODEL 1
REMARK minimizedAffinity -3.86065054
REMARK minimizedRMSD -1
REMARK  1 active torsions:
REMARK  status: ('A' for Active; 'I' for Inactive)
REMARK    1  A    between atoms: C1_2  and  C2_3 
ROOT
ATOM      1  C2  UNL d   1       0.955  -1.514   1.192  0.00  0.00    -0.081 A 
ATOM      2  C3  UNL d   1       1.382  -1.258  -0.117  0.00  0.00     0.006 A 
ATOM      3  C4  UNL d   1       0.559  -0.565  -1.008  0.00  0.00     0.002 A 
ATOM      4  C5  UNL d   1      -0.700  -0.109  -0.603  0.00  0.00    -0.080 A 
ATOM      5  C6  UNL d   1      -1.580   0.663  -1.540  0.00  0.00     0.076 C 
ATOM      6  C7  UNL d   1      -1.134  -0.379   0.699  0.00  0.00     0.002 A 
ATOM      7  C8  UNL d   1      -0.312  -1.073   1.590  0.00  0.00     0.006 A 
ENDROOT
BRANCH   1   8
ATOM      8  C1  UNL d   1       1.866  -2.205   2.174  0.00  0.00     0.054 C 
ATOM      9  C   UNL d   1       2.035  -1.383   3.444  0.00  0.00     0.018 C 
ENDBRANCH   1   8
TORSDOF 1
ENDMDL
