MODEL 1
REMARK minimizedAffinity -4.1374011
REMARK minimizedRMSD -1
REMARK  1 active torsions:
REMARK  status: ('A' for Active; 'I' for Inactive)
REMARK    1  A    between atoms: C1_2  and  C2_3 
ROOT
ATOM      1  C2  UNL d   1      -0.410   0.401  -0.854  0.00  0.00    -0.081 A 
ATOM      2  C3  UNL d   1      -0.434   0.394   0.546  0.00  0.00     0.006 A 
ATOM      3  C4  UNL d   1       0.380  -0.485   1.264  0.00  0.00     0.002 A 
ATOM      4  C5  UNL d   1       1.236  -1.366   0.595  0.00  0.00    -0.080 A 
ATOM      5  C6  UNL d   1       2.138  -2.294   1.354  0.00  0.00     0.076 C 
ATOM      6  C7  UNL d   1       1.247  -1.372  -0.804  0.00  0.00     0.002 A 
ATOM      7  C8  UNL d   1       0.433  -0.494  -1.522  0.00  0.00     0.006 A 
ENDROOT
BRANCH   1   8
ATOM      8  C1  UNL d   1      -1.239   1.392  -1.630  0.00  0.00     0.054 C 
ATOM      9  C   UNL d   1      -0.384   2.533  -2.161  0.00  0.00     0.018 C 
ENDBRANCH   1   8
TORSDOF 1
ENDMDL
