MODEL 1
REMARK minimizedAffinity -3.61787391
REMARK minimizedRMSD -1
REMARK  1 active torsions:
REMARK  status: ('A' for Active; 'I' for Inactive)
REMARK    1  A    between atoms: C1_2  and  C2_3 
ROOT
ATOM      1  C2  UNL d   1       1.402  -2.504   1.918  0.00  0.00    -0.081 A 
ATOM      2  C3  UNL d   1       1.010  -1.484   1.042  0.00  0.00     0.006 A 
ATOM      3  C4  UNL d   1       1.513  -0.189   1.193  0.00  0.00     0.002 A 
ATOM      4  C5  UNL d   1       2.421   0.105   2.216  0.00  0.00    -0.080 A 
ATOM      5  C6  UNL d   1       2.992   1.483   2.370  0.00  0.00     0.076 C 
ATOM      6  C7  UNL d   1       2.800  -0.911   3.101  0.00  0.00     0.002 A 
ATOM      7  C8  UNL d   1       2.297  -2.205   2.951  0.00  0.00     0.006 A 
ENDROOT
BRANCH   1   8
ATOM      8  C1  UNL d   1       0.912  -3.915   1.718  0.00  0.00     0.054 C 
ATOM      9  C   UNL d   1       2.030  -4.826   1.233  0.00  0.00     0.018 C 
ENDBRANCH   1   8
TORSDOF 1
ENDMDL
