MODEL 1
REMARK minimizedAffinity -3.288728
REMARK minimizedRMSD -1
REMARK  0 active torsions:
REMARK  status: ('A' for Active; 'I' for Inactive)
ROOT
ATOM      1  C   UNL d   1       0.323   0.861  -0.138  0.00  0.00     0.172 C 
ATOM      2  N   UNL d   1      -0.161  -0.322   0.535  0.00  0.00    -0.070 N 
ATOM      3  C1  UNL d   1      -1.089  -0.344   1.542  0.00  0.00    -0.004 A 
ATOM      4  C2  UNL d   1      -1.278  -1.658   1.912  0.00  0.00    -0.047 A 
ATOM      5  C3  UNL d   1      -0.434  -2.452   1.101  0.00  0.00    -0.047 A 
ATOM      6  C4  UNL d   1       0.246  -1.600   0.258  0.00  0.00    -0.004 A 
ENDROOT
TORSDOF 0
ENDMDL
