MODEL 1
REMARK minimizedAffinity -3.62150812
REMARK minimizedRMSD -1
REMARK  0 active torsions:
REMARK  status: ('A' for Active; 'I' for Inactive)
ROOT
ATOM      1  C   UNL d   1      -0.010   0.725  -0.449  0.00  0.00     0.172 C 
ATOM      2  N   UNL d   1      -0.055  -0.637   0.027  0.00  0.00    -0.070 N 
ATOM      3  C1  UNL d   1       0.694  -1.677  -0.455  0.00  0.00    -0.004 A 
ATOM      4  C2  UNL d   1       0.360  -2.806   0.261  0.00  0.00    -0.047 A 
ATOM      5  C3  UNL d   1      -0.624  -2.432   1.206  0.00  0.00    -0.047 A 
ATOM      6  C4  UNL d   1      -0.863  -1.084   1.039  0.00  0.00    -0.004 A 
ENDROOT
TORSDOF 0
ENDMDL
