MODEL 1
REMARK minimizedAffinity -3.64166117
REMARK minimizedRMSD -1
REMARK  0 active torsions:
REMARK  status: ('A' for Active; 'I' for Inactive)
ROOT
ATOM      1  C   UNL d   1      -0.694  -0.269   1.660  0.00  0.00     0.172 C 
ATOM      2  N   UNL d   1      -0.285  -1.426   0.899  0.00  0.00    -0.070 N 
ATOM      3  C1  UNL d   1      -0.857  -2.669   0.967  0.00  0.00    -0.004 A 
ATOM      4  C2  UNL d   1      -0.183  -3.492   0.091  0.00  0.00    -0.047 A 
ATOM      5  C3  UNL d   1       0.828  -2.717  -0.525  0.00  0.00    -0.047 A 
ATOM      6  C4  UNL d   1       0.743  -1.443  -0.006  0.00  0.00    -0.004 A 
ENDROOT
TORSDOF 0
ENDMDL
