MODEL 1
REMARK minimizedAffinity -3.44713712
REMARK minimizedRMSD -1
REMARK  0 active torsions:
REMARK  status: ('A' for Active; 'I' for Inactive)
ROOT
ATOM      1  C   UNL d   1       0.660  -3.061   0.019  0.00  0.00     0.172 C 
ATOM      2  N   UNL d   1       0.471  -1.699  -0.423  0.00  0.00    -0.070 N 
ATOM      3  C1  UNL d   1       0.173  -0.632   0.382  0.00  0.00    -0.004 A 
ATOM      4  C2  UNL d   1       0.076   0.486  -0.418  0.00  0.00    -0.047 A 
ATOM      5  C3  UNL d   1       0.324   0.077  -1.750  0.00  0.00    -0.047 A 
ATOM      6  C4  UNL d   1       0.565  -1.280  -1.724  0.00  0.00    -0.004 A 
ENDROOT
TORSDOF 0
ENDMDL
