MODEL 1
REMARK minimizedAffinity -0.766935349
REMARK minimizedRMSD -1
REMARK  0 active torsions:
REMARK  status: ('A' for Active; 'I' for Inactive)
ROOT
ATOM      1  C   UNL d   1      -0.056   0.734  -0.041  0.00  0.00     0.172 C 
ATOM      2  N   UNL d   1      -0.569  -0.593   0.210  0.00  0.00    -0.070 N 
ATOM      3  C1  UNL d   1      -0.451  -1.666  -0.633  0.00  0.00    -0.004 A 
ATOM      4  C2  UNL d   1      -1.069  -2.743  -0.033  0.00  0.00    -0.047 A 
ATOM      5  C3  UNL d   1      -1.576  -2.301   1.212  0.00  0.00    -0.047 A 
ATOM      6  C4  UNL d   1      -1.253  -0.966   1.336  0.00  0.00    -0.004 A 
ENDROOT
TORSDOF 0
ENDMDL
