MODEL 1
REMARK minimizedAffinity -3.06567717
REMARK minimizedRMSD -1
REMARK  0 active torsions:
REMARK  status: ('A' for Active; 'I' for Inactive)
ROOT
ATOM      1  C   UNL d   1       0.664   0.151  -1.821  0.00  0.00     0.172 C 
ATOM      2  N   UNL d   1       0.959   1.299  -0.996  0.00  0.00    -0.070 N 
ATOM      3  C1  UNL d   1       0.055   1.986  -0.231  0.00  0.00    -0.004 A 
ATOM      4  C2  UNL d   1       0.728   3.009   0.402  0.00  0.00    -0.047 A 
ATOM      5  C3  UNL d   1       2.084   2.934   0.003  0.00  0.00    -0.047 A 
ATOM      6  C4  UNL d   1       2.199   1.867  -0.863  0.00  0.00    -0.004 A 
ENDROOT
TORSDOF 0
ENDMDL
