MODEL 1
REMARK minimizedAffinity -0.120080143
REMARK minimizedRMSD -1
REMARK  0 active torsions:
REMARK  status: ('A' for Active; 'I' for Inactive)
ROOT
ATOM      1  C   UNL d   1       4.669  -4.832   5.995  0.00  0.00     0.172 C 
ATOM      2  N   UNL d   1       5.030  -3.543   5.453  0.00  0.00    -0.070 N 
ATOM      3  C1  UNL d   1       5.938  -2.674   5.997  0.00  0.00    -0.004 A 
ATOM      4  C2  UNL d   1       5.998  -1.563   5.184  0.00  0.00    -0.047 A 
ATOM      5  C3  UNL d   1       5.094  -1.771   4.115  0.00  0.00    -0.047 A 
ATOM      6  C4  UNL d   1       4.508  -3.005   4.306  0.00  0.00    -0.004 A 
ENDROOT
TORSDOF 0
ENDMDL
