MODEL 1
REMARK minimizedAffinity -3.50930095
REMARK minimizedRMSD -1
REMARK  0 active torsions:
REMARK  status: ('A' for Active; 'I' for Inactive)
ROOT
ATOM      1  C   UNL d   1       0.149  -2.752   0.404  0.00  0.00     0.172 C 
ATOM      2  N   UNL d   1       0.070  -1.371  -0.008  0.00  0.00    -0.070 N 
ATOM      3  C1  UNL d   1       0.519  -0.866  -1.199  0.00  0.00    -0.004 A 
ATOM      4  C2  UNL d   1       0.260   0.487  -1.209  0.00  0.00    -0.047 A 
ATOM      5  C3  UNL d   1      -0.367   0.807   0.019  0.00  0.00    -0.047 A 
ATOM      6  C4  UNL d   1      -0.472  -0.361   0.743  0.00  0.00    -0.004 A 
ENDROOT
TORSDOF 0
ENDMDL
