MODEL 1
REMARK minimizedAffinity -3.1708343
REMARK minimizedRMSD -1
REMARK  0 active torsions:
REMARK  status: ('A' for Active; 'I' for Inactive)
ROOT
ATOM      1  C   UNL d   1       0.030   1.287   0.072  0.00  0.00     0.172 C 
ATOM      2  N   UNL d   1      -0.169  -0.134   0.231  0.00  0.00    -0.070 N 
ATOM      3  C1  UNL d   1       0.408  -1.112  -0.534  0.00  0.00    -0.004 A 
ATOM      4  C2  UNL d   1      -0.033  -2.331  -0.065  0.00  0.00    -0.047 A 
ATOM      5  C3  UNL d   1      -0.907  -2.076   1.019  0.00  0.00    -0.047 A 
ATOM      6  C4  UNL d   1      -0.973  -0.708   1.181  0.00  0.00    -0.004 A 
ENDROOT
TORSDOF 0
ENDMDL
