MODEL 1
REMARK minimizedAffinity -3.56261826
REMARK minimizedRMSD -1
REMARK  0 active torsions:
REMARK  status: ('A' for Active; 'I' for Inactive)
ROOT
ATOM      1  C   UNL d   1       0.327   0.320   0.166  0.00  0.00     0.172 C 
ATOM      2  N   UNL d   1      -0.117  -0.998   0.553  0.00  0.00    -0.070 N 
ATOM      3  C1  UNL d   1       0.432  -2.180   0.135  0.00  0.00    -0.004 A 
ATOM      4  C2  UNL d   1      -0.273  -3.206   0.727  0.00  0.00    -0.047 A 
ATOM      5  C3  UNL d   1      -1.281  -2.620   1.528  0.00  0.00    -0.047 A 
ATOM      6  C4  UNL d   1      -1.162  -1.252   1.402  0.00  0.00    -0.004 A 
ENDROOT
TORSDOF 0
ENDMDL
