MODEL 1
REMARK minimizedAffinity -3.53738618
REMARK minimizedRMSD -1
REMARK  0 active torsions:
REMARK  status: ('A' for Active; 'I' for Inactive)
ROOT
ATOM      1  C   UNL d   1      -0.010   0.407  -0.295  0.00  0.00     0.172 C 
ATOM      2  N   UNL d   1       0.036  -1.031  -0.425  0.00  0.00    -0.070 N 
ATOM      3  C1  UNL d   1       0.456  -1.719  -1.532  0.00  0.00    -0.004 A 
ATOM      4  C2  UNL d   1       0.349  -3.065  -1.257  0.00  0.00    -0.047 A 
ATOM      5  C3  UNL d   1      -0.153  -3.190   0.060  0.00  0.00    -0.047 A 
ATOM      6  C4  UNL d   1      -0.338  -1.915   0.552  0.00  0.00    -0.004 A 
ENDROOT
TORSDOF 0
ENDMDL
