MODEL 1
REMARK minimizedAffinity -3.68760586
REMARK minimizedRMSD -1
REMARK  0 active torsions:
REMARK  status: ('A' for Active; 'I' for Inactive)
ROOT
ATOM      1  C   UNL d   1      -0.012  -3.106   0.708  0.00  0.00     0.172 C 
ATOM      2  N   UNL d   1      -0.256  -1.696   0.518  0.00  0.00    -0.070 N 
ATOM      3  C1  UNL d   1       0.258  -0.925  -0.490  0.00  0.00    -0.004 A 
ATOM      4  C2  UNL d   1      -0.211   0.360  -0.320  0.00  0.00    -0.047 A 
ATOM      5  C3  UNL d   1      -1.035   0.361   0.830  0.00  0.00    -0.047 A 
ATOM      6  C4  UNL d   1      -1.046  -0.924   1.330  0.00  0.00    -0.004 A 
ENDROOT
TORSDOF 0
ENDMDL
