MODEL 1
REMARK minimizedAffinity -3.76258612
REMARK minimizedRMSD -1
REMARK  0 active torsions:
REMARK  status: ('A' for Active; 'I' for Inactive)
ROOT
ATOM      1  C   UNL d   1       0.562  -1.877  -2.469  0.00  0.00     0.172 C 
ATOM      2  N   UNL d   1       0.236  -1.970  -1.066  0.00  0.00    -0.070 N 
ATOM      3  C1  UNL d   1      -0.158  -3.107  -0.411  0.00  0.00    -0.004 A 
ATOM      4  C2  UNL d   1      -0.372  -2.780   0.910  0.00  0.00    -0.047 A 
ATOM      5  C3  UNL d   1      -0.099  -1.399   1.055  0.00  0.00    -0.047 A 
ATOM      6  C4  UNL d   1       0.275  -0.923  -0.184  0.00  0.00    -0.004 A 
ENDROOT
TORSDOF 0
ENDMDL
