MODEL 1
REMARK minimizedAffinity -3.06810737
REMARK minimizedRMSD -1
REMARK  0 active torsions:
REMARK  status: ('A' for Active; 'I' for Inactive)
ROOT
ATOM      1  C   UNL d   1      -0.101   0.387  -0.164  0.00  0.00     0.172 C 
ATOM      2  N   UNL d   1      -0.607  -0.894   0.270  0.00  0.00    -0.070 N 
ATOM      3  C1  UNL d   1      -1.410  -1.108   1.359  0.00  0.00    -0.004 A 
ATOM      4  C2  UNL d   1      -1.672  -2.459   1.432  0.00  0.00    -0.047 A 
ATOM      5  C3  UNL d   1      -1.002  -3.079   0.350  0.00  0.00    -0.047 A 
ATOM      6  C4  UNL d   1      -0.351  -2.087  -0.352  0.00  0.00    -0.004 A 
ENDROOT
TORSDOF 0
ENDMDL
