MODEL 1
REMARK minimizedAffinity -2.91685343
REMARK minimizedRMSD -1
REMARK  0 active torsions:
REMARK  status: ('A' for Active; 'I' for Inactive)
ROOT
ATOM      1  C   UNL d   1       0.029   0.887   0.066  0.00  0.00     0.172 C 
ATOM      2  N   UNL d   1      -0.327  -0.471   0.405  0.00  0.00    -0.070 N 
ATOM      3  C1  UNL d   1       0.066  -1.593  -0.274  0.00  0.00    -0.004 A 
ATOM      4  C2  UNL d   1      -0.482  -2.686   0.363  0.00  0.00    -0.047 A 
ATOM      5  C3  UNL d   1      -1.231  -2.203   1.463  0.00  0.00    -0.047 A 
ATOM      6  C4  UNL d   1      -1.118  -0.829   1.465  0.00  0.00    -0.004 A 
ENDROOT
TORSDOF 0
ENDMDL
