MODEL 1
REMARK minimizedAffinity 3.53666854
REMARK minimizedRMSD -1
REMARK  0 active torsions:
REMARK  status: ('A' for Active; 'I' for Inactive)
ROOT
ATOM      1  C   UNL d   1       0.113   4.569   2.336  0.00  0.00     0.172 C 
ATOM      2  N   UNL d   1       1.073   3.623   1.817  0.00  0.00    -0.070 N 
ATOM      3  C1  UNL d   1       2.118   3.923   0.985  0.00  0.00    -0.004 A 
ATOM      4  C2  UNL d   1       2.796   2.753   0.720  0.00  0.00    -0.047 A 
ATOM      5  C3  UNL d   1       2.135   1.714   1.418  0.00  0.00    -0.047 A 
ATOM      6  C4  UNL d   1       1.072   2.281   2.088  0.00  0.00    -0.004 A 
ENDROOT
TORSDOF 0
ENDMDL
