MODEL 1
REMARK minimizedAffinity -2.90095258
REMARK minimizedRMSD -1
REMARK  0 active torsions:
REMARK  status: ('A' for Active; 'I' for Inactive)
ROOT
ATOM      1  C   UNL d   1       1.123  -0.124  -1.948  0.00  0.00     0.172 C 
ATOM      2  N   UNL d   1       0.357  -0.240  -0.729  0.00  0.00    -0.070 N 
ATOM      3  C1  UNL d   1       0.099  -1.405  -0.056  0.00  0.00    -0.004 A 
ATOM      4  C2  UNL d   1      -0.659  -1.093   1.051  0.00  0.00    -0.047 A 
ATOM      5  C3  UNL d   1      -0.865   0.307   1.043  0.00  0.00    -0.047 A 
ATOM      6  C4  UNL d   1      -0.225   0.810  -0.070  0.00  0.00    -0.004 A 
ENDROOT
TORSDOF 0
ENDMDL
