MODEL 1
REMARK minimizedAffinity -3.73311782
REMARK minimizedRMSD -1
REMARK  0 active torsions:
REMARK  status: ('A' for Active; 'I' for Inactive)
ROOT
ATOM      1  C4' PXY d   1       1.545   2.315   0.294  0.00  0.00     0.077 C 
ATOM      2  C1' PXY d   1      -0.933  -2.688  -1.203  0.00  0.00     0.077 C 
ATOM      3  C1  PXY d   1      -0.291  -1.370  -0.818  0.00  0.00    -0.082 A 
ATOM      4  C2  PXY d   1       0.943  -1.357  -0.342  0.00  0.00     0.003 A 
ATOM      5  C3  PXY d   1       1.527  -0.177   0.040  0.00  0.00     0.003 A 
ATOM      6  C4  PXY d   1       0.860   1.008  -0.116  0.00  0.00    -0.082 A 
ATOM      7  C5  PXY d   1      -0.396   1.005  -0.610  0.00  0.00     0.003 A 
ATOM      8  C6  PXY d   1      -0.986  -0.208  -0.954  0.00  0.00     0.003 A 
ENDROOT
TORSDOF 0
ENDMDL
