MODEL 1
REMARK minimizedAffinity -3.52277136
REMARK minimizedRMSD -1
REMARK  0 active torsions:
REMARK  status: ('A' for Active; 'I' for Inactive)
ROOT
ATOM      1  C4' PXY d   1       3.113  -1.207  -0.155  0.00  0.00     0.077 C 
ATOM      2  C1' PXY d   1      -2.394   0.471  -0.675  0.00  0.00     0.077 C 
ATOM      3  C1  PXY d   1      -0.954   0.018  -0.541  0.00  0.00    -0.082 A 
ATOM      4  C2  PXY d   1      -0.093   0.767   0.129  0.00  0.00     0.003 A 
ATOM      5  C3  PXY d   1       1.221   0.389   0.233  0.00  0.00     0.003 A 
ATOM      6  C4  PXY d   1       1.646  -0.794  -0.308  0.00  0.00    -0.082 A 
ATOM      7  C5  PXY d   1       0.772  -1.569  -0.984  0.00  0.00     0.003 A 
ATOM      8  C6  PXY d   1      -0.548  -1.147  -1.114  0.00  0.00     0.003 A 
ENDROOT
TORSDOF 0
ENDMDL
