MODEL 1
REMARK minimizedAffinity -2.82479262
REMARK minimizedRMSD -1
REMARK  0 active torsions:
REMARK  status: ('A' for Active; 'I' for Inactive)
ROOT
ATOM      1  C4' PXY d   1       2.370   1.978   0.007  0.00  0.00     0.077 C 
ATOM      2  C1' PXY d   1      -0.110  -3.210  -0.583  0.00  0.00     0.077 C 
ATOM      3  C1  PXY d   1       0.529  -1.843  -0.431  0.00  0.00    -0.082 A 
ATOM      4  C2  PXY d   1       1.836  -1.711  -0.591  0.00  0.00     0.003 A 
ATOM      5  C3  PXY d   1       2.435  -0.489  -0.426  0.00  0.00     0.003 A 
ATOM      6  C4  PXY d   1       1.681   0.620  -0.146  0.00  0.00    -0.082 A 
ATOM      7  C5  PXY d   1       0.346   0.495   0.008  0.00  0.00     0.003 A 
ATOM      8  C6  PXY d   1      -0.237  -0.762  -0.123  0.00  0.00     0.003 A 
ENDROOT
TORSDOF 0
ENDMDL
