MODEL 1
REMARK minimizedAffinity -0.171518981
REMARK minimizedRMSD -1
REMARK  0 active torsions:
REMARK  status: ('A' for Active; 'I' for Inactive)
ROOT
ATOM      1  C4' PXY d   1      -2.452   0.562  -0.761  0.00  0.00     0.077 C 
ATOM      2  C1' PXY d   1       2.935  -1.459  -0.204  0.00  0.00     0.077 C 
ATOM      3  C1  PXY d   1       1.525  -0.920  -0.341  0.00  0.00    -0.082 A 
ATOM      4  C2  PXY d   1       0.572  -1.698  -0.828  0.00  0.00     0.003 A 
ATOM      5  C3  PXY d   1      -0.702  -1.217  -0.989  0.00  0.00     0.003 A 
ATOM      6  C4  PXY d   1      -1.016   0.057  -0.597  0.00  0.00    -0.082 A 
ATOM      7  C5  PXY d   1      -0.052   0.853  -0.088  0.00  0.00     0.003 A 
ATOM      8  C6  PXY d   1       1.244   0.359   0.028  0.00  0.00     0.003 A 
ENDROOT
TORSDOF 0
ENDMDL
