MODEL 1
REMARK minimizedAffinity -1.50740659
REMARK minimizedRMSD -1
REMARK  0 active torsions:
REMARK  status: ('A' for Active; 'I' for Inactive)
ROOT
ATOM      1  C4' PXY d   1      -2.408   1.297   0.290  0.00  0.00     0.077 C 
ATOM      2  C1' PXY d   1       2.274  -2.008  -0.467  0.00  0.00     0.077 C 
ATOM      3  C1  PXY d   1       1.051  -1.137  -0.258  0.00  0.00    -0.082 A 
ATOM      4  C2  PXY d   1      -0.094  -1.468  -0.831  0.00  0.00     0.003 A 
ATOM      5  C3  PXY d   1      -1.202  -0.674  -0.678  0.00  0.00     0.003 A 
ATOM      6  C4  PXY d   1      -1.150   0.442   0.114  0.00  0.00    -0.082 A 
ATOM      7  C5  PXY d   1       0.012   0.781   0.711  0.00  0.00     0.003 A 
ATOM      8  C6  PXY d   1       1.135  -0.016   0.510  0.00  0.00     0.003 A 
ENDROOT
TORSDOF 0
ENDMDL
