MODEL 1
REMARK minimizedAffinity -3.75169468
REMARK minimizedRMSD -1
REMARK  0 active torsions:
REMARK  status: ('A' for Active; 'I' for Inactive)
ROOT
ATOM      1  C4' PXY d   1      -0.391  -3.301  -1.131  0.00  0.00     0.077 C 
ATOM      2  C1' PXY d   1       1.521   2.101  -0.367  0.00  0.00     0.077 C 
ATOM      3  C1  PXY d   1       1.031   0.681  -0.572  0.00  0.00    -0.082 A 
ATOM      4  C2  PXY d   1      -0.266   0.447  -0.692  0.00  0.00     0.003 A 
ATOM      5  C3  PXY d   1      -0.728  -0.835  -0.846  0.00  0.00     0.003 A 
ATOM      6  C4  PXY d   1       0.150  -1.882  -0.932  0.00  0.00    -0.082 A 
ATOM      7  C5  PXY d   1       1.475  -1.651  -0.821  0.00  0.00     0.003 A 
ATOM      8  C6  PXY d   1       1.921  -0.347  -0.624  0.00  0.00     0.003 A 
ENDROOT
TORSDOF 0
ENDMDL
