MODEL 1
REMARK minimizedAffinity -2.06355047
REMARK minimizedRMSD -1
REMARK  0 active torsions:
REMARK  status: ('A' for Active; 'I' for Inactive)
ROOT
ATOM      1  C4' PXY d   1      -0.475  -3.056  -0.491  0.00  0.00     0.077 C 
ATOM      2  C1' PXY d   1       3.009   1.541  -0.103  0.00  0.00     0.077 C 
ATOM      3  C1  PXY d   1       2.085   0.342  -0.199  0.00  0.00    -0.082 A 
ATOM      4  C2  PXY d   1       2.598  -0.877  -0.231  0.00  0.00     0.003 A 
ATOM      5  C3  PXY d   1       1.779  -1.970  -0.351  0.00  0.00     0.003 A 
ATOM      6  C4  PXY d   1       0.419  -1.817  -0.384  0.00  0.00    -0.082 A 
ATOM      7  C5  PXY d   1      -0.112  -0.577  -0.341  0.00  0.00     0.003 A 
ATOM      8  C6  PXY d   1       0.738   0.522  -0.262  0.00  0.00     0.003 A 
ENDROOT
TORSDOF 0
ENDMDL
