MODEL 1
REMARK minimizedAffinity -2.87246704
REMARK minimizedRMSD -1
REMARK  0 active torsions:
REMARK  status: ('A' for Active; 'I' for Inactive)
ROOT
ATOM      1  C4' PXY d   1      -2.422   1.158  -0.545  0.00  0.00     0.077 C 
ATOM      2  C1' PXY d   1       2.933  -0.987  -0.172  0.00  0.00     0.077 C 
ATOM      3  C1  PXY d   1       1.532  -0.416  -0.261  0.00  0.00    -0.082 A 
ATOM      4  C2  PXY d   1       0.535  -1.188  -0.661  0.00  0.00     0.003 A 
ATOM      5  C3  PXY d   1      -0.733  -0.678  -0.778  0.00  0.00     0.003 A 
ATOM      6  C4  PXY d   1      -0.992   0.621  -0.431  0.00  0.00    -0.082 A 
ATOM      7  C5  PXY d   1       0.018   1.412  -0.011  0.00  0.00     0.003 A 
ATOM      8  C6  PXY d   1       1.305   0.887   0.061  0.00  0.00     0.003 A 
ENDROOT
TORSDOF 0
ENDMDL
