MODEL 1
REMARK minimizedAffinity -4.00294542
REMARK minimizedRMSD -1
REMARK  0 active torsions:
REMARK  status: ('A' for Active; 'I' for Inactive)
ROOT
ATOM      1  C4' PXY d   1       3.680  -1.524   0.407  0.00  0.00     0.077 C 
ATOM      2  C1' PXY d   1      -1.305   1.152  -0.777  0.00  0.00     0.077 C 
ATOM      3  C1  PXY d   1       0.009   0.461  -0.469  0.00  0.00    -0.082 A 
ATOM      4  C2  PXY d   1       0.093  -0.856  -0.561  0.00  0.00     0.003 A 
ATOM      5  C3  PXY d   1       1.264  -1.500  -0.255  0.00  0.00     0.003 A 
ATOM      6  C4  PXY d   1       2.376  -0.783   0.097  0.00  0.00    -0.082 A 
ATOM      7  C5  PXY d   1       2.302   0.562   0.182  0.00  0.00     0.003 A 
ATOM      8  C6  PXY d   1       1.092   1.193  -0.092  0.00  0.00     0.003 A 
ENDROOT
TORSDOF 0
ENDMDL
