MODEL 1
REMARK minimizedAffinity -2.27687669
REMARK minimizedRMSD -1
REMARK  0 active torsions:
REMARK  status: ('A' for Active; 'I' for Inactive)
ROOT
ATOM      1  C4' PXY d   1      -1.182  -0.294  -1.268  0.00  0.00     0.077 C 
ATOM      2  C1' PXY d   1       4.261  -1.440   0.307  0.00  0.00     0.077 C 
ATOM      3  C1  PXY d   1       2.834  -1.150  -0.114  0.00  0.00    -0.082 A 
ATOM      4  C2  PXY d   1       2.354   0.078   0.003  0.00  0.00     0.003 A 
ATOM      5  C3  PXY d   1       1.056   0.351  -0.343  0.00  0.00     0.003 A 
ATOM      6  C4  PXY d   1       0.256  -0.631  -0.864  0.00  0.00    -0.082 A 
ATOM      7  C5  PXY d   1       0.742  -1.884  -0.997  0.00  0.00     0.003 A 
ATOM      8  C6  PXY d   1       2.049  -2.150  -0.601  0.00  0.00     0.003 A 
ENDROOT
TORSDOF 0
ENDMDL
