MODEL 1
REMARK minimizedAffinity -2.76084661
REMARK minimizedRMSD -1
REMARK  3 active torsions:
REMARK  status: ('A' for Active; 'I' for Inactive)
REMARK    1  A    between atoms: C3'_2  and  C2'_3 
REMARK    2  A    between atoms: C2'_3  and  C1'_4 
REMARK    3  A    between atoms: C1'_4  and  C1_5 
ROOT
ATOM      1  C1  N4B d   1       0.238   0.160  -0.409  0.00  0.00    -0.075 A 
ATOM      2  C2  N4B d   1       1.529   0.367   0.123  0.00  0.00     0.002 A 
ATOM      3  C3  N4B d   1       2.127   1.599   0.014  0.00  0.00     0.002 A 
ATOM      4  C4  N4B d   1       1.464   2.628  -0.636  0.00  0.00    -0.004 A 
ATOM      5  C5  N4B d   1       0.206   2.427  -1.125  0.00  0.00     0.002 A 
ATOM      6  C6  N4B d   1      -0.409   1.196  -1.019  0.00  0.00     0.002 A 
ENDROOT
BRANCH   1   7
ATOM      7  C1' N4B d   1      -0.421  -1.192  -0.390  0.00  0.00     0.057 C 
BRANCH   7   8
ATOM      8  C2' N4B d   1       0.645  -2.271  -0.548  0.00  0.00     0.009 C 
BRANCH   8   9
ATOM      9  C3' N4B d   1       1.790  -1.814  -1.436  0.00  0.00     0.004 C 
ATOM     10  C4' N4B d   1       1.562  -2.127  -2.885  0.00  0.00     0.003 C 
ENDBRANCH   8   9
ENDBRANCH   7   8
ENDBRANCH   1   7
TORSDOF 3
ENDMDL
