MODEL 1
REMARK minimizedAffinity -2.98501372
REMARK minimizedRMSD -1
REMARK  3 active torsions:
REMARK  status: ('A' for Active; 'I' for Inactive)
REMARK    1  A    between atoms: C3'_2  and  C2'_3 
REMARK    2  A    between atoms: C2'_3  and  C1'_4 
REMARK    3  A    between atoms: C1'_4  and  C1_5 
ROOT
ATOM      1  C1  N4B d   1       0.970  -0.226  -1.324  0.00  0.00    -0.075 A 
ATOM      2  C2  N4B d   1       1.962  -0.934  -2.038  0.00  0.00     0.002 A 
ATOM      3  C3  N4B d   1       2.586  -0.346  -3.111  0.00  0.00     0.002 A 
ATOM      4  C4  N4B d   1       2.222   0.935  -3.499  0.00  0.00    -0.004 A 
ATOM      5  C5  N4B d   1       1.281   1.621  -2.788  0.00  0.00     0.002 A 
ATOM      6  C6  N4B d   1       0.649   1.044  -1.705  0.00  0.00     0.002 A 
ENDROOT
BRANCH   1   7
ATOM      7  C1' N4B d   1       0.200  -0.859  -0.198  0.00  0.00     0.057 C 
BRANCH   7   8
ATOM      8  C2' N4B d   1      -1.043  -0.022   0.092  0.00  0.00     0.009 C 
BRANCH   8   9
ATOM      9  C3' N4B d   1      -1.201   0.266   1.575  0.00  0.00     0.004 C 
ATOM     10  C4' N4B d   1      -2.449  -0.331   2.153  0.00  0.00     0.003 C 
ENDBRANCH   8   9
ENDBRANCH   7   8
ENDBRANCH   1   7
TORSDOF 3
ENDMDL
