MODEL 1
REMARK minimizedAffinity -2.947999
REMARK minimizedRMSD -1
REMARK  3 active torsions:
REMARK  status: ('A' for Active; 'I' for Inactive)
REMARK    1  A    between atoms: C3'_2  and  C2'_3 
REMARK    2  A    between atoms: C2'_3  and  C1'_4 
REMARK    3  A    between atoms: C1'_4  and  C1_5 
ROOT
ATOM      1  C1  N4B d   1      -0.129  -0.643  -0.272  0.00  0.00    -0.075 A 
ATOM      2  C2  N4B d   1       0.339  -1.942  -0.566  0.00  0.00     0.002 A 
ATOM      3  C3  N4B d   1       1.608  -2.120  -1.061  0.00  0.00     0.002 A 
ATOM      4  C4  N4B d   1       2.416  -1.016  -1.286  0.00  0.00    -0.004 A 
ATOM      5  C5  N4B d   1       1.966   0.234  -0.975  0.00  0.00     0.002 A 
ATOM      6  C6  N4B d   1       0.695   0.427  -0.473  0.00  0.00     0.002 A 
ENDROOT
BRANCH   1   7
ATOM      7  C1' N4B d   1      -1.539  -0.391   0.189  0.00  0.00     0.057 C 
BRANCH   7   8
ATOM      8  C2' N4B d   1      -1.569   0.876   1.038  0.00  0.00     0.009 C 
BRANCH   8   9
ATOM      9  C3' N4B d   1      -2.134   0.619   2.424  0.00  0.00     0.004 C 
ATOM     10  C4' N4B d   1      -1.932   1.775   3.358  0.00  0.00     0.003 C 
ENDBRANCH   8   9
ENDBRANCH   7   8
ENDBRANCH   1   7
TORSDOF 3
ENDMDL
