MODEL 1
REMARK minimizedAffinity -0.69093138
REMARK minimizedRMSD -1
REMARK  3 active torsions:
REMARK  status: ('A' for Active; 'I' for Inactive)
REMARK    1  A    between atoms: C3'_2  and  C2'_3 
REMARK    2  A    between atoms: C2'_3  and  C1'_4 
REMARK    3  A    between atoms: C1'_4  and  C1_5 
ROOT
ATOM      1  C1  N4B d   1       1.795  -0.021  -1.962  0.00  0.00    -0.075 A 
ATOM      2  C2  N4B d   1       0.681  -0.884  -2.048  0.00  0.00     0.002 A 
ATOM      3  C3  N4B d   1       0.671  -2.065  -1.346  0.00  0.00     0.002 A 
ATOM      4  C4  N4B d   1       1.767  -2.410  -0.570  0.00  0.00    -0.004 A 
ATOM      5  C5  N4B d   1       2.829  -1.559  -0.472  0.00  0.00     0.002 A 
ATOM      6  C6  N4B d   1       2.851  -0.368  -1.169  0.00  0.00     0.002 A 
ENDROOT
BRANCH   1   7
ATOM      7  C1' N4B d   1       1.889   1.239  -2.778  0.00  0.00     0.057 C 
BRANCH   7   8
ATOM      8  C2' N4B d   1       2.122   2.424  -1.845  0.00  0.00     0.009 C 
BRANCH   8   9
ATOM      9  C3' N4B d   1       1.953   3.753  -2.562  0.00  0.00     0.004 C 
ATOM     10  C4' N4B d   1       2.868   4.817  -2.033  0.00  0.00     0.003 C 
ENDBRANCH   8   9
ENDBRANCH   7   8
ENDBRANCH   1   7
TORSDOF 3
ENDMDL
