MODEL 1
REMARK minimizedAffinity -3.1415801
REMARK minimizedRMSD -1
REMARK  0 active torsions:
REMARK  status: ('A' for Active; 'I' for Inactive)
ROOT
ATOM      1  C   UNL d   1       2.267  -1.082  -1.125  0.00  0.00     0.023 A 
ATOM      2  C1  UNL d   1       1.986   0.284  -1.096  0.00  0.00     0.003 A 
ATOM      3  C2  UNL d   1       0.853   0.751  -0.427  0.00  0.00     0.048 A 
ATOM      4  C3  UNL d   1       0.006  -0.154   0.212  0.00  0.00     0.023 A 
ATOM      5  C4  UNL d   1       0.284  -1.521   0.187  0.00  0.00     0.048 A 
ATOM      6  C5  UNL d   1       1.417  -1.984  -0.484  0.00  0.00     0.003 A 
ATOM      7  I   UNL d   1      -1.682   0.539   1.209  0.00  0.00    -0.146 I 
ENDROOT
TORSDOF 0
ENDMDL
