MODEL 1
REMARK minimizedAffinity -4.45999813
REMARK minimizedRMSD -1
REMARK  0 active torsions:
REMARK  status: ('A' for Active; 'I' for Inactive)
ROOT
ATOM      1  C   UNL d   1       3.030   0.729  -2.916  0.00  0.00     0.023 A 
ATOM      2  C1  UNL d   1       2.127   1.792  -2.915  0.00  0.00     0.003 A 
ATOM      3  C2  UNL d   1       0.988   1.741  -2.109  0.00  0.00     0.048 A 
ATOM      4  C3  UNL d   1       0.757   0.624  -1.307  0.00  0.00     0.023 A 
ATOM      5  C4  UNL d   1       1.658  -0.442  -1.304  0.00  0.00     0.048 A 
ATOM      6  C5  UNL d   1       2.796  -0.387  -2.112  0.00  0.00     0.003 A 
ATOM      7  I   UNL d   1      -0.938   0.547  -0.107  0.00  0.00    -0.146 I 
ENDROOT
TORSDOF 0
ENDMDL
