MODEL 1
REMARK minimizedAffinity -3.25377989
REMARK minimizedRMSD -1
REMARK  0 active torsions:
REMARK  status: ('A' for Active; 'I' for Inactive)
ROOT
ATOM      1  C   UNL d   1       2.711  -0.378  -2.058  0.00  0.00     0.023 A 
ATOM      2  C1  UNL d   1       2.134   0.892  -2.068  0.00  0.00     0.003 A 
ATOM      3  C2  UNL d   1       0.967   1.137  -1.342  0.00  0.00     0.048 A 
ATOM      4  C3  UNL d   1       0.382   0.107  -0.606  0.00  0.00     0.023 A 
ATOM      5  C4  UNL d   1       0.956  -1.166  -0.591  0.00  0.00     0.048 A 
ATOM      6  C5  UNL d   1       2.122  -1.406  -1.320  0.00  0.00     0.003 A 
ATOM      7  I   UNL d   1      -1.355   0.469   0.477  0.00  0.00    -0.146 I 
ENDROOT
TORSDOF 0
ENDMDL
