MODEL 1
REMARK minimizedAffinity -4.14908886
REMARK minimizedRMSD -1
REMARK  0 active torsions:
REMARK  status: ('A' for Active; 'I' for Inactive)
ROOT
ATOM      1  C   UNL d   1       1.971  -1.079  -1.017  0.00  0.00     0.023 A 
ATOM      2  C1  UNL d   1       0.879  -1.889  -0.705  0.00  0.00     0.003 A 
ATOM      3  C2  UNL d   1      -0.214  -1.357  -0.018  0.00  0.00     0.048 A 
ATOM      4  C3  UNL d   1      -0.209  -0.012   0.353  0.00  0.00     0.023 A 
ATOM      5  C4  UNL d   1       0.881   0.802   0.042  0.00  0.00     0.048 A 
ATOM      6  C5  UNL d   1       1.972   0.265  -0.644  0.00  0.00     0.003 A 
ATOM      7  I   UNL d   1      -1.835   0.783   1.375  0.00  0.00    -0.146 I 
ENDROOT
TORSDOF 0
ENDMDL
