MODEL 1
REMARK minimizedAffinity -5.12355852
REMARK minimizedRMSD -1
REMARK  0 active torsions:
REMARK  status: ('A' for Active; 'I' for Inactive)
ROOT
ATOM      1  C   UNL d   1       2.597   0.069  -2.402  0.00  0.00     0.023 A 
ATOM      2  C1  UNL d   1       2.340  -0.929  -1.462  0.00  0.00     0.003 A 
ATOM      3  C2  UNL d   1       1.301  -0.773  -0.544  0.00  0.00     0.048 A 
ATOM      4  C3  UNL d   1       0.521   0.382  -0.571  0.00  0.00     0.023 A 
ATOM      5  C4  UNL d   1       0.773   1.383  -1.510  0.00  0.00     0.048 A 
ATOM      6  C5  UNL d   1       1.815   1.224  -2.426  0.00  0.00     0.003 A 
ATOM      7  I   UNL d   1      -1.028   0.615   0.796  0.00  0.00    -0.146 I 
ENDROOT
TORSDOF 0
ENDMDL
