MODEL 1
REMARK minimizedAffinity -4.37968159
REMARK minimizedRMSD -1
REMARK  0 active torsions:
REMARK  status: ('A' for Active; 'I' for Inactive)
ROOT
ATOM      1  C   UNL d   1       3.002   0.163  -2.224  0.00  0.00     0.023 A 
ATOM      2  C1  UNL d   1       2.053   1.162  -2.439  0.00  0.00     0.003 A 
ATOM      3  C2  UNL d   1       0.889   1.199  -1.668  0.00  0.00     0.048 A 
ATOM      4  C3  UNL d   1       0.681   0.233  -0.684  0.00  0.00     0.023 A 
ATOM      5  C4  UNL d   1       1.628  -0.769  -0.465  0.00  0.00     0.048 A 
ATOM      6  C5  UNL d   1       2.790  -0.802  -1.239  0.00  0.00     0.003 A 
ATOM      7  I   UNL d   1      -1.051   0.285   0.464  0.00  0.00    -0.146 I 
ENDROOT
TORSDOF 0
ENDMDL
