MODEL 1
REMARK minimizedAffinity -4.60728168
REMARK minimizedRMSD -1
REMARK  0 active torsions:
REMARK  status: ('A' for Active; 'I' for Inactive)
ROOT
ATOM      1  C   UNL d   1       2.868   0.560  -2.416  0.00  0.00     0.023 A 
ATOM      2  C1  UNL d   1       1.748   1.351  -2.672  0.00  0.00     0.003 A 
ATOM      3  C2  UNL d   1       0.639   1.288  -1.826  0.00  0.00     0.048 A 
ATOM      4  C3  UNL d   1       0.656   0.431  -0.726  0.00  0.00     0.023 A 
ATOM      5  C4  UNL d   1       1.774  -0.362  -0.466  0.00  0.00     0.048 A 
ATOM      6  C5  UNL d   1       2.881  -0.296  -1.314  0.00  0.00     0.003 A 
ATOM      7  I   UNL d   1      -0.995   0.335   0.533  0.00  0.00    -0.146 I 
ENDROOT
TORSDOF 0
ENDMDL
