MODEL 1
REMARK minimizedAffinity -2.02371097
REMARK minimizedRMSD -1
REMARK  0 active torsions:
REMARK  status: ('A' for Active; 'I' for Inactive)
ROOT
ATOM      1  C   UNL d   1       2.278  -1.832  -0.899  0.00  0.00     0.023 A 
ATOM      2  C1  UNL d   1       1.610  -2.396   0.188  0.00  0.00     0.003 A 
ATOM      3  C2  UNL d   1       0.465  -1.783   0.700  0.00  0.00     0.048 A 
ATOM      4  C3  UNL d   1      -0.008  -0.606   0.120  0.00  0.00     0.023 A 
ATOM      5  C4  UNL d   1       0.657  -0.039  -0.968  0.00  0.00     0.048 A 
ATOM      6  C5  UNL d   1       1.802  -0.655  -1.477  0.00  0.00     0.003 A 
ATOM      7  I   UNL d   1      -1.712   0.308   0.881  0.00  0.00    -0.146 I 
ENDROOT
TORSDOF 0
ENDMDL
