MODEL 1
REMARK minimizedAffinity -2.88191605
REMARK minimizedRMSD -1
REMARK  0 active torsions:
REMARK  status: ('A' for Active; 'I' for Inactive)
ROOT
ATOM      1  C   UNL d   1       3.701  -0.447  -1.033  0.00  0.00     0.023 A 
ATOM      2  C1  UNL d   1       2.622  -0.968  -1.748  0.00  0.00     0.003 A 
ATOM      3  C2  UNL d   1       1.320  -0.792  -1.277  0.00  0.00     0.048 A 
ATOM      4  C3  UNL d   1       1.102  -0.093  -0.090  0.00  0.00     0.023 A 
ATOM      5  C4  UNL d   1       2.178   0.431   0.629  0.00  0.00     0.048 A 
ATOM      6  C5  UNL d   1       3.479   0.251   0.154  0.00  0.00     0.003 A 
ATOM      7  I   UNL d   1      -0.835   0.171   0.613  0.00  0.00    -0.146 I 
ENDROOT
TORSDOF 0
ENDMDL
