MODEL 1
REMARK minimizedAffinity -3.81109929
REMARK minimizedRMSD -1
REMARK  0 active torsions:
REMARK  status: ('A' for Active; 'I' for Inactive)
ROOT
ATOM      1  C   UNL d   1       2.238  -0.359  -1.833  0.00  0.00     0.023 A 
ATOM      2  C1  UNL d   1       1.807  -1.216  -0.820  0.00  0.00     0.003 A 
ATOM      3  C2  UNL d   1       0.692  -0.881  -0.049  0.00  0.00     0.048 A 
ATOM      4  C3  UNL d   1       0.012   0.311  -0.297  0.00  0.00     0.023 A 
ATOM      5  C4  UNL d   1       0.440   1.171  -1.310  0.00  0.00     0.048 A 
ATOM      6  C5  UNL d   1       1.555   0.832  -2.078  0.00  0.00     0.003 A 
ATOM      7  I   UNL d   1      -1.648   0.811   0.850  0.00  0.00    -0.146 I 
ENDROOT
TORSDOF 0
ENDMDL
