MODEL 1
REMARK minimizedAffinity -5.2308979
REMARK minimizedRMSD -1
REMARK  0 active torsions:
REMARK  status: ('A' for Active; 'I' for Inactive)
ROOT
ATOM      1  C   UNL d   1       2.955   0.128  -2.319  0.00  0.00     0.023 A 
ATOM      2  C1  UNL d   1       2.116   1.241  -2.387  0.00  0.00     0.003 A 
ATOM      3  C2  UNL d   1       1.055   1.372  -1.488  0.00  0.00     0.048 A 
ATOM      4  C3  UNL d   1       0.840   0.389  -0.524  0.00  0.00     0.023 A 
ATOM      5  C4  UNL d   1       1.677  -0.725  -0.451  0.00  0.00     0.048 A 
ATOM      6  C5  UNL d   1       2.736  -0.853  -1.352  0.00  0.00     0.003 A 
ATOM      7  I   UNL d   1      -0.739   0.583   0.815  0.00  0.00    -0.146 I 
ENDROOT
TORSDOF 0
ENDMDL
