MODEL 1
REMARK minimizedAffinity -3.17283607
REMARK minimizedRMSD -1
REMARK  0 active torsions:
REMARK  status: ('A' for Active; 'I' for Inactive)
ROOT
ATOM      1  C   UNL d   1       2.494  -0.438  -1.922  0.00  0.00     0.023 A 
ATOM      2  C1  UNL d   1       2.128  -1.412  -0.993  0.00  0.00     0.003 A 
ATOM      3  C2  UNL d   1       1.043  -1.194  -0.141  0.00  0.00     0.048 A 
ATOM      4  C3  UNL d   1       0.328   0.000  -0.224  0.00  0.00     0.023 A 
ATOM      5  C4  UNL d   1       0.690   0.978  -1.152  0.00  0.00     0.048 A 
ATOM      6  C5  UNL d   1       1.776   0.756  -2.001  0.00  0.00     0.003 A 
ATOM      7  I   UNL d   1      -1.287   0.326   1.042  0.00  0.00    -0.146 I 
ENDROOT
TORSDOF 0
ENDMDL
