MODEL 1
REMARK minimizedAffinity -5.4938693
REMARK minimizedRMSD -1
REMARK  0 active torsions:
REMARK  status: ('A' for Active; 'I' for Inactive)
ROOT
ATOM      1  C   UNL d   1       2.859  -0.434  -1.803  0.00  0.00     0.023 A 
ATOM      2  C1  UNL d   1       2.366   0.871  -1.837  0.00  0.00     0.003 A 
ATOM      3  C2  UNL d   1       1.192   1.193  -1.153  0.00  0.00     0.048 A 
ATOM      4  C3  UNL d   1       0.517   0.206  -0.435  0.00  0.00     0.023 A 
ATOM      5  C4  UNL d   1       1.007  -1.101  -0.398  0.00  0.00     0.048 A 
ATOM      6  C5  UNL d   1       2.180  -1.418  -1.085  0.00  0.00     0.003 A 
ATOM      7  I   UNL d   1      -1.230   0.683   0.584  0.00  0.00    -0.146 I 
ENDROOT
TORSDOF 0
ENDMDL
