MODEL 1
REMARK minimizedAffinity -4.13806915
REMARK minimizedRMSD -1
REMARK  0 active torsions:
REMARK  status: ('A' for Active; 'I' for Inactive)
ROOT
ATOM      1  C   UNL d   1       2.363   0.335  -2.071  0.00  0.00     0.023 A 
ATOM      2  C1  UNL d   1       2.029  -0.785  -1.309  0.00  0.00     0.003 A 
ATOM      3  C2  UNL d   1       0.934  -0.741  -0.444  0.00  0.00     0.048 A 
ATOM      4  C3  UNL d   1       0.176   0.426  -0.346  0.00  0.00     0.023 A 
ATOM      5  C4  UNL d   1       0.506   1.549  -1.107  0.00  0.00     0.048 A 
ATOM      6  C5  UNL d   1       1.602   1.500  -1.970  0.00  0.00     0.003 A 
ATOM      7  I   UNL d   1      -1.454   0.494   0.941  0.00  0.00    -0.146 I 
ENDROOT
TORSDOF 0
ENDMDL
