MODEL 1
REMARK minimizedAffinity -4.82942963
REMARK minimizedRMSD -1
REMARK  0 active torsions:
REMARK  status: ('A' for Active; 'I' for Inactive)
ROOT
ATOM      1  C   UNL d   1       2.706  -0.548  -1.779  0.00  0.00     0.023 A 
ATOM      2  C1  UNL d   1       2.172  -1.523  -0.937  0.00  0.00     0.003 A 
ATOM      3  C2  UNL d   1       1.020  -1.253  -0.194  0.00  0.00     0.048 A 
ATOM      4  C3  UNL d   1       0.408  -0.005  -0.299  0.00  0.00     0.023 A 
ATOM      5  C4  UNL d   1       0.938   0.975  -1.141  0.00  0.00     0.048 A 
ATOM      6  C5  UNL d   1       2.090   0.700  -1.880  0.00  0.00     0.003 A 
ATOM      7  I   UNL d   1      -1.306   0.400   0.805  0.00  0.00    -0.146 I 
ENDROOT
TORSDOF 0
ENDMDL
