MODEL 1
REMARK minimizedAffinity -4.72873592
REMARK minimizedRMSD -1
REMARK  0 active torsions:
REMARK  status: ('A' for Active; 'I' for Inactive)
ROOT
ATOM      1  C   UNL d   1       1.810  -1.458  -1.136  0.00  0.00     0.023 A 
ATOM      2  C1  UNL d   1       0.740  -0.826  -0.503  0.00  0.00     0.003 A 
ATOM      3  C2  UNL d   1       0.476   0.522  -0.754  0.00  0.00     0.048 A 
ATOM      4  C3  UNL d   1       1.286   1.232  -1.640  0.00  0.00     0.023 A 
ATOM      5  C4  UNL d   1       2.358   0.603  -2.276  0.00  0.00     0.048 A 
ATOM      6  C5  UNL d   1       2.618  -0.745  -2.021  0.00  0.00     0.003 A 
ATOM      7  I   UNL d   1       0.896   3.238  -2.016  0.00  0.00    -0.146 I 
ENDROOT
TORSDOF 0
ENDMDL
