MODEL 1
REMARK minimizedAffinity -4.42029333
REMARK minimizedRMSD -1
REMARK  0 active torsions:
REMARK  status: ('A' for Active; 'I' for Inactive)
ROOT
ATOM      1  C   UNL d   1       2.994   0.956  -2.686  0.00  0.00     0.023 A 
ATOM      2  C1  UNL d   1       1.826   1.699  -2.858  0.00  0.00     0.003 A 
ATOM      3  C2  UNL d   1       0.712   1.447  -2.055  0.00  0.00     0.048 A 
ATOM      4  C3  UNL d   1       0.772   0.451  -1.081  0.00  0.00     0.023 A 
ATOM      5  C4  UNL d   1       1.939  -0.295  -0.905  0.00  0.00     0.048 A 
ATOM      6  C5  UNL d   1       3.050  -0.040  -1.710  0.00  0.00     0.003 A 
ATOM      7  I   UNL d   1      -0.885   0.074   0.116  0.00  0.00    -0.146 I 
ENDROOT
TORSDOF 0
ENDMDL
