MODEL 1
REMARK minimizedAffinity 0.07278689
REMARK minimizedRMSD -1
REMARK  0 active torsions:
REMARK  status: ('A' for Active; 'I' for Inactive)
ROOT
ATOM      1  C   UNL d   1      -4.458  -5.952  -5.998  0.00  0.00     0.172 C 
ATOM      2  N   UNL d   1      -3.385  -4.985  -5.998  0.00  0.00    -0.070 N 
ATOM      3  C1  UNL d   1      -2.047  -5.276  -5.997  0.00  0.00    -0.004 A 
ATOM      4  C2  UNL d   1      -1.356  -4.084  -5.998  0.00  0.00    -0.047 A 
ATOM      5  C3  UNL d   1      -2.311  -3.040  -5.999  0.00  0.00    -0.047 A 
ATOM      6  C4  UNL d   1      -3.560  -3.626  -5.998  0.00  0.00    -0.004 A 
ENDROOT
TORSDOF 0
ENDMDL
