MODEL 1
REMARK minimizedAffinity 0.489484966
REMARK minimizedRMSD -1
REMARK  0 active torsions:
REMARK  status: ('A' for Active; 'I' for Inactive)
ROOT
ATOM      1  C   UNL d   1      -5.999  -2.993   4.504  0.00  0.00     0.172 C 
ATOM      2  N   UNL d   1      -5.398  -1.821   3.911  0.00  0.00    -0.070 N 
ATOM      3  C1  UNL d   1      -6.000  -0.599   3.773  0.00  0.00    -0.004 A 
ATOM      4  C2  UNL d   1      -5.100   0.248   3.164  0.00  0.00    -0.047 A 
ATOM      5  C3  UNL d   1      -3.917  -0.491   2.926  0.00  0.00    -0.047 A 
ATOM      6  C4  UNL d   1      -4.129  -1.769   3.399  0.00  0.00    -0.004 A 
ENDROOT
TORSDOF 0
ENDMDL
