MODEL 1
REMARK minimizedAffinity 3.98290825
REMARK minimizedRMSD -1
REMARK  0 active torsions:
REMARK  status: ('A' for Active; 'I' for Inactive)
ROOT
ATOM      1  C   UNL d   1      -2.524  -5.999  -5.794  0.00  0.00     0.172 C 
ATOM      2  N   UNL d   1      -1.781  -4.763  -5.850  0.00  0.00    -0.070 N 
ATOM      3  C1  UNL d   1      -2.322  -3.512  -5.986  0.00  0.00    -0.004 A 
ATOM      4  C2  UNL d   1      -1.286  -2.603  -5.996  0.00  0.00    -0.047 A 
ATOM      5  C3  UNL d   1      -0.081  -3.333  -5.863  0.00  0.00    -0.047 A 
ATOM      6  C4  UNL d   1      -0.417  -4.667  -5.774  0.00  0.00    -0.004 A 
ENDROOT
TORSDOF 0
ENDMDL
