MODEL 1
REMARK minimizedAffinity -0.242099941
REMARK minimizedRMSD -1
REMARK  0 active torsions:
REMARK  status: ('A' for Active; 'I' for Inactive)
ROOT
ATOM      1  C   UNL d   1      -6.000  -1.652   4.772  0.00  0.00     0.172 C 
ATOM      2  N   UNL d   1      -5.450  -1.002   3.605  0.00  0.00    -0.070 N 
ATOM      3  C1  UNL d   1      -6.000   0.069   2.954  0.00  0.00    -0.004 A 
ATOM      4  C2  UNL d   1      -5.176   0.389   1.897  0.00  0.00    -0.047 A 
ATOM      5  C3  UNL d   1      -4.094  -0.522   1.912  0.00  0.00    -0.047 A 
ATOM      6  C4  UNL d   1      -4.289  -1.373   2.980  0.00  0.00    -0.004 A 
ENDROOT
TORSDOF 0
ENDMDL
