MODEL 1
REMARK minimizedAffinity -2.33342576
REMARK minimizedRMSD -1
REMARK  0 active torsions:
REMARK  status: ('A' for Active; 'I' for Inactive)
ROOT
ATOM      1  C   UNL d   1      -4.493  -5.855  -6.000  0.00  0.00     0.172 C 
ATOM      2  N   UNL d   1      -3.170  -5.277  -5.993  0.00  0.00    -0.070 N 
ATOM      3  C1  UNL d   1      -2.883  -3.938  -6.000  0.00  0.00    -0.004 A 
ATOM      4  C2  UNL d   1      -1.512  -3.800  -5.989  0.00  0.00    -0.047 A 
ATOM      5  C3  UNL d   1      -0.956  -5.101  -5.975  0.00  0.00    -0.047 A 
ATOM      6  C4  UNL d   1      -2.004  -5.996  -5.978  0.00  0.00    -0.004 A 
ENDROOT
TORSDOF 0
ENDMDL
