MODEL 1
REMARK minimizedAffinity 2.24890447
REMARK minimizedRMSD -1
REMARK  0 active torsions:
REMARK  status: ('A' for Active; 'I' for Inactive)
ROOT
ATOM      1  C   UNL d   1      -5.999  -1.114   2.463  0.00  0.00     0.172 C 
ATOM      2  N   UNL d   1      -5.998  -1.739   3.764  0.00  0.00    -0.070 N 
ATOM      3  C1  UNL d   1      -6.000  -1.081   4.966  0.00  0.00    -0.004 A 
ATOM      4  C2  UNL d   1      -5.999  -2.029   5.966  0.00  0.00    -0.047 A 
ATOM      5  C3  UNL d   1      -5.996  -3.301   5.344  0.00  0.00    -0.047 A 
ATOM      6  C4  UNL d   1      -5.996  -3.091   3.981  0.00  0.00    -0.004 A 
ENDROOT
TORSDOF 0
ENDMDL
