MODEL 1
REMARK minimizedAffinity 3.90137005
REMARK minimizedRMSD -1
REMARK  0 active torsions:
REMARK  status: ('A' for Active; 'I' for Inactive)
ROOT
ATOM      1  C   UNL d   1       0.000   1.921   1.356  0.00  0.00     0.172 C 
ATOM      2  N   UNL d   1      -0.219   2.482   0.044  0.00  0.00    -0.070 N 
ATOM      3  C1  UNL d   1       0.113   3.752  -0.347  0.00  0.00    -0.004 A 
ATOM      4  C2  UNL d   1      -0.257   3.898  -1.666  0.00  0.00    -0.047 A 
ATOM      5  C3  UNL d   1      -0.832   2.673  -2.083  0.00  0.00    -0.047 A 
ATOM      6  C4  UNL d   1      -0.795   1.815  -1.004  0.00  0.00    -0.004 A 
ENDROOT
TORSDOF 0
ENDMDL
