MODEL 1
REMARK minimizedAffinity 2.41385102
REMARK minimizedRMSD -1
REMARK  0 active torsions:
REMARK  status: ('A' for Active; 'I' for Inactive)
ROOT
ATOM      1  C   UNL d   1       4.096  -5.682  -1.996  0.00  0.00     0.172 C 
ATOM      2  N   UNL d   1       3.162  -4.899  -1.221  0.00  0.00    -0.070 N 
ATOM      3  C1  UNL d   1       1.798  -4.994  -1.282  0.00  0.00    -0.004 A 
ATOM      4  C2  UNL d   1       1.271  -4.082  -0.393  0.00  0.00    -0.047 A 
ATOM      5  C3  UNL d   1       2.357  -3.416   0.224  0.00  0.00    -0.047 A 
ATOM      6  C4  UNL d   1       3.516  -3.941  -0.308  0.00  0.00    -0.004 A 
ENDROOT
TORSDOF 0
ENDMDL
