MODEL 1
REMARK minimizedAffinity 0.581201196
REMARK minimizedRMSD -1
REMARK  0 active torsions:
REMARK  status: ('A' for Active; 'I' for Inactive)
ROOT
ATOM      1  C   UNL d   1      -4.192  -2.496  -5.999  0.00  0.00     0.172 C 
ATOM      2  N   UNL d   1      -4.613  -3.855  -5.754  0.00  0.00    -0.070 N 
ATOM      3  C1  UNL d   1      -5.861  -4.361  -6.000  0.00  0.00    -0.004 A 
ATOM      4  C2  UNL d   1      -5.858  -5.689  -5.632  0.00  0.00    -0.047 A 
ATOM      5  C3  UNL d   1      -4.564  -5.992  -5.148  0.00  0.00    -0.047 A 
ATOM      6  C4  UNL d   1      -3.813  -4.838  -5.234  0.00  0.00    -0.004 A 
ENDROOT
TORSDOF 0
ENDMDL
