MODEL 1
REMARK minimizedAffinity -1.7520951
REMARK minimizedRMSD -1
REMARK  0 active torsions:
REMARK  status: ('A' for Active; 'I' for Inactive)
ROOT
ATOM      1  C4' PXY d   1      -2.004   0.189   0.941  0.00  0.00     0.077 C 
ATOM      2  C1' PXY d   1       3.054   0.055  -1.856  0.00  0.00     0.077 C 
ATOM      3  C1  PXY d   1       1.724   0.078  -1.127  0.00  0.00    -0.082 A 
ATOM      4  C2  PXY d   1       1.179   1.238  -0.799  0.00  0.00     0.003 A 
ATOM      5  C3  PXY d   1      -0.007   1.277  -0.112  0.00  0.00     0.003 A 
ATOM      6  C4  PXY d   1      -0.668   0.118   0.196  0.00  0.00    -0.082 A 
ATOM      7  C5  PXY d   1      -0.123  -1.069  -0.145  0.00  0.00     0.003 A 
ATOM      8  C6  PXY d   1       1.102  -1.088  -0.806  0.00  0.00     0.003 A 
ENDROOT
TORSDOF 0
ENDMDL
