MODEL 1
REMARK minimizedAffinity -2.00590777
REMARK minimizedRMSD -1
REMARK  0 active torsions:
REMARK  status: ('A' for Active; 'I' for Inactive)
ROOT
ATOM      1  C4' PXY d   1       3.338  -1.741  -1.538  0.00  0.00     0.077 C 
ATOM      2  C1' PXY d   1      -1.431   0.316   1.001  0.00  0.00     0.077 C 
ATOM      3  C1  PXY d   1      -0.181  -0.234   0.343  0.00  0.00    -0.082 A 
ATOM      4  C2  PXY d   1       0.673   0.595  -0.235  0.00  0.00     0.003 A 
ATOM      5  C3  PXY d   1       1.792   0.112  -0.863  0.00  0.00     0.003 A 
ATOM      6  C4  PXY d   1       2.068  -1.230  -0.853  0.00  0.00    -0.082 A 
ATOM      7  C5  PXY d   1       1.207  -2.081  -0.256  0.00  0.00     0.003 A 
ATOM      8  C6  PXY d   1       0.055  -1.574   0.339  0.00  0.00     0.003 A 
ENDROOT
TORSDOF 0
ENDMDL
