MODEL 1
REMARK minimizedAffinity -4.07351542
REMARK minimizedRMSD -1
REMARK  0 active torsions:
REMARK  status: ('A' for Active; 'I' for Inactive)
ROOT
ATOM      1  C4' PXY d   1       3.272  -0.555  -1.196  0.00  0.00     0.077 C 
ATOM      2  C1' PXY d   1      -2.185   0.151   0.576  0.00  0.00     0.077 C 
ATOM      3  C1  PXY d   1      -0.753  -0.045   0.117  0.00  0.00    -0.082 A 
ATOM      4  C2  PXY d   1      -0.010   1.009  -0.178  0.00  0.00     0.003 A 
ATOM      5  C3  PXY d   1       1.276   0.847  -0.625  0.00  0.00     0.003 A 
ATOM      6  C4  PXY d   1       1.825  -0.403  -0.720  0.00  0.00    -0.082 A 
ATOM      7  C5  PXY d   1       1.076  -1.483  -0.410  0.00  0.00     0.003 A 
ATOM      8  C6  PXY d   1      -0.241  -1.300   0.002  0.00  0.00     0.003 A 
ENDROOT
TORSDOF 0
ENDMDL
