MODEL 1
REMARK minimizedAffinity -4.31225348
REMARK minimizedRMSD -1
REMARK  0 active torsions:
REMARK  status: ('A' for Active; 'I' for Inactive)
ROOT
ATOM      1  C4' PXY d   1       3.140  -0.950  -1.159  0.00  0.00     0.077 C 
ATOM      2  C1' PXY d   1      -2.062   0.758   0.693  0.00  0.00     0.077 C 
ATOM      3  C1  PXY d   1      -0.699   0.299   0.215  0.00  0.00    -0.082 A 
ATOM      4  C2  PXY d   1       0.166   1.189  -0.246  0.00  0.00     0.003 A 
ATOM      5  C3  PXY d   1       1.391   0.787  -0.712  0.00  0.00     0.003 A 
ATOM      6  C4  PXY d   1       1.756  -0.531  -0.657  0.00  0.00    -0.082 A 
ATOM      7  C5  PXY d   1       0.884  -1.443  -0.178  0.00  0.00     0.003 A 
ATOM      8  C6  PXY d   1      -0.371  -1.021   0.252  0.00  0.00     0.003 A 
ENDROOT
TORSDOF 0
ENDMDL
