MODEL 1
REMARK minimizedAffinity -4.11055183
REMARK minimizedRMSD -1
REMARK  0 active torsions:
REMARK  status: ('A' for Active; 'I' for Inactive)
ROOT
ATOM      1  C4' PXY d   1      -1.675   0.005   1.002  0.00  0.00     0.077 C 
ATOM      2  C1' PXY d   1       3.584  -0.566  -1.328  0.00  0.00     0.077 C 
ATOM      3  C1  PXY d   1       2.202  -0.429  -0.720  0.00  0.00    -0.082 A 
ATOM      4  C2  PXY d   1       1.661   0.772  -0.591  0.00  0.00     0.003 A 
ATOM      5  C3  PXY d   1       0.425   0.917  -0.014  0.00  0.00     0.003 A 
ATOM      6  C4  PXY d   1      -0.286  -0.182   0.386  0.00  0.00    -0.082 A 
ATOM      7  C5  PXY d   1       0.255  -1.411   0.247  0.00  0.00     0.003 A 
ATOM      8  C6  PXY d   1       1.527  -1.534  -0.303  0.00  0.00     0.003 A 
ENDROOT
TORSDOF 0
ENDMDL
