MODEL 1
REMARK minimizedAffinity -2.79943132
REMARK minimizedRMSD -1
REMARK  0 active torsions:
REMARK  status: ('A' for Active; 'I' for Inactive)
ROOT
ATOM      1  C4' PXY d   1      -2.239   0.378   1.571  0.00  0.00     0.077 C 
ATOM      2  C1' PXY d   1       2.354  -1.413  -1.447  0.00  0.00     0.077 C 
ATOM      3  C1  PXY d   1       1.156  -0.932  -0.653  0.00  0.00    -0.082 A 
ATOM      4  C2  PXY d   1       0.326  -1.815  -0.123  0.00  0.00     0.003 A 
ATOM      5  C3  PXY d   1      -0.781  -1.397   0.571  0.00  0.00     0.003 A 
ATOM      6  C4  PXY d   1      -1.011  -0.062   0.770  0.00  0.00    -0.082 A 
ATOM      7  C5  PXY d   1      -0.162   0.845   0.241  0.00  0.00     0.003 A 
ATOM      8  C6  PXY d   1       0.932   0.401  -0.495  0.00  0.00     0.003 A 
ENDROOT
TORSDOF 0
ENDMDL
