MODEL 1
REMARK minimizedAffinity -3.00425649
REMARK minimizedRMSD -1
REMARK  0 active torsions:
REMARK  status: ('A' for Active; 'I' for Inactive)
ROOT
ATOM      1  C4' PXY d   1      -1.941   0.394   1.579  0.00  0.00     0.077 C 
ATOM      2  C1' PXY d   1       2.942  -0.302  -1.435  0.00  0.00     0.077 C 
ATOM      3  C1  PXY d   1       1.656  -0.129  -0.652  0.00  0.00    -0.082 A 
ATOM      4  C2  PXY d   1       1.426   1.008  -0.015  0.00  0.00     0.003 A 
ATOM      5  C3  PXY d   1       0.283   1.170   0.724  0.00  0.00     0.003 A 
ATOM      6  C4  PXY d   1      -0.660   0.178   0.768  0.00  0.00    -0.082 A 
ATOM      7  C5  PXY d   1      -0.438  -0.981   0.112  0.00  0.00     0.003 A 
ATOM      8  C6  PXY d   1       0.748  -1.141  -0.599  0.00  0.00     0.003 A 
ENDROOT
TORSDOF 0
ENDMDL
