MODEL 1
REMARK minimizedAffinity -2.77760148
REMARK minimizedRMSD -1
REMARK  0 active torsions:
REMARK  status: ('A' for Active; 'I' for Inactive)
ROOT
ATOM      1  C4' PXY d   1      -1.477   0.658   1.321  0.00  0.00     0.077 C 
ATOM      2  C1' PXY d   1       2.831  -0.714  -2.280  0.00  0.00     0.077 C 
ATOM      3  C1  PXY d   1       1.694  -0.363  -1.341  0.00  0.00    -0.082 A 
ATOM      4  C2  PXY d   1       1.605   0.862  -0.849  0.00  0.00     0.003 A 
ATOM      5  C3  PXY d   1       0.602   1.187   0.027  0.00  0.00     0.003 A 
ATOM      6  C4  PXY d   1      -0.352   0.263   0.362  0.00  0.00    -0.082 A 
ATOM      7  C5  PXY d   1      -0.274  -0.986  -0.144  0.00  0.00     0.003 A 
ATOM      8  C6  PXY d   1       0.776  -1.308  -0.999  0.00  0.00     0.003 A 
ENDROOT
TORSDOF 0
ENDMDL
