MODEL 1
REMARK minimizedAffinity -5.73374653
REMARK minimizedRMSD -1
REMARK  0 active torsions:
REMARK  status: ('A' for Active; 'I' for Inactive)
ROOT
ATOM      1  C4' PXY d   1      -2.216   0.438   1.218  0.00  0.00     0.077 C 
ATOM      2  C1' PXY d   1       2.869   0.092  -1.510  0.00  0.00     0.077 C 
ATOM      3  C1  PXY d   1       1.532   0.193  -0.802  0.00  0.00    -0.082 A 
ATOM      4  C2  PXY d   1       1.409  -0.266   0.433  0.00  0.00     0.003 A 
ATOM      5  C3  PXY d   1       0.200  -0.212   1.076  0.00  0.00     0.003 A 
ATOM      6  C4  PXY d   1      -0.883   0.366   0.469  0.00  0.00    -0.082 A 
ATOM      7  C5  PXY d   1      -0.763   0.845  -0.788  0.00  0.00     0.003 A 
ATOM      8  C6  PXY d   1       0.463   0.744  -1.438  0.00  0.00     0.003 A 
ENDROOT
TORSDOF 0
ENDMDL
