MODEL 1
REMARK minimizedAffinity -4.71931458
REMARK minimizedRMSD -1
REMARK  0 active torsions:
REMARK  status: ('A' for Active; 'I' for Inactive)
ROOT
ATOM      1  C4' PXY d   1      -1.907   0.189   0.956  0.00  0.00     0.077 C 
ATOM      2  C1' PXY d   1       3.322  -0.494  -1.411  0.00  0.00     0.077 C 
ATOM      3  C1  PXY d   1       1.948  -0.327  -0.794  0.00  0.00    -0.082 A 
ATOM      4  C2  PXY d   1       1.447   0.887  -0.631  0.00  0.00     0.003 A 
ATOM      5  C3  PXY d   1       0.219   1.058  -0.045  0.00  0.00     0.003 A 
ATOM      6  C4  PXY d   1      -0.527  -0.027   0.329  0.00  0.00    -0.082 A 
ATOM      7  C5  PXY d   1      -0.028  -1.270   0.155  0.00  0.00     0.003 A 
ATOM      8  C6  PXY d   1       1.238  -1.420  -0.403  0.00  0.00     0.003 A 
ENDROOT
TORSDOF 0
ENDMDL
