MODEL 1
REMARK minimizedAffinity -5.05129814
REMARK minimizedRMSD -1
REMARK  0 active torsions:
REMARK  status: ('A' for Active; 'I' for Inactive)
ROOT
ATOM      1  C4' PXY d   1      -1.804   0.576   1.590  0.00  0.00     0.077 C 
ATOM      2  C1' PXY d   1       2.671  -0.670  -1.850  0.00  0.00     0.077 C 
ATOM      3  C1  PXY d   1       1.500  -0.331  -0.950  0.00  0.00    -0.082 A 
ATOM      4  C2  PXY d   1       1.105  -1.201  -0.035  0.00  0.00     0.003 A 
ATOM      5  C3  PXY d   1       0.027  -0.923   0.766  0.00  0.00     0.003 A 
ATOM      6  C4  PXY d   1      -0.620   0.279   0.666  0.00  0.00    -0.082 A 
ATOM      7  C5  PXY d   1      -0.215   1.177  -0.258  0.00  0.00     0.003 A 
ATOM      8  C6  PXY d   1       0.855   0.859  -1.089  0.00  0.00     0.003 A 
ENDROOT
TORSDOF 0
ENDMDL
