MODEL 1
REMARK minimizedAffinity -5.42228794
REMARK minimizedRMSD -1
REMARK  0 active torsions:
REMARK  status: ('A' for Active; 'I' for Inactive)
ROOT
ATOM      1  C4' PXY d   1      -1.935   0.193   0.840  0.00  0.00     0.077 C 
ATOM      2  C1' PXY d   1       3.309  -0.187  -1.562  0.00  0.00     0.077 C 
ATOM      3  C1  PXY d   1       1.932  -0.100  -0.934  0.00  0.00    -0.082 A 
ATOM      4  C2  PXY d   1       1.304   1.064  -0.893  0.00  0.00     0.003 A 
ATOM      5  C3  PXY d   1       0.072   1.167  -0.300  0.00  0.00     0.003 A 
ATOM      6  C4  PXY d   1      -0.547   0.057   0.208  0.00  0.00    -0.082 A 
ATOM      7  C5  PXY d   1       0.082  -1.136   0.160  0.00  0.00     0.003 A 
ATOM      8  C6  PXY d   1       1.350  -1.212  -0.408  0.00  0.00     0.003 A 
ENDROOT
TORSDOF 0
ENDMDL
