MODEL 1
REMARK minimizedAffinity -5.22076464
REMARK minimizedRMSD -1
REMARK  0 active torsions:
REMARK  status: ('A' for Active; 'I' for Inactive)
ROOT
ATOM      1  C4' PXY d   1      -1.535   0.514   0.608  0.00  0.00     0.077 C 
ATOM      2  C1' PXY d   1       3.325  -0.395  -2.387  0.00  0.00     0.077 C 
ATOM      3  C1  PXY d   1       2.048  -0.169  -1.601  0.00  0.00    -0.082 A 
ATOM      4  C2  PXY d   1       1.429   0.998  -1.680  0.00  0.00     0.003 A 
ATOM      5  C3  PXY d   1       0.291   1.230  -0.951  0.00  0.00     0.003 A 
ATOM      6  C4  PXY d   1      -0.249   0.239  -0.175  0.00  0.00    -0.082 A 
ATOM      7  C5  PXY d   1       0.371  -0.958  -0.098  0.00  0.00     0.003 A 
ATOM      8  C6  PXY d   1       1.548  -1.159  -0.813  0.00  0.00     0.003 A 
ENDROOT
TORSDOF 0
ENDMDL
