MODEL 1
REMARK minimizedAffinity -3.26526093
REMARK minimizedRMSD -1
REMARK  0 active torsions:
REMARK  status: ('A' for Active; 'I' for Inactive)
ROOT
ATOM      1  C4' PXY d   1      -2.134   0.633   1.912  0.00  0.00     0.077 C 
ATOM      2  C1' PXY d   1       1.956  -1.372  -1.648  0.00  0.00     0.077 C 
ATOM      3  C1  PXY d   1       0.888  -0.834  -0.716  0.00  0.00    -0.082 A 
ATOM      4  C2  PXY d   1       0.337  -1.637   0.180  0.00  0.00     0.003 A 
ATOM      5  C3  PXY d   1      -0.653  -1.175   1.010  0.00  0.00     0.003 A 
ATOM      6  C4  PXY d   1      -1.045   0.136   0.957  0.00  0.00    -0.082 A 
ATOM      7  C5  PXY d   1      -0.480   0.964   0.053  0.00  0.00     0.003 A 
ATOM      8  C6  PXY d   1       0.493   0.465  -0.807  0.00  0.00     0.003 A 
ENDROOT
TORSDOF 0
ENDMDL
