MODEL 1
REMARK minimizedAffinity -5.00733137
REMARK minimizedRMSD -1
REMARK  0 active torsions:
REMARK  status: ('A' for Active; 'I' for Inactive)
ROOT
ATOM      1  C4' PXY d   1      -2.173   0.325   1.126  0.00  0.00     0.077 C 
ATOM      2  C1' PXY d   1       2.832  -0.972  -1.460  0.00  0.00     0.077 C 
ATOM      3  C1  PXY d   1       1.523  -0.620  -0.781  0.00  0.00    -0.082 A 
ATOM      4  C2  PXY d   1       0.818  -1.569  -0.187  0.00  0.00     0.003 A 
ATOM      5  C3  PXY d   1      -0.383  -1.273   0.404  0.00  0.00     0.003 A 
ATOM      6  C4  PXY d   1      -0.841   0.017   0.435  0.00  0.00    -0.082 A 
ATOM      7  C5  PXY d   1      -0.122   0.993  -0.158  0.00  0.00     0.003 A 
ATOM      8  C6  PXY d   1       1.074   0.665  -0.789  0.00  0.00     0.003 A 
ENDROOT
TORSDOF 0
ENDMDL
