MODEL 1
REMARK minimizedAffinity -4.11364841
REMARK minimizedRMSD -1
REMARK  0 active torsions:
REMARK  status: ('A' for Active; 'I' for Inactive)
ROOT
ATOM      1  C4' PXY d   1      -1.570   1.066   1.713  0.00  0.00     0.077 C 
ATOM      2  C1' PXY d   1       2.133  -1.538  -1.881  0.00  0.00     0.077 C 
ATOM      3  C1  PXY d   1       1.167  -0.843  -0.941  0.00  0.00    -0.082 A 
ATOM      4  C2  PXY d   1       0.623  -1.522   0.056  0.00  0.00     0.003 A 
ATOM      5  C3  PXY d   1      -0.277  -0.918   0.896  0.00  0.00     0.003 A 
ATOM      6  C4  PXY d   1      -0.583   0.409   0.746  0.00  0.00    -0.082 A 
ATOM      7  C5  PXY d   1      -0.023   1.110  -0.263  0.00  0.00     0.003 A 
ATOM      8  C6  PXY d   1       0.856   0.468  -1.129  0.00  0.00     0.003 A 
ENDROOT
TORSDOF 0
ENDMDL
