MODEL 1
REMARK minimizedAffinity -3.40367675
REMARK minimizedRMSD -1
REMARK  0 active torsions:
REMARK  status: ('A' for Active; 'I' for Inactive)
ROOT
ATOM      1  C4' PXY d   1      -1.679   0.782   2.371  0.00  0.00     0.077 C 
ATOM      2  C1' PXY d   1       2.318  -0.364  -1.645  0.00  0.00     0.077 C 
ATOM      3  C1  PXY d   1       1.266  -0.053  -0.598  0.00  0.00    -0.082 A 
ATOM      4  C2  PXY d   1       1.411  -0.517   0.633  0.00  0.00     0.003 A 
ATOM      5  C3  PXY d   1       0.453  -0.272   1.583  0.00  0.00     0.003 A 
ATOM      6  C4  PXY d   1      -0.637   0.500   1.285  0.00  0.00    -0.082 A 
ATOM      7  C5  PXY d   1      -0.787   0.986   0.034  0.00  0.00     0.003 A 
ATOM      8  C6  PXY d   1       0.176   0.692  -0.927  0.00  0.00     0.003 A 
ENDROOT
TORSDOF 0
ENDMDL
