MODEL 1
REMARK minimizedAffinity 1.66427672
REMARK minimizedRMSD -1
REMARK  0 active torsions:
REMARK  status: ('A' for Active; 'I' for Inactive)
ROOT
ATOM      1  C   UNL d   1      -0.310  -3.203  -0.615  0.00  0.00     0.020 A 
ATOM      2  C1  UNL d   1      -0.523  -1.879  -0.230  0.00  0.00     0.020 A 
ATOM      3  C2  UNL d   1       0.532  -1.123   0.283  0.00  0.00     0.034 A 
ATOM      4  C3  UNL d   1       1.806  -1.688   0.413  0.00  0.00     0.017 A 
ATOM      5  C4  UNL d   1       2.019  -3.016   0.026  0.00  0.00     0.017 A 
ATOM      6  C5  UNL d   1       0.959  -3.769  -0.487  0.00  0.00     0.034 A 
ATOM      7 Cl   UNL d   1       3.563  -3.783   0.156  0.00  0.00    -0.070 Cl
ATOM      8 Cl1  UNL d   1       3.065  -0.694   1.054  0.00  0.00    -0.070 Cl
ENDROOT
TORSDOF 0
ENDMDL
