MODEL 1
REMARK minimizedAffinity -1.65719354
REMARK minimizedRMSD -1
REMARK  0 active torsions:
REMARK  status: ('A' for Active; 'I' for Inactive)
ROOT
ATOM      1  C   UNL d   1       1.553  -4.018   0.310  0.00  0.00     0.020 A 
ATOM      2  C1  UNL d   1       2.749  -3.505  -0.193  0.00  0.00     0.020 A 
ATOM      3  C2  UNL d   1       2.947  -2.124  -0.248  0.00  0.00     0.034 A 
ATOM      4  C3  UNL d   1       1.949  -1.251   0.200  0.00  0.00     0.017 A 
ATOM      5  C4  UNL d   1       0.750  -1.766   0.704  0.00  0.00     0.017 A 
ATOM      6  C5  UNL d   1       0.556  -3.150   0.758  0.00  0.00     0.034 A 
ATOM      7 Cl   UNL d   1      -0.527  -0.752   1.276  0.00  0.00    -0.070 Cl
ATOM      8 Cl1  UNL d   1       2.263   0.446   0.102  0.00  0.00    -0.070 Cl
ENDROOT
TORSDOF 0
ENDMDL
