MODEL 1
REMARK minimizedAffinity -4.69763327
REMARK minimizedRMSD -1
REMARK  0 active torsions:
REMARK  status: ('A' for Active; 'I' for Inactive)
ROOT
ATOM      1  C   UNL d   1      -0.078  -3.196  -0.116  0.00  0.00     0.020 A 
ATOM      2  C1  UNL d   1       0.013  -1.825   0.124  0.00  0.00     0.020 A 
ATOM      3  C2  UNL d   1       1.264  -1.224   0.275  0.00  0.00     0.034 A 
ATOM      4  C3  UNL d   1       2.430  -1.994   0.186  0.00  0.00     0.017 A 
ATOM      5  C4  UNL d   1       2.338  -3.369  -0.055  0.00  0.00     0.017 A 
ATOM      6  C5  UNL d   1       1.082  -3.966  -0.205  0.00  0.00     0.034 A 
ATOM      7 Cl   UNL d   1       3.731  -4.384  -0.178  0.00  0.00    -0.070 Cl
ATOM      8 Cl1  UNL d   1       3.944  -1.184   0.382  0.00  0.00    -0.070 Cl
ENDROOT
TORSDOF 0
ENDMDL
