MODEL 1
REMARK minimizedAffinity 1.33404946
REMARK minimizedRMSD -1
REMARK  0 active torsions:
REMARK  status: ('A' for Active; 'I' for Inactive)
ROOT
ATOM      1  C   UNL d   1      -0.299  -2.062   0.889  0.00  0.00     0.020 A 
ATOM      2  C1  UNL d   1       0.155  -0.811   1.304  0.00  0.00     0.020 A 
ATOM      3  C2  UNL d   1       1.526  -0.557   1.387  0.00  0.00     0.034 A 
ATOM      4  C3  UNL d   1       2.448  -1.556   1.053  0.00  0.00     0.017 A 
ATOM      5  C4  UNL d   1       1.991  -2.812   0.636  0.00  0.00     0.017 A 
ATOM      6  C5  UNL d   1       0.618  -3.060   0.555  0.00  0.00     0.034 A 
ATOM      7 Cl   UNL d   1       3.068  -4.095   0.208  0.00  0.00    -0.070 Cl
ATOM      8 Cl1  UNL d   1       4.128  -1.173   1.178  0.00  0.00    -0.070 Cl
ENDROOT
TORSDOF 0
ENDMDL
