MODEL 1
REMARK minimizedAffinity -0.970492661
REMARK minimizedRMSD -1
REMARK  0 active torsions:
REMARK  status: ('A' for Active; 'I' for Inactive)
ROOT
ATOM      1  C   UNL d   1      -0.470  -0.737   0.991  0.00  0.00     0.020 A 
ATOM      2  C1  UNL d   1       0.772  -0.669   1.620  0.00  0.00     0.020 A 
ATOM      3  C2  UNL d   1       1.685  -1.717   1.480  0.00  0.00     0.034 A 
ATOM      4  C3  UNL d   1       1.356  -2.838   0.709  0.00  0.00     0.017 A 
ATOM      5  C4  UNL d   1       0.108  -2.905   0.078  0.00  0.00     0.017 A 
ATOM      6  C5  UNL d   1      -0.801  -1.853   0.222  0.00  0.00     0.034 A 
ATOM      7 Cl   UNL d   1      -0.369  -4.256  -0.890  0.00  0.00    -0.070 Cl
ATOM      8 Cl1  UNL d   1       2.532  -4.097   0.579  0.00  0.00    -0.070 Cl
ENDROOT
TORSDOF 0
ENDMDL
