MODEL 1
REMARK minimizedAffinity -1.45854402
REMARK minimizedRMSD -1
REMARK  0 active torsions:
REMARK  status: ('A' for Active; 'I' for Inactive)
ROOT
ATOM      1  C   UNL d   1       1.366  -0.384   0.878  0.00  0.00     0.020 A 
ATOM      2  C1  UNL d   1      -0.013  -0.554   0.771  0.00  0.00     0.020 A 
ATOM      3  C2  UNL d   1      -0.533  -1.744   0.257  0.00  0.00     0.034 A 
ATOM      4  C3  UNL d   1       0.328  -2.769  -0.151  0.00  0.00     0.017 A 
ATOM      5  C4  UNL d   1       1.713  -2.598  -0.043  0.00  0.00     0.017 A 
ATOM      6  C5  UNL d   1       2.228  -1.404   0.472  0.00  0.00     0.034 A 
ATOM      7 Cl   UNL d   1       2.839  -3.818  -0.526  0.00  0.00    -0.070 Cl
ATOM      8 Cl1  UNL d   1      -0.383  -4.215  -0.776  0.00  0.00    -0.070 Cl
ENDROOT
TORSDOF 0
ENDMDL
