MODEL 1
REMARK minimizedAffinity -4.9475565
REMARK minimizedRMSD -1
REMARK  0 active torsions:
REMARK  status: ('A' for Active; 'I' for Inactive)
ROOT
ATOM      1  C   UNL d   1       2.808  -1.242   0.429  0.00  0.00     0.020 A 
ATOM      2  C1  UNL d   1       2.742  -2.614   0.185  0.00  0.00     0.020 A 
ATOM      3  C2  UNL d   1       1.538  -3.298   0.366  0.00  0.00     0.034 A 
ATOM      4  C3  UNL d   1       0.396  -2.611   0.792  0.00  0.00     0.017 A 
ATOM      5  C4  UNL d   1       0.463  -1.235   1.037  0.00  0.00     0.017 A 
ATOM      6  C5  UNL d   1       1.671  -0.555   0.854  0.00  0.00     0.034 A 
ATOM      7 Cl   UNL d   1      -0.905  -0.319   1.565  0.00  0.00    -0.070 Cl
ATOM      8 Cl1  UNL d   1      -1.059  -3.521   0.995  0.00  0.00    -0.070 Cl
ENDROOT
TORSDOF 0
ENDMDL
