MODEL 1
REMARK minimizedAffinity 2.65293837
REMARK minimizedRMSD -1
REMARK  0 active torsions:
REMARK  status: ('A' for Active; 'I' for Inactive)
ROOT
ATOM      1  C   UNL d   1      -0.053  -1.195   0.260  0.00  0.00     0.020 A 
ATOM      2  C1  UNL d   1      -0.159  -0.657   1.542  0.00  0.00     0.020 A 
ATOM      3  C2  UNL d   1       0.995  -0.357   2.270  0.00  0.00     0.034 A 
ATOM      4  C3  UNL d   1       2.258  -0.596   1.717  0.00  0.00     0.017 A 
ATOM      5  C4  UNL d   1       2.363  -1.136   0.431  0.00  0.00     0.017 A 
ATOM      6  C5  UNL d   1       1.205  -1.434  -0.294  0.00  0.00     0.034 A 
ATOM      7 Cl   UNL d   1       3.887  -1.458  -0.318  0.00  0.00    -0.070 Cl
ATOM      8 Cl1  UNL d   1       3.641  -0.201   2.675  0.00  0.00    -0.070 Cl
ENDROOT
TORSDOF 0
ENDMDL
