MODEL 1
REMARK minimizedAffinity -2.58614659
REMARK minimizedRMSD -1
REMARK  0 active torsions:
REMARK  status: ('A' for Active; 'I' for Inactive)
ROOT
ATOM      1  C   UNL d   1       2.366  -3.363   0.272  0.00  0.00     0.020 A 
ATOM      2  C1  UNL d   1       1.187  -3.979  -0.144  0.00  0.00     0.020 A 
ATOM      3  C2  UNL d   1      -0.005  -3.252  -0.182  0.00  0.00     0.034 A 
ATOM      4  C3  UNL d   1      -0.020  -1.905   0.196  0.00  0.00     0.017 A 
ATOM      5  C4  UNL d   1       1.164  -1.287   0.613  0.00  0.00     0.017 A 
ATOM      6  C5  UNL d   1       2.355  -2.019   0.650  0.00  0.00     0.034 A 
ATOM      7 Cl   UNL d   1       1.224   0.372   1.095  0.00  0.00    -0.070 Cl
ATOM      8 Cl1  UNL d   1      -1.530  -1.067   0.124  0.00  0.00    -0.070 Cl
ENDROOT
TORSDOF 0
ENDMDL
