MODEL 1
REMARK minimizedAffinity -3.19026494
REMARK minimizedRMSD -1
REMARK  0 active torsions:
REMARK  status: ('A' for Active; 'I' for Inactive)
ROOT
ATOM      1  C   UNL d   1       1.063  -4.114  -0.100  0.00  0.00     0.020 A 
ATOM      2  C1  UNL d   1       2.410  -3.765  -0.023  0.00  0.00     0.020 A 
ATOM      3  C2  UNL d   1       2.775  -2.453   0.287  0.00  0.00     0.034 A 
ATOM      4  C3  UNL d   1       1.791  -1.486   0.520  0.00  0.00     0.017 A 
ATOM      5  C4  UNL d   1       0.439  -1.837   0.442  0.00  0.00     0.017 A 
ATOM      6  C5  UNL d   1       0.079  -3.152   0.132  0.00  0.00     0.034 A 
ATOM      7 Cl   UNL d   1      -0.832  -0.698   0.717  0.00  0.00    -0.070 Cl
ATOM      8 Cl1  UNL d   1       2.314   0.117   0.898  0.00  0.00    -0.070 Cl
ENDROOT
TORSDOF 0
ENDMDL
