MODEL 1
REMARK minimizedAffinity -3.00376797
REMARK minimizedRMSD -1
REMARK  0 active torsions:
REMARK  status: ('A' for Active; 'I' for Inactive)
ROOT
ATOM      1  C   UNL d   1       1.104  -4.077   0.066  0.00  0.00     0.020 A 
ATOM      2  C1  UNL d   1       2.465  -3.785   0.141  0.00  0.00     0.020 A 
ATOM      3  C2  UNL d   1       2.885  -2.491   0.455  0.00  0.00     0.034 A 
ATOM      4  C3  UNL d   1       1.943  -1.484   0.696  0.00  0.00     0.017 A 
ATOM      5  C4  UNL d   1       0.577  -1.778   0.620  0.00  0.00     0.017 A 
ATOM      6  C5  UNL d   1       0.162  -3.076   0.305  0.00  0.00     0.034 A 
ATOM      7 Cl   UNL d   1      -0.644  -0.589   0.904  0.00  0.00    -0.070 Cl
ATOM      8 Cl1  UNL d   1       2.534   0.094   1.080  0.00  0.00    -0.070 Cl
ENDROOT
TORSDOF 0
ENDMDL
