MODEL 1
REMARK minimizedAffinity -4.47750187
REMARK minimizedRMSD -1
REMARK  0 active torsions:
REMARK  status: ('A' for Active; 'I' for Inactive)
ROOT
ATOM      1  C   UNL d   1      -0.454  -3.045   0.371  0.00  0.00     0.020 A 
ATOM      2  C1  UNL d   1      -0.368  -1.684   0.665  0.00  0.00     0.020 A 
ATOM      3  C2  UNL d   1       0.881  -1.069   0.766  0.00  0.00     0.034 A 
ATOM      4  C3  UNL d   1       2.050  -1.814   0.573  0.00  0.00     0.017 A 
ATOM      5  C4  UNL d   1       1.964  -3.180   0.279  0.00  0.00     0.017 A 
ATOM      6  C5  UNL d   1       0.710  -3.791   0.179  0.00  0.00     0.034 A 
ATOM      7 Cl   UNL d   1       3.362  -4.165   0.028  0.00  0.00    -0.070 Cl
ATOM      8 Cl1  UNL d   1       3.562  -0.988   0.713  0.00  0.00    -0.070 Cl
ENDROOT
TORSDOF 0
ENDMDL
