MODEL 1
REMARK minimizedAffinity 0.373382062
REMARK minimizedRMSD -1
REMARK  0 active torsions:
REMARK  status: ('A' for Active; 'I' for Inactive)
ROOT
ATOM      1  C   UNL d   1       0.287  -2.715   0.649  0.00  0.00     0.020 A 
ATOM      2  C1  UNL d   1       0.688  -1.392   0.832  0.00  0.00     0.020 A 
ATOM      3  C2  UNL d   1       2.043  -1.059   0.768  0.00  0.00     0.034 A 
ATOM      4  C3  UNL d   1       3.001  -2.049   0.522  0.00  0.00     0.017 A 
ATOM      5  C4  UNL d   1       2.596  -3.376   0.338  0.00  0.00     0.017 A 
ATOM      6  C5  UNL d   1       1.239  -3.705   0.402  0.00  0.00     0.034 A 
ATOM      7 Cl   UNL d   1       3.720  -4.653   0.030  0.00  0.00    -0.070 Cl
ATOM      8 Cl1  UNL d   1       4.658  -1.565   0.457  0.00  0.00    -0.070 Cl
ENDROOT
TORSDOF 0
ENDMDL
