MODEL 1
REMARK minimizedAffinity -2.03935385
REMARK minimizedRMSD -1
REMARK  0 active torsions:
REMARK  status: ('A' for Active; 'I' for Inactive)
ROOT
ATOM      1  C   UNL d   1      -0.849  -2.938   0.401  0.00  0.00     0.020 A 
ATOM      2  C1  UNL d   1      -0.652  -1.626   0.831  0.00  0.00     0.020 A 
ATOM      3  C2  UNL d   1       0.644  -1.131   0.991  0.00  0.00     0.034 A 
ATOM      4  C3  UNL d   1       1.748  -1.948   0.720  0.00  0.00     0.017 A 
ATOM      5  C4  UNL d   1       1.549  -3.264   0.289  0.00  0.00     0.017 A 
ATOM      6  C5  UNL d   1       0.249  -3.755   0.130  0.00  0.00     0.034 A 
ATOM      7 Cl   UNL d   1       2.861  -4.332  -0.065  0.00  0.00    -0.070 Cl
ATOM      8 Cl1  UNL d   1       3.322  -1.270   0.939  0.00  0.00    -0.070 Cl
ENDROOT
TORSDOF 0
ENDMDL
