MODEL 1
REMARK minimizedAffinity -0.125504076
REMARK minimizedRMSD -1
REMARK  0 active torsions:
REMARK  status: ('A' for Active; 'I' for Inactive)
ROOT
ATOM      1  C   UNL d   1      -0.288  -2.724   0.720  0.00  0.00     0.020 A 
ATOM      2  C1  UNL d   1       0.088  -1.406   0.978  0.00  0.00     0.020 A 
ATOM      3  C2  UNL d   1       1.407  -1.001   0.761  0.00  0.00     0.034 A 
ATOM      4  C3  UNL d   1       2.355  -1.915   0.286  0.00  0.00     0.017 A 
ATOM      5  C4  UNL d   1       1.977  -3.237   0.027  0.00  0.00     0.017 A 
ATOM      6  C5  UNL d   1       0.655  -3.637   0.245  0.00  0.00     0.034 A 
ATOM      7 Cl   UNL d   1       3.090  -4.421  -0.561  0.00  0.00    -0.070 Cl
ATOM      8 Cl1  UNL d   1       3.968  -1.345   0.041  0.00  0.00    -0.070 Cl
ENDROOT
TORSDOF 0
ENDMDL
