MODEL 1
REMARK minimizedAffinity 9.67371082
REMARK minimizedRMSD -1
REMARK  0 active torsions:
REMARK  status: ('A' for Active; 'I' for Inactive)
ROOT
ATOM      1  C   UNL d   1      -1.091  -0.217   5.165  0.00  0.00     0.020 A 
ATOM      2  C1  UNL d   1      -0.252  -0.382   4.064  0.00  0.00     0.020 A 
ATOM      3  C2  UNL d   1      -0.425   0.414   2.929  0.00  0.00     0.034 A 
ATOM      4  C3  UNL d   1      -1.438   1.379   2.894  0.00  0.00     0.017 A 
ATOM      5  C4  UNL d   1      -2.279   1.544   4.000  0.00  0.00     0.017 A 
ATOM      6  C5  UNL d   1      -2.102   0.745   5.134  0.00  0.00     0.034 A 
ATOM      7 Cl   UNL d   1      -3.551   2.714   4.031  0.00  0.00    -0.070 Cl
ATOM      8 Cl1  UNL d   1      -1.594   2.328   1.458  0.00  0.00    -0.070 Cl
ENDROOT
TORSDOF 0
ENDMDL
