MODEL 1
REMARK minimizedAffinity 4.93903542
REMARK minimizedRMSD -1
REMARK  0 active torsions:
REMARK  status: ('A' for Active; 'I' for Inactive)
ROOT
ATOM      1  C   UNL d   1       2.515   2.311  -2.498  0.00  0.00     0.020 A 
ATOM      2  C1  UNL d   1       3.667   1.905  -1.825  0.00  0.00     0.020 A 
ATOM      3  C2  UNL d   1       3.954   2.420  -0.560  0.00  0.00     0.034 A 
ATOM      4  C3  UNL d   1       3.089   3.345   0.037  0.00  0.00     0.017 A 
ATOM      5  C4  UNL d   1       1.934   3.752  -0.640  0.00  0.00     0.017 A 
ATOM      6  C5  UNL d   1       1.651   3.233  -1.907  0.00  0.00     0.034 A 
ATOM      7 Cl   UNL d   1       0.819   4.890   0.031  0.00  0.00    -0.070 Cl
ATOM      8 Cl1  UNL d   1       3.507   3.941   1.604  0.00  0.00    -0.070 Cl
ENDROOT
TORSDOF 0
ENDMDL
