MODEL 1
REMARK minimizedAffinity 4.80121899
REMARK minimizedRMSD -1
REMARK  0 active torsions:
REMARK  status: ('A' for Active; 'I' for Inactive)
ROOT
ATOM      1  C   UNL d   1       0.669  -4.111   0.011  0.00  0.00     0.020 A 
ATOM      2  C1  UNL d   1       0.603  -2.740   0.256  0.00  0.00     0.020 A 
ATOM      3  C2  UNL d   1       1.776  -1.984   0.314  0.00  0.00     0.034 A 
ATOM      4  C3  UNL d   1       3.019  -2.598   0.127  0.00  0.00     0.017 A 
ATOM      5  C4  UNL d   1       3.084  -3.975  -0.119  0.00  0.00     0.017 A 
ATOM      6  C5  UNL d   1       1.907  -4.727  -0.176  0.00  0.00     0.034 A 
ATOM      7 Cl   UNL d   1       4.582  -4.804  -0.360  0.00  0.00    -0.070 Cl
ATOM      8 Cl1  UNL d   1       4.429  -1.602   0.212  0.00  0.00    -0.070 Cl
ENDROOT
TORSDOF 0
ENDMDL
