MODEL 1
REMARK minimizedAffinity 0.434435874
REMARK minimizedRMSD -1
REMARK  0 active torsions:
REMARK  status: ('A' for Active; 'I' for Inactive)
ROOT
ATOM      1  O1  BZF d   1       1.335  -1.592   0.503  0.00  0.00    -0.204 OA
ATOM      2  C2  BZF d   1       0.001  -1.945   0.461  0.00  0.00     0.174 A 
ATOM      3  C3  BZF d   1      -0.772  -0.867   0.218  0.00  0.00    -0.012 A 
ATOM      4  C3A BZF d   1       0.143   0.213   0.009  0.00  0.00    -0.107 A 
ATOM      5  C4  BZF d   1      -0.018   1.536  -0.289  0.00  0.00     0.055 A 
ATOM      6  C5  BZF d   1       1.079   2.336  -0.354  0.00  0.00    -0.016 A 
ATOM      7  C6  BZF d   1       2.348   1.849  -0.122  0.00  0.00     0.022 A 
ATOM      8  C7  BZF d   1       2.558   0.542   0.171  0.00  0.00     0.029 A 
ATOM      9  C7A BZF d   1       1.456  -0.276   0.205  0.00  0.00     0.058 A 
ENDROOT
TORSDOF 0
ENDMDL
