MODEL 1
REMARK minimizedAffinity -5.16786098
REMARK minimizedRMSD -1
REMARK  0 active torsions:
REMARK  status: ('A' for Active; 'I' for Inactive)
ROOT
ATOM      1  O1  BZF d   1      -0.740   0.183   1.195  0.00  0.00    -0.204 OA
ATOM      2  C2  BZF d   1      -0.013  -0.882   0.699  0.00  0.00     0.174 A 
ATOM      3  C3  BZF d   1       0.893  -0.462  -0.208  0.00  0.00    -0.012 A 
ATOM      4  C3A BZF d   1       0.784   0.965  -0.215  0.00  0.00    -0.107 A 
ATOM      5  C4  BZF d   1       1.434   1.953  -0.899  0.00  0.00     0.055 A 
ATOM      6  C5  BZF d   1       1.039   3.242  -0.730  0.00  0.00    -0.016 A 
ATOM      7  C6  BZF d   1      -0.003   3.579   0.108  0.00  0.00     0.022 A 
ATOM      8  C7  BZF d   1      -0.675   2.634   0.811  0.00  0.00     0.029 A 
ATOM      9  C7A BZF d   1      -0.257   1.334   0.668  0.00  0.00     0.058 A 
ENDROOT
TORSDOF 0
ENDMDL
