MODEL 1
REMARK minimizedAffinity -0.692624867
REMARK minimizedRMSD -1
REMARK  0 active torsions:
REMARK  status: ('A' for Active; 'I' for Inactive)
ROOT
ATOM      1  O1  BZF d   1      -0.704  -0.389  -1.184  0.00  0.00    -0.204 OA
ATOM      2  C2  BZF d   1      -0.716  -1.631  -0.581  0.00  0.00     0.174 A 
ATOM      3  C3  BZF d   1       0.455  -1.872   0.043  0.00  0.00    -0.012 A 
ATOM      4  C3A BZF d   1       1.215  -0.669  -0.106  0.00  0.00    -0.107 A 
ATOM      5  C4  BZF d   1       2.457  -0.285   0.313  0.00  0.00     0.055 A 
ATOM      6  C5  BZF d   1       2.933   0.931  -0.062  0.00  0.00    -0.016 A 
ATOM      7  C6  BZF d   1       2.198   1.785  -0.857  0.00  0.00     0.022 A 
ATOM      8  C7  BZF d   1       0.959   1.451  -1.293  0.00  0.00     0.029 A 
ATOM      9  C7A BZF d   1       0.462   0.236  -0.889  0.00  0.00     0.058 A 
ENDROOT
TORSDOF 0
ENDMDL
