MODEL 1
REMARK minimizedAffinity 1.11756206
REMARK minimizedRMSD -1
REMARK  0 active torsions:
REMARK  status: ('A' for Active; 'I' for Inactive)
ROOT
ATOM      1  O1  BZF d   1       1.632  -1.751  -0.868  0.00  0.00    -0.204 OA
ATOM      2  C2  BZF d   1       1.080  -1.326   0.324  0.00  0.00     0.174 A 
ATOM      3  C3  BZF d   1      -0.169  -1.813   0.474  0.00  0.00    -0.012 A 
ATOM      4  C3A BZF d   1      -0.378  -2.666  -0.656  0.00  0.00    -0.107 A 
ATOM      5  C4  BZF d   1      -1.421  -3.447  -1.062  0.00  0.00     0.055 A 
ATOM      6  C5  BZF d   1      -1.335  -4.099  -2.252  0.00  0.00    -0.016 A 
ATOM      7  C6  BZF d   1      -0.223  -3.988  -3.061  0.00  0.00     0.022 A 
ATOM      8  C7  BZF d   1       0.839  -3.229  -2.698  0.00  0.00     0.029 A 
ATOM      9  C7A BZF d   1       0.768  -2.595  -1.481  0.00  0.00     0.058 A 
ENDROOT
TORSDOF 0
ENDMDL
