MODEL 1
REMARK minimizedAffinity -1.95277631
REMARK minimizedRMSD -1
REMARK  0 active torsions:
REMARK  status: ('A' for Active; 'I' for Inactive)
ROOT
ATOM      1  O1  BZF d   1       1.567  -0.080  -0.081  0.00  0.00    -0.204 OA
ATOM      2  C2  BZF d   1       0.985  -1.329   0.015  0.00  0.00     0.174 A 
ATOM      3  C3  BZF d   1      -0.307  -1.227   0.387  0.00  0.00    -0.012 A 
ATOM      4  C3A BZF d   1      -0.573   0.178   0.444  0.00  0.00    -0.107 A 
ATOM      5  C4  BZF d   1      -1.686   0.911   0.741  0.00  0.00     0.055 A 
ATOM      6  C5  BZF d   1      -1.593   2.266   0.777  0.00  0.00    -0.016 A 
ATOM      7  C6  BZF d   1      -0.404   2.920   0.528  0.00  0.00     0.022 A 
ATOM      8  C7  BZF d   1       0.726   2.235   0.225  0.00  0.00     0.029 A 
ATOM      9  C7A BZF d   1       0.627   0.867   0.155  0.00  0.00     0.058 A 
ENDROOT
TORSDOF 0
ENDMDL
