MODEL 1
REMARK minimizedAffinity -5.29853296
REMARK minimizedRMSD -1
REMARK  0 active torsions:
REMARK  status: ('A' for Active; 'I' for Inactive)
ROOT
ATOM      1  O1  BZF d   1       0.526  -0.613   0.563  0.00  0.00    -0.204 OA
ATOM      2  C2  BZF d   1       1.873  -0.426   0.322  0.00  0.00     0.174 A 
ATOM      3  C3  BZF d   1       2.149   0.881   0.136  0.00  0.00    -0.012 A 
ATOM      4  C3A BZF d   1       0.911   1.562   0.360  0.00  0.00    -0.107 A 
ATOM      5  C4  BZF d   1       0.546   2.878   0.338  0.00  0.00     0.055 A 
ATOM      6  C5  BZF d   1      -0.759   3.205   0.530  0.00  0.00    -0.016 A 
ATOM      7  C6  BZF d   1      -1.725   2.243   0.740  0.00  0.00     0.022 A 
ATOM      8  C7  BZF d   1      -1.410   0.925   0.776  0.00  0.00     0.029 A 
ATOM      9  C7A BZF d   1      -0.087   0.594   0.616  0.00  0.00     0.058 A 
ENDROOT
TORSDOF 0
ENDMDL
