MODEL 1
REMARK minimizedAffinity -0.380595088
REMARK minimizedRMSD -1
REMARK  0 active torsions:
REMARK  status: ('A' for Active; 'I' for Inactive)
ROOT
ATOM      1  O1  BZF d   1      -0.714  -3.932  -1.011  0.00  0.00    -0.204 OA
ATOM      2  C2  BZF d   1      -0.804  -4.187  -2.366  0.00  0.00     0.174 A 
ATOM      3  C3  BZF d   1      -0.822  -3.036  -3.069  0.00  0.00    -0.012 A 
ATOM      4  C3A BZF d   1      -0.645  -2.000  -2.099  0.00  0.00    -0.107 A 
ATOM      5  C4  BZF d   1      -0.561  -0.639  -2.184  0.00  0.00     0.055 A 
ATOM      6  C5  BZF d   1      -0.461   0.088  -1.040  0.00  0.00    -0.016 A 
ATOM      7  C6  BZF d   1      -0.448  -0.510   0.203  0.00  0.00     0.022 A 
ATOM      8  C7  BZF d   1      -0.523  -1.857   0.336  0.00  0.00     0.029 A 
ATOM      9  C7A BZF d   1      -0.591  -2.597  -0.819  0.00  0.00     0.058 A 
ENDROOT
TORSDOF 0
ENDMDL
