MODEL 1
REMARK minimizedAffinity -3.52330613
REMARK minimizedRMSD -1
REMARK  0 active torsions:
REMARK  status: ('A' for Active; 'I' for Inactive)
ROOT
ATOM      1  O1  BZF d   1       0.888  -2.053   0.055  0.00  0.00    -0.204 OA
ATOM      2  C2  BZF d   1      -0.409  -2.526   0.003  0.00  0.00     0.174 A 
ATOM      3  C3  BZF d   1      -1.292  -1.507   0.025  0.00  0.00    -0.012 A 
ATOM      4  C3A BZF d   1      -0.495  -0.319   0.002  0.00  0.00    -0.107 A 
ATOM      5  C4  BZF d   1      -0.795   1.014  -0.007  0.00  0.00     0.055 A 
ATOM      6  C5  BZF d   1       0.217   1.919   0.044  0.00  0.00    -0.016 A 
ATOM      7  C6  BZF d   1       1.538   1.529   0.109  0.00  0.00     0.022 A 
ATOM      8  C7  BZF d   1       1.886   0.219   0.116  0.00  0.00     0.029 A 
ATOM      9  C7A BZF d   1       0.867  -0.699   0.031  0.00  0.00     0.058 A 
ENDROOT
TORSDOF 0
ENDMDL
