MODEL 1
REMARK minimizedAffinity -5.11489153
REMARK minimizedRMSD -1
REMARK  0 active torsions:
REMARK  status: ('A' for Active; 'I' for Inactive)
ROOT
ATOM      1  O1  BZF d   1      -0.622   2.939   0.388  0.00  0.00    -0.204 OA
ATOM      2  C2  BZF d   1       0.688   3.278   0.107  0.00  0.00     0.174 A 
ATOM      3  C3  BZF d   1       1.413   2.180  -0.188  0.00  0.00    -0.012 A 
ATOM      4  C3A BZF d   1       0.479   1.097  -0.175  0.00  0.00    -0.107 A 
ATOM      5  C4  BZF d   1       0.593  -0.244  -0.408  0.00  0.00     0.055 A 
ATOM      6  C5  BZF d   1      -0.498  -1.038  -0.242  0.00  0.00    -0.016 A 
ATOM      7  C6  BZF d   1      -1.714  -0.526   0.160  0.00  0.00     0.022 A 
ATOM      8  C7  BZF d   1      -1.877   0.798   0.398  0.00  0.00     0.029 A 
ATOM      9  C7A BZF d   1      -0.785   1.608   0.200  0.00  0.00     0.058 A 
ENDROOT
TORSDOF 0
ENDMDL
