MODEL 1
REMARK minimizedAffinity -3.9381516
REMARK minimizedRMSD -1
REMARK  0 active torsions:
REMARK  status: ('A' for Active; 'I' for Inactive)
ROOT
ATOM      1  O1  BZF d   1      -0.930  -0.631   0.927  0.00  0.00    -0.204 OA
ATOM      2  C2  BZF d   1      -0.028  -1.527   0.386  0.00  0.00     0.174 A 
ATOM      3  C3  BZF d   1       0.860  -0.892  -0.406  0.00  0.00    -0.012 A 
ATOM      4  C3A BZF d   1       0.548   0.499  -0.283  0.00  0.00    -0.107 A 
ATOM      5  C4  BZF d   1       1.088   1.633  -0.817  0.00  0.00     0.055 A 
ATOM      6  C5  BZF d   1       0.503   2.831  -0.554  0.00  0.00    -0.016 A 
ATOM      7  C6  BZF d   1      -0.625   2.930   0.233  0.00  0.00     0.022 A 
ATOM      8  C7  BZF d   1      -1.195   1.833   0.790  0.00  0.00     0.029 A 
ATOM      9  C7A BZF d   1      -0.586   0.625   0.553  0.00  0.00     0.058 A 
ENDROOT
TORSDOF 0
ENDMDL
