MODEL 1
REMARK minimizedAffinity 0.553247929
REMARK minimizedRMSD -1
REMARK  0 active torsions:
REMARK  status: ('A' for Active; 'I' for Inactive)
ROOT
ATOM      1  O1  BZF d   1      -3.253  -3.956  -1.819  0.00  0.00    -0.204 OA
ATOM      2  C2  BZF d   1      -3.696  -4.241  -0.542  0.00  0.00     0.174 A 
ATOM      3  C3  BZF d   1      -2.756  -3.922   0.372  0.00  0.00    -0.012 A 
ATOM      4  C3A BZF d   1      -1.695  -3.319  -0.374  0.00  0.00    -0.107 A 
ATOM      5  C4  BZF d   1      -0.489  -2.781  -0.024  0.00  0.00     0.055 A 
ATOM      6  C5  BZF d   1       0.346  -2.342  -1.002  0.00  0.00    -0.016 A 
ATOM      7  C6  BZF d   1       0.011  -2.430  -2.337  0.00  0.00     0.022 A 
ATOM      8  C7  BZF d   1      -1.175  -2.952  -2.733  0.00  0.00     0.029 A 
ATOM      9  C7A BZF d   1      -2.036  -3.366  -1.746  0.00  0.00     0.058 A 
ENDROOT
TORSDOF 0
ENDMDL
