MODEL 1
REMARK minimizedAffinity -2.34394765
REMARK minimizedRMSD -1
REMARK  0 active torsions:
REMARK  status: ('A' for Active; 'I' for Inactive)
ROOT
ATOM      1  O1  BZF d   1      -0.161   3.777   2.250  0.00  0.00    -0.204 OA
ATOM      2  C2  BZF d   1      -0.912   3.494   3.374  0.00  0.00     0.174 A 
ATOM      3  C3  BZF d   1      -1.546   2.311   3.240  0.00  0.00    -0.012 A 
ATOM      4  C3A BZF d   1      -1.094   1.781   1.990  0.00  0.00    -0.107 A 
ATOM      5  C4  BZF d   1      -1.355   0.626   1.310  0.00  0.00     0.055 A 
ATOM      6  C5  BZF d   1      -0.809   0.446   0.079  0.00  0.00    -0.016 A 
ATOM      7  C6  BZF d   1      -0.003   1.401  -0.504  0.00  0.00     0.022 A 
ATOM      8  C7  BZF d   1       0.289   2.561   0.134  0.00  0.00     0.029 A 
ATOM      9  C7A BZF d   1      -0.235   2.732   1.392  0.00  0.00     0.058 A 
ENDROOT
TORSDOF 0
ENDMDL
