MODEL 1
REMARK minimizedAffinity -5.58666134
REMARK minimizedRMSD -1
REMARK  0 active torsions:
REMARK  status: ('A' for Active; 'I' for Inactive)
ROOT
ATOM      1  O1  BZF d   1       2.501   1.021   0.908  0.00  0.00    -0.204 OA
ATOM      2  C2  BZF d   1       2.772   2.303   1.344  0.00  0.00     0.174 A 
ATOM      3  C3  BZF d   1       1.649   3.049   1.368  0.00  0.00    -0.012 A 
ATOM      4  C3A BZF d   1       0.594   2.151   1.008  0.00  0.00    -0.107 A 
ATOM      5  C4  BZF d   1      -0.757   2.296   0.872  0.00  0.00     0.055 A 
ATOM      6  C5  BZF d   1      -1.494   1.242   0.435  0.00  0.00    -0.016 A 
ATOM      7  C6  BZF d   1      -0.913   0.031   0.120  0.00  0.00     0.022 A 
ATOM      8  C7  BZF d   1       0.423  -0.163   0.243  0.00  0.00     0.029 A 
ATOM      9  C7A BZF d   1       1.166   0.891   0.716  0.00  0.00     0.058 A 
ENDROOT
TORSDOF 0
ENDMDL
