MODEL 1
REMARK minimizedAffinity -2.86746907
REMARK minimizedRMSD -1
REMARK  0 active torsions:
REMARK  status: ('A' for Active; 'I' for Inactive)
ROOT
ATOM      1  O1  BZF d   1       0.811  -1.058  -0.907  0.00  0.00    -0.204 OA
ATOM      2  C2  BZF d   1       0.073  -0.206  -0.109  0.00  0.00     0.174 A 
ATOM      3  C3  BZF d   1      -1.126  -0.748   0.189  0.00  0.00    -0.012 A 
ATOM      4  C3A BZF d   1      -1.100  -2.057  -0.386  0.00  0.00    -0.107 A 
ATOM      5  C4  BZF d   1      -1.996  -3.088  -0.415  0.00  0.00     0.055 A 
ATOM      6  C5  BZF d   1      -1.693  -4.206  -1.125  0.00  0.00    -0.016 A 
ATOM      7  C6  BZF d   1      -0.508  -4.326  -1.821  0.00  0.00     0.022 A 
ATOM      8  C7  BZF d   1       0.414  -3.332  -1.818  0.00  0.00     0.029 A 
ATOM      9  C7A BZF d   1       0.125  -2.214  -1.075  0.00  0.00     0.058 A 
ENDROOT
TORSDOF 0
ENDMDL
