MODEL 1
REMARK minimizedAffinity -4.20035648
REMARK minimizedRMSD -1
REMARK  0 active torsions:
REMARK  status: ('A' for Active; 'I' for Inactive)
ROOT
ATOM      1  O1  BZF d   1       2.309   0.771   0.893  0.00  0.00    -0.204 OA
ATOM      2  C2  BZF d   1       2.844   1.916   1.451  0.00  0.00     0.174 A 
ATOM      3  C3  BZF d   1       1.885   2.842   1.656  0.00  0.00    -0.012 A 
ATOM      4  C3A BZF d   1       0.660   2.203   1.283  0.00  0.00    -0.107 A 
ATOM      5  C4  BZF d   1      -0.645   2.605   1.279  0.00  0.00     0.055 A 
ATOM      6  C5  BZF d   1      -1.594   1.766   0.786  0.00  0.00    -0.016 A 
ATOM      7  C6  BZF d   1      -1.272   0.522   0.285  0.00  0.00     0.022 A 
ATOM      8  C7  BZF d   1       0.008   0.077   0.272  0.00  0.00     0.029 A 
ATOM      9  C7A BZF d   1       0.964   0.909   0.800  0.00  0.00     0.058 A 
ENDROOT
TORSDOF 0
ENDMDL
