MODEL 1
REMARK minimizedAffinity -5.58886385
REMARK minimizedRMSD -1
REMARK  0 active torsions:
REMARK  status: ('A' for Active; 'I' for Inactive)
ROOT
ATOM      1  O1  BZF d   1       1.136  -1.190  -0.197  0.00  0.00    -0.204 OA
ATOM      2  C2  BZF d   1       0.117  -1.904  -0.799  0.00  0.00     0.174 A 
ATOM      3  C3  BZF d   1      -0.933  -1.102  -1.070  0.00  0.00    -0.012 A 
ATOM      4  C3A BZF d   1      -0.511   0.212  -0.693  0.00  0.00    -0.107 A 
ATOM      5  C4  BZF d   1      -1.109   1.439  -0.738  0.00  0.00     0.055 A 
ATOM      6  C5  BZF d   1      -0.452   2.512  -0.224  0.00  0.00    -0.016 A 
ATOM      7  C6  BZF d   1       0.799   2.394   0.345  0.00  0.00     0.022 A 
ATOM      8  C7  BZF d   1       1.434   1.199   0.407  0.00  0.00     0.029 A 
ATOM      9  C7A BZF d   1       0.787   0.118  -0.141  0.00  0.00     0.058 A 
ENDROOT
TORSDOF 0
ENDMDL
