MODEL 1
REMARK minimizedAffinity 0.840615034
REMARK minimizedRMSD -1
REMARK  0 active torsions:
REMARK  status: ('A' for Active; 'I' for Inactive)
ROOT
ATOM      1  O1  BZF d   1       1.994  -1.028   0.504  0.00  0.00    -0.204 OA
ATOM      2  C2  BZF d   1       2.030   0.079  -0.321  0.00  0.00     0.174 A 
ATOM      3  C3  BZF d   1       0.800   0.618  -0.452  0.00  0.00    -0.012 A 
ATOM      4  C3A BZF d   1      -0.041  -0.148   0.415  0.00  0.00    -0.107 A 
ATOM      5  C4  BZF d   1      -1.368  -0.086   0.732  0.00  0.00     0.055 A 
ATOM      6  C5  BZF d   1      -1.894  -1.028   1.558  0.00  0.00    -0.016 A 
ATOM      7  C6  BZF d   1      -1.125  -2.047   2.081  0.00  0.00     0.022 A 
ATOM      8  C7  BZF d   1       0.196  -2.147   1.799  0.00  0.00     0.029 A 
ATOM      9  C7A BZF d   1       0.739  -1.178   0.991  0.00  0.00     0.058 A 
ENDROOT
TORSDOF 0
ENDMDL
