MODEL 1
REMARK minimizedAffinity -3.0728054
REMARK minimizedRMSD -1
REMARK  0 active torsions:
REMARK  status: ('A' for Active; 'I' for Inactive)
ROOT
ATOM      1  O1  BZF d   1       0.692  -0.011   1.196  0.00  0.00    -0.204 OA
ATOM      2  C2  BZF d   1       1.542   0.799   0.469  0.00  0.00     0.174 A 
ATOM      3  C3  BZF d   1       1.003   1.109  -0.727  0.00  0.00    -0.012 A 
ATOM      4  C3A BZF d   1      -0.304   0.526  -0.712  0.00  0.00    -0.107 A 
ATOM      5  C4  BZF d   1      -1.332   0.503  -1.611  0.00  0.00     0.055 A 
ATOM      6  C5  BZF d   1      -2.448  -0.216  -1.320  0.00  0.00    -0.016 A 
ATOM      7  C6  BZF d   1      -2.567  -0.927  -0.144  0.00  0.00     0.022 A 
ATOM      8  C7  BZF d   1      -1.577  -0.929   0.781  0.00  0.00     0.029 A 
ATOM      9  C7A BZF d   1      -0.461  -0.177   0.504  0.00  0.00     0.058 A 
ENDROOT
TORSDOF 0
ENDMDL
