MODEL 1
REMARK minimizedAffinity -0.329801291
REMARK minimizedRMSD -1
REMARK  0 active torsions:
REMARK  status: ('A' for Active; 'I' for Inactive)
ROOT
ATOM      1  O1  BZF d   1       1.249   3.013  -0.374  0.00  0.00    -0.204 OA
ATOM      2  C2  BZF d   1       2.342   3.170   0.457  0.00  0.00     0.174 A 
ATOM      3  C3  BZF d   1       2.564   2.048   1.173  0.00  0.00    -0.012 A 
ATOM      4  C3A BZF d   1       1.602   1.101   0.696  0.00  0.00    -0.107 A 
ATOM      5  C4  BZF d   1       1.332  -0.200   1.008  0.00  0.00     0.055 A 
ATOM      6  C5  BZF d   1       0.279  -0.818   0.411  0.00  0.00    -0.016 A 
ATOM      7  C6  BZF d   1      -0.527  -0.163  -0.497  0.00  0.00     0.022 A 
ATOM      8  C7  BZF d   1      -0.295   1.127  -0.843  0.00  0.00     0.029 A 
ATOM      9  C7A BZF d   1       0.789   1.743  -0.266  0.00  0.00     0.058 A 
ENDROOT
TORSDOF 0
ENDMDL
