MODEL 1
REMARK minimizedAffinity -3.7078259
REMARK minimizedRMSD -1
REMARK  0 active torsions:
REMARK  status: ('A' for Active; 'I' for Inactive)
ROOT
ATOM      1  O1  BZF d   1      -2.458  -1.563   0.904  0.00  0.00    -0.204 OA
ATOM      2  C2  BZF d   1      -3.224  -0.964  -0.078  0.00  0.00     0.174 A 
ATOM      3  C3  BZF d   1      -2.468  -0.149  -0.842  0.00  0.00    -0.012 A 
ATOM      4  C3A BZF d   1      -1.131  -0.317  -0.363  0.00  0.00    -0.107 A 
ATOM      5  C4  BZF d   1       0.072   0.215  -0.732  0.00  0.00     0.055 A 
ATOM      6  C5  BZF d   1       1.181  -0.099  -0.013  0.00  0.00    -0.016 A 
ATOM      7  C6  BZF d   1       1.124  -0.936   1.082  0.00  0.00     0.022 A 
ATOM      8  C7  BZF d   1      -0.046  -1.492   1.483  0.00  0.00     0.029 A 
ATOM      9  C7A BZF d   1      -1.163  -1.202   0.738  0.00  0.00     0.058 A 
ENDROOT
TORSDOF 0
ENDMDL
