MODEL 1
REMARK minimizedAffinity -3.78699231
REMARK minimizedRMSD -1
REMARK  0 active torsions:
REMARK  status: ('A' for Active; 'I' for Inactive)
ROOT
ATOM      1  O1  BZF d   1       1.393  -0.609  -0.066  0.00  0.00    -0.204 OA
ATOM      2  C2  BZF d   1       1.438  -1.358   1.094  0.00  0.00     0.174 A 
ATOM      3  C3  BZF d   1       0.194  -1.598   1.557  0.00  0.00    -0.012 A 
ATOM      4  C3A BZF d   1      -0.686  -1.038   0.578  0.00  0.00    -0.107 A 
ATOM      5  C4  BZF d   1      -2.046  -0.971   0.467  0.00  0.00     0.055 A 
ATOM      6  C5  BZF d   1      -2.590  -0.290  -0.575  0.00  0.00    -0.016 A 
ATOM      7  C6  BZF d   1      -1.807   0.341  -1.519  0.00  0.00     0.022 A 
ATOM      8  C7  BZF d   1      -0.454   0.299  -1.453  0.00  0.00     0.029 A 
ATOM      9  C7A BZF d   1       0.100  -0.417  -0.420  0.00  0.00     0.058 A 
ENDROOT
TORSDOF 0
ENDMDL
