MODEL 1
REMARK minimizedAffinity -4.21008015
REMARK minimizedRMSD -1
REMARK  0 active torsions:
REMARK  status: ('A' for Active; 'I' for Inactive)
ROOT
ATOM      1  O1  BZF d   1       0.332  -0.556   1.300  0.00  0.00    -0.204 OA
ATOM      2  C2  BZF d   1       1.486  -0.037   0.745  0.00  0.00     0.174 A 
ATOM      3  C3  BZF d   1       1.302   0.248  -0.560  0.00  0.00    -0.012 A 
ATOM      4  C3A BZF d   1      -0.078  -0.029  -0.816  0.00  0.00    -0.107 A 
ATOM      5  C4  BZF d   1      -0.866   0.073  -1.926  0.00  0.00     0.055 A 
ATOM      6  C5  BZF d   1      -2.157  -0.347  -1.861  0.00  0.00    -0.016 A 
ATOM      7  C6  BZF d   1      -2.690  -0.878  -0.705  0.00  0.00     0.022 A 
ATOM      8  C7  BZF d   1      -1.948  -0.994   0.424  0.00  0.00     0.029 A 
ATOM      9  C7A BZF d   1      -0.653  -0.540   0.370  0.00  0.00     0.058 A 
ENDROOT
TORSDOF 0
ENDMDL
