MODEL 1
REMARK minimizedAffinity -4.2417388
REMARK minimizedRMSD -1
REMARK  0 active torsions:
REMARK  status: ('A' for Active; 'I' for Inactive)
ROOT
ATOM      1  O1  BZF d   1      -3.230  -0.327  -0.672  0.00  0.00    -0.204 OA
ATOM      2  C2  BZF d   1      -3.187  -0.683   0.662  0.00  0.00     0.174 A 
ATOM      3  C3  BZF d   1      -1.914  -0.866   1.068  0.00  0.00    -0.012 A 
ATOM      4  C3A BZF d   1      -1.106  -0.518  -0.061  0.00  0.00    -0.107 A 
ATOM      5  C4  BZF d   1       0.242  -0.480  -0.274  0.00  0.00     0.055 A 
ATOM      6  C5  BZF d   1       0.706  -0.167  -1.512  0.00  0.00    -0.016 A 
ATOM      7  C6  BZF d   1      -0.148   0.109  -2.560  0.00  0.00     0.022 A 
ATOM      8  C7  BZF d   1      -1.493   0.090  -2.395  0.00  0.00     0.029 A 
ATOM      9  C7A BZF d   1      -1.965  -0.195  -1.137  0.00  0.00     0.058 A 
ENDROOT
TORSDOF 0
ENDMDL
