MODEL 1
REMARK minimizedAffinity -2.76803732
REMARK minimizedRMSD -1
REMARK  0 active torsions:
REMARK  status: ('A' for Active; 'I' for Inactive)
ROOT
ATOM      1  O1  BZF d   1       0.159   1.615   0.603  0.00  0.00    -0.204 OA
ATOM      2  C2  BZF d   1       1.317   0.919   0.315  0.00  0.00     0.174 A 
ATOM      3  C3  BZF d   1       1.037  -0.225  -0.342  0.00  0.00    -0.012 A 
ATOM      4  C3A BZF d   1      -0.378  -0.200  -0.554  0.00  0.00    -0.107 A 
ATOM      5  C4  BZF d   1      -1.251  -1.054  -1.166  0.00  0.00     0.055 A 
ATOM      6  C5  BZF d   1      -2.580  -0.772  -1.136  0.00  0.00    -0.016 A 
ATOM      7  C6  BZF d   1      -3.071   0.349  -0.500  0.00  0.00     0.022 A 
ATOM      8  C7  BZF d   1      -2.244   1.227   0.117  0.00  0.00     0.029 A 
ATOM      9  C7A BZF d   1      -0.897   0.963   0.060  0.00  0.00     0.058 A 
ENDROOT
TORSDOF 0
ENDMDL
