MODEL 1
REMARK minimizedAffinity -3.73404884
REMARK minimizedRMSD -1
REMARK  0 active torsions:
REMARK  status: ('A' for Active; 'I' for Inactive)
ROOT
ATOM      1  O1  BZF d   1       0.039   1.489   1.084  0.00  0.00    -0.204 OA
ATOM      2  C2  BZF d   1       1.328   1.234   0.656  0.00  0.00     0.174 A 
ATOM      3  C3  BZF d   1       1.329   0.340  -0.353  0.00  0.00    -0.012 A 
ATOM      4  C3A BZF d   1      -0.051   0.085  -0.632  0.00  0.00    -0.107 A 
ATOM      5  C4  BZF d   1      -0.695  -0.705  -1.541  0.00  0.00     0.055 A 
ATOM      6  C5  BZF d   1      -2.051  -0.785  -1.503  0.00  0.00    -0.016 A 
ATOM      7  C6  BZF d   1      -2.793  -0.094  -0.568  0.00  0.00     0.022 A 
ATOM      8  C7  BZF d   1      -2.200   0.705   0.351  0.00  0.00     0.029 A 
ATOM      9  C7A BZF d   1      -0.832   0.814   0.294  0.00  0.00     0.058 A 
ENDROOT
TORSDOF 0
ENDMDL
