MODEL 1
REMARK minimizedAffinity -1.73753631
REMARK minimizedRMSD -1
REMARK  0 active torsions:
REMARK  status: ('A' for Active; 'I' for Inactive)
ROOT
ATOM      1  O1  BZF d   1      -2.475  -0.261  -1.183  0.00  0.00    -0.204 OA
ATOM      2  C2  BZF d   1      -3.187  -0.311  -0.000  0.00  0.00     0.174 A 
ATOM      3  C3  BZF d   1      -2.356  -0.274   1.061  0.00  0.00    -0.012 A 
ATOM      4  C3A BZF d   1      -1.047  -0.102   0.508  0.00  0.00    -0.107 A 
ATOM      5  C4  BZF d   1       0.196   0.021   1.059  0.00  0.00     0.055 A 
ATOM      6  C5  BZF d   1       1.277   0.101   0.239  0.00  0.00    -0.016 A 
ATOM      7  C6  BZF d   1       1.151   0.056  -1.134  0.00  0.00     0.022 A 
ATOM      8  C7  BZF d   1      -0.062  -0.061  -1.727  0.00  0.00     0.029 A 
ATOM      9  C7A BZF d   1      -1.159  -0.108  -0.902  0.00  0.00     0.058 A 
ENDROOT
TORSDOF 0
ENDMDL
