MODEL 1
REMARK minimizedAffinity -4.24232674
REMARK minimizedRMSD -1
REMARK  0 active torsions:
REMARK  status: ('A' for Active; 'I' for Inactive)
ROOT
ATOM      1  O1  BZF d   1       0.987  -0.356   0.443  0.00  0.00    -0.204 OA
ATOM      2  C2  BZF d   1       1.612   0.107  -0.698  0.00  0.00     0.174 A 
ATOM      3  C3  BZF d   1       0.711   0.363  -1.668  0.00  0.00    -0.012 A 
ATOM      4  C3A BZF d   1      -0.566   0.128  -1.066  0.00  0.00    -0.107 A 
ATOM      5  C4  BZF d   1      -1.850   0.227  -1.520  0.00  0.00     0.055 A 
ATOM      6  C5  BZF d   1      -2.870  -0.146  -0.703  0.00  0.00    -0.016 A 
ATOM      7  C6  BZF d   1      -2.642  -0.627   0.570  0.00  0.00     0.022 A 
ATOM      8  C7  BZF d   1      -1.385  -0.739   1.066  0.00  0.00     0.029 A 
ATOM      9  C7A BZF d   1      -0.355  -0.332   0.254  0.00  0.00     0.058 A 
ENDROOT
TORSDOF 0
ENDMDL
