MODEL 1
REMARK minimizedAffinity -3.87477207
REMARK minimizedRMSD -1
REMARK  0 active torsions:
REMARK  status: ('A' for Active; 'I' for Inactive)
ROOT
ATOM      1  O1  BZF d   1      -2.702  -0.931  -1.228  0.00  0.00    -0.204 OA
ATOM      2  C2  BZF d   1      -3.314  -1.494  -0.125  0.00  0.00     0.174 A 
ATOM      3  C3  BZF d   1      -2.481  -1.496   0.936  0.00  0.00    -0.012 A 
ATOM      4  C3A BZF d   1      -1.305  -0.812   0.492  0.00  0.00    -0.107 A 
ATOM      5  C4  BZF d   1      -0.127  -0.480   1.097  0.00  0.00     0.055 A 
ATOM      6  C5  BZF d   1       0.846   0.123   0.364  0.00  0.00    -0.016 A 
ATOM      7  C6  BZF d   1       0.676   0.405  -0.976  0.00  0.00     0.022 A 
ATOM      8  C7  BZF d   1      -0.478   0.099  -1.619  0.00  0.00     0.029 A 
ATOM      9  C7A BZF d   1      -1.475  -0.481  -0.873  0.00  0.00     0.058 A 
ENDROOT
TORSDOF 0
ENDMDL
