MODEL 1
REMARK minimizedAffinity -4.17262316
REMARK minimizedRMSD -1
REMARK  0 active torsions:
REMARK  status: ('A' for Active; 'I' for Inactive)
ROOT
ATOM      1  O1  BZF d   1      -2.103   0.658   0.640  0.00  0.00    -0.204 OA
ATOM      2  C2  BZF d   1      -2.607  -0.226  -0.294  0.00  0.00     0.174 A 
ATOM      3  C3  BZF d   1      -1.609  -0.814  -0.984  0.00  0.00    -0.012 A 
ATOM      4  C3A BZF d   1      -0.403  -0.332  -0.385  0.00  0.00    -0.107 A 
ATOM      5  C4  BZF d   1       0.922  -0.567  -0.622  0.00  0.00     0.055 A 
ATOM      6  C5  BZF d   1       1.852   0.119   0.093  0.00  0.00    -0.016 A 
ATOM      7  C6  BZF d   1       1.494   1.049   1.047  0.00  0.00     0.022 A 
ATOM      8  C7  BZF d   1       0.193   1.311   1.321  0.00  0.00     0.029 A 
ATOM      9  C7A BZF d   1      -0.750   0.596   0.623  0.00  0.00     0.058 A 
ENDROOT
TORSDOF 0
ENDMDL
