MODEL 1
REMARK minimizedAffinity -3.39876199
REMARK minimizedRMSD -1
REMARK  0 active torsions:
REMARK  status: ('A' for Active; 'I' for Inactive)
ROOT
ATOM      1  O1  BZF d   1       1.865   0.314  -0.240  0.00  0.00    -0.204 OA
ATOM      2  C2  BZF d   1       2.659  -0.204   0.765  0.00  0.00     0.174 A 
ATOM      3  C3  BZF d   1       1.904  -0.797   1.713  0.00  0.00    -0.012 A 
ATOM      4  C3A BZF d   1       0.561  -0.721   1.226  0.00  0.00    -0.107 A 
ATOM      5  C4  BZF d   1      -0.640  -1.150   1.714  0.00  0.00     0.055 A 
ATOM      6  C5  BZF d   1      -1.776  -0.853   1.029  0.00  0.00    -0.016 A 
ATOM      7  C6  BZF d   1      -1.748  -0.125  -0.142  0.00  0.00     0.022 A 
ATOM      8  C7  BZF d   1      -0.580   0.318  -0.668  0.00  0.00     0.029 A 
ATOM      9  C7A BZF d   1       0.572  -0.009   0.004  0.00  0.00     0.058 A 
ENDROOT
TORSDOF 0
ENDMDL
