MODEL 1
REMARK minimizedAffinity -3.9657104
REMARK minimizedRMSD -1
REMARK  0 active torsions:
REMARK  status: ('A' for Active; 'I' for Inactive)
ROOT
ATOM      1  O1  BZF d   1      -0.022   0.644   1.268  0.00  0.00    -0.204 OA
ATOM      2  C2  BZF d   1       1.187   1.022   0.717  0.00  0.00     0.174 A 
ATOM      3  C3  BZF d   1       1.242   0.690  -0.589  0.00  0.00    -0.012 A 
ATOM      4  C3A BZF d   1      -0.046   0.147  -0.895  0.00  0.00    -0.107 A 
ATOM      5  C4  BZF d   1      -0.610  -0.346  -2.036  0.00  0.00     0.055 A 
ATOM      6  C5  BZF d   1      -1.864  -0.866  -1.982  0.00  0.00    -0.016 A 
ATOM      7  C6  BZF d   1      -2.580  -0.913  -0.803  0.00  0.00     0.022 A 
ATOM      8  C7  BZF d   1      -2.064  -0.432   0.354  0.00  0.00     0.029 A 
ATOM      9  C7A BZF d   1      -0.810   0.124   0.295  0.00  0.00     0.058 A 
ENDROOT
TORSDOF 0
ENDMDL
