MODEL 1
REMARK minimizedAffinity -4.8253932
REMARK minimizedRMSD -1
REMARK  0 active torsions:
REMARK  status: ('A' for Active; 'I' for Inactive)
ROOT
ATOM      1  O1  BZF d   1       0.940   0.616  -0.589  0.00  0.00    -0.204 OA
ATOM      2  C2  BZF d   1       1.515   0.227   0.605  0.00  0.00     0.174 A 
ATOM      3  C3  BZF d   1       0.603  -0.360   1.406  0.00  0.00    -0.012 A 
ATOM      4  C3A BZF d   1      -0.597  -0.418   0.631  0.00  0.00    -0.107 A 
ATOM      5  C4  BZF d   1      -1.850  -0.906   0.874  0.00  0.00     0.055 A 
ATOM      6  C5  BZF d   1      -2.817  -0.741  -0.067  0.00  0.00    -0.016 A 
ATOM      7  C6  BZF d   1      -2.568  -0.091  -1.257  0.00  0.00     0.022 A 
ATOM      8  C7  BZF d   1      -1.341   0.406  -1.546  0.00  0.00     0.029 A 
ATOM      9  C7A BZF d   1      -0.353   0.212  -0.611  0.00  0.00     0.058 A 
ENDROOT
TORSDOF 0
ENDMDL
