MODEL 1
REMARK minimizedAffinity -4.37039089
REMARK minimizedRMSD -1
REMARK  0 active torsions:
REMARK  status: ('A' for Active; 'I' for Inactive)
ROOT
ATOM      1  O1  BZF d   1      -2.234  -0.710  -1.013  0.00  0.00    -0.204 OA
ATOM      2  C2  BZF d   1      -2.796  -1.103   0.187  0.00  0.00     0.174 A 
ATOM      3  C3  BZF d   1      -1.862  -1.156   1.158  0.00  0.00    -0.012 A 
ATOM      4  C3A BZF d   1      -0.657  -0.683   0.547  0.00  0.00    -0.107 A 
ATOM      5  C4  BZF d   1       0.614  -0.489   1.006  0.00  0.00     0.055 A 
ATOM      6  C5  BZF d   1       1.576  -0.085   0.135  0.00  0.00    -0.016 A 
ATOM      7  C6  BZF d   1       1.304   0.128  -1.200  0.00  0.00     0.022 A 
ATOM      8  C7  BZF d   1       0.056  -0.047  -1.701  0.00  0.00     0.029 A 
ATOM      9  C7A BZF d   1      -0.925  -0.423  -0.816  0.00  0.00     0.058 A 
ENDROOT
TORSDOF 0
ENDMDL
