MODEL 1
REMARK minimizedAffinity -3.24442816
REMARK minimizedRMSD -1
REMARK  0 active torsions:
REMARK  status: ('A' for Active; 'I' for Inactive)
ROOT
ATOM      1  O1  BZF d   1      -2.272  -0.812  -1.211  0.00  0.00    -0.204 OA
ATOM      2  C2  BZF d   1      -2.984  -1.080  -0.058  0.00  0.00     0.174 A 
ATOM      3  C3  BZF d   1      -2.234  -0.832   1.035  0.00  0.00    -0.012 A 
ATOM      4  C3A BZF d   1      -1.007  -0.292   0.535  0.00  0.00    -0.107 A 
ATOM      5  C4  BZF d   1       0.132   0.162   1.136  0.00  0.00     0.055 A 
ATOM      6  C5  BZF d   1       1.177   0.555   0.360  0.00  0.00    -0.016 A 
ATOM      7  C6  BZF d   1       1.118   0.501  -1.017  0.00  0.00     0.022 A 
ATOM      8  C7  BZF d   1       0.008   0.063  -1.658  0.00  0.00     0.029 A 
ATOM      9  C7A BZF d   1      -1.061  -0.304  -0.877  0.00  0.00     0.058 A 
ENDROOT
TORSDOF 0
ENDMDL
