MODEL 1
REMARK minimizedAffinity -3.39652061
REMARK minimizedRMSD -1
REMARK  0 active torsions:
REMARK  status: ('A' for Active; 'I' for Inactive)
ROOT
ATOM      1  O1  BZF d   1      -0.002   0.803   1.079  0.00  0.00    -0.204 OA
ATOM      2  C2  BZF d   1       1.287   0.703   0.591  0.00  0.00     0.174 A 
ATOM      3  C3  BZF d   1       1.305   0.030  -0.578  0.00  0.00    -0.012 A 
ATOM      4  C3A BZF d   1      -0.068  -0.232  -0.883  0.00  0.00    -0.107 A 
ATOM      5  C4  BZF d   1      -0.696  -0.854  -1.924  0.00  0.00     0.055 A 
ATOM      6  C5  BZF d   1      -2.045  -1.008  -1.883  0.00  0.00    -0.016 A 
ATOM      7  C6  BZF d   1      -2.796  -0.557  -0.818  0.00  0.00     0.022 A 
ATOM      8  C7  BZF d   1      -2.218   0.071   0.235  0.00  0.00     0.029 A 
ATOM      9  C7A BZF d   1      -0.859   0.257   0.182  0.00  0.00     0.058 A 
ENDROOT
TORSDOF 0
ENDMDL
