MODEL 1
REMARK minimizedAffinity -3.4090085
REMARK minimizedRMSD -1
REMARK  0 active torsions:
REMARK  status: ('A' for Active; 'I' for Inactive)
ROOT
ATOM      1  O1  BZF d   1       0.403   0.552  -1.181  0.00  0.00    -0.204 OA
ATOM      2  C2  BZF d   1       1.189   0.752  -0.062  0.00  0.00     0.174 A 
ATOM      3  C3  BZF d   1       0.504   0.457   1.062  0.00  0.00    -0.012 A 
ATOM      4  C3A BZF d   1      -0.760  -0.041   0.614  0.00  0.00    -0.107 A 
ATOM      5  C4  BZF d   1      -1.867  -0.511   1.261  0.00  0.00     0.055 A 
ATOM      6  C5  BZF d   1      -2.963  -0.851   0.533  0.00  0.00    -0.016 A 
ATOM      7  C6  BZF d   1      -2.989  -0.728  -0.841  0.00  0.00     0.022 A 
ATOM      8  C7  BZF d   1      -1.913  -0.271  -1.527  0.00  0.00     0.029 A 
ATOM      9  C7A BZF d   1      -0.793   0.042  -0.798  0.00  0.00     0.058 A 
ENDROOT
TORSDOF 0
ENDMDL
