MODEL 1
REMARK minimizedAffinity 9.04970932
REMARK minimizedRMSD -1
REMARK  0 active torsions:
REMARK  status: ('A' for Active; 'I' for Inactive)
ROOT
ATOM      1  C4' PXY d   1       0.389  -4.169  -2.588  0.00  0.00     0.077 C 
ATOM      2  C1' PXY d   1      -4.440  -3.591  -5.712  0.00  0.00     0.077 C 
ATOM      3  C1  PXY d   1      -3.180  -3.738  -4.882  0.00  0.00    -0.082 A 
ATOM      4  C2  PXY d   1      -2.000  -3.751  -5.481  0.00  0.00     0.003 A 
ATOM      5  C3  PXY d   1      -0.853  -3.915  -4.749  0.00  0.00     0.003 A 
ATOM      6  C4  PXY d   1      -0.909  -4.013  -3.385  0.00  0.00    -0.082 A 
ATOM      7  C5  PXY d   1      -2.109  -3.990  -2.765  0.00  0.00     0.003 A 
ATOM      8  C6  PXY d   1      -3.265  -3.864  -3.530  0.00  0.00     0.003 A 
ENDROOT
TORSDOF 0
ENDMDL
