MODEL 1
REMARK minimizedAffinity 12.0007553
REMARK minimizedRMSD -1
REMARK  0 active torsions:
REMARK  status: ('A' for Active; 'I' for Inactive)
ROOT
ATOM      1  C4' PXY d   1      -0.407   3.061   6.000  0.00  0.00     0.077 C 
ATOM      2  C1' PXY d   1       1.138   0.393   1.110  0.00  0.00     0.077 C 
ATOM      3  C1  PXY d   1       0.740   1.084   2.400  0.00  0.00    -0.082 A 
ATOM      4  C2  PXY d   1      -0.360   1.818   2.435  0.00  0.00     0.003 A 
ATOM      5  C3  PXY d   1      -0.718   2.476   3.584  0.00  0.00     0.003 A 
ATOM      6  C4  PXY d   1       0.029   2.337   4.723  0.00  0.00    -0.082 A 
ATOM      7  C5  PXY d   1       1.147   1.581   4.698  0.00  0.00     0.003 A 
ATOM      8  C6  PXY d   1       1.515   0.955   3.510  0.00  0.00     0.003 A 
ENDROOT
TORSDOF 0
ENDMDL
