MODEL 1
REMARK minimizedAffinity 11.0063562
REMARK minimizedRMSD -1
REMARK  0 active torsions:
REMARK  status: ('A' for Active; 'I' for Inactive)
ROOT
ATOM      1  C4' PXY d   1      -5.997  -2.564  -5.998  0.00  0.00     0.077 C 
ATOM      2  C1' PXY d   1      -1.712  -5.148  -3.105  0.00  0.00     0.077 C 
ATOM      3  C1  PXY d   1      -2.837  -4.481  -3.871  0.00  0.00    -0.082 A 
ATOM      4  C2  PXY d   1      -2.907  -3.160  -3.912  0.00  0.00     0.003 A 
ATOM      5  C3  PXY d   1      -3.936  -2.541  -4.574  0.00  0.00     0.003 A 
ATOM      6  C4  PXY d   1      -4.873  -3.280  -5.245  0.00  0.00    -0.082 A 
ATOM      7  C5  PXY d   1      -4.802  -4.628  -5.216  0.00  0.00     0.003 A 
ATOM      8  C6  PXY d   1      -3.773  -5.238  -4.505  0.00  0.00     0.003 A 
ENDROOT
TORSDOF 0
ENDMDL
