MODEL 1
REMARK minimizedAffinity 3.18694091
REMARK minimizedRMSD -1
REMARK  0 active torsions:
REMARK  status: ('A' for Active; 'I' for Inactive)
ROOT
ATOM      1  C4' PXY d   1      -4.212  -2.998  -6.000  0.00  0.00     0.077 C 
ATOM      2  C1' PXY d   1       0.241  -5.097  -2.970  0.00  0.00     0.077 C 
ATOM      3  C1  PXY d   1      -0.919  -4.540  -3.772  0.00  0.00    -0.082 A 
ATOM      4  C2  PXY d   1      -2.121  -4.472  -3.223  0.00  0.00     0.003 A 
ATOM      5  C3  PXY d   1      -3.187  -4.000  -3.945  0.00  0.00     0.003 A 
ATOM      6  C4  PXY d   1      -3.010  -3.544  -5.224  0.00  0.00    -0.082 A 
ATOM      7  C5  PXY d   1      -1.784  -3.601  -5.787  0.00  0.00     0.003 A 
ATOM      8  C6  PXY d   1      -0.724  -4.121  -5.052  0.00  0.00     0.003 A 
ENDROOT
TORSDOF 0
ENDMDL
