MODEL 1
REMARK minimizedAffinity 5.57661343
REMARK minimizedRMSD -1
REMARK  0 active torsions:
REMARK  status: ('A' for Active; 'I' for Inactive)
ROOT
ATOM      1  C4' PXY d   1       1.062   0.752   0.901  0.00  0.00     0.077 C 
ATOM      2  C1' PXY d   1       2.538  -0.563  -4.531  0.00  0.00     0.077 C 
ATOM      3  C1  PXY d   1       2.164  -0.215  -3.104  0.00  0.00    -0.082 A 
ATOM      4  C2  PXY d   1       1.066  -0.729  -2.572  0.00  0.00     0.003 A 
ATOM      5  C3  PXY d   1       0.696  -0.400  -1.293  0.00  0.00     0.003 A 
ATOM      6  C4  PXY d   1       1.484   0.422  -0.533  0.00  0.00    -0.082 A 
ATOM      7  C5  PXY d   1       2.611   0.941  -1.065  0.00  0.00     0.003 A 
ATOM      8  C6  PXY d   1       2.948   0.628  -2.378  0.00  0.00     0.003 A 
ENDROOT
TORSDOF 0
ENDMDL
