MODEL 1
REMARK minimizedAffinity 14.9800253
REMARK minimizedRMSD -1
REMARK  0 active torsions:
REMARK  status: ('A' for Active; 'I' for Inactive)
ROOT
ATOM      1  C4' PXY d   1       2.865  -5.038  -0.240  0.00  0.00     0.077 C 
ATOM      2  C1' PXY d   1       1.600   0.418  -1.672  0.00  0.00     0.077 C 
ATOM      3  C1  PXY d   1       1.919  -1.016  -1.296  0.00  0.00    -0.082 A 
ATOM      4  C2  PXY d   1       3.090  -1.304  -0.751  0.00  0.00     0.003 A 
ATOM      5  C3  PXY d   1       3.407  -2.600  -0.434  0.00  0.00     0.003 A 
ATOM      6  C4  PXY d   1       2.496  -3.604  -0.627  0.00  0.00    -0.082 A 
ATOM      7  C5  PXY d   1       1.295  -3.316  -1.173  0.00  0.00     0.003 A 
ATOM      8  C6  PXY d   1       1.008  -2.000  -1.526  0.00  0.00     0.003 A 
ENDROOT
TORSDOF 0
ENDMDL
