MODEL 1
REMARK minimizedAffinity 13.3422327
REMARK minimizedRMSD -1
REMARK  0 active torsions:
REMARK  status: ('A' for Active; 'I' for Inactive)
ROOT
ATOM      1  C4' PXY d   1      -0.384   0.755   2.225  0.00  0.00     0.077 C 
ATOM      2  C1' PXY d   1      -5.330   2.381   4.737  0.00  0.00     0.077 C 
ATOM      3  C1  PXY d   1      -4.037   1.942   4.080  0.00  0.00    -0.082 A 
ATOM      4  C2  PXY d   1      -2.990   2.752   4.089  0.00  0.00     0.003 A 
ATOM      5  C3  PXY d   1      -1.823   2.384   3.472  0.00  0.00     0.003 A 
ATOM      6  C4  PXY d   1      -1.708   1.153   2.884  0.00  0.00    -0.082 A 
ATOM      7  C5  PXY d   1      -2.767   0.316   2.880  0.00  0.00     0.003 A 
ATOM      8  C6  PXY d   1      -3.957   0.725   3.476  0.00  0.00     0.003 A 
ENDROOT
TORSDOF 0
ENDMDL
