MODEL 1
REMARK minimizedAffinity 8.09696674
REMARK minimizedRMSD -1
REMARK  0 active torsions:
REMARK  status: ('A' for Active; 'I' for Inactive)
ROOT
ATOM      1  C4' PXY d   1       0.873  -3.867  -2.629  0.00  0.00     0.077 C 
ATOM      2  C1' PXY d   1       3.270   1.095  -0.883  0.00  0.00     0.077 C 
ATOM      3  C1  PXY d   1       2.651  -0.213  -1.335  0.00  0.00    -0.082 A 
ATOM      4  C2  PXY d   1       1.867  -0.232  -2.401  0.00  0.00     0.003 A 
ATOM      5  C3  PXY d   1       1.274  -1.401  -2.805  0.00  0.00     0.003 A 
ATOM      6  C4  PXY d   1       1.527  -2.571  -2.142  0.00  0.00    -0.082 A 
ATOM      7  C5  PXY d   1       2.334  -2.562  -1.060  0.00  0.00     0.003 A 
ATOM      8  C6  PXY d   1       2.893  -1.358  -0.642  0.00  0.00     0.003 A 
ENDROOT
TORSDOF 0
ENDMDL
