MODEL 1
REMARK minimizedAffinity 7.44460058
REMARK minimizedRMSD -1
REMARK  0 active torsions:
REMARK  status: ('A' for Active; 'I' for Inactive)
ROOT
ATOM      1  C4' PXY d   1      -2.254  -3.321  -3.387  0.00  0.00     0.077 C 
ATOM      2  C1' PXY d   1       3.045  -3.135  -1.084  0.00  0.00     0.077 C 
ATOM      3  C1  PXY d   1       1.658  -3.195  -1.694  0.00  0.00    -0.082 A 
ATOM      4  C2  PXY d   1       0.937  -2.089  -1.789  0.00  0.00     0.003 A 
ATOM      5  C3  PXY d   1      -0.331  -2.131  -2.309  0.00  0.00     0.003 A 
ATOM      6  C4  PXY d   1      -0.846  -3.306  -2.786  0.00  0.00    -0.082 A 
ATOM      7  C5  PXY d   1      -0.112  -4.436  -2.703  0.00  0.00     0.003 A 
ATOM      8  C6  PXY d   1       1.157  -4.381  -2.134  0.00  0.00     0.003 A 
ENDROOT
TORSDOF 0
ENDMDL
