MODEL 1
REMARK minimizedAffinity 14.5565624
REMARK minimizedRMSD -1
REMARK  0 active torsions:
REMARK  status: ('A' for Active; 'I' for Inactive)
ROOT
ATOM      1  C4' PXY d   1      -5.997  -2.893   2.716  0.00  0.00     0.077 C 
ATOM      2  C1' PXY d   1      -2.115   1.385   2.934  0.00  0.00     0.077 C 
ATOM      3  C1  PXY d   1      -3.126   0.256   2.884  0.00  0.00    -0.082 A 
ATOM      4  C2  PXY d   1      -3.955   0.165   1.858  0.00  0.00     0.003 A 
ATOM      5  C3  PXY d   1      -4.896  -0.831   1.813  0.00  0.00     0.003 A 
ATOM      6  C4  PXY d   1      -4.954  -1.775   2.803  0.00  0.00    -0.082 A 
ATOM      7  C5  PXY d   1      -4.104  -1.695   3.849  0.00  0.00     0.003 A 
ATOM      8  C6  PXY d   1      -3.184  -0.652   3.896  0.00  0.00     0.003 A 
ENDROOT
TORSDOF 0
ENDMDL
