MODEL 1
REMARK minimizedAffinity 12.4734087
REMARK minimizedRMSD -1
REMARK  0 active torsions:
REMARK  status: ('A' for Active; 'I' for Inactive)
ROOT
ATOM      1  C4' PXY d   1       3.518  -3.023  -0.302  0.00  0.00     0.077 C 
ATOM      2  C1' PXY d   1       1.416   1.401  -3.371  0.00  0.00     0.077 C 
ATOM      3  C1  PXY d   1       1.977   0.248  -2.562  0.00  0.00    -0.082 A 
ATOM      4  C2  PXY d   1       1.706  -0.996  -2.921  0.00  0.00     0.003 A 
ATOM      5  C3  PXY d   1       2.179  -2.050  -2.182  0.00  0.00     0.003 A 
ATOM      6  C4  PXY d   1       2.981  -1.829  -1.095  0.00  0.00    -0.082 A 
ATOM      7  C5  PXY d   1       3.271  -0.562  -0.728  0.00  0.00     0.003 A 
ATOM      8  C6  PXY d   1       2.747   0.494  -1.468  0.00  0.00     0.003 A 
ENDROOT
TORSDOF 0
ENDMDL
