MODEL 1
REMARK minimizedAffinity 16.6337051
REMARK minimizedRMSD -1
REMARK  0 active torsions:
REMARK  status: ('A' for Active; 'I' for Inactive)
ROOT
ATOM      1  C4' PXY d   1      -0.382   0.237   2.806  0.00  0.00     0.077 C 
ATOM      2  C1' PXY d   1      -5.643   2.212   4.160  0.00  0.00     0.077 C 
ATOM      3  C1  PXY d   1      -4.265   1.684   3.813  0.00  0.00    -0.082 A 
ATOM      4  C2  PXY d   1      -3.335   2.518   3.377  0.00  0.00     0.003 A 
ATOM      5  C3  PXY d   1      -2.094   2.053   3.028  0.00  0.00     0.003 A 
ATOM      6  C4  PXY d   1      -1.784   0.727   3.177  0.00  0.00    -0.082 A 
ATOM      7  C5  PXY d   1      -2.724  -0.129   3.631  0.00  0.00     0.003 A 
ATOM      8  C6  PXY d   1      -3.991   0.357   3.941  0.00  0.00     0.003 A 
ENDROOT
TORSDOF 0
ENDMDL
