MODEL 1
REMARK minimizedAffinity 18.1452293
REMARK minimizedRMSD -1
REMARK  0 active torsions:
REMARK  status: ('A' for Active; 'I' for Inactive)
ROOT
ATOM      1  C4' PXY d   1       0.112   1.174   6.000  0.00  0.00     0.077 C 
ATOM      2  C1' PXY d   1       2.739   1.919   0.905  0.00  0.00     0.077 C 
ATOM      3  C1  PXY d   1       2.039   1.728   2.236  0.00  0.00    -0.082 A 
ATOM      4  C2  PXY d   1       2.738   1.790   3.358  0.00  0.00     0.003 A 
ATOM      5  C3  PXY d   1       2.126   1.587   4.568  0.00  0.00     0.003 A 
ATOM      6  C4  PXY d   1       0.776   1.371   4.634  0.00  0.00    -0.082 A 
ATOM      7  C5  PXY d   1       0.054   1.316   3.495  0.00  0.00     0.003 A 
ATOM      8  C6  PXY d   1       0.701   1.484   2.274  0.00  0.00     0.003 A 
ENDROOT
TORSDOF 0
ENDMDL
