MODEL 1
REMARK minimizedAffinity 19.8910866
REMARK minimizedRMSD -1
REMARK  0 active torsions:
REMARK  status: ('A' for Active; 'I' for Inactive)
ROOT
ATOM      1  C4' PXY d   1       0.554   0.763   3.366  0.00  0.00     0.077 C 
ATOM      2  C1' PXY d   1      -4.989   2.010   4.427  0.00  0.00     0.077 C 
ATOM      3  C1  PXY d   1      -3.539   1.676   4.139  0.00  0.00    -0.082 A 
ATOM      4  C2  PXY d   1      -2.652   1.709   5.120  0.00  0.00     0.003 A 
ATOM      5  C3  PXY d   1      -1.331   1.441   4.870  0.00  0.00     0.003 A 
ATOM      6  C4  PXY d   1      -0.922   1.084   3.613  0.00  0.00    -0.082 A 
ATOM      7  C5  PXY d   1      -1.823   1.037   2.609  0.00  0.00     0.003 A 
ATOM      8  C6  PXY d   1      -3.152   1.353   2.875  0.00  0.00     0.003 A 
ENDROOT
TORSDOF 0
ENDMDL
