MODEL 1
REMARK minimizedAffinity 7.45735598
REMARK minimizedRMSD -1
REMARK  0 active torsions:
REMARK  status: ('A' for Active; 'I' for Inactive)
ROOT
ATOM      1  C4' PXY d   1       3.005   0.420   0.051  0.00  0.00     0.077 C 
ATOM      2  C1' PXY d   1       1.207  -4.258  -2.831  0.00  0.00     0.077 C 
ATOM      3  C1  PXY d   1       1.676  -3.037  -2.064  0.00  0.00    -0.082 A 
ATOM      4  C2  PXY d   1       1.616  -1.844  -2.632  0.00  0.00     0.003 A 
ATOM      5  C3  PXY d   1       2.065  -0.734  -1.965  0.00  0.00     0.003 A 
ATOM      6  C4  PXY d   1       2.533  -0.839  -0.682  0.00  0.00    -0.082 A 
ATOM      7  C5  PXY d   1       2.588  -2.051  -0.091  0.00  0.00     0.003 A 
ATOM      8  C6  PXY d   1       2.165  -3.171  -0.801  0.00  0.00     0.003 A 
ENDROOT
TORSDOF 0
ENDMDL
