MODEL 1
REMARK minimizedAffinity -3.05663657
REMARK minimizedRMSD -1
REMARK  0 active torsions:
REMARK  status: ('A' for Active; 'I' for Inactive)
ROOT
ATOM      1  C4' PXY d   1       2.654  -1.346  -5.453  0.00  0.00     0.077 C 
ATOM      2  C1' PXY d   1       2.430  -3.639  -0.151  0.00  0.00     0.077 C 
ATOM      3  C1  PXY d   1       2.479  -3.029  -1.538  0.00  0.00    -0.082 A 
ATOM      4  C2  PXY d   1       2.889  -3.762  -2.561  0.00  0.00     0.003 A 
ATOM      5  C3  PXY d   1       2.970  -3.216  -3.816  0.00  0.00     0.003 A 
ATOM      6  C4  PXY d   1       2.578  -1.923  -4.037  0.00  0.00    -0.082 A 
ATOM      7  C5  PXY d   1       2.149  -1.172  -3.000  0.00  0.00     0.003 A 
ATOM      8  C6  PXY d   1       2.113  -1.732  -1.727  0.00  0.00     0.003 A 
ENDROOT
TORSDOF 0
ENDMDL
