MODEL 1
REMARK minimizedAffinity 22.1798096
REMARK minimizedRMSD -1
REMARK  0 active torsions:
REMARK  status: ('A' for Active; 'I' for Inactive)
ROOT
ATOM      1  C4' PXY d   1      -5.868   4.147  -5.941  0.00  0.00     0.077 C 
ATOM      2  C1' PXY d   1      -0.927   2.233  -3.631  0.00  0.00     0.077 C 
ATOM      3  C1  PXY d   1      -2.218   2.731  -4.248  0.00  0.00    -0.082 A 
ATOM      4  C2  PXY d   1      -2.917   3.671  -3.633  0.00  0.00     0.003 A 
ATOM      5  C3  PXY d   1      -4.104   4.111  -4.162  0.00  0.00     0.003 A 
ATOM      6  C4  PXY d   1      -4.553   3.621  -5.359  0.00  0.00    -0.082 A 
ATOM      7  C5  PXY d   1      -3.840   2.669  -5.998  0.00  0.00     0.003 A 
ATOM      8  C6  PXY d   1      -2.659   2.207  -5.424  0.00  0.00     0.003 A 
ENDROOT
TORSDOF 0
ENDMDL
