MODEL 1
REMARK minimizedAffinity 11.6475983
REMARK minimizedRMSD -1
REMARK  0 active torsions:
REMARK  status: ('A' for Active; 'I' for Inactive)
ROOT
ATOM      1  C4' PXY d   1       1.841   4.676  -0.489  0.00  0.00     0.077 C 
ATOM      2  C1' PXY d   1       1.051   1.218   4.075  0.00  0.00     0.077 C 
ATOM      3  C1  PXY d   1       1.245   2.126   2.877  0.00  0.00    -0.082 A 
ATOM      4  C2  PXY d   1       2.353   2.034   2.159  0.00  0.00     0.003 A 
ATOM      5  C3  PXY d   1       2.559   2.870   1.092  0.00  0.00     0.003 A 
ATOM      6  C4  PXY d   1       1.598   3.773   0.723  0.00  0.00    -0.082 A 
ATOM      7  C5  PXY d   1       0.461   3.865   1.444  0.00  0.00     0.003 A 
ATOM      8  C6  PXY d   1       0.289   3.037   2.549  0.00  0.00     0.003 A 
ENDROOT
TORSDOF 0
ENDMDL
