MODEL 1
REMARK minimizedAffinity 5.37890196
REMARK minimizedRMSD -1
REMARK  0 active torsions:
REMARK  status: ('A' for Active; 'I' for Inactive)
ROOT
ATOM      1  C4' PXY d   1      -5.608  -3.753  -6.000  0.00  0.00     0.077 C 
ATOM      2  C1' PXY d   1      -0.726  -4.571  -3.014  0.00  0.00     0.077 C 
ATOM      3  C1  PXY d   1      -2.004  -4.343  -3.797  0.00  0.00    -0.082 A 
ATOM      4  C2  PXY d   1      -2.968  -5.249  -3.753  0.00  0.00     0.003 A 
ATOM      5  C3  PXY d   1      -4.118  -5.074  -4.480  0.00  0.00     0.003 A 
ATOM      6  C4  PXY d   1      -4.304  -3.936  -5.218  0.00  0.00    -0.082 A 
ATOM      7  C5  PXY d   1      -3.330  -3.003  -5.260  0.00  0.00     0.003 A 
ATOM      8  C6  PXY d   1      -2.154  -3.218  -4.547  0.00  0.00     0.003 A 
ENDROOT
TORSDOF 0
ENDMDL
