MODEL 1
REMARK minimizedAffinity 12.9176102
REMARK minimizedRMSD -1
REMARK  0 active torsions:
REMARK  status: ('A' for Active; 'I' for Inactive)
ROOT
ATOM      1  C4' PXY d   1      -2.341   0.455   1.809  0.00  0.00     0.077 C 
ATOM      2  C1' PXY d   1       1.904   1.362   5.627  0.00  0.00     0.077 C 
ATOM      3  C1  PXY d   1       0.784   1.134   4.630  0.00  0.00    -0.082 A 
ATOM      4  C2  PXY d   1       0.600  -0.072   4.117  0.00  0.00     0.003 A 
ATOM      5  C3  PXY d   1      -0.387  -0.288   3.191  0.00  0.00     0.003 A 
ATOM      6  C4  PXY d   1      -1.229   0.729   2.825  0.00  0.00    -0.082 A 
ATOM      7  C5  PXY d   1      -1.054   1.959   3.352  0.00  0.00     0.003 A 
ATOM      8  C6  PXY d   1      -0.020   2.167   4.260  0.00  0.00     0.003 A 
ENDROOT
TORSDOF 0
ENDMDL
