MODEL 1
REMARK minimizedAffinity 14.2824202
REMARK minimizedRMSD -1
REMARK  1 active torsions:
REMARK  status: ('A' for Active; 'I' for Inactive)
REMARK    1  A    between atoms: C1_2  and  C2_3 
ROOT
ATOM      1  C2  UNL d   1       0.730   2.767   0.009  0.00  0.00    -0.081 A 
ATOM      2  C3  UNL d   1       0.445   2.350  -1.297  0.00  0.00     0.006 A 
ATOM      3  C4  UNL d   1       0.332   3.284  -2.330  0.00  0.00     0.002 A 
ATOM      4  C5  UNL d   1       0.508   4.648  -2.076  0.00  0.00    -0.080 A 
ATOM      5  C6  UNL d   1       0.419   5.658  -3.182  0.00  0.00     0.076 C 
ATOM      6  C7  UNL d   1       0.775   5.066  -0.768  0.00  0.00     0.002 A 
ATOM      7  C8  UNL d   1       0.888   4.134   0.265  0.00  0.00     0.006 A 
ENDROOT
BRANCH   1   8
ATOM      8  C1  UNL d   1       0.916   1.758   1.112  0.00  0.00     0.054 C 
ATOM      9  C   UNL d   1      -0.389   1.495   1.849  0.00  0.00     0.018 C 
ENDBRANCH   1   8
TORSDOF 1
ENDMDL
