MODEL 1
REMARK minimizedAffinity 0.15011403
REMARK minimizedRMSD -1
REMARK  1 active torsions:
REMARK  status: ('A' for Active; 'I' for Inactive)
REMARK    1  A    between atoms: C1_2  and  C2_3 
ROOT
ATOM      1  C2  UNL d   1       1.038   3.909  -0.644  0.00  0.00    -0.081 A 
ATOM      2  C3  UNL d   1       0.045   3.187  -1.318  0.00  0.00     0.006 A 
ATOM      3  C4  UNL d   1      -0.592   2.110  -0.697  0.00  0.00     0.002 A 
ATOM      4  C5  UNL d   1      -0.253   1.742   0.609  0.00  0.00    -0.080 A 
ATOM      5  C6  UNL d   1      -0.950   0.606   1.298  0.00  0.00     0.076 C 
ATOM      6  C7  UNL d   1       0.752   2.452   1.276  0.00  0.00     0.002 A 
ATOM      7  C8  UNL d   1       1.389   3.528   0.656  0.00  0.00     0.006 A 
ENDROOT
BRANCH   1   8
ATOM      8  C1  UNL d   1       1.681   5.111  -1.287  0.00  0.00     0.054 C 
ATOM      9  C   UNL d   1       0.957   5.509  -2.565  0.00  0.00     0.018 C 
ENDBRANCH   1   8
TORSDOF 1
ENDMDL
