MODEL 1
REMARK minimizedAffinity -1.77921832
REMARK minimizedRMSD -1
REMARK  1 active torsions:
REMARK  status: ('A' for Active; 'I' for Inactive)
REMARK    1  A    between atoms: C1_2  and  C2_3 
ROOT
ATOM      1  C2  UNL d   1       0.711   3.413   0.358  0.00  0.00    -0.081 A 
ATOM      2  C3  UNL d   1       1.492   4.574   0.308  0.00  0.00     0.006 A 
ATOM      3  C4  UNL d   1       1.479   5.389  -0.827  0.00  0.00     0.002 A 
ATOM      4  C5  UNL d   1       0.679   5.061  -1.927  0.00  0.00    -0.080 A 
ATOM      5  C6  UNL d   1       0.632   5.943  -3.139  0.00  0.00     0.076 C 
ATOM      6  C7  UNL d   1      -0.089   3.892  -1.884  0.00  0.00     0.002 A 
ATOM      7  C8  UNL d   1      -0.075   3.077  -0.750  0.00  0.00     0.006 A 
ENDROOT
BRANCH   1   8
ATOM      8  C1  UNL d   1       0.674   2.567   1.605  0.00  0.00     0.054 C 
ATOM      9  C   UNL d   1       1.841   2.889   2.526  0.00  0.00     0.018 C 
ENDBRANCH   1   8
TORSDOF 1
ENDMDL
