MODEL 1
REMARK minimizedAffinity 3.53387856
REMARK minimizedRMSD -1
REMARK  1 active torsions:
REMARK  status: ('A' for Active; 'I' for Inactive)
REMARK    1  A    between atoms: C1_2  and  C2_3 
ROOT
ATOM      1  C2  UNL d   1      -0.284   2.057   0.484  0.00  0.00    -0.081 A 
ATOM      2  C3  UNL d   1       0.965   1.641   0.960  0.00  0.00     0.006 A 
ATOM      3  C4  UNL d   1       1.066   0.552   1.828  0.00  0.00     0.002 A 
ATOM      4  C5  UNL d   1      -0.079  -0.144   2.229  0.00  0.00    -0.080 A 
ATOM      5  C6  UNL d   1       0.018  -1.334   3.137  0.00  0.00     0.076 C 
ATOM      6  C7  UNL d   1      -1.329   0.281   1.768  0.00  0.00     0.002 A 
ATOM      7  C8  UNL d   1      -1.431   1.371   0.900  0.00  0.00     0.006 A 
ENDROOT
BRANCH   1   8
ATOM      8  C1  UNL d   1      -0.390   3.191  -0.504  0.00  0.00     0.054 C 
ATOM      9  C   UNL d   1       0.096   2.770  -1.883  0.00  0.00     0.018 C 
ENDBRANCH   1   8
TORSDOF 1
ENDMDL
