MODEL 1
REMARK minimizedAffinity 4.88189554
REMARK minimizedRMSD -1
REMARK  1 active torsions:
REMARK  status: ('A' for Active; 'I' for Inactive)
REMARK    1  A    between atoms: C1_2  and  C2_3 
ROOT
ATOM      1  C2  UNL d   1       1.113   2.495   0.639  0.00  0.00    -0.081 A 
ATOM      2  C3  UNL d   1       1.899   3.653   0.617  0.00  0.00     0.006 A 
ATOM      3  C4  UNL d   1       1.899   4.488  -0.503  0.00  0.00     0.002 A 
ATOM      4  C5  UNL d   1       1.108   4.182  -1.616  0.00  0.00    -0.080 A 
ATOM      5  C6  UNL d   1       1.076   5.085  -2.813  0.00  0.00     0.076 C 
ATOM      6  C7  UNL d   1       0.336   3.015  -1.601  0.00  0.00     0.002 A 
ATOM      7  C8  UNL d   1       0.336   2.181  -0.481  0.00  0.00     0.006 A 
ENDROOT
BRANCH   1   8
ATOM      8  C1  UNL d   1       1.061   1.628   1.871  0.00  0.00     0.054 C 
ATOM      9  C   UNL d   1      -0.375   1.371   2.307  0.00  0.00     0.018 C 
ENDBRANCH   1   8
TORSDOF 1
ENDMDL
