MODEL 1
REMARK minimizedAffinity 6.82137489
REMARK minimizedRMSD -1
REMARK  0 active torsions:
REMARK  status: ('A' for Active; 'I' for Inactive)
ROOT
ATOM      1  C4' PXY d   1      -2.015  -1.896  -2.151  0.00  0.00     0.077 C 
ATOM      2  C1' PXY d   1       0.049  -0.907   3.157  0.00  0.00     0.077 C 
ATOM      3  C1  PXY d   1      -0.494  -1.179   1.768  0.00  0.00    -0.082 A 
ATOM      4  C2  PXY d   1      -0.173  -0.371   0.771  0.00  0.00     0.003 A 
ATOM      5  C3  PXY d   1      -0.680  -0.584  -0.485  0.00  0.00     0.003 A 
ATOM      6  C4  PXY d   1      -1.483  -1.666  -0.734  0.00  0.00    -0.082 A 
ATOM      7  C5  PXY d   1      -1.806  -2.500   0.276  0.00  0.00     0.003 A 
ATOM      8  C6  PXY d   1      -1.313  -2.244   1.552  0.00  0.00     0.003 A 
ENDROOT
TORSDOF 0
ENDMDL
