MODEL 1
REMARK minimizedAffinity 10.2050257
REMARK minimizedRMSD -1
REMARK  0 active torsions:
REMARK  status: ('A' for Active; 'I' for Inactive)
ROOT
ATOM      1  C4' PXY d   1      -5.989  -1.056   5.588  0.00  0.00     0.077 C 
ATOM      2  C1' PXY d   1      -3.969   3.251   2.305  0.00  0.00     0.077 C 
ATOM      3  C1  PXY d   1      -4.507   2.119   3.156  0.00  0.00    -0.082 A 
ATOM      4  C2  PXY d   1      -4.358   2.160   4.470  0.00  0.00     0.003 A 
ATOM      5  C3  PXY d   1      -4.810   1.129   5.253  0.00  0.00     0.003 A 
ATOM      6  C4  PXY d   1      -5.470   0.070   4.689  0.00  0.00    -0.082 A 
ATOM      7  C5  PXY d   1      -5.636   0.025   3.350  0.00  0.00     0.003 A 
ATOM      8  C6  PXY d   1      -5.132   1.062   2.570  0.00  0.00     0.003 A 
ENDROOT
TORSDOF 0
ENDMDL
