MODEL 1
REMARK minimizedAffinity -0.0996934474
REMARK minimizedRMSD -1
REMARK  0 active torsions:
REMARK  status: ('A' for Active; 'I' for Inactive)
ROOT
ATOM      1  C4' PXY d   1      -4.496  -0.208   2.593  0.00  0.00     0.077 C 
ATOM      2  C1' PXY d   1      -5.998   4.214   5.999  0.00  0.00     0.077 C 
ATOM      3  C1  PXY d   1      -5.605   3.046   5.116  0.00  0.00    -0.082 A 
ATOM      4  C2  PXY d   1      -4.892   3.263   4.023  0.00  0.00     0.003 A 
ATOM      5  C3  PXY d   1      -4.556   2.223   3.196  0.00  0.00     0.003 A 
ATOM      6  C4  PXY d   1      -4.907   0.939   3.519  0.00  0.00    -0.082 A 
ATOM      7  C5  PXY d   1      -5.625   0.708   4.639  0.00  0.00     0.003 A 
ATOM      8  C6  PXY d   1      -5.992   1.783   5.443  0.00  0.00     0.003 A 
ENDROOT
TORSDOF 0
ENDMDL
