MODEL 1
REMARK minimizedAffinity 10.2424564
REMARK minimizedRMSD -1
REMARK  0 active torsions:
REMARK  status: ('A' for Active; 'I' for Inactive)
ROOT
ATOM      1  C4' PXY d   1       4.226   2.321  -1.198  0.00  0.00     0.077 C 
ATOM      2  C1' PXY d   1       0.565   0.488   2.884  0.00  0.00     0.077 C 
ATOM      3  C1  PXY d   1       1.535   0.963   1.820  0.00  0.00    -0.082 A 
ATOM      4  C2  PXY d   1       1.235   2.023   1.087  0.00  0.00     0.003 A 
ATOM      5  C3  PXY d   1       2.086   2.447   0.099  0.00  0.00     0.003 A 
ATOM      6  C4  PXY d   1       3.281   1.812  -0.106  0.00  0.00    -0.082 A 
ATOM      7  C5  PXY d   1       3.599   0.735   0.644  0.00  0.00     0.003 A 
ATOM      8  C6  PXY d   1       2.703   0.296   1.614  0.00  0.00     0.003 A 
ENDROOT
TORSDOF 0
ENDMDL
