MODEL 1
REMARK minimizedAffinity 7.49579096
REMARK minimizedRMSD -1
REMARK  0 active torsions:
REMARK  status: ('A' for Active; 'I' for Inactive)
ROOT
ATOM      1  C4' PXY d   1       4.832  -1.123   3.688  0.00  0.00     0.077 C 
ATOM      2  C1' PXY d   1       4.937  -0.390  -2.045  0.00  0.00     0.077 C 
ATOM      3  C1  PXY d   1       4.900  -0.573  -0.541  0.00  0.00    -0.082 A 
ATOM      4  C2  PXY d   1       5.970  -1.032   0.089  0.00  0.00     0.003 A 
ATOM      5  C3  PXY d   1       5.943  -1.234   1.445  0.00  0.00     0.003 A 
ATOM      6  C4  PXY d   1       4.827  -0.913   2.171  0.00  0.00    -0.082 A 
ATOM      7  C5  PXY d   1       3.736  -0.435   1.537  0.00  0.00     0.003 A 
ATOM      8  C6  PXY d   1       3.769  -0.276   0.155  0.00  0.00     0.003 A 
ENDROOT
TORSDOF 0
ENDMDL
