MODEL 1
REMARK minimizedAffinity 11.902173
REMARK minimizedRMSD -1
REMARK  0 active torsions:
REMARK  status: ('A' for Active; 'I' for Inactive)
ROOT
ATOM      1  C4' PXY d   1      -4.711   0.458   3.012  0.00  0.00     0.077 C 
ATOM      2  C1' PXY d   1      -5.213   5.999   4.581  0.00  0.00     0.077 C 
ATOM      3  C1  PXY d   1      -5.089   4.549   4.159  0.00  0.00    -0.082 A 
ATOM      4  C2  PXY d   1      -4.828   3.623   5.068  0.00  0.00     0.003 A 
ATOM      5  C3  PXY d   1      -4.680   2.311   4.699  0.00  0.00     0.003 A 
ATOM      6  C4  PXY d   1      -4.854   1.934   3.394  0.00  0.00    -0.082 A 
ATOM      7  C5  PXY d   1      -5.131   2.871   2.462  0.00  0.00     0.003 A 
ATOM      8  C6  PXY d   1      -5.236   4.203   2.851  0.00  0.00     0.003 A 
ENDROOT
TORSDOF 0
ENDMDL
