MODEL 1
REMARK minimizedAffinity 0.370979875
REMARK minimizedRMSD -1
REMARK  0 active torsions:
REMARK  status: ('A' for Active; 'I' for Inactive)
ROOT
ATOM      1  C4' PXY d   1      -5.279  -0.898   2.128  0.00  0.00     0.077 C 
ATOM      2  C1' PXY d   1      -4.842   3.372   6.000  0.00  0.00     0.077 C 
ATOM      3  C1  PXY d   1      -4.962   2.245   4.993  0.00  0.00    -0.082 A 
ATOM      4  C2  PXY d   1      -4.161   2.220   3.940  0.00  0.00     0.003 A 
ATOM      5  C3  PXY d   1      -4.277   1.225   3.004  0.00  0.00     0.003 A 
ATOM      6  C4  PXY d   1      -5.187   0.216   3.174  0.00  0.00    -0.082 A 
ATOM      7  C5  PXY d   1      -6.000   0.228   4.252  0.00  0.00     0.003 A 
ATOM      8  C6  PXY d   1      -5.894   1.269   5.170  0.00  0.00     0.003 A 
ENDROOT
TORSDOF 0
ENDMDL
