MODEL 1
REMARK minimizedAffinity 2.309762
REMARK minimizedRMSD -1
REMARK  0 active torsions:
REMARK  status: ('A' for Active; 'I' for Inactive)
ROOT
ATOM      1  C4' PXY d   1      -5.435  -0.355   2.412  0.00  0.00     0.077 C 
ATOM      2  C1' PXY d   1      -5.413   4.177   6.000  0.00  0.00     0.077 C 
ATOM      3  C1  PXY d   1      -5.420   2.980   5.069  0.00  0.00    -0.082 A 
ATOM      4  C2  PXY d   1      -4.867   3.080   3.871  0.00  0.00     0.003 A 
ATOM      5  C3  PXY d   1      -4.892   2.018   3.005  0.00  0.00     0.003 A 
ATOM      6  C4  PXY d   1      -5.443   0.824   3.388  0.00  0.00    -0.082 A 
ATOM      7  C5  PXY d   1      -5.999   0.711   4.613  0.00  0.00     0.003 A 
ATOM      8  C6  PXY d   1      -6.000   1.814   5.462  0.00  0.00     0.003 A 
ENDROOT
TORSDOF 0
ENDMDL
