MODEL 1
REMARK minimizedAffinity 12.1344337
REMARK minimizedRMSD -1
REMARK  0 active torsions:
REMARK  status: ('A' for Active; 'I' for Inactive)
ROOT
ATOM      1  C4' PXY d   1      -0.597   1.949   4.160  0.00  0.00     0.077 C 
ATOM      2  C1' PXY d   1       3.505  -0.700   1.066  0.00  0.00     0.077 C 
ATOM      3  C1  PXY d   1       2.425  -0.016   1.882  0.00  0.00    -0.082 A 
ATOM      4  C2  PXY d   1       1.973   1.169   1.507  0.00  0.00     0.003 A 
ATOM      5  C3  PXY d   1       1.019   1.815   2.251  0.00  0.00     0.003 A 
ATOM      6  C4  PXY d   1       0.485   1.218   3.361  0.00  0.00    -0.082 A 
ATOM      7  C5  PXY d   1       0.934   0.004   3.745  0.00  0.00     0.003 A 
ATOM      8  C6  PXY d   1       1.932  -0.617   2.999  0.00  0.00     0.003 A 
ENDROOT
TORSDOF 0
ENDMDL
