MODEL 1
REMARK minimizedAffinity 15.8517313
REMARK minimizedRMSD -1
REMARK  0 active torsions:
REMARK  status: ('A' for Active; 'I' for Inactive)
ROOT
ATOM      1  C4' PXY d   1      -5.970  -5.998  -2.108  0.00  0.00     0.077 C 
ATOM      2  C1' PXY d   1      -1.208  -2.794  -2.800  0.00  0.00     0.077 C 
ATOM      3  C1  PXY d   1      -2.450  -3.645  -2.620  0.00  0.00    -0.082 A 
ATOM      4  C2  PXY d   1      -3.638  -3.137  -2.904  0.00  0.00     0.003 A 
ATOM      5  C3  PXY d   1      -4.774  -3.882  -2.717  0.00  0.00     0.003 A 
ATOM      6  C4  PXY d   1      -4.688  -5.178  -2.284  0.00  0.00    -0.082 A 
ATOM      7  C5  PXY d   1      -3.479  -5.707  -2.002  0.00  0.00     0.003 A 
ATOM      8  C6  PXY d   1      -2.341  -4.921  -2.159  0.00  0.00     0.003 A 
ENDROOT
TORSDOF 0
ENDMDL
