MODEL 1
REMARK minimizedAffinity 17.6162167
REMARK minimizedRMSD -1
REMARK  0 active torsions:
REMARK  status: ('A' for Active; 'I' for Inactive)
ROOT
ATOM      1  C4' PXY d   1       4.675   2.043  -1.395  0.00  0.00     0.077 C 
ATOM      2  C1' PXY d   1       1.097   0.639   2.923  0.00  0.00     0.077 C 
ATOM      3  C1  PXY d   1       2.044   1.000   1.795  0.00  0.00    -0.082 A 
ATOM      4  C2  PXY d   1       1.883   2.141   1.145  0.00  0.00     0.003 A 
ATOM      5  C3  PXY d   1       2.711   2.467   0.102  0.00  0.00     0.003 A 
ATOM      6  C4  PXY d   1       3.748   1.643  -0.244  0.00  0.00    -0.082 A 
ATOM      7  C5  PXY d   1       3.926   0.482   0.422  0.00  0.00     0.003 A 
ATOM      8  C6  PXY d   1       3.049   0.149   1.451  0.00  0.00     0.003 A 
ENDROOT
TORSDOF 0
ENDMDL
