MODEL 1
REMARK minimizedAffinity 10.058733
REMARK minimizedRMSD -1
REMARK  0 active torsions:
REMARK  status: ('A' for Active; 'I' for Inactive)
ROOT
ATOM      1  C4' PXY d   1      -3.159  -6.000  -0.333  0.00  0.00     0.077 C 
ATOM      2  C1' PXY d   1      -6.000  -2.756  -4.183  0.00  0.00     0.077 C 
ATOM      3  C1  PXY d   1      -5.266  -3.611  -3.169  0.00  0.00    -0.082 A 
ATOM      4  C2  PXY d   1      -4.051  -3.263  -2.776  0.00  0.00     0.003 A 
ATOM      5  C3  PXY d   1      -3.361  -4.042  -1.884  0.00  0.00     0.003 A 
ATOM      6  C4  PXY d   1      -3.941  -5.161  -1.348  0.00  0.00    -0.082 A 
ATOM      7  C5  PXY d   1      -5.184  -5.517  -1.735  0.00  0.00     0.003 A 
ATOM      8  C6  PXY d   1      -5.852  -4.735  -2.673  0.00  0.00     0.003 A 
ENDROOT
TORSDOF 0
ENDMDL
