MODEL 1
REMARK minimizedAffinity 14.4619598
REMARK minimizedRMSD -1
REMARK  0 active torsions:
REMARK  status: ('A' for Active; 'I' for Inactive)
ROOT
ATOM      1  C4' PXY d   1      -4.252  -6.000   1.505  0.00  0.00     0.077 C 
ATOM      2  C1' PXY d   1      -0.332  -1.770   1.108  0.00  0.00     0.077 C 
ATOM      3  C1  PXY d   1      -1.351  -2.888   1.217  0.00  0.00    -0.082 A 
ATOM      4  C2  PXY d   1      -2.452  -2.842   0.484  0.00  0.00     0.003 A 
ATOM      5  C3  PXY d   1      -3.399  -3.828   0.593  0.00  0.00     0.003 A 
ATOM      6  C4  PXY d   1      -3.192  -4.899   1.421  0.00  0.00    -0.082 A 
ATOM      7  C5  PXY d   1      -2.066  -4.958   2.164  0.00  0.00     0.003 A 
ATOM      8  C6  PXY d   1      -1.136  -3.926   2.069  0.00  0.00     0.003 A 
ENDROOT
TORSDOF 0
ENDMDL
