MODEL 1
REMARK minimizedAffinity 9.10851097
REMARK minimizedRMSD -1
REMARK  0 active torsions:
REMARK  status: ('A' for Active; 'I' for Inactive)
ROOT
ATOM      1  C4' PXY d   1       5.998   6.000   5.979  0.00  0.00     0.077 C 
ATOM      2  C1' PXY d   1       3.481   3.799   1.263  0.00  0.00     0.077 C 
ATOM      3  C1  PXY d   1       4.146   4.364   2.503  0.00  0.00    -0.082 A 
ATOM      4  C2  PXY d   1       3.657   5.457   3.067  0.00  0.00     0.003 A 
ATOM      5  C3  PXY d   1       4.266   6.000   4.169  0.00  0.00     0.003 A 
ATOM      6  C4  PXY d   1       5.354   5.388   4.732  0.00  0.00    -0.082 A 
ATOM      7  C5  PXY d   1       5.852   4.267   4.168  0.00  0.00     0.003 A 
ATOM      8  C6  PXY d   1       5.245   3.755   3.025  0.00  0.00     0.003 A 
ENDROOT
TORSDOF 0
ENDMDL
