MODEL 1
REMARK minimizedAffinity 11.5604792
REMARK minimizedRMSD -1
REMARK  0 active torsions:
REMARK  status: ('A' for Active; 'I' for Inactive)
ROOT
ATOM      1  C4' PXY d   1      -3.804   1.312   3.418  0.00  0.00     0.077 C 
ATOM      2  C1' PXY d   1      -6.000   6.000   5.990  0.00  0.00     0.077 C 
ATOM      3  C1  PXY d   1      -5.433   4.771   5.307  0.00  0.00    -0.082 A 
ATOM      4  C2  PXY d   1      -4.697   3.918   6.000  0.00  0.00     0.003 A 
ATOM      5  C3  PXY d   1      -4.151   2.818   5.390  0.00  0.00     0.003 A 
ATOM      6  C4  PXY d   1      -4.404   2.561   4.069  0.00  0.00    -0.082 A 
ATOM      7  C5  PXY d   1      -5.163   3.421   3.358  0.00  0.00     0.003 A 
ATOM      8  C6  PXY d   1      -5.675   4.553   3.985  0.00  0.00     0.003 A 
ENDROOT
TORSDOF 0
ENDMDL
