MODEL 1
REMARK minimizedAffinity 16.8776379
REMARK minimizedRMSD -1
REMARK  0 active torsions:
REMARK  status: ('A' for Active; 'I' for Inactive)
ROOT
ATOM      1  C4' PXY d   1      -0.974  -2.674  -4.747  0.00  0.00     0.077 C 
ATOM      2  C1' PXY d   1      -2.871  -1.982   0.669  0.00  0.00     0.077 C 
ATOM      3  C1  PXY d   1      -2.380  -2.175  -0.752  0.00  0.00    -0.082 A 
ATOM      4  C2  PXY d   1      -1.292  -1.541  -1.160  0.00  0.00     0.003 A 
ATOM      5  C3  PXY d   1      -0.852  -1.679  -2.451  0.00  0.00     0.003 A 
ATOM      6  C4  PXY d   1      -1.501  -2.517  -3.318  0.00  0.00    -0.082 A 
ATOM      7  C5  PXY d   1      -2.605  -3.175  -2.907  0.00  0.00     0.003 A 
ATOM      8  C6  PXY d   1      -3.060  -2.989  -1.604  0.00  0.00     0.003 A 
ENDROOT
TORSDOF 0
ENDMDL
