MODEL 1
REMARK minimizedAffinity 16.9789085
REMARK minimizedRMSD -1
REMARK  0 active torsions:
REMARK  status: ('A' for Active; 'I' for Inactive)
ROOT
ATOM      1  C4' PXY d   1      -1.687  -2.149  -2.769  0.00  0.00     0.077 C 
ATOM      2  C1' PXY d   1      -5.998  -6.000  -2.739  0.00  0.00     0.077 C 
ATOM      3  C1  PXY d   1      -4.862  -4.997  -2.737  0.00  0.00    -0.082 A 
ATOM      4  C2  PXY d   1      -5.072  -3.769  -3.183  0.00  0.00     0.003 A 
ATOM      5  C3  PXY d   1      -4.047  -2.858  -3.218  0.00  0.00     0.003 A 
ATOM      6  C4  PXY d   1      -2.807  -3.192  -2.743  0.00  0.00    -0.082 A 
ATOM      7  C5  PXY d   1      -2.587  -4.440  -2.277  0.00  0.00     0.003 A 
ATOM      8  C6  PXY d   1      -3.630  -5.362  -2.288  0.00  0.00     0.003 A 
ENDROOT
TORSDOF 0
ENDMDL
