MODEL 1
REMARK minimizedAffinity 6.83885241
REMARK minimizedRMSD -1
REMARK  0 active torsions:
REMARK  status: ('A' for Active; 'I' for Inactive)
ROOT
ATOM      1  C4' PXY d   1      -3.897  -5.999   2.095  0.00  0.00     0.077 C 
ATOM      2  C1' PXY d   1       0.639  -3.272  -0.231  0.00  0.00     0.077 C 
ATOM      3  C1  PXY d   1      -0.546  -3.999   0.375  0.00  0.00    -0.082 A 
ATOM      4  C2  PXY d   1      -1.676  -3.344   0.585  0.00  0.00     0.003 A 
ATOM      5  C3  PXY d   1      -2.747  -3.978   1.161  0.00  0.00     0.003 A 
ATOM      6  C4  PXY d   1      -2.678  -5.308   1.477  0.00  0.00    -0.082 A 
ATOM      7  C5  PXY d   1      -1.531  -5.985   1.256  0.00  0.00     0.003 A 
ATOM      8  C6  PXY d   1      -0.442  -5.314   0.708  0.00  0.00     0.003 A 
ENDROOT
TORSDOF 0
ENDMDL
