MODEL 1
REMARK minimizedAffinity 9.97205448
REMARK minimizedRMSD -1
REMARK  0 active torsions:
REMARK  status: ('A' for Active; 'I' for Inactive)
ROOT
ATOM      1  C4' PXY d   1       1.157   1.323   2.614  0.00  0.00     0.077 C 
ATOM      2  C1' PXY d   1       5.998  -1.110   0.598  0.00  0.00     0.077 C 
ATOM      3  C1  PXY d   1       4.727  -0.465   1.116  0.00  0.00    -0.082 A 
ATOM      4  C2  PXY d   1       4.514  -0.394   2.420  0.00  0.00     0.003 A 
ATOM      5  C3  PXY d   1       3.356   0.157   2.904  0.00  0.00     0.003 A 
ATOM      6  C4  PXY d   1       2.430   0.689   2.047  0.00  0.00    -0.082 A 
ATOM      7  C5  PXY d   1       2.645   0.630   0.716  0.00  0.00     0.003 A 
ATOM      8  C6  PXY d   1       3.808   0.029   0.243  0.00  0.00     0.003 A 
ENDROOT
TORSDOF 0
ENDMDL
