MODEL 1
REMARK minimizedAffinity 12.0569038
REMARK minimizedRMSD -1
REMARK  0 active torsions:
REMARK  status: ('A' for Active; 'I' for Inactive)
ROOT
ATOM      1  C4' PXY d   1       4.221   3.849   0.815  0.00  0.00     0.077 C 
ATOM      2  C1' PXY d   1       5.790   5.919   5.979  0.00  0.00     0.077 C 
ATOM      3  C1  PXY d   1       5.390   5.370   4.624  0.00  0.00    -0.082 A 
ATOM      4  C2  PXY d   1       4.460   5.990   3.915  0.00  0.00     0.003 A 
ATOM      5  C3  PXY d   1       4.064   5.490   2.702  0.00  0.00     0.003 A 
ATOM      6  C4  PXY d   1       4.663   4.372   2.185  0.00  0.00    -0.082 A 
ATOM      7  C5  PXY d   1       5.619   3.740   2.897  0.00  0.00     0.003 A 
ATOM      8  C6  PXY d   1       5.978   4.241   4.145  0.00  0.00     0.003 A 
ENDROOT
TORSDOF 0
ENDMDL
