MODEL 1
REMARK minimizedAffinity 14.4220152
REMARK minimizedRMSD -1
REMARK  1 active torsions:
REMARK  status: ('A' for Active; 'I' for Inactive)
REMARK    1  A    between atoms: N_2  and  C1_3 
ROOT
ATOM      1  C1  UNL d   1       0.730   1.411   3.458  0.00  0.00     0.143 A 
ATOM      2  C2  UNL d   1       0.380   0.065   3.610  0.00  0.00    -0.057 A 
ATOM      3  C3  UNL d   1       0.376  -0.547   4.869  0.00  0.00     0.033 A 
ATOM      4  C4  UNL d   1       0.750   0.172   6.000  0.00  0.00    -0.042 A 
ATOM      5  C5  UNL d   1       1.126   1.504   5.869  0.00  0.00     0.033 A 
ATOM      6  C6  UNL d   1       1.122   2.111   4.610  0.00  0.00    -0.057 A 
ENDROOT
BRANCH   1   7
ATOM      7  N   UNL d   1       0.849   2.049   2.221  0.00  0.00    -0.732 N 
ATOM      8  C   UNL d   1       2.148   2.245   1.615  0.00  0.00     0.284 C 
ATOM      9  H3  UNL d   1       0.123   1.766   1.567  0.00  0.00     0.395 HD
ENDBRANCH   1   7
TORSDOF 1
ENDMDL
