MODEL 1
REMARK minimizedAffinity 12.4626741
REMARK minimizedRMSD -1
REMARK  1 active torsions:
REMARK  status: ('A' for Active; 'I' for Inactive)
REMARK    1  A    between atoms: N_2  and  C1_3 
ROOT
ATOM      1  C1  UNL d   1      -3.268  -3.477  -3.890  0.00  0.00     0.143 A 
ATOM      2  C2  UNL d   1      -3.610  -4.589  -3.112  0.00  0.00    -0.057 A 
ATOM      3  C3  UNL d   1      -2.688  -5.173  -2.235  0.00  0.00     0.033 A 
ATOM      4  C4  UNL d   1      -1.394  -4.671  -2.142  0.00  0.00    -0.042 A 
ATOM      5  C5  UNL d   1      -1.025  -3.583  -2.924  0.00  0.00     0.033 A 
ATOM      6  C6  UNL d   1      -1.952  -3.000  -3.793  0.00  0.00    -0.057 A 
ENDROOT
BRANCH   1   7
ATOM      7  N   UNL d   1      -4.109  -2.913  -4.852  0.00  0.00    -0.732 N 
ATOM      8  C   UNL d   1      -5.193  -3.682  -5.426  0.00  0.00     0.284 C 
ATOM      9  H3  UNL d   1      -4.351  -1.948  -4.639  0.00  0.00     0.395 HD
ENDBRANCH   1   7
TORSDOF 1
ENDMDL
