MODEL 1
REMARK minimizedAffinity 7.57623434
REMARK minimizedRMSD -1
REMARK  1 active torsions:
REMARK  status: ('A' for Active; 'I' for Inactive)
REMARK    1  A    between atoms: N_2  and  C1_3 
ROOT
ATOM      1  C1  UNL d   1      -2.582   3.768  -5.280  0.00  0.00     0.143 A 
ATOM      2  C2  UNL d   1      -2.710   3.392  -3.939  0.00  0.00    -0.057 A 
ATOM      3  C3  UNL d   1      -1.751   2.582  -3.317  0.00  0.00     0.033 A 
ATOM      4  C4  UNL d   1      -0.659   2.109  -4.038  0.00  0.00    -0.042 A 
ATOM      5  C5  UNL d   1      -0.525   2.451  -5.379  0.00  0.00     0.033 A 
ATOM      6  C6  UNL d   1      -1.482   3.265  -5.992  0.00  0.00    -0.057 A 
ENDROOT
BRANCH   1   7
ATOM      7  N   UNL d   1      -3.552   4.490  -5.981  0.00  0.00    -0.732 N 
ATOM      8  C   UNL d   1      -4.786   4.885  -5.336  0.00  0.00     0.284 C 
ATOM      9  H3  UNL d   1      -3.146   5.207  -6.577  0.00  0.00     0.395 HD
ENDBRANCH   1   7
TORSDOF 1
ENDMDL
