MODEL 1
REMARK minimizedAffinity 17.3573704
REMARK minimizedRMSD -1
REMARK  1 active torsions:
REMARK  status: ('A' for Active; 'I' for Inactive)
REMARK    1  A    between atoms: N_2  and  C1_3 
ROOT
ATOM      1  C1  UNL d   1      -5.042   2.056   4.048  0.00  0.00     0.143 A 
ATOM      2  C2  UNL d   1      -4.578   2.349   5.334  0.00  0.00    -0.057 A 
ATOM      3  C3  UNL d   1      -3.693   1.492   6.000  0.00  0.00     0.033 A 
ATOM      4  C4  UNL d   1      -3.279   0.308   5.400  0.00  0.00    -0.042 A 
ATOM      5  C5  UNL d   1      -3.747  -0.017   4.132  0.00  0.00     0.033 A 
ATOM      6  C6  UNL d   1      -4.625   0.847   3.469  0.00  0.00    -0.057 A 
ENDROOT
BRANCH   1   7
ATOM      7  N   UNL d   1      -5.999   2.818   3.374  0.00  0.00    -0.732 N 
ATOM      8  C   UNL d   1      -5.898   4.261   3.335  0.00  0.00     0.284 C 
ATOM      9  H3  UNL d   1      -6.280   2.397   2.491  0.00  0.00     0.395 HD
ENDBRANCH   1   7
TORSDOF 1
ENDMDL
