MODEL 1
REMARK minimizedAffinity 17.909132
REMARK minimizedRMSD -1
REMARK  1 active torsions:
REMARK  status: ('A' for Active; 'I' for Inactive)
REMARK    1  A    between atoms: N_2  and  C1_3 
ROOT
ATOM      1  C1  UNL d   1      -2.046   1.415   2.956  0.00  0.00     0.143 A 
ATOM      2  C2  UNL d   1      -1.437   2.503   2.323  0.00  0.00    -0.057 A 
ATOM      3  C3  UNL d   1      -0.045   2.654   2.318  0.00  0.00     0.033 A 
ATOM      4  C4  UNL d   1       0.763   1.730   2.973  0.00  0.00    -0.042 A 
ATOM      5  C5  UNL d   1       0.178   0.653   3.629  0.00  0.00     0.033 A 
ATOM      6  C6  UNL d   1      -1.213   0.505   3.625  0.00  0.00    -0.057 A 
ENDROOT
BRANCH   1   7
ATOM      7  N   UNL d   1      -3.429   1.262   3.080  0.00  0.00    -0.732 N 
ATOM      8  C   UNL d   1      -4.114   1.694   4.279  0.00  0.00     0.284 C 
ATOM      9  H3  UNL d   1      -3.923   1.481   2.218  0.00  0.00     0.395 HD
ENDBRANCH   1   7
TORSDOF 1
ENDMDL
