MODEL 1
REMARK minimizedAffinity 20.803566
REMARK minimizedRMSD -1
REMARK  1 active torsions:
REMARK  status: ('A' for Active; 'I' for Inactive)
REMARK    1  A    between atoms: N_2  and  C1_3 
ROOT
ATOM      1  C1  UNL d   1      -1.685   4.800  -4.214  0.00  0.00     0.143 A 
ATOM      2  C2  UNL d   1      -2.369   4.717  -5.432  0.00  0.00    -0.057 A 
ATOM      3  C3  UNL d   1      -2.695   3.479  -5.999  0.00  0.00     0.033 A 
ATOM      4  C4  UNL d   1      -2.315   2.298  -5.370  0.00  0.00    -0.042 A 
ATOM      5  C5  UNL d   1      -1.612   2.356  -4.172  0.00  0.00     0.033 A 
ATOM      6  C6  UNL d   1      -1.296   3.596  -3.607  0.00  0.00    -0.057 A 
ENDROOT
BRANCH   1   7
ATOM      7  N   UNL d   1      -1.246   6.000  -3.649  0.00  0.00    -0.732 N 
ATOM      8  C   UNL d   1      -0.250   5.999  -2.599  0.00  0.00     0.284 C 
ATOM      9  H3  UNL d   1      -1.117   6.732  -4.343  0.00  0.00     0.395 HD
ENDBRANCH   1   7
TORSDOF 1
ENDMDL
