MODEL 1
REMARK minimizedAffinity 3.13648772
REMARK minimizedRMSD -1
REMARK  1 active torsions:
REMARK  status: ('A' for Active; 'I' for Inactive)
REMARK    1  A    between atoms: N_2  and  C1_3 
ROOT
ATOM      1  C1  UNL d   1      -1.834   5.250  -4.152  0.00  0.00     0.143 A 
ATOM      2  C2  UNL d   1      -1.870   3.851  -4.170  0.00  0.00    -0.057 A 
ATOM      3  C3  UNL d   1      -2.661   3.157  -5.094  0.00  0.00     0.033 A 
ATOM      4  C4  UNL d   1      -3.455   3.852  -6.000  0.00  0.00    -0.042 A 
ATOM      5  C5  UNL d   1      -3.454   5.242  -5.984  0.00  0.00     0.033 A 
ATOM      6  C6  UNL d   1      -2.657   5.930  -5.064  0.00  0.00    -0.057 A 
ENDROOT
BRANCH   1   7
ATOM      7  N   UNL d   1      -1.145   5.998  -3.195  0.00  0.00    -0.732 N 
ATOM      8  C   UNL d   1       0.001   5.441  -2.509  0.00  0.00     0.284 C 
ATOM      9  H3  UNL d   1      -1.032   6.971  -3.470  0.00  0.00     0.395 HD
ENDBRANCH   1   7
TORSDOF 1
ENDMDL
