MODEL 1
REMARK minimizedAffinity 9.86425686
REMARK minimizedRMSD -1
REMARK  1 active torsions:
REMARK  status: ('A' for Active; 'I' for Inactive)
REMARK    1  A    between atoms: N_2  and  C1_3 
ROOT
ATOM      1  C1  UNL d   1      -4.002   1.148   4.048  0.00  0.00     0.143 A 
ATOM      2  C2  UNL d   1      -5.059   1.896   3.518  0.00  0.00    -0.057 A 
ATOM      3  C3  UNL d   1      -5.579   3.002   4.201  0.00  0.00     0.033 A 
ATOM      4  C4  UNL d   1      -5.069   3.364   5.443  0.00  0.00    -0.042 A 
ATOM      5  C5  UNL d   1      -4.034   2.620   6.000  0.00  0.00     0.033 A 
ATOM      6  C6  UNL d   1      -3.515   1.520   5.311  0.00  0.00    -0.057 A 
ENDROOT
BRANCH   1   7
ATOM      7  N   UNL d   1      -3.507  -0.021   3.464  0.00  0.00    -0.732 N 
ATOM      8  C   UNL d   1      -4.111  -1.303   3.756  0.00  0.00     0.284 C 
ATOM      9  H3  UNL d   1      -3.259   0.108   2.486  0.00  0.00     0.395 HD
ENDBRANCH   1   7
TORSDOF 1
ENDMDL
