MODEL 1
REMARK minimizedAffinity 8.89288998
REMARK minimizedRMSD -1
REMARK  1 active torsions:
REMARK  status: ('A' for Active; 'I' for Inactive)
REMARK    1  A    between atoms: N_2  and  C1_3 
ROOT
ATOM      1  C1  UNL d   1       1.413   1.005   0.831  0.00  0.00     0.143 A 
ATOM      2  C2  UNL d   1       2.670   1.496   0.462  0.00  0.00    -0.057 A 
ATOM      3  C3  UNL d   1       3.225   1.203  -0.790  0.00  0.00     0.033 A 
ATOM      4  C4  UNL d   1       2.543   0.387  -1.686  0.00  0.00    -0.042 A 
ATOM      5  C5  UNL d   1       1.303  -0.133  -1.331  0.00  0.00     0.033 A 
ATOM      6  C6  UNL d   1       0.751   0.169  -0.082  0.00  0.00    -0.057 A 
ENDROOT
BRANCH   1   7
ATOM      7  N   UNL d   1       0.851   1.180   2.098  0.00  0.00    -0.732 N 
ATOM      8  C   UNL d   1      -0.521   1.617   2.242  0.00  0.00     0.284 C 
ATOM      9  H3  UNL d   1       1.124   0.446   2.748  0.00  0.00     0.395 HD
ENDBRANCH   1   7
TORSDOF 1
ENDMDL
