MODEL 1
REMARK minimizedAffinity 7.52480602
REMARK minimizedRMSD -1
REMARK  1 active torsions:
REMARK  status: ('A' for Active; 'I' for Inactive)
REMARK    1  A    between atoms: N_2  and  C1_3 
ROOT
ATOM      1  C1  UNL d   1      -3.709  -0.785   2.599  0.00  0.00     0.143 A 
ATOM      2  C2  UNL d   1      -4.244   0.165   3.476  0.00  0.00    -0.057 A 
ATOM      3  C3  UNL d   1      -3.617   1.400   3.679  0.00  0.00     0.033 A 
ATOM      4  C4  UNL d   1      -2.424   1.696   3.029  0.00  0.00    -0.042 A 
ATOM      5  C5  UNL d   1      -1.861   0.757   2.172  0.00  0.00     0.033 A 
ATOM      6  C6  UNL d   1      -2.495  -0.472   1.968  0.00  0.00    -0.057 A 
ENDROOT
BRANCH   1   7
ATOM      7  N   UNL d   1      -4.233  -2.069   2.430  0.00  0.00    -0.732 N 
ATOM      8  C   UNL d   1      -5.328  -2.304   1.513  0.00  0.00     0.284 C 
ATOM      9  H3  UNL d   1      -3.509  -2.784   2.404  0.00  0.00     0.395 HD
ENDBRANCH   1   7
TORSDOF 1
ENDMDL
