MODEL 1
REMARK minimizedAffinity -5.56665277
REMARK minimizedRMSD -1
REMARK  1 active torsions:
REMARK  status: ('A' for Active; 'I' for Inactive)
REMARK    1  A    between atoms: C1_2  and  C2_3 
ROOT
ATOM      1  C2  UNL d   1       0.706  -1.698   0.772  0.00  0.00    -0.077 A 
ATOM      2  C3  UNL d   1       1.264  -0.654   0.021  0.00  0.00     0.002 A 
ATOM      3  C4  UNL d   1       0.567   0.543  -0.150  0.00  0.00     0.002 A 
ATOM      4  C5  UNL d   1      -0.688   0.710   0.431  0.00  0.00    -0.004 A 
ATOM      5  C6  UNL d   1      -1.252  -0.323   1.179  0.00  0.00     0.002 A 
ATOM      6  C7  UNL d   1      -0.558  -1.522   1.349  0.00  0.00     0.002 A 
ENDROOT
BRANCH   1   7
ATOM      7  C1  UNL d   1       1.477  -2.973   0.998  0.00  0.00     0.055 C 
ATOM      8  C   UNL d   1       1.349  -3.449   2.438  0.00  0.00     0.019 C 
ENDBRANCH   1   7
TORSDOF 1
ENDMDL
