MODEL 1
REMARK minimizedAffinity -4.02245617
REMARK minimizedRMSD -1
REMARK  1 active torsions:
REMARK  status: ('A' for Active; 'I' for Inactive)
REMARK    1  A    between atoms: C1_2  and  C2_3 
ROOT
ATOM      1  C2  UNL d   1       0.127  -1.077   0.178  0.00  0.00    -0.077 A 
ATOM      2  C3  UNL d   1       1.050  -2.005   0.680  0.00  0.00     0.002 A 
ATOM      3  C4  UNL d   1       1.017  -2.378   2.025  0.00  0.00     0.002 A 
ATOM      4  C5  UNL d   1       0.061  -1.830   2.878  0.00  0.00    -0.004 A 
ATOM      5  C6  UNL d   1      -0.860  -0.904   2.389  0.00  0.00     0.002 A 
ATOM      6  C7  UNL d   1      -0.828  -0.530   1.045  0.00  0.00     0.002 A 
ENDROOT
BRANCH   1   7
ATOM      7  C1  UNL d   1       0.130  -0.711  -1.283  0.00  0.00     0.055 C 
ATOM      8  C   UNL d   1      -0.880   0.388  -1.580  0.00  0.00     0.019 C 
ENDBRANCH   1   7
TORSDOF 1
ENDMDL
