MODEL 1
REMARK minimizedAffinity -5.24459934
REMARK minimizedRMSD -1
REMARK  1 active torsions:
REMARK  status: ('A' for Active; 'I' for Inactive)
REMARK    1  A    between atoms: C1_2  and  C2_3 
ROOT
ATOM      1  C2  UNL d   1      -0.368  -0.082   0.763  0.00  0.00    -0.077 A 
ATOM      2  C3  UNL d   1      -0.825  -0.778   1.891  0.00  0.00     0.002 A 
ATOM      3  C4  UNL d   1      -0.105  -1.864   2.391  0.00  0.00     0.002 A 
ATOM      4  C5  UNL d   1       1.079  -2.261   1.773  0.00  0.00    -0.004 A 
ATOM      5  C6  UNL d   1       1.542  -1.577   0.650  0.00  0.00     0.002 A 
ATOM      6  C7  UNL d   1       0.822  -0.492   0.147  0.00  0.00     0.002 A 
ENDROOT
BRANCH   1   7
ATOM      7  C1  UNL d   1      -1.118   1.120   0.251  0.00  0.00     0.055 C 
ATOM      8  C   UNL d   1      -1.007   1.238  -1.262  0.00  0.00     0.019 C 
ENDBRANCH   1   7
TORSDOF 1
ENDMDL
