MODEL 1
REMARK minimizedAffinity -5.24572802
REMARK minimizedRMSD -1
REMARK  1 active torsions:
REMARK  status: ('A' for Active; 'I' for Inactive)
REMARK    1  A    between atoms: C1_2  and  C2_3 
ROOT
ATOM      1  C2  UNL d   1       0.966  -1.310   1.138  0.00  0.00    -0.077 A 
ATOM      2  C3  UNL d   1      -0.202  -1.393   1.908  0.00  0.00     0.002 A 
ATOM      3  C4  UNL d   1      -1.240  -0.479   1.717  0.00  0.00     0.002 A 
ATOM      4  C5  UNL d   1      -1.122   0.521   0.754  0.00  0.00    -0.004 A 
ATOM      5  C6  UNL d   1       0.038   0.613  -0.015  0.00  0.00     0.002 A 
ATOM      6  C7  UNL d   1       1.077  -0.299   0.175  0.00  0.00     0.002 A 
ENDROOT
BRANCH   1   7
ATOM      7  C1  UNL d   1       2.067  -2.325   1.308  0.00  0.00     0.055 C 
ATOM      8  C   UNL d   1       1.645  -3.447   2.246  0.00  0.00     0.019 C 
ENDBRANCH   1   7
TORSDOF 1
ENDMDL
