MODEL 1
REMARK minimizedAffinity -5.7180686
REMARK minimizedRMSD -1
REMARK  1 active torsions:
REMARK  status: ('A' for Active; 'I' for Inactive)
REMARK    1  A    between atoms: C1_2  and  C2_3 
ROOT
ATOM      1  C2  UNL d   1       0.431  -0.959   0.489  0.00  0.00    -0.077 A 
ATOM      2  C3  UNL d   1      -0.590  -1.068   1.443  0.00  0.00     0.002 A 
ATOM      3  C4  UNL d   1      -0.514  -2.028   2.454  0.00  0.00     0.002 A 
ATOM      4  C5  UNL d   1       0.584  -2.883   2.523  0.00  0.00    -0.004 A 
ATOM      5  C6  UNL d   1       1.604  -2.785   1.578  0.00  0.00     0.002 A 
ATOM      6  C7  UNL d   1       1.529  -1.826   0.566  0.00  0.00     0.002 A 
ENDROOT
BRANCH   1   7
ATOM      7  C1  UNL d   1       0.374   0.108  -0.572  0.00  0.00     0.055 C 
ATOM      8  C   UNL d   1      -0.894   0.941  -0.453  0.00  0.00     0.019 C 
ENDBRANCH   1   7
TORSDOF 1
ENDMDL
