MODEL 1
REMARK minimizedAffinity -4.87751627
REMARK minimizedRMSD -1
REMARK  1 active torsions:
REMARK  status: ('A' for Active; 'I' for Inactive)
REMARK    1  A    between atoms: C1_2  and  C2_3 
ROOT
ATOM      1  C2  UNL d   1      -0.255  -0.702   0.579  0.00  0.00    -0.077 A 
ATOM      2  C3  UNL d   1      -0.936  -1.600   1.413  0.00  0.00     0.002 A 
ATOM      3  C4  UNL d   1      -0.250  -2.641   2.040  0.00  0.00     0.002 A 
ATOM      4  C5  UNL d   1       1.121  -2.793   1.844  0.00  0.00    -0.004 A 
ATOM      5  C6  UNL d   1       1.807  -1.907   1.015  0.00  0.00     0.002 A 
ATOM      6  C7  UNL d   1       1.123  -0.866   0.386  0.00  0.00     0.002 A 
ENDROOT
BRANCH   1   7
ATOM      7  C1  UNL d   1      -0.984   0.451  -0.060  0.00  0.00     0.055 C 
ATOM      8  C   UNL d   1      -0.148   1.722  -0.024  0.00  0.00     0.019 C 
ENDBRANCH   1   7
TORSDOF 1
ENDMDL
