MODEL 1
REMARK minimizedAffinity -5.39718866
REMARK minimizedRMSD -1
REMARK  1 active torsions:
REMARK  status: ('A' for Active; 'I' for Inactive)
REMARK    1  A    between atoms: C1_2  and  C2_3 
ROOT
ATOM      1  C2  UNL d   1       0.699  -0.848  -0.048  0.00  0.00    -0.077 A 
ATOM      2  C3  UNL d   1      -0.037  -0.327   1.025  0.00  0.00     0.002 A 
ATOM      3  C4  UNL d   1      -0.393  -1.144   2.100  0.00  0.00     0.002 A 
ATOM      4  C5  UNL d   1      -0.014  -2.485   2.113  0.00  0.00    -0.004 A 
ATOM      5  C6  UNL d   1       0.716  -3.013   1.049  0.00  0.00     0.002 A 
ATOM      6  C7  UNL d   1       1.071  -2.198  -0.026  0.00  0.00     0.002 A 
ENDROOT
BRANCH   1   7
ATOM      7  C1  UNL d   1       1.126   0.043  -1.185  0.00  0.00     0.055 C 
ATOM      8  C   UNL d   1       2.640   0.190  -1.234  0.00  0.00     0.019 C 
ENDBRANCH   1   7
TORSDOF 1
ENDMDL
