MODEL 1
REMARK minimizedAffinity -5.84666109
REMARK minimizedRMSD -1
REMARK  1 active torsions:
REMARK  status: ('A' for Active; 'I' for Inactive)
REMARK    1  A    between atoms: C1_2  and  C2_3 
ROOT
ATOM      1  C2  UNL d   1      -0.094   0.104  -0.062  0.00  0.00    -0.077 A 
ATOM      2  C3  UNL d   1       1.263  -0.218  -0.202  0.00  0.00     0.002 A 
ATOM      3  C4  UNL d   1       1.789  -1.349   0.424  0.00  0.00     0.002 A 
ATOM      4  C5  UNL d   1       0.965  -2.170   1.191  0.00  0.00    -0.004 A 
ATOM      5  C6  UNL d   1      -0.386  -1.857   1.339  0.00  0.00     0.002 A 
ATOM      6  C7  UNL d   1      -0.913  -0.726   0.714  0.00  0.00     0.002 A 
ENDROOT
BRANCH   1   7
ATOM      7  C1  UNL d   1      -0.674   1.296  -0.777  0.00  0.00     0.055 C 
ATOM      8  C   UNL d   1      -1.845   0.895  -1.662  0.00  0.00     0.019 C 
ENDBRANCH   1   7
TORSDOF 1
ENDMDL
