MODEL 1
REMARK minimizedAffinity -5.36798286
REMARK minimizedRMSD -1
REMARK  1 active torsions:
REMARK  status: ('A' for Active; 'I' for Inactive)
REMARK    1  A    between atoms: C1_2  and  C2_3 
ROOT
ATOM      1  C2  UNL d   1       0.414  -0.509   0.522  0.00  0.00    -0.077 A 
ATOM      2  C3  UNL d   1      -0.543  -0.960   1.442  0.00  0.00     0.002 A 
ATOM      3  C4  UNL d   1      -0.290  -2.084   2.230  0.00  0.00     0.002 A 
ATOM      4  C5  UNL d   1       0.920  -2.764   2.108  0.00  0.00    -0.004 A 
ATOM      5  C6  UNL d   1       1.877  -2.325   1.195  0.00  0.00     0.002 A 
ATOM      6  C7  UNL d   1       1.626  -1.202   0.406  0.00  0.00     0.002 A 
ENDROOT
BRANCH   1   7
ATOM      7  C1  UNL d   1       0.163   0.733  -0.294  0.00  0.00     0.055 C 
ATOM      8  C   UNL d   1      -1.005   1.533   0.262  0.00  0.00     0.019 C 
ENDBRANCH   1   7
TORSDOF 1
ENDMDL
