MODEL 1
REMARK minimizedAffinity 17.3216476
REMARK minimizedRMSD -1
REMARK  0 active torsions:
REMARK  status: ('A' for Active; 'I' for Inactive)
ROOT
ATOM      1  C   UNL d   1      -0.874  -4.845  -3.481  0.00  0.00     0.124 A 
ATOM      2  C1  UNL d   1      -1.229  -3.646  -4.084  0.00  0.00     0.062 A 
ATOM      3  C2  UNL d   1      -1.067  -2.444  -3.401  0.00  0.00     0.162 A 
ATOM      4  C3  UNL d   1      -0.546  -2.434  -2.107  0.00  0.00    -0.034 A 
ATOM      5  C4  UNL d   1      -0.192  -3.644  -1.507  0.00  0.00     0.162 A 
ATOM      6  C5  UNL d   1      -0.356  -4.843  -2.194  0.00  0.00     0.062 A 
ATOM      7  F   UNL d   1      -0.012  -6.000  -1.610  0.00  0.00    -0.097 F 
ATOM      8  F1  UNL d   1       0.312  -3.671  -0.264  0.00  0.00    -0.096 F 
ATOM      9  I   UNL d   1      -0.302  -0.639  -1.082  0.00  0.00    -0.060 I 
ATOM     10  F2  UNL d   1      -1.419  -1.301  -4.008  0.00  0.00    -0.096 F 
ATOM     11  F3  UNL d   1      -1.731  -3.645  -5.327  0.00  0.00    -0.097 F 
ATOM     12  F4  UNL d   1      -1.032  -6.000  -4.140  0.00  0.00    -0.092 F 
ENDROOT
TORSDOF 0
ENDMDL
