MODEL 1
REMARK minimizedAffinity 12.0565653
REMARK minimizedRMSD -1
REMARK  0 active torsions:
REMARK  status: ('A' for Active; 'I' for Inactive)
ROOT
ATOM      1  C   UNL d   1       0.414   3.004   0.260  0.00  0.00     0.124 A 
ATOM      2  C1  UNL d   1       1.286   4.076   0.124  0.00  0.00     0.062 A 
ATOM      3  C2  UNL d   1       1.178   4.932  -0.967  0.00  0.00     0.162 A 
ATOM      4  C3  UNL d   1       0.193   4.722  -1.933  0.00  0.00    -0.034 A 
ATOM      5  C4  UNL d   1      -0.679   3.641  -1.790  0.00  0.00     0.162 A 
ATOM      6  C5  UNL d   1      -0.567   2.788  -0.697  0.00  0.00     0.062 A 
ATOM      7  F   UNL d   1      -1.411   1.753  -0.568  0.00  0.00    -0.097 F 
ATOM      8  F1  UNL d   1      -1.638   3.409  -2.700  0.00  0.00    -0.096 F 
ATOM      9  I   UNL d   1       0.028   6.000  -3.567  0.00  0.00    -0.060 I 
ATOM     10  F2  UNL d   1       2.034   5.960  -1.073  0.00  0.00    -0.096 F 
ATOM     11  F3  UNL d   1       2.236   4.286   1.047  0.00  0.00    -0.097 F 
ATOM     12  F4  UNL d   1       0.521   2.181   1.311  0.00  0.00    -0.092 F 
ENDROOT
TORSDOF 0
ENDMDL
