MODEL 1
REMARK minimizedAffinity 24.0034466
REMARK minimizedRMSD -1
REMARK  0 active torsions:
REMARK  status: ('A' for Active; 'I' for Inactive)
ROOT
ATOM      1  C   UNL d   1       0.081   4.998  -2.034  0.00  0.00     0.124 A 
ATOM      2  C1  UNL d   1      -1.246   4.682  -2.289  0.00  0.00     0.062 A 
ATOM      3  C2  UNL d   1      -1.923   3.786  -1.468  0.00  0.00     0.162 A 
ATOM      4  C3  UNL d   1      -1.274   3.198  -0.382  0.00  0.00    -0.034 A 
ATOM      5  C4  UNL d   1       0.061   3.519  -0.132  0.00  0.00     0.162 A 
ATOM      6  C5  UNL d   1       0.734   4.416  -0.956  0.00  0.00     0.062 A 
ATOM      7  F   UNL d   1       2.016   4.719  -0.708  0.00  0.00    -0.097 F 
ATOM      8  F1  UNL d   1       0.716   2.973   0.903  0.00  0.00    -0.096 F 
ATOM      9  I   UNL d   1      -2.283   1.857   0.849  0.00  0.00    -0.060 I 
ATOM     10  F2  UNL d   1      -3.205   3.500  -1.738  0.00  0.00    -0.096 F 
ATOM     11  F3  UNL d   1      -1.878   5.242  -3.331  0.00  0.00    -0.097 F 
ATOM     12  F4  UNL d   1       0.731   5.860  -2.827  0.00  0.00    -0.092 F 
ENDROOT
TORSDOF 0
ENDMDL
