MODEL 1
REMARK minimizedAffinity 18.8382378
REMARK minimizedRMSD -1
REMARK  0 active torsions:
REMARK  status: ('A' for Active; 'I' for Inactive)
ROOT
ATOM      1  C   UNL d   1       0.566  -2.774  -0.976  0.00  0.00     0.124 A 
ATOM      2  C1  UNL d   1       1.601  -1.930  -0.597  0.00  0.00     0.062 A 
ATOM      3  C2  UNL d   1       2.900  -2.417  -0.495  0.00  0.00     0.162 A 
ATOM      4  C3  UNL d   1       3.174  -3.756  -0.773  0.00  0.00    -0.034 A 
ATOM      5  C4  UNL d   1       2.128  -4.600  -1.152  0.00  0.00     0.162 A 
ATOM      6  C5  UNL d   1       0.831  -4.108  -1.253  0.00  0.00     0.062 A 
ATOM      7  F   UNL d   1      -0.168  -4.925  -1.619  0.00  0.00    -0.097 F 
ATOM      8  F1  UNL d   1       2.355  -5.893  -1.427  0.00  0.00    -0.096 F 
ATOM      9  I   UNL d   1       5.116  -4.489  -0.622  0.00  0.00    -0.060 I 
ATOM     10  F2  UNL d   1       3.880  -1.578  -0.127  0.00  0.00    -0.096 F 
ATOM     11  F3  UNL d   1       1.347  -0.641  -0.328  0.00  0.00    -0.097 F 
ATOM     12  F4  UNL d   1      -0.684  -2.303  -1.072  0.00  0.00    -0.092 F 
ENDROOT
TORSDOF 0
ENDMDL
