MODEL 1
REMARK minimizedAffinity 13.6714106
REMARK minimizedRMSD -1
REMARK  0 active torsions:
REMARK  status: ('A' for Active; 'I' for Inactive)
ROOT
ATOM      1  C   UNL d   1       0.667   2.425   2.953  0.00  0.00     0.124 A 
ATOM      2  C1  UNL d   1      -0.577   2.447   2.338  0.00  0.00     0.062 A 
ATOM      3  C2  UNL d   1      -0.712   2.958   1.050  0.00  0.00     0.162 A 
ATOM      4  C3  UNL d   1       0.401   3.450   0.368  0.00  0.00    -0.034 A 
ATOM      5  C4  UNL d   1       1.649   3.425   0.994  0.00  0.00     0.162 A 
ATOM      6  C5  UNL d   1       1.779   2.914   2.281  0.00  0.00     0.062 A 
ATOM      7  F   UNL d   1       2.981   2.893   2.873  0.00  0.00    -0.097 F 
ATOM      8  F1  UNL d   1       2.739   3.890   0.366  0.00  0.00    -0.096 F 
ATOM      9  I   UNL d   1       0.203   4.215  -1.558  0.00  0.00    -0.060 I 
ATOM     10  F2  UNL d   1      -1.926   2.967   0.480  0.00  0.00    -0.096 F 
ATOM     11  F3  UNL d   1      -1.652   1.976   2.986  0.00  0.00    -0.097 F 
ATOM     12  F4  UNL d   1       0.794   1.934   4.192  0.00  0.00    -0.092 F 
ENDROOT
TORSDOF 0
ENDMDL
