MODEL 1
REMARK minimizedAffinity 9.75476742
REMARK minimizedRMSD -1
REMARK  0 active torsions:
REMARK  status: ('A' for Active; 'I' for Inactive)
ROOT
ATOM      1  C   UNL d   1      -5.628   4.244  -2.004  0.00  0.00     0.124 A 
ATOM      2  C1  UNL d   1      -5.816   2.920  -1.633  0.00  0.00     0.062 A 
ATOM      3  C2  UNL d   1      -5.814   1.915  -2.597  0.00  0.00     0.162 A 
ATOM      4  C3  UNL d   1      -5.624   2.231  -3.942  0.00  0.00    -0.034 A 
ATOM      5  C4  UNL d   1      -5.437   3.565  -4.308  0.00  0.00     0.162 A 
ATOM      6  C5  UNL d   1      -5.439   4.565  -3.341  0.00  0.00     0.062 A 
ATOM      7  F   UNL d   1      -5.258   5.844  -3.702  0.00  0.00    -0.097 F 
ATOM      8  F1  UNL d   1      -5.251   3.904  -5.592  0.00  0.00    -0.096 F 
ATOM      9  I   UNL d   1      -5.621   0.732  -5.386  0.00  0.00    -0.060 I 
ATOM     10  F2  UNL d   1      -5.998   0.645  -2.209  0.00  0.00    -0.096 F 
ATOM     11  F3  UNL d   1      -6.000   2.607  -0.342  0.00  0.00    -0.097 F 
ATOM     12  F4  UNL d   1      -5.631   5.208  -1.075  0.00  0.00    -0.092 F 
ENDROOT
TORSDOF 0
ENDMDL
