MODEL 1
REMARK minimizedAffinity 22.0004158
REMARK minimizedRMSD -1
REMARK  0 active torsions:
REMARK  status: ('A' for Active; 'I' for Inactive)
ROOT
ATOM      1  C   UNL d   1       1.671   3.899   0.691  0.00  0.00     0.124 A 
ATOM      2  C1  UNL d   1       0.525   3.784  -0.083  0.00  0.00     0.062 A 
ATOM      3  C2  UNL d   1      -0.622   3.199   0.446  0.00  0.00     0.162 A 
ATOM      4  C3  UNL d   1      -0.628   2.724   1.758  0.00  0.00    -0.034 A 
ATOM      5  C4  UNL d   1       0.529   2.842   2.530  0.00  0.00     0.162 A 
ATOM      6  C5  UNL d   1       1.672   3.428   1.997  0.00  0.00     0.062 A 
ATOM      7  F   UNL d   1       2.779   3.538   2.746  0.00  0.00    -0.097 F 
ATOM      8  F1  UNL d   1       0.557   2.396   3.795  0.00  0.00    -0.096 F 
ATOM      9  I   UNL d   1      -2.341   1.848   2.553  0.00  0.00    -0.060 I 
ATOM     10  F2  UNL d   1      -1.715   3.101  -0.325  0.00  0.00    -0.096 F 
ATOM     11  F3  UNL d   1       0.522   4.238  -1.345  0.00  0.00    -0.097 F 
ATOM     12  F4  UNL d   1       2.773   4.462   0.179  0.00  0.00    -0.092 F 
ENDROOT
TORSDOF 0
ENDMDL
