MODEL 1
REMARK minimizedAffinity -1.30211139
REMARK minimizedRMSD -1
REMARK  0 active torsions:
REMARK  status: ('A' for Active; 'I' for Inactive)
ROOT
ATOM      1  C4' PXY d   1      -1.941   2.762   1.717  0.00  0.00     0.077 C 
ATOM      2  C1' PXY d   1       1.648  -0.320  -1.606  0.00  0.00     0.077 C 
ATOM      3  C1  PXY d   1       0.700   0.477  -0.731  0.00  0.00    -0.082 A 
ATOM      4  C2  PXY d   1       0.527   1.769  -0.962  0.00  0.00     0.003 A 
ATOM      5  C3  PXY d   1      -0.301   2.512  -0.161  0.00  0.00     0.003 A 
ATOM      6  C4  PXY d   1      -1.001   1.916   0.854  0.00  0.00    -0.082 A 
ATOM      7  C5  PXY d   1      -0.838   0.597   1.089  0.00  0.00     0.003 A 
ATOM      8  C6  PXY d   1       0.039  -0.131   0.290  0.00  0.00     0.003 A 
ENDROOT
TORSDOF 0
ENDMDL
