MODEL 1
REMARK minimizedAffinity -4.08567333
REMARK minimizedRMSD -1
REMARK  0 active torsions:
REMARK  status: ('A' for Active; 'I' for Inactive)
ROOT
ATOM      1  C4' PXY d   1      -2.349   2.637   1.366  0.00  0.00     0.077 C 
ATOM      2  C1' PXY d   1       1.666  -1.273  -0.052  0.00  0.00     0.077 C 
ATOM      3  C1  PXY d   1       0.608  -0.256   0.329  0.00  0.00    -0.082 A 
ATOM      4  C2  PXY d   1       0.267   0.688  -0.534  0.00  0.00     0.003 A 
ATOM      5  C3  PXY d   1      -0.665   1.635  -0.194  0.00  0.00     0.003 A 
ATOM      6  C4  PXY d   1      -1.293   1.584   1.022  0.00  0.00    -0.082 A 
ATOM      7  C5  PXY d   1      -0.959   0.618   1.903  0.00  0.00     0.003 A 
ATOM      8  C6  PXY d   1       0.019  -0.309   1.555  0.00  0.00     0.003 A 
ENDROOT
TORSDOF 0
ENDMDL
