MODEL 1
REMARK minimizedAffinity -2.63586497
REMARK minimizedRMSD -1
REMARK  0 active torsions:
REMARK  status: ('A' for Active; 'I' for Inactive)
ROOT
ATOM      1  C4' PXY d   1       0.334  -2.119  -1.413  0.00  0.00     0.077 C 
ATOM      2  C1' PXY d   1      -0.952   2.016   2.417  0.00  0.00     0.077 C 
ATOM      3  C1  PXY d   1      -0.613   0.941   1.403  0.00  0.00    -0.082 A 
ATOM      4  C2  PXY d   1      -1.070  -0.289   1.576  0.00  0.00     0.003 A 
ATOM      5  C3  PXY d   1      -0.746  -1.280   0.686  0.00  0.00     0.003 A 
ATOM      6  C4  PXY d   1       0.009  -0.999  -0.420  0.00  0.00    -0.082 A 
ATOM      7  C5  PXY d   1       0.470   0.255  -0.609  0.00  0.00     0.003 A 
ATOM      8  C6  PXY d   1       0.165   1.239   0.327  0.00  0.00     0.003 A 
ENDROOT
TORSDOF 0
ENDMDL
