MODEL 1
REMARK minimizedAffinity -2.24526715
REMARK minimizedRMSD -1
REMARK  0 active torsions:
REMARK  status: ('A' for Active; 'I' for Inactive)
ROOT
ATOM      1  C4' PXY d   1       1.488  -1.780  -0.959  0.00  0.00     0.077 C 
ATOM      2  C1' PXY d   1      -1.678   2.272   1.682  0.00  0.00     0.077 C 
ATOM      3  C1  PXY d   1      -0.841   1.207   1.000  0.00  0.00    -0.082 A 
ATOM      4  C2  PXY d   1      -0.676   1.245  -0.312  0.00  0.00     0.003 A 
ATOM      5  C3  PXY d   1       0.052   0.273  -0.948  0.00  0.00     0.003 A 
ATOM      6  C4  PXY d   1       0.660  -0.720  -0.228  0.00  0.00    -0.082 A 
ATOM      7  C5  PXY d   1       0.504  -0.761   1.112  0.00  0.00     0.003 A 
ATOM      8  C6  PXY d   1      -0.272   0.213   1.735  0.00  0.00     0.003 A 
ENDROOT
TORSDOF 0
ENDMDL
