MODEL 1
REMARK minimizedAffinity -1.74031913
REMARK minimizedRMSD -1
REMARK  0 active torsions:
REMARK  status: ('A' for Active; 'I' for Inactive)
ROOT
ATOM      1  C4' PXY d   1       1.258  -1.407  -1.212  0.00  0.00     0.077 C 
ATOM      2  C1' PXY d   1      -1.811   2.214   2.087  0.00  0.00     0.077 C 
ATOM      3  C1  PXY d   1      -1.009   1.272   1.212  0.00  0.00    -0.082 A 
ATOM      4  C2  PXY d   1      -0.863   0.007   1.573  0.00  0.00     0.003 A 
ATOM      5  C3  PXY d   1      -0.114  -0.850   0.809  0.00  0.00     0.003 A 
ATOM      6  C4  PXY d   1       0.448  -0.423  -0.364  0.00  0.00    -0.082 A 
ATOM      7  C5  PXY d   1       0.295   0.863  -0.745  0.00  0.00     0.003 A 
ATOM      8  C6  PXY d   1      -0.434   1.728   0.066  0.00  0.00     0.003 A 
ENDROOT
TORSDOF 0
ENDMDL
