MODEL 1
REMARK minimizedAffinity -4.1987505
REMARK minimizedRMSD -1
REMARK  0 active torsions:
REMARK  status: ('A' for Active; 'I' for Inactive)
ROOT
ATOM      1  C4' PXY d   1       1.829  -1.576  -1.044  0.00  0.00     0.077 C 
ATOM      2  C1' PXY d   1      -1.275   1.543   2.705  0.00  0.00     0.077 C 
ATOM      3  C1  PXY d   1      -0.469   0.729   1.712  0.00  0.00    -0.082 A 
ATOM      4  C2  PXY d   1       0.211  -0.326   2.130  0.00  0.00     0.003 A 
ATOM      5  C3  PXY d   1       0.971  -1.054   1.252  0.00  0.00     0.003 A 
ATOM      6  C4  PXY d   1       0.993  -0.731  -0.079  0.00  0.00    -0.082 A 
ATOM      7  C5  PXY d   1       0.294   0.338  -0.515  0.00  0.00     0.003 A 
ATOM      8  C6  PXY d   1      -0.439   1.089   0.401  0.00  0.00     0.003 A 
ENDROOT
TORSDOF 0
ENDMDL
