MODEL 1
REMARK minimizedAffinity -3.76776457
REMARK minimizedRMSD -1
REMARK  0 active torsions:
REMARK  status: ('A' for Active; 'I' for Inactive)
ROOT
ATOM      1  C4' PXY d   1      -2.269   1.982   0.796  0.00  0.00     0.077 C 
ATOM      2  C1' PXY d   1       2.352  -0.641  -1.480  0.00  0.00     0.077 C 
ATOM      3  C1  PXY d   1       1.145   0.058  -0.887  0.00  0.00    -0.082 A 
ATOM      4  C2  PXY d   1       0.446  -0.538   0.066  0.00  0.00     0.003 A 
ATOM      5  C3  PXY d   1      -0.667   0.067   0.591  0.00  0.00     0.003 A 
ATOM      6  C4  PXY d   1      -1.038   1.317   0.175  0.00  0.00    -0.082 A 
ATOM      7  C5  PXY d   1      -0.324   1.936  -0.789  0.00  0.00     0.003 A 
ATOM      8  C6  PXY d   1       0.779   1.288  -1.339  0.00  0.00     0.003 A 
ENDROOT
TORSDOF 0
ENDMDL
