MODEL 1
REMARK minimizedAffinity -2.28457403
REMARK minimizedRMSD -1
REMARK  0 active torsions:
REMARK  status: ('A' for Active; 'I' for Inactive)
ROOT
ATOM      1  C4' PXY d   1      -0.607   2.051   2.658  0.00  0.00     0.077 C 
ATOM      2  C1' PXY d   1       0.133  -1.901  -1.494  0.00  0.00     0.077 C 
ATOM      3  C1  PXY d   1      -0.066  -0.857  -0.414  0.00  0.00    -0.082 A 
ATOM      4  C2  PXY d   1       0.718  -0.860   0.652  0.00  0.00     0.003 A 
ATOM      5  C3  PXY d   1       0.530   0.058   1.653  0.00  0.00     0.003 A 
ATOM      6  C4  PXY d   1      -0.435   1.022   1.538  0.00  0.00    -0.082 A 
ATOM      7  C5  PXY d   1      -1.233   1.038   0.449  0.00  0.00     0.003 A 
ATOM      8  C6  PXY d   1      -1.053   0.072  -0.537  0.00  0.00     0.003 A 
ENDROOT
TORSDOF 0
ENDMDL
