MODEL 1
REMARK minimizedAffinity -5.57498312
REMARK minimizedRMSD -1
REMARK  0 active torsions:
REMARK  status: ('A' for Active; 'I' for Inactive)
ROOT
ATOM      1  C4' PXY d   1       1.809  -1.730  -1.327  0.00  0.00     0.077 C 
ATOM      2  C1' PXY d   1      -1.986   2.308   0.318  0.00  0.00     0.077 C 
ATOM      3  C1  PXY d   1      -0.985   1.258  -0.121  0.00  0.00    -0.082 A 
ATOM      4  C2  PXY d   1      -1.320  -0.021  -0.084  0.00  0.00     0.003 A 
ATOM      5  C3  PXY d   1      -0.416  -0.986  -0.447  0.00  0.00     0.003 A 
ATOM      6  C4  PXY d   1       0.827  -0.635  -0.903  0.00  0.00    -0.082 A 
ATOM      7  C5  PXY d   1       1.173   0.669  -0.953  0.00  0.00     0.003 A 
ATOM      8  C6  PXY d   1       0.255   1.630  -0.542  0.00  0.00     0.003 A 
ENDROOT
TORSDOF 0
ENDMDL
