MODEL 1
REMARK minimizedAffinity -4.34452009
REMARK minimizedRMSD -1
REMARK  0 active torsions:
REMARK  status: ('A' for Active; 'I' for Inactive)
ROOT
ATOM      1  C4' PXY d   1       1.455  -1.494  -0.308  0.00  0.00     0.077 C 
ATOM      2  C1' PXY d   1      -2.248   2.678   1.208  0.00  0.00     0.077 C 
ATOM      3  C1  PXY d   1      -1.280   1.586   0.798  0.00  0.00    -0.082 A 
ATOM      4  C2  PXY d   1      -0.967   0.632   1.660  0.00  0.00     0.003 A 
ATOM      5  C3  PXY d   1      -0.069  -0.345   1.316  0.00  0.00     0.003 A 
ATOM      6  C4  PXY d   1       0.475  -0.376   0.060  0.00  0.00    -0.082 A 
ATOM      7  C5  PXY d   1       0.152   0.588  -0.829  0.00  0.00     0.003 A 
ATOM      8  C6  PXY d   1      -0.730   1.594  -0.446  0.00  0.00     0.003 A 
ENDROOT
TORSDOF 0
ENDMDL
