MODEL 1
REMARK minimizedAffinity -4.37701416
REMARK minimizedRMSD -1
REMARK  0 active torsions:
REMARK  status: ('A' for Active; 'I' for Inactive)
ROOT
ATOM      1  C4' PXY d   1      -0.377  -2.086  -1.881  0.00  0.00     0.077 C 
ATOM      2  C1' PXY d   1      -0.737   1.565   2.586  0.00  0.00     0.077 C 
ATOM      3  C1  PXY d   1      -0.630   0.611   1.413  0.00  0.00    -0.082 A 
ATOM      4  C2  PXY d   1      -1.719   0.275   0.742  0.00  0.00     0.003 A 
ATOM      5  C3  PXY d   1      -1.645  -0.612  -0.301  0.00  0.00     0.003 A 
ATOM      6  C4  PXY d   1      -0.436  -1.118  -0.695  0.00  0.00    -0.082 A 
ATOM      7  C5  PXY d   1       0.682  -0.772  -0.022  0.00  0.00     0.003 A 
ATOM      8  C6  PXY d   1       0.580   0.097   1.060  0.00  0.00     0.003 A 
ENDROOT
TORSDOF 0
ENDMDL
