MODEL 1
REMARK minimizedAffinity -3.1375668
REMARK minimizedRMSD -1
REMARK  0 active torsions:
REMARK  status: ('A' for Active; 'I' for Inactive)
ROOT
ATOM      1  C4' PXY d   1      -1.504   1.133   2.263  0.00  0.00     0.077 C 
ATOM      2  C1' PXY d   1       1.311  -2.103  -1.613  0.00  0.00     0.077 C 
ATOM      3  C1  PXY d   1       0.564  -1.252  -0.605  0.00  0.00    -0.082 A 
ATOM      4  C2  PXY d   1       1.219  -0.711   0.409  0.00  0.00     0.003 A 
ATOM      5  C3  PXY d   1       0.553   0.035   1.347  0.00  0.00     0.003 A 
ATOM      6  C4  PXY d   1      -0.788   0.274   1.216  0.00  0.00    -0.082 A 
ATOM      7  C5  PXY d   1      -1.463  -0.266   0.179  0.00  0.00     0.003 A 
ATOM      8  C6  PXY d   1      -0.776  -1.054  -0.740  0.00  0.00     0.003 A 
ENDROOT
TORSDOF 0
ENDMDL
