MODEL 1
REMARK minimizedAffinity -3.95227695
REMARK minimizedRMSD -1
REMARK  0 active torsions:
REMARK  status: ('A' for Active; 'I' for Inactive)
ROOT
ATOM      1  C4' PXY d   1      -2.152   2.424   1.491  0.00  0.00     0.077 C 
ATOM      2  C1' PXY d   1       1.252  -1.645  -0.804  0.00  0.00     0.077 C 
ATOM      3  C1  PXY d   1       0.364  -0.570  -0.211  0.00  0.00    -0.082 A 
ATOM      4  C2  PXY d   1      -0.015  -0.658   1.053  0.00  0.00     0.003 A 
ATOM      5  C3  PXY d   1      -0.845   0.289   1.597  0.00  0.00     0.003 A 
ATOM      6  C4  PXY d   1      -1.248   1.366   0.853  0.00  0.00    -0.082 A 
ATOM      7  C5  PXY d   1      -0.856   1.469  -0.435  0.00  0.00     0.003 A 
ATOM      8  C6  PXY d   1      -0.048   0.475  -0.979  0.00  0.00     0.003 A 
ENDROOT
TORSDOF 0
ENDMDL
