MODEL 1
REMARK minimizedAffinity -1.33919406
REMARK minimizedRMSD -1
REMARK  0 active torsions:
REMARK  status: ('A' for Active; 'I' for Inactive)
ROOT
ATOM      1  C4' PXY d   1      -1.125   2.047  -1.145  0.00  0.00     0.077 C 
ATOM      2  C1' PXY d   1       0.376  -0.793   3.661  0.00  0.00     0.077 C 
ATOM      3  C1  PXY d   1      -0.007  -0.053   2.394  0.00  0.00    -0.082 A 
ATOM      4  C2  PXY d   1      -0.764   1.029   2.473  0.00  0.00     0.003 A 
ATOM      5  C3  PXY d   1      -1.146   1.692   1.335  0.00  0.00     0.003 A 
ATOM      6  C4  PXY d   1      -0.706   1.274   0.108  0.00  0.00    -0.082 A 
ATOM      7  C5  PXY d   1       0.076   0.176   0.021  0.00  0.00     0.003 A 
ATOM      8  C6  PXY d   1       0.419  -0.507   1.184  0.00  0.00     0.003 A 
ENDROOT
TORSDOF 0
ENDMDL
