MODEL 1
REMARK minimizedAffinity -2.62667751
REMARK minimizedRMSD -1
REMARK  0 active torsions:
REMARK  status: ('A' for Active; 'I' for Inactive)
ROOT
ATOM      1  C4' PXY d   1       1.570  -2.044  -1.051  0.00  0.00     0.077 C 
ATOM      2  C1' PXY d   1      -1.429   1.850   1.992  0.00  0.00     0.077 C 
ATOM      3  C1  PXY d   1      -0.646   0.834   1.183  0.00  0.00    -0.082 A 
ATOM      4  C2  PXY d   1      -0.384  -0.354   1.702  0.00  0.00     0.003 A 
ATOM      5  C3  PXY d   1       0.350  -1.273   0.997  0.00  0.00     0.003 A 
ATOM      6  C4  PXY d   1       0.775  -0.992  -0.274  0.00  0.00    -0.082 A 
ATOM      7  C5  PXY d   1       0.502   0.215  -0.815  0.00  0.00     0.003 A 
ATOM      8  C6  PXY d   1      -0.209   1.149  -0.067  0.00  0.00     0.003 A 
ENDROOT
TORSDOF 0
ENDMDL
