MODEL 1
REMARK minimizedAffinity -3.70679045
REMARK minimizedRMSD -1
REMARK  0 active torsions:
REMARK  status: ('A' for Active; 'I' for Inactive)
ROOT
ATOM      1  C4' PXY d   1       1.593  -1.074  -0.935  0.00  0.00     0.077 C 
ATOM      2  C1' PXY d   1      -2.526   2.180   1.487  0.00  0.00     0.077 C 
ATOM      3  C1  PXY d   1      -1.439   1.327   0.863  0.00  0.00    -0.082 A 
ATOM      4  C2  PXY d   1      -1.256   1.356  -0.447  0.00  0.00     0.003 A 
ATOM      5  C3  PXY d   1      -0.299   0.566  -1.031  0.00  0.00     0.003 A 
ATOM      6  C4  PXY d   1       0.514  -0.221  -0.261  0.00  0.00    -0.082 A 
ATOM      7  C5  PXY d   1       0.341  -0.249   1.078  0.00  0.00     0.003 A 
ATOM      8  C6  PXY d   1      -0.663   0.529   1.647  0.00  0.00     0.003 A 
ENDROOT
TORSDOF 0
ENDMDL
