MODEL 1
REMARK minimizedAffinity -3.46832013
REMARK minimizedRMSD -1
REMARK  0 active torsions:
REMARK  status: ('A' for Active; 'I' for Inactive)
ROOT
ATOM      1  C4' PXY d   1       1.407  -2.012   0.727  0.00  0.00     0.077 C 
ATOM      2  C1' PXY d   1      -2.213   2.485   1.018  0.00  0.00     0.077 C 
ATOM      3  C1  PXY d   1      -1.255   1.312   0.948  0.00  0.00    -0.082 A 
ATOM      4  C2  PXY d   1      -1.400   0.404  -0.004  0.00  0.00     0.003 A 
ATOM      5  C3  PXY d   1      -0.562  -0.679  -0.062  0.00  0.00     0.003 A 
ATOM      6  C4  PXY d   1       0.469  -0.807   0.830  0.00  0.00    -0.082 A 
ATOM      7  C5  PXY d   1       0.630   0.121   1.797  0.00  0.00     0.003 A 
ATOM      8  C6  PXY d   1      -0.257   1.192   1.864  0.00  0.00     0.003 A 
ENDROOT
TORSDOF 0
ENDMDL
