MODEL 1
REMARK minimizedAffinity -3.61025
REMARK minimizedRMSD -1
REMARK  0 active torsions:
REMARK  status: ('A' for Active; 'I' for Inactive)
ROOT
ATOM      1  C4' PXY d   1       0.690  -2.238  -1.564  0.00  0.00     0.077 C 
ATOM      2  C1' PXY d   1      -1.041   1.923   2.057  0.00  0.00     0.077 C 
ATOM      3  C1  PXY d   1      -0.586   0.840   1.098  0.00  0.00    -0.082 A 
ATOM      4  C2  PXY d   1      -0.911  -0.421   1.333  0.00  0.00     0.003 A 
ATOM      5  C3  PXY d   1      -0.481  -1.416   0.493  0.00  0.00     0.003 A 
ATOM      6  C4  PXY d   1       0.244  -1.111  -0.628  0.00  0.00    -0.082 A 
ATOM      7  C5  PXY d   1       0.570   0.174  -0.880  0.00  0.00     0.003 A 
ATOM      8  C6  PXY d   1       0.159   1.165   0.006  0.00  0.00     0.003 A 
ENDROOT
TORSDOF 0
ENDMDL
