MODEL 1
REMARK minimizedAffinity -2.42558622
REMARK minimizedRMSD -1
REMARK  0 active torsions:
REMARK  status: ('A' for Active; 'I' for Inactive)
ROOT
ATOM      1  C4' PXY d   1       1.484  -1.975  -0.621  0.00  0.00     0.077 C 
ATOM      2  C1' PXY d   1      -1.749   2.145   1.826  0.00  0.00     0.077 C 
ATOM      3  C1  PXY d   1      -0.905   1.068   1.172  0.00  0.00    -0.082 A 
ATOM      4  C2  PXY d   1      -0.572  -0.011   1.862  0.00  0.00     0.003 A 
ATOM      5  C3  PXY d   1       0.217  -0.979   1.297  0.00  0.00     0.003 A 
ATOM      6  C4  PXY d   1       0.626  -0.867  -0.005  0.00  0.00    -0.082 A 
ATOM      7  C5  PXY d   1       0.281   0.225  -0.719  0.00  0.00     0.003 A 
ATOM      8  C6  PXY d   1      -0.487   1.216  -0.114  0.00  0.00     0.003 A 
ENDROOT
TORSDOF 0
ENDMDL
