MODEL 1
REMARK minimizedAffinity -3.77722526
REMARK minimizedRMSD -1
REMARK  0 active torsions:
REMARK  status: ('A' for Active; 'I' for Inactive)
ROOT
ATOM      1  C4' PXY d   1       1.164  -1.908  -0.962  0.00  0.00     0.077 C 
ATOM      2  C1' PXY d   1      -1.737   1.954   2.214  0.00  0.00     0.077 C 
ATOM      3  C1  PXY d   1      -0.978   0.949   1.370  0.00  0.00    -0.082 A 
ATOM      4  C2  PXY d   1      -0.914  -0.315   1.758  0.00  0.00     0.003 A 
ATOM      5  C3  PXY d   1      -0.205  -1.230   1.024  0.00  0.00     0.003 A 
ATOM      6  C4  PXY d   1       0.401  -0.860  -0.147  0.00  0.00    -0.082 A 
ATOM      7  C5  PXY d   1       0.331   0.425  -0.555  0.00  0.00     0.003 A 
ATOM      8  C6  PXY d   1      -0.359   1.348   0.226  0.00  0.00     0.003 A 
ENDROOT
TORSDOF 0
ENDMDL
