MODEL 1
REMARK minimizedAffinity 5.84566021
REMARK minimizedRMSD -1
REMARK  0 active torsions:
REMARK  status: ('A' for Active; 'I' for Inactive)
ROOT
ATOM      1  C   UNL d   1       1.399   0.365   1.770  0.00  0.00     0.124 A 
ATOM      2  C1  UNL d   1       1.139  -0.922   1.322  0.00  0.00     0.062 A 
ATOM      3  C2  UNL d   1       1.015  -1.969   2.231  0.00  0.00     0.162 A 
ATOM      4  C3  UNL d   1       1.150  -1.732   3.599  0.00  0.00    -0.034 A 
ATOM      5  C4  UNL d   1       1.413  -0.434   4.043  0.00  0.00     0.162 A 
ATOM      6  C5  UNL d   1       1.536   0.608   3.130  0.00  0.00     0.062 A 
ATOM      7  F   UNL d   1       1.787   1.851   3.565  0.00  0.00    -0.097 F 
ATOM      8  F1  UNL d   1       1.548  -0.172   5.351  0.00  0.00    -0.096 F 
ATOM      9  I   UNL d   1       0.965  -3.294   4.962  0.00  0.00    -0.060 I 
ATOM     10  F2  UNL d   1       0.764  -3.203   1.770  0.00  0.00    -0.096 F 
ATOM     11  F3  UNL d   1       1.008  -1.160   0.009  0.00  0.00    -0.097 F 
ATOM     12  F4  UNL d   1       1.519   1.370   0.893  0.00  0.00    -0.092 F 
ENDROOT
TORSDOF 0
ENDMDL
