MODEL 1
REMARK minimizedAffinity 9.19788361
REMARK minimizedRMSD -1
REMARK  0 active torsions:
REMARK  status: ('A' for Active; 'I' for Inactive)
ROOT
ATOM      1  C   UNL d   1      -5.384   1.132   1.704  0.00  0.00     0.124 A 
ATOM      2  C1  UNL d   1      -4.990   2.412   1.339  0.00  0.00     0.062 A 
ATOM      3  C2  UNL d   1      -4.828   2.739  -0.005  0.00  0.00     0.162 A 
ATOM      4  C3  UNL d   1      -5.062   1.784  -0.994  0.00  0.00    -0.034 A 
ATOM      5  C4  UNL d   1      -5.457   0.498  -0.619  0.00  0.00     0.162 A 
ATOM      6  C5  UNL d   1      -5.617   0.177   0.725  0.00  0.00     0.062 A 
ATOM      7  F   UNL d   1      -5.998  -1.060   1.075  0.00  0.00    -0.097 F 
ATOM      8  F1  UNL d   1      -5.690  -0.445  -1.545  0.00  0.00    -0.096 F 
ATOM      9  I   UNL d   1      -4.822   2.268  -3.004  0.00  0.00    -0.060 I 
ATOM     10  F2  UNL d   1      -4.447   3.983  -0.328  0.00  0.00    -0.096 F 
ATOM     11  F3  UNL d   1      -4.763   3.337   2.283  0.00  0.00    -0.097 F 
ATOM     12  F4  UNL d   1      -5.538   0.821   2.997  0.00  0.00    -0.092 F 
ENDROOT
TORSDOF 0
ENDMDL
