MODEL 1
REMARK minimizedAffinity 12.5511847
REMARK minimizedRMSD -1
REMARK  0 active torsions:
REMARK  status: ('A' for Active; 'I' for Inactive)
ROOT
ATOM      1  C   UNL d   1      -4.126   1.935  -2.374  0.00  0.00     0.124 A 
ATOM      2  C1  UNL d   1      -5.076   1.450  -1.485  0.00  0.00     0.062 A 
ATOM      3  C2  UNL d   1      -5.071   1.869  -0.158  0.00  0.00     0.162 A 
ATOM      4  C3  UNL d   1      -4.113   2.779   0.289  0.00  0.00    -0.034 A 
ATOM      5  C4  UNL d   1      -3.161   3.262  -0.610  0.00  0.00     0.162 A 
ATOM      6  C5  UNL d   1      -3.170   2.841  -1.936  0.00  0.00     0.062 A 
ATOM      7  F   UNL d   1      -2.252   3.311  -2.793  0.00  0.00    -0.097 F 
ATOM      8  F1  UNL d   1      -2.226   4.138  -0.214  0.00  0.00    -0.096 F 
ATOM      9  I   UNL d   1      -4.102   3.407   2.273  0.00  0.00    -0.060 I 
ATOM     10  F2  UNL d   1      -6.000   1.383   0.678  0.00  0.00    -0.096 F 
ATOM     11  F3  UNL d   1      -6.000   0.575  -1.906  0.00  0.00    -0.097 F 
ATOM     12  F4  UNL d   1      -4.133   1.530  -3.651  0.00  0.00    -0.092 F 
ENDROOT
TORSDOF 0
ENDMDL
