MODEL 1
REMARK minimizedAffinity 7.81945992
REMARK minimizedRMSD -1
REMARK  0 active torsions:
REMARK  status: ('A' for Active; 'I' for Inactive)
ROOT
ATOM      1  C   UNL d   1      -5.995   2.647   1.520  0.00  0.00     0.124 A 
ATOM      2  C1  UNL d   1      -5.994   3.893   0.907  0.00  0.00     0.062 A 
ATOM      3  C2  UNL d   1      -5.994   3.989  -0.482  0.00  0.00     0.162 A 
ATOM      4  C3  UNL d   1      -5.997   2.837  -1.268  0.00  0.00    -0.034 A 
ATOM      5  C4  UNL d   1      -5.997   1.588  -0.644  0.00  0.00     0.162 A 
ATOM      6  C5  UNL d   1      -5.996   1.497   0.744  0.00  0.00     0.062 A 
ATOM      7  F   UNL d   1      -5.997   0.293   1.335  0.00  0.00    -0.097 F 
ATOM      8  F1  UNL d   1      -5.999   0.460  -1.369  0.00  0.00    -0.096 F 
ATOM      9  I   UNL d   1      -5.997   2.977  -3.344  0.00  0.00    -0.060 I 
ATOM     10  F2  UNL d   1      -5.993   5.206  -1.047  0.00  0.00    -0.096 F 
ATOM     11  F3  UNL d   1      -5.992   5.006   1.654  0.00  0.00    -0.097 F 
ATOM     12  F4  UNL d   1      -5.994   2.557   2.856  0.00  0.00    -0.092 F 
ENDROOT
TORSDOF 0
ENDMDL
