MODEL 1
REMARK minimizedAffinity 7.73806477
REMARK minimizedRMSD -1
REMARK  0 active torsions:
REMARK  status: ('A' for Active; 'I' for Inactive)
ROOT
ATOM      1  C   UNL d   1      -5.704   2.525   1.377  0.00  0.00     0.124 A 
ATOM      2  C1  UNL d   1      -5.810   3.691   0.631  0.00  0.00     0.062 A 
ATOM      3  C2  UNL d   1      -5.894   3.629  -0.757  0.00  0.00     0.162 A 
ATOM      4  C3  UNL d   1      -5.874   2.395  -1.408  0.00  0.00    -0.034 A 
ATOM      5  C4  UNL d   1      -5.766   1.227  -0.651  0.00  0.00     0.162 A 
ATOM      6  C5  UNL d   1      -5.682   1.295   0.736  0.00  0.00     0.062 A 
ATOM      7  F   UNL d   1      -5.579   0.168   1.455  0.00  0.00    -0.097 F 
ATOM      8  F1  UNL d   1      -5.743   0.025  -1.245  0.00  0.00    -0.096 F 
ATOM      9  I   UNL d   1      -5.999   2.298  -3.483  0.00  0.00    -0.060 I 
ATOM     10  F2  UNL d   1      -5.996   4.771  -1.452  0.00  0.00    -0.096 F 
ATOM     11  F3  UNL d   1      -5.831   4.881   1.249  0.00  0.00    -0.097 F 
ATOM     12  F4  UNL d   1      -5.622   2.588   2.713  0.00  0.00    -0.092 F 
ENDROOT
TORSDOF 0
ENDMDL
