MODEL 1
REMARK minimizedAffinity 7.02114153
REMARK minimizedRMSD -1
REMARK  0 active torsions:
REMARK  status: ('A' for Active; 'I' for Inactive)
ROOT
ATOM      1  C   UNL d   1      -5.809   1.047   0.232  0.00  0.00     0.124 A 
ATOM      2  C1  UNL d   1      -5.717   2.049   1.187  0.00  0.00     0.062 A 
ATOM      3  C2  UNL d   1      -5.719   3.387   0.802  0.00  0.00     0.162 A 
ATOM      4  C3  UNL d   1      -5.815   3.730  -0.547  0.00  0.00    -0.034 A 
ATOM      5  C4  UNL d   1      -5.906   2.716  -1.502  0.00  0.00     0.162 A 
ATOM      6  C5  UNL d   1      -5.904   1.381  -1.112  0.00  0.00     0.062 A 
ATOM      7  F   UNL d   1      -5.993   0.414  -2.037  0.00  0.00    -0.097 F 
ATOM      8  F1  UNL d   1      -6.000   3.011  -2.808  0.00  0.00    -0.096 F 
ATOM      9  I   UNL d   1      -5.818   5.729  -1.128  0.00  0.00    -0.060 I 
ATOM     10  F2  UNL d   1      -5.629   4.334   1.747  0.00  0.00    -0.096 F 
ATOM     11  F3  UNL d   1      -5.624   1.729   2.486  0.00  0.00    -0.097 F 
ATOM     12  F4  UNL d   1      -5.806  -0.239   0.605  0.00  0.00    -0.092 F 
ENDROOT
TORSDOF 0
ENDMDL
