MODEL 1
REMARK minimizedAffinity 23.2680225
REMARK minimizedRMSD -1
REMARK  0 active torsions:
REMARK  status: ('A' for Active; 'I' for Inactive)
ROOT
ATOM      1  C   UNL d   1       1.971  -2.617   3.578  0.00  0.00     0.124 A 
ATOM      2  C1  UNL d   1       2.249  -3.787   2.886  0.00  0.00     0.062 A 
ATOM      3  C2  UNL d   1       1.975  -3.877   1.524  0.00  0.00     0.162 A 
ATOM      4  C3  UNL d   1       1.420  -2.792   0.845  0.00  0.00    -0.034 A 
ATOM      5  C4  UNL d   1       1.142  -1.619   1.549  0.00  0.00     0.162 A 
ATOM      6  C5  UNL d   1       1.418  -1.534   2.909  0.00  0.00     0.062 A 
ATOM      7  F   UNL d   1       1.149  -0.403   3.577  0.00  0.00    -0.097 F 
ATOM      8  F1  UNL d   1       0.608  -0.557   0.927  0.00  0.00    -0.096 F 
ATOM      9  I   UNL d   1       1.008  -2.923  -1.191  0.00  0.00    -0.060 I 
ATOM     10  F2  UNL d   1       2.254  -5.020   0.880  0.00  0.00    -0.096 F 
ATOM     11  F3  UNL d   1       2.783  -4.835   3.530  0.00  0.00    -0.097 F 
ATOM     12  F4  UNL d   1       2.235  -2.534   4.889  0.00  0.00    -0.092 F 
ENDROOT
TORSDOF 0
ENDMDL
