MODEL 1
REMARK minimizedAffinity 10.3373632
REMARK minimizedRMSD -1
REMARK  0 active torsions:
REMARK  status: ('A' for Active; 'I' for Inactive)
ROOT
ATOM      1  C   UNL d   1      -2.583   3.872   1.880  0.00  0.00     0.124 A 
ATOM      2  C1  UNL d   1      -3.828   4.478   1.978  0.00  0.00     0.062 A 
ATOM      3  C2  UNL d   1      -4.805   4.229   1.018  0.00  0.00     0.162 A 
ATOM      4  C3  UNL d   1      -4.542   3.370  -0.048  0.00  0.00    -0.034 A 
ATOM      5  C4  UNL d   1      -3.287   2.765  -0.141  0.00  0.00     0.162 A 
ATOM      6  C5  UNL d   1      -2.314   3.017   0.821  0.00  0.00     0.062 A 
ATOM      7  F   UNL d   1      -1.111   2.431   0.724  0.00  0.00    -0.097 F 
ATOM      8  F1  UNL d   1      -3.000   1.934  -1.154  0.00  0.00    -0.096 F 
ATOM      9  I   UNL d   1      -6.000   2.996  -1.485  0.00  0.00    -0.060 I 
ATOM     10  F2  UNL d   1      -6.000   4.828   1.139  0.00  0.00    -0.096 F 
ATOM     11  F3  UNL d   1      -4.091   5.305   3.000  0.00  0.00    -0.097 F 
ATOM     12  F4  UNL d   1      -1.645   4.114   2.804  0.00  0.00    -0.092 F 
ENDROOT
TORSDOF 0
ENDMDL
