MODEL 1
REMARK minimizedAffinity -1.16796541
REMARK minimizedRMSD -1
REMARK  1 active torsions:
REMARK  status: ('A' for Active; 'I' for Inactive)
REMARK    1  A    between atoms: C1_2  and  C2_3 
ROOT
ATOM      1  C2  UNL d   1      -0.692   0.126   1.548  0.00  0.00    -0.073 A 
ATOM      2  C3  UNL d   1      -1.317  -0.285   0.365  0.00  0.00    -0.002 A 
ATOM      3  C4  UNL d   1      -0.568  -0.849  -0.669  0.00  0.00     0.004 A 
ATOM      4  C5  UNL d   1       0.810  -1.014  -0.529  0.00  0.00    -0.004 A 
ATOM      5  C6  UNL d   1       1.451  -0.620   0.650  0.00  0.00    -0.075 A 
ATOM      6  C7  UNL d   1       2.933  -0.788   0.816  0.00  0.00     0.076 C 
ATOM      7  C8  UNL d   1       0.693  -0.052   1.683  0.00  0.00     0.001 A 
ENDROOT
BRANCH   1   8
ATOM      8  C1  UNL d   1      -1.497   0.730   2.670  0.00  0.00     0.053 C 
ATOM      9  C   UNL d   1      -0.692   1.745   3.467  0.00  0.00     0.018 C 
ENDBRANCH   1   8
TORSDOF 1
ENDMDL
