MODEL 1
REMARK minimizedAffinity -3.72238374
REMARK minimizedRMSD -1
REMARK  1 active torsions:
REMARK  status: ('A' for Active; 'I' for Inactive)
REMARK    1  A    between atoms: C1_2  and  C2_3 
ROOT
ATOM      1  C2  UNL d   1       0.124   0.171   0.668  0.00  0.00    -0.073 A 
ATOM      2  C3  UNL d   1      -1.227  -0.109   0.432  0.00  0.00    -0.002 A 
ATOM      3  C4  UNL d   1      -2.190   0.207   1.392  0.00  0.00     0.004 A 
ATOM      4  C5  UNL d   1      -1.813   0.811   2.592  0.00  0.00    -0.004 A 
ATOM      5  C6  UNL d   1      -0.470   1.109   2.840  0.00  0.00    -0.075 A 
ATOM      6  C7  UNL d   1      -0.048   1.756   4.127  0.00  0.00     0.076 C 
ATOM      7  C8  UNL d   1       0.492   0.786   1.873  0.00  0.00     0.001 A 
ENDROOT
BRANCH   1   8
ATOM      8  C1  UNL d   1       1.166  -0.163  -0.368  0.00  0.00     0.053 C 
ATOM      9  C   UNL d   1       0.553  -0.394  -1.740  0.00  0.00     0.018 C 
ENDBRANCH   1   8
TORSDOF 1
ENDMDL
