MODEL 1
REMARK minimizedAffinity 1.72612882
REMARK minimizedRMSD -1
REMARK  1 active torsions:
REMARK  status: ('A' for Active; 'I' for Inactive)
REMARK    1  A    between atoms: C1_2  and  C2_3 
ROOT
ATOM      1  C2  UNL d   1      -4.454  -0.012  -1.998  0.00  0.00    -0.077 A 
ATOM      2  C3  UNL d   1      -5.283   0.022  -3.128  0.00  0.00     0.002 A 
ATOM      3  C4  UNL d   1      -5.499  -1.134  -3.881  0.00  0.00     0.002 A 
ATOM      4  C5  UNL d   1      -4.894  -2.333  -3.509  0.00  0.00    -0.004 A 
ATOM      5  C6  UNL d   1      -4.066  -2.376  -2.387  0.00  0.00     0.002 A 
ATOM      6  C7  UNL d   1      -3.848  -1.221  -1.635  0.00  0.00     0.002 A 
ENDROOT
BRANCH   1   7
ATOM      7  C1  UNL d   1      -4.259   1.222  -1.157  0.00  0.00     0.055 C 
ATOM      8  C   UNL d   1      -4.903   1.067   0.213  0.00  0.00     0.019 C 
ENDBRANCH   1   7
TORSDOF 1
ENDMDL
