MODEL 1
REMARK minimizedAffinity 4.28868675
REMARK minimizedRMSD -1
REMARK  1 active torsions:
REMARK  status: ('A' for Active; 'I' for Inactive)
REMARK    1  A    between atoms: C1_2  and  C2_3 
ROOT
ATOM      1  C2  UNL d   1      -0.371   1.632  -1.912  0.00  0.00    -0.077 A 
ATOM      2  C3  UNL d   1       1.009   1.383  -1.911  0.00  0.00     0.002 A 
ATOM      3  C4  UNL d   1       1.503   0.146  -1.495  0.00  0.00     0.002 A 
ATOM      4  C5  UNL d   1       0.626  -0.854  -1.082  0.00  0.00    -0.004 A 
ATOM      5  C6  UNL d   1      -0.748  -0.617  -1.078  0.00  0.00     0.002 A 
ATOM      6  C7  UNL d   1      -1.245   0.620  -1.491  0.00  0.00     0.002 A 
ENDROOT
BRANCH   1   7
ATOM      7  C1  UNL d   1      -0.910   2.949  -2.406  0.00  0.00     0.055 C 
ATOM      8  C   UNL d   1      -2.421   3.025  -2.243  0.00  0.00     0.019 C 
ENDBRANCH   1   7
TORSDOF 1
ENDMDL
