MODEL 1
REMARK minimizedAffinity 1.15115809
REMARK minimizedRMSD -1
REMARK  1 active torsions:
REMARK  status: ('A' for Active; 'I' for Inactive)
REMARK    1  A    between atoms: C1_2  and  C2_3 
ROOT
ATOM      1  C2  UNL d   1       1.192  -2.154   3.047  0.00  0.00    -0.077 A 
ATOM      2  C3  UNL d   1       2.265  -2.418   3.909  0.00  0.00     0.002 A 
ATOM      3  C4  UNL d   1       3.225  -3.375   3.571  0.00  0.00     0.002 A 
ATOM      4  C5  UNL d   1       3.123  -4.070   2.368  0.00  0.00    -0.004 A 
ATOM      5  C6  UNL d   1       2.058  -3.816   1.504  0.00  0.00     0.002 A 
ATOM      6  C7  UNL d   1       1.098  -2.861   1.842  0.00  0.00     0.002 A 
ENDROOT
BRANCH   1   7
ATOM      7  C1  UNL d   1       0.184  -1.088   3.387  0.00  0.00     0.055 C 
ATOM      8  C   UNL d   1      -1.240  -1.603   3.232  0.00  0.00     0.019 C 
ENDBRANCH   1   7
TORSDOF 1
ENDMDL
