MODEL 1
REMARK minimizedAffinity 6.44085169
REMARK minimizedRMSD -1
REMARK  1 active torsions:
REMARK  status: ('A' for Active; 'I' for Inactive)
REMARK    1  A    between atoms: C1_2  and  C2_3 
ROOT
ATOM      1  C2  UNL d   1       3.080  -3.757   0.812  0.00  0.00    -0.077 A 
ATOM      2  C3  UNL d   1       4.112  -3.643   1.754  0.00  0.00     0.002 A 
ATOM      3  C4  UNL d   1       5.429  -3.937   1.397  0.00  0.00     0.002 A 
ATOM      4  C5  UNL d   1       5.727  -4.343   0.098  0.00  0.00    -0.004 A 
ATOM      5  C6  UNL d   1       4.708  -4.461  -0.846  0.00  0.00     0.002 A 
ATOM      6  C7  UNL d   1       3.390  -4.169  -0.491  0.00  0.00     0.002 A 
ENDROOT
BRANCH   1   7
ATOM      7  C1  UNL d   1       1.666  -3.393   1.181  0.00  0.00     0.055 C 
ATOM      8  C   UNL d   1       1.446  -1.889   1.116  0.00  0.00     0.019 C 
ENDBRANCH   1   7
TORSDOF 1
ENDMDL
