MODEL 1
REMARK minimizedAffinity 4.76595354
REMARK minimizedRMSD -1
REMARK  1 active torsions:
REMARK  status: ('A' for Active; 'I' for Inactive)
REMARK    1  A    between atoms: C1_2  and  C2_3 
ROOT
ATOM      1  C2  UNL d   1       1.260   3.607   4.573  0.00  0.00    -0.077 A 
ATOM      2  C3  UNL d   1       0.218   4.544   4.632  0.00  0.00     0.002 A 
ATOM      3  C4  UNL d   1       0.378   5.734   5.345  0.00  0.00     0.002 A 
ATOM      4  C5  UNL d   1       1.579   6.000   6.000  0.00  0.00    -0.004 A 
ATOM      5  C6  UNL d   1       2.620   5.074   5.948  0.00  0.00     0.002 A 
ATOM      6  C7  UNL d   1       2.461   3.883   5.237  0.00  0.00     0.002 A 
ENDROOT
BRANCH   1   7
ATOM      7  C1  UNL d   1       1.107   2.346   3.764  0.00  0.00     0.055 C 
ATOM      8  C   UNL d   1       2.151   2.267   2.659  0.00  0.00     0.019 C 
ENDBRANCH   1   7
TORSDOF 1
ENDMDL
