MODEL 1
REMARK minimizedAffinity 11.683012
REMARK minimizedRMSD -1
REMARK  1 active torsions:
REMARK  status: ('A' for Active; 'I' for Inactive)
REMARK    1  A    between atoms: C1_2  and  C2_3 
ROOT
ATOM      1  C2  UNL d   1       1.347  -0.710   1.752  0.00  0.00    -0.077 A 
ATOM      2  C3  UNL d   1       1.151  -0.374   3.099  0.00  0.00     0.002 A 
ATOM      3  C4  UNL d   1       1.226   0.957   3.513  0.00  0.00     0.002 A 
ATOM      4  C5  UNL d   1       1.492   1.963   2.586  0.00  0.00    -0.004 A 
ATOM      5  C6  UNL d   1       1.691   1.639   1.245  0.00  0.00     0.002 A 
ATOM      6  C7  UNL d   1       1.617   0.308   0.829  0.00  0.00     0.002 A 
ENDROOT
BRANCH   1   7
ATOM      7  C1  UNL d   1       1.218  -2.140   1.295  0.00  0.00     0.055 C 
ATOM      8  C   UNL d   1       2.543  -2.879   1.408  0.00  0.00     0.019 C 
ENDBRANCH   1   7
TORSDOF 1
ENDMDL
