MODEL 1
REMARK minimizedAffinity 3.27207255
REMARK minimizedRMSD -1
REMARK  1 active torsions:
REMARK  status: ('A' for Active; 'I' for Inactive)
REMARK    1  A    between atoms: C1_2  and  C2_3 
ROOT
ATOM      1  C2  UNL d   1       2.831  -3.815   1.352  0.00  0.00    -0.077 A 
ATOM      2  C3  UNL d   1       2.259  -2.543   1.206  0.00  0.00     0.002 A 
ATOM      3  C4  UNL d   1       1.005  -2.265   1.752  0.00  0.00     0.002 A 
ATOM      4  C5  UNL d   1       0.314  -3.252   2.452  0.00  0.00    -0.004 A 
ATOM      5  C6  UNL d   1       0.873  -4.521   2.601  0.00  0.00     0.002 A 
ATOM      6  C7  UNL d   1       2.126  -4.801   2.054  0.00  0.00     0.002 A 
ENDROOT
BRANCH   1   7
ATOM      7  C1  UNL d   1       4.205  -4.102   0.805  0.00  0.00     0.055 C 
ATOM      8  C   UNL d   1       5.199  -3.026   1.216  0.00  0.00     0.019 C 
ENDBRANCH   1   7
TORSDOF 1
ENDMDL
