MODEL 1
REMARK minimizedAffinity 11.479105
REMARK minimizedRMSD -1
REMARK  1 active torsions:
REMARK  status: ('A' for Active; 'I' for Inactive)
REMARK    1  A    between atoms: C1_2  and  C2_3 
ROOT
ATOM      1  C2  UNL d   1      -3.651  -0.912  -2.090  0.00  0.00    -0.077 A 
ATOM      2  C3  UNL d   1      -4.051   0.195  -2.852  0.00  0.00     0.002 A 
ATOM      3  C4  UNL d   1      -4.893   0.028  -3.953  0.00  0.00     0.002 A 
ATOM      4  C5  UNL d   1      -5.346  -1.243  -4.299  0.00  0.00    -0.004 A 
ATOM      5  C6  UNL d   1      -4.953  -2.351  -3.549  0.00  0.00     0.002 A 
ATOM      6  C7  UNL d   1      -4.110  -2.186  -2.449  0.00  0.00     0.002 A 
ENDROOT
BRANCH   1   7
ATOM      7  C1  UNL d   1      -2.783  -0.728  -0.873  0.00  0.00     0.055 C 
ATOM      8  C   UNL d   1      -1.331  -0.489  -1.260  0.00  0.00     0.019 C 
ENDBRANCH   1   7
TORSDOF 1
ENDMDL
