MODEL 1
REMARK minimizedAffinity 2.14822459
REMARK minimizedRMSD -1
REMARK  1 active torsions:
REMARK  status: ('A' for Active; 'I' for Inactive)
REMARK    1  A    between atoms: C1_2  and  C2_3 
ROOT
ATOM      1  C2  UNL d   1       2.928  -3.572   3.646  0.00  0.00    -0.077 A 
ATOM      2  C3  UNL d   1       2.356  -2.292   3.635  0.00  0.00     0.002 A 
ATOM      3  C4  UNL d   1       1.479  -1.920   2.614  0.00  0.00     0.002 A 
ATOM      4  C5  UNL d   1       1.163  -2.822   1.601  0.00  0.00    -0.004 A 
ATOM      5  C6  UNL d   1       1.729  -4.097   1.602  0.00  0.00     0.002 A 
ATOM      6  C7  UNL d   1       2.606  -4.470   2.621  0.00  0.00     0.002 A 
ENDROOT
BRANCH   1   7
ATOM      7  C1  UNL d   1       3.835  -3.992   4.773  0.00  0.00     0.055 C 
ATOM      8  C   UNL d   1       4.057  -2.855   5.759  0.00  0.00     0.019 C 
ENDBRANCH   1   7
TORSDOF 1
ENDMDL
