MODEL 1
REMARK minimizedAffinity -2.68689775
REMARK minimizedRMSD -1
REMARK  0 active torsions:
REMARK  status: ('A' for Active; 'I' for Inactive)
ROOT
ATOM      1  C4' PXY d   1       0.511   1.777  -1.018  0.00  0.00     0.077 C 
ATOM      2  C1' PXY d   1      -1.618  -3.068   1.307  0.00  0.00     0.077 C 
ATOM      3  C1  PXY d   1      -1.072  -1.794   0.693  0.00  0.00    -0.082 A 
ATOM      4  C2  PXY d   1       0.203  -1.731   0.344  0.00  0.00     0.003 A 
ATOM      5  C3  PXY d   1       0.721  -0.576  -0.182  0.00  0.00     0.003 A 
ATOM      6  C4  PXY d   1      -0.086   0.508  -0.403  0.00  0.00    -0.082 A 
ATOM      7  C5  PXY d   1      -1.390   0.447  -0.060  0.00  0.00     0.003 A 
ATOM      8  C6  PXY d   1      -1.887  -0.720   0.512  0.00  0.00     0.003 A 
ENDROOT
TORSDOF 0
ENDMDL
