MODEL 1
REMARK minimizedAffinity -3.03978801
REMARK minimizedRMSD -1
REMARK  0 active torsions:
REMARK  status: ('A' for Active; 'I' for Inactive)
ROOT
ATOM      1  C4' PXY d   1       3.686   1.506  -3.800  0.00  0.00     0.077 C 
ATOM      2  C1' PXY d   1      -1.285   4.415  -3.311  0.00  0.00     0.077 C 
ATOM      3  C1  PXY d   1       0.020   3.652  -3.426  0.00  0.00    -0.082 A 
ATOM      4  C2  PXY d   1       0.753   3.771  -4.521  0.00  0.00     0.003 A 
ATOM      5  C3  PXY d   1       1.919   3.063  -4.655  0.00  0.00     0.003 A 
ATOM      6  C4  PXY d   1       2.367   2.265  -3.636  0.00  0.00    -0.082 A 
ATOM      7  C5  PXY d   1       1.630   2.147  -2.511  0.00  0.00     0.003 A 
ATOM      8  C6  PXY d   1       0.428   2.842  -2.412  0.00  0.00     0.003 A 
ENDROOT
TORSDOF 0
ENDMDL
