MODEL 1
REMARK minimizedAffinity -3.17533565
REMARK minimizedRMSD -1
REMARK  0 active torsions:
REMARK  status: ('A' for Active; 'I' for Inactive)
ROOT
ATOM      1  C4' PXY d   1       0.752   2.186  -1.275  0.00  0.00     0.077 C 
ATOM      2  C1' PXY d   1      -0.799  -2.332   1.981  0.00  0.00     0.077 C 
ATOM      3  C1  PXY d   1      -0.405  -1.143   1.127  0.00  0.00    -0.082 A 
ATOM      4  C2  PXY d   1       0.722  -1.180   0.435  0.00  0.00     0.003 A 
ATOM      5  C3  PXY d   1       1.110  -0.102  -0.318  0.00  0.00     0.003 A 
ATOM      6  C4  PXY d   1       0.309   1.005  -0.406  0.00  0.00    -0.082 A 
ATOM      7  C5  PXY d   1      -0.848   1.046   0.289  0.00  0.00     0.003 A 
ATOM      8  C6  PXY d   1      -1.203  -0.043   1.079  0.00  0.00     0.003 A 
ENDROOT
TORSDOF 0
ENDMDL
