MODEL 1
REMARK minimizedAffinity 1.89746499
REMARK minimizedRMSD -1
REMARK  0 active torsions:
REMARK  status: ('A' for Active; 'I' for Inactive)
ROOT
ATOM      1  C4' PXY d   1       0.745   2.496  -3.388  0.00  0.00     0.077 C 
ATOM      2  C1' PXY d   1      -1.655   0.221   1.353  0.00  0.00     0.077 C 
ATOM      3  C1  PXY d   1      -1.016   0.809   0.110  0.00  0.00    -0.082 A 
ATOM      4  C2  PXY d   1      -1.318   2.043  -0.258  0.00  0.00     0.003 A 
ATOM      5  C3  PXY d   1      -0.773   2.580  -1.397  0.00  0.00     0.003 A 
ATOM      6  C4  PXY d   1       0.130   1.864  -2.136  0.00  0.00    -0.082 A 
ATOM      7  C5  PXY d   1       0.452   0.608  -1.760  0.00  0.00     0.003 A 
ATOM      8  C6  PXY d   1      -0.144   0.067  -0.625  0.00  0.00     0.003 A 
ENDROOT
TORSDOF 0
ENDMDL
