MODEL 1
REMARK minimizedAffinity -3.10081029
REMARK minimizedRMSD -1
REMARK  0 active torsions:
REMARK  status: ('A' for Active; 'I' for Inactive)
ROOT
ATOM      1  C4' PXY d   1       0.787   1.349  -1.216  0.00  0.00     0.077 C 
ATOM      2  C1' PXY d   1      -1.889  -2.918   1.620  0.00  0.00     0.077 C 
ATOM      3  C1  PXY d   1      -1.176  -1.802   0.883  0.00  0.00    -0.082 A 
ATOM      4  C2  PXY d   1      -1.880  -0.817   0.348  0.00  0.00     0.003 A 
ATOM      5  C3  PXY d   1      -1.254   0.184  -0.349  0.00  0.00     0.003 A 
ATOM      6  C4  PXY d   1       0.111   0.206  -0.455  0.00  0.00    -0.082 A 
ATOM      7  C5  PXY d   1       0.837  -0.789   0.097  0.00  0.00     0.003 A 
ATOM      8  C6  PXY d   1       0.180  -1.818   0.766  0.00  0.00     0.003 A 
ENDROOT
TORSDOF 0
ENDMDL
