MODEL 1
REMARK minimizedAffinity -0.924580872
REMARK minimizedRMSD -1
REMARK  0 active torsions:
REMARK  status: ('A' for Active; 'I' for Inactive)
ROOT
ATOM      1  C4' PXY d   1      -0.316   1.171  -0.275  0.00  0.00     0.077 C 
ATOM      2  C1' PXY d   1       4.906  -0.298   1.722  0.00  0.00     0.077 C 
ATOM      3  C1  PXY d   1       3.536   0.076   1.193  0.00  0.00    -0.082 A 
ATOM      4  C2  PXY d   1       3.215   1.352   1.050  0.00  0.00     0.003 A 
ATOM      5  C3  PXY d   1       1.969   1.708   0.603  0.00  0.00     0.003 A 
ATOM      6  C4  PXY d   1       1.060   0.747   0.248  0.00  0.00    -0.082 A 
ATOM      7  C5  PXY d   1       1.383  -0.556   0.380  0.00  0.00     0.003 A 
ATOM      8  C6  PXY d   1       2.639  -0.897   0.875  0.00  0.00     0.003 A 
ENDROOT
TORSDOF 0
ENDMDL
