MODEL 1
REMARK minimizedAffinity -1.55567837
REMARK minimizedRMSD -1
REMARK  0 active torsions:
REMARK  status: ('A' for Active; 'I' for Inactive)
ROOT
ATOM      1  C4' PXY d   1       0.397   1.109   0.124  0.00  0.00     0.077 C 
ATOM      2  C1' PXY d   1       5.359  -0.128   2.819  0.00  0.00     0.077 C 
ATOM      3  C1  PXY d   1       4.059   0.209   2.116  0.00  0.00    -0.082 A 
ATOM      4  C2  PXY d   1       3.189  -0.753   1.855  0.00  0.00     0.003 A 
ATOM      5  C3  PXY d   1       2.022  -0.471   1.192  0.00  0.00     0.003 A 
ATOM      6  C4  PXY d   1       1.719   0.817   0.840  0.00  0.00    -0.082 A 
ATOM      7  C5  PXY d   1       2.597   1.806   1.113  0.00  0.00     0.003 A 
ATOM      8  C6  PXY d   1       3.794   1.492   1.750  0.00  0.00     0.003 A 
ENDROOT
TORSDOF 0
ENDMDL
