MODEL 1
REMARK minimizedAffinity 0.697214723
REMARK minimizedRMSD -1
REMARK  0 active torsions:
REMARK  status: ('A' for Active; 'I' for Inactive)
ROOT
ATOM      1  C4' PXY d   1       3.645   5.994   0.377  0.00  0.00     0.077 C 
ATOM      2  C1' PXY d   1       4.162   0.581   2.340  0.00  0.00     0.077 C 
ATOM      3  C1  PXY d   1       4.030   1.997   1.813  0.00  0.00    -0.082 A 
ATOM      4  C2  PXY d   1       4.154   3.018   2.645  0.00  0.00     0.003 A 
ATOM      5  C3  PXY d   1       4.006   4.304   2.191  0.00  0.00     0.003 A 
ATOM      6  C4  PXY d   1       3.780   4.548   0.863  0.00  0.00    -0.082 A 
ATOM      7  C5  PXY d   1       3.663   3.512   0.007  0.00  0.00     0.003 A 
ATOM      8  C6  PXY d   1       3.776   2.213   0.494  0.00  0.00     0.003 A 
ENDROOT
TORSDOF 0
ENDMDL
