MODEL 1
REMARK minimizedAffinity 4.78809977
REMARK minimizedRMSD -1
REMARK  0 active torsions:
REMARK  status: ('A' for Active; 'I' for Inactive)
ROOT
ATOM      1  C4' PXY d   1       0.823   0.868  -3.292  0.00  0.00     0.077 C 
ATOM      2  C1' PXY d   1      -2.334  -0.866   1.230  0.00  0.00     0.077 C 
ATOM      3  C1  PXY d   1      -1.505  -0.423   0.040  0.00  0.00    -0.082 A 
ATOM      4  C2  PXY d   1      -0.846   0.723   0.092  0.00  0.00     0.003 A 
ATOM      5  C3  PXY d   1      -0.118   1.154  -0.987  0.00  0.00     0.003 A 
ATOM      6  C4  PXY d   1      -0.019   0.378  -2.111  0.00  0.00    -0.082 A 
ATOM      7  C5  PXY d   1      -0.679  -0.799  -2.167  0.00  0.00     0.003 A 
ATOM      8  C6  PXY d   1      -1.447  -1.198  -1.077  0.00  0.00     0.003 A 
ENDROOT
TORSDOF 0
ENDMDL
