MODEL 1
REMARK minimizedAffinity -3.46320915
REMARK minimizedRMSD -1
REMARK  0 active torsions:
REMARK  status: ('A' for Active; 'I' for Inactive)
ROOT
ATOM      1  C4' PXY d   1      -1.847  -2.830   1.459  0.00  0.00     0.077 C 
ATOM      2  C1' PXY d   1       0.234   2.002  -0.936  0.00  0.00     0.077 C 
ATOM      3  C1  PXY d   1      -0.320   0.742  -0.300  0.00  0.00    -0.082 A 
ATOM      4  C2  PXY d   1       0.422  -0.353  -0.264  0.00  0.00     0.003 A 
ATOM      5  C3  PXY d   1      -0.075  -1.510   0.278  0.00  0.00     0.003 A 
ATOM      6  C4  PXY d   1      -1.325  -1.532   0.836  0.00  0.00    -0.082 A 
ATOM      7  C5  PXY d   1      -2.085  -0.416   0.812  0.00  0.00     0.003 A 
ATOM      8  C6  PXY d   1      -1.577   0.737   0.220  0.00  0.00     0.003 A 
ENDROOT
TORSDOF 0
ENDMDL
