MODEL 1
REMARK minimizedAffinity 0.312960386
REMARK minimizedRMSD -1
REMARK  0 active torsions:
REMARK  status: ('A' for Active; 'I' for Inactive)
ROOT
ATOM      1  C4' PXY d   1      -0.077   1.424  -0.012  0.00  0.00     0.077 C 
ATOM      2  C1' PXY d   1       5.091  -0.393   1.834  0.00  0.00     0.077 C 
ATOM      3  C1  PXY d   1       3.737   0.095   1.357  0.00  0.00    -0.082 A 
ATOM      4  C2  PXY d   1       2.844  -0.779   0.920  0.00  0.00     0.003 A 
ATOM      5  C3  PXY d   1       1.626  -0.352   0.455  0.00  0.00     0.003 A 
ATOM      6  C4  PXY d   1       1.299   0.977   0.488  0.00  0.00    -0.082 A 
ATOM      7  C5  PXY d   1       2.201   1.873   0.942  0.00  0.00     0.003 A 
ATOM      8  C6  PXY d   1       3.446   1.424   1.371  0.00  0.00     0.003 A 
ENDROOT
TORSDOF 0
ENDMDL
