MODEL 1
REMARK minimizedAffinity -1.80746019
REMARK minimizedRMSD -1
REMARK  0 active torsions:
REMARK  status: ('A' for Active; 'I' for Inactive)
ROOT
ATOM      1  C4' PXY d   1       2.225   1.688  -3.178  0.00  0.00     0.077 C 
ATOM      2  C1' PXY d   1      -0.624  -1.569   0.655  0.00  0.00     0.077 C 
ATOM      3  C1  PXY d   1       0.114  -0.706  -0.350  0.00  0.00    -0.082 A 
ATOM      4  C2  PXY d   1       0.986  -1.263  -1.175  0.00  0.00     0.003 A 
ATOM      5  C3  PXY d   1       1.685  -0.492  -2.068  0.00  0.00     0.003 A 
ATOM      6  C4  PXY d   1       1.450   0.854  -2.154  0.00  0.00    -0.082 A 
ATOM      7  C5  PXY d   1       0.554   1.428  -1.323  0.00  0.00     0.003 A 
ATOM      8  C6  PXY d   1      -0.115   0.634  -0.396  0.00  0.00     0.003 A 
ENDROOT
TORSDOF 0
ENDMDL
