MODEL 1
REMARK minimizedAffinity -1.46845937
REMARK minimizedRMSD -1
REMARK  0 active torsions:
REMARK  status: ('A' for Active; 'I' for Inactive)
ROOT
ATOM      1  C4' PXY d   1       2.122   1.802   0.458  0.00  0.00     0.077 C 
ATOM      2  C1' PXY d   1      -2.096  -2.145   0.224  0.00  0.00     0.077 C 
ATOM      3  C1  PXY d   1      -0.998  -1.101   0.280  0.00  0.00    -0.082 A 
ATOM      4  C2  PXY d   1       0.268  -1.484   0.307  0.00  0.00     0.003 A 
ATOM      5  C3  PXY d   1       1.273  -0.555   0.390  0.00  0.00     0.003 A 
ATOM      6  C4  PXY d   1       0.980   0.783   0.392  0.00  0.00    -0.082 A 
ATOM      7  C5  PXY d   1      -0.308   1.182   0.353  0.00  0.00     0.003 A 
ATOM      8  C6  PXY d   1      -1.315   0.222   0.311  0.00  0.00     0.003 A 
ENDROOT
TORSDOF 0
ENDMDL
