MODEL 1
REMARK minimizedAffinity -1.88941562
REMARK minimizedRMSD -1
REMARK  0 active torsions:
REMARK  status: ('A' for Active; 'I' for Inactive)
ROOT
ATOM      1  C4' PXY d   1       0.756   1.863  -1.802  0.00  0.00     0.077 C 
ATOM      2  C1' PXY d   1      -0.839  -2.480   1.664  0.00  0.00     0.077 C 
ATOM      3  C1  PXY d   1      -0.432  -1.335   0.756  0.00  0.00    -0.082 A 
ATOM      4  C2  PXY d   1       0.526  -1.518  -0.138  0.00  0.00     0.003 A 
ATOM      5  C3  PXY d   1       0.928  -0.485  -0.944  0.00  0.00     0.003 A 
ATOM      6  C4  PXY d   1       0.307   0.733  -0.872  0.00  0.00    -0.082 A 
ATOM      7  C5  PXY d   1      -0.679   0.925   0.031  0.00  0.00     0.003 A 
ATOM      8  C6  PXY d   1      -1.044  -0.125   0.869  0.00  0.00     0.003 A 
ENDROOT
TORSDOF 0
ENDMDL
