MODEL 1
REMARK minimizedAffinity -5.07651663
REMARK minimizedRMSD -1
REMARK  0 active torsions:
REMARK  status: ('A' for Active; 'I' for Inactive)
ROOT
ATOM      1  C4' PXY d   1       2.763   0.740   1.205  0.00  0.00     0.077 C 
ATOM      2  C1' PXY d   1      -1.818  -2.758   0.768  0.00  0.00     0.077 C 
ATOM      3  C1  PXY d   1      -0.623  -1.832   0.875  0.00  0.00    -0.082 A 
ATOM      4  C2  PXY d   1       0.565  -2.330   1.178  0.00  0.00     0.003 A 
ATOM      5  C3  PXY d   1       1.651  -1.502   1.310  0.00  0.00     0.003 A 
ATOM      6  C4  PXY d   1       1.530  -0.159   1.078  0.00  0.00    -0.082 A 
ATOM      7  C5  PXY d   1       0.323   0.355   0.758  0.00  0.00     0.003 A 
ATOM      8  C6  PXY d   1      -0.774  -0.496   0.669  0.00  0.00     0.003 A 
ENDROOT
TORSDOF 0
ENDMDL
