MODEL 1
REMARK minimizedAffinity -3.99333477
REMARK minimizedRMSD -1
REMARK  0 active torsions:
REMARK  status: ('A' for Active; 'I' for Inactive)
ROOT
ATOM      1  C4' PXY d   1       1.646  -3.254   0.369  0.00  0.00     0.077 C 
ATOM      2  C1' PXY d   1      -2.319   0.942   0.656  0.00  0.00     0.077 C 
ATOM      3  C1  PXY d   1      -1.287  -0.166   0.588  0.00  0.00    -0.082 A 
ATOM      4  C2  PXY d   1      -0.009   0.138   0.429  0.00  0.00     0.003 A 
ATOM      5  C3  PXY d   1       0.934  -0.853   0.333  0.00  0.00     0.003 A 
ATOM      6  C4  PXY d   1       0.571  -2.168   0.453  0.00  0.00    -0.082 A 
ATOM      7  C5  PXY d   1      -0.729  -2.486   0.626  0.00  0.00     0.003 A 
ATOM      8  C6  PXY d   1      -1.676  -1.467   0.680  0.00  0.00     0.003 A 
ENDROOT
TORSDOF 0
ENDMDL
