MODEL 1
REMARK minimizedAffinity -3.8273809
REMARK minimizedRMSD -1
REMARK  0 active torsions:
REMARK  status: ('A' for Active; 'I' for Inactive)
ROOT
ATOM      1  C4' PXY d   1       0.200   1.172  -1.562  0.00  0.00     0.077 C 
ATOM      2  C1' PXY d   1      -1.938  -2.977   1.849  0.00  0.00     0.077 C 
ATOM      3  C1  PXY d   1      -1.369  -1.885   0.964  0.00  0.00    -0.082 A 
ATOM      4  C2  PXY d   1      -2.100  -1.398  -0.025  0.00  0.00     0.003 A 
ATOM      5  C3  PXY d   1      -1.590  -0.433  -0.855  0.00  0.00     0.003 A 
ATOM      6  C4  PXY d   1      -0.337   0.076  -0.637  0.00  0.00    -0.082 A 
ATOM      7  C5  PXY d   1       0.411  -0.409   0.376  0.00  0.00     0.003 A 
ATOM      8  C6  PXY d   1      -0.110  -1.417   1.182  0.00  0.00     0.003 A 
ENDROOT
TORSDOF 0
ENDMDL
