MODEL 1
REMARK minimizedAffinity -4.61306667
REMARK minimizedRMSD -1
REMARK  0 active torsions:
REMARK  status: ('A' for Active; 'I' for Inactive)
ROOT
ATOM      1  C4' PXY d   1      -1.691  -1.469   0.086  0.00  0.00     0.077 C 
ATOM      2  C1' PXY d   1       3.432   0.748   1.590  0.00  0.00     0.077 C 
ATOM      3  C1  PXY d   1       2.083   0.177   1.200  0.00  0.00    -0.082 A 
ATOM      4  C2  PXY d   1       1.935  -1.133   1.086  0.00  0.00     0.003 A 
ATOM      5  C3  PXY d   1       0.730  -1.664   0.703  0.00  0.00     0.003 A 
ATOM      6  C4  PXY d   1      -0.349  -0.849   0.487  0.00  0.00    -0.082 A 
ATOM      7  C5  PXY d   1      -0.209   0.487   0.611  0.00  0.00     0.003 A 
ATOM      8  C6  PXY d   1       1.033   1.009   0.961  0.00  0.00     0.003 A 
ENDROOT
TORSDOF 0
ENDMDL
