MODEL 1
REMARK minimizedAffinity -2.99141312
REMARK minimizedRMSD -1
REMARK  0 active torsions:
REMARK  status: ('A' for Active; 'I' for Inactive)
ROOT
ATOM      1  C4' PXY d   1       0.720   1.700  -0.408  0.00  0.00     0.077 C 
ATOM      2  C1' PXY d   1      -1.935  -3.162   1.245  0.00  0.00     0.077 C 
ATOM      3  C1  PXY d   1      -1.249  -1.883   0.805  0.00  0.00    -0.082 A 
ATOM      4  C2  PXY d   1       0.072  -1.832   0.759  0.00  0.00     0.003 A 
ATOM      5  C3  PXY d   1       0.709  -0.674   0.394  0.00  0.00     0.003 A 
ATOM      6  C4  PXY d   1      -0.015   0.427   0.021  0.00  0.00    -0.082 A 
ATOM      7  C5  PXY d   1      -1.364   0.379   0.056  0.00  0.00     0.003 A 
ATOM      8  C6  PXY d   1      -1.990  -0.793   0.469  0.00  0.00     0.003 A 
ENDROOT
TORSDOF 0
ENDMDL
