MODEL 1
REMARK minimizedAffinity 6.31664419
REMARK minimizedRMSD -1
REMARK  3 active torsions:
REMARK  status: ('A' for Active; 'I' for Inactive)
REMARK    1  A    between atoms: C3'_2  and  C2'_3 
REMARK    2  A    between atoms: C2'_3  and  C1'_4 
REMARK    3  A    between atoms: C1'_4  and  C1_5 
ROOT
ATOM      1  C1  N4B d   1      -1.080   2.332   0.557  0.00  0.00    -0.075 A 
ATOM      2  C2  N4B d   1      -0.249   1.606  -0.324  0.00  0.00     0.002 A 
ATOM      3  C3  N4B d   1       0.532   2.272  -1.237  0.00  0.00     0.002 A 
ATOM      4  C4  N4B d   1       0.484   3.657  -1.299  0.00  0.00    -0.004 A 
ATOM      5  C5  N4B d   1      -0.302   4.352  -0.428  0.00  0.00     0.002 A 
ATOM      6  C6  N4B d   1      -1.089   3.695   0.498  0.00  0.00     0.002 A 
ENDROOT
BRANCH   1   7
ATOM      7  C1' N4B d   1      -2.015   1.645   1.514  0.00  0.00     0.057 C 
BRANCH   7   8
ATOM      8  C2' N4B d   1      -1.240   0.596   2.306  0.00  0.00     0.009 C 
BRANCH   8   9
ATOM      9  C3' N4B d   1      -2.163  -0.326   3.084  0.00  0.00     0.004 C 
ATOM     10  C4' N4B d   1      -1.509  -1.622   3.458  0.00  0.00     0.003 C 
ENDBRANCH   8   9
ENDBRANCH   7   8
ENDBRANCH   1   7
TORSDOF 3
ENDMDL
