MODEL 1
REMARK minimizedAffinity -0.0989899784
REMARK minimizedRMSD -1
REMARK  3 active torsions:
REMARK  status: ('A' for Active; 'I' for Inactive)
REMARK    1  A    between atoms: C3'_2  and  C2'_3 
REMARK    2  A    between atoms: C2'_3  and  C1'_4 
REMARK    3  A    between atoms: C1'_4  and  C1_5 
ROOT
ATOM      1  C1  N4B d   1      -0.883   2.379   0.349  0.00  0.00    -0.075 A 
ATOM      2  C2  N4B d   1      -0.167   1.665  -0.637  0.00  0.00     0.002 A 
ATOM      3  C3  N4B d   1       0.480   2.342  -1.642  0.00  0.00     0.002 A 
ATOM      4  C4  N4B d   1       0.409   3.726  -1.692  0.00  0.00    -0.004 A 
ATOM      5  C5  N4B d   1      -0.263   4.410  -0.721  0.00  0.00     0.002 A 
ATOM      6  C6  N4B d   1      -0.914   3.742   0.297  0.00  0.00     0.002 A 
ENDROOT
BRANCH   1   7
ATOM      7  C1' N4B d   1      -1.676   1.678   1.418  0.00  0.00     0.057 C 
BRANCH   7   8
ATOM      8  C2' N4B d   1      -0.764   0.712   2.167  0.00  0.00     0.009 C 
BRANCH   8   9
ATOM      9  C3' N4B d   1       0.508   1.388   2.648  0.00  0.00     0.004 C 
ATOM     10  C4' N4B d   1       0.387   1.927   4.043  0.00  0.00     0.003 C 
ENDBRANCH   8   9
ENDBRANCH   7   8
ENDBRANCH   1   7
TORSDOF 3
ENDMDL
