MODEL 1
REMARK minimizedAffinity 2.02022243
REMARK minimizedRMSD -1
REMARK  3 active torsions:
REMARK  status: ('A' for Active; 'I' for Inactive)
REMARK    1  A    between atoms: C3'_2  and  C2'_3 
REMARK    2  A    between atoms: C2'_3  and  C1'_4 
REMARK    3  A    between atoms: C1'_4  and  C1_5 
ROOT
ATOM      1  C1  N4B d   1      -0.472   1.040  -0.506  0.00  0.00    -0.075 A 
ATOM      2  C2  N4B d   1      -1.405   0.586  -1.464  0.00  0.00     0.002 A 
ATOM      3  C3  N4B d   1      -1.033  -0.353  -2.394  0.00  0.00     0.002 A 
ATOM      4  C4  N4B d   1       0.267  -0.837  -2.397  0.00  0.00    -0.004 A 
ATOM      5  C5  N4B d   1       1.155  -0.413  -1.452  0.00  0.00     0.002 A 
ATOM      6  C6  N4B d   1       0.793   0.528  -0.509  0.00  0.00     0.002 A 
ENDROOT
BRANCH   1   7
ATOM      7  C1' N4B d   1      -0.808   2.129   0.476  0.00  0.00     0.057 C 
BRANCH   7   8
ATOM      8  C2' N4B d   1      -1.329   3.345  -0.283  0.00  0.00     0.009 C 
BRANCH   8   9
ATOM      9  C3' N4B d   1      -0.346   4.503  -0.244  0.00  0.00     0.004 C 
ATOM     10  C4' N4B d   1       0.042   4.981  -1.612  0.00  0.00     0.003 C 
ENDBRANCH   8   9
ENDBRANCH   7   8
ENDBRANCH   1   7
TORSDOF 3
ENDMDL
