MODEL 1
REMARK minimizedAffinity 0.502509654
REMARK minimizedRMSD -1
REMARK  3 active torsions:
REMARK  status: ('A' for Active; 'I' for Inactive)
REMARK    1  A    between atoms: C3'_2  and  C2'_3 
REMARK    2  A    between atoms: C2'_3  and  C1'_4 
REMARK    3  A    between atoms: C1'_4  and  C1_5 
ROOT
ATOM      1  C1  N4B d   1      -1.112   2.458   0.827  0.00  0.00    -0.075 A 
ATOM      2  C2  N4B d   1      -0.270   1.641   0.041  0.00  0.00     0.002 A 
ATOM      3  C3  N4B d   1       0.529   2.205  -0.923  0.00  0.00     0.002 A 
ATOM      4  C4  N4B d   1       0.489   3.575  -1.131  0.00  0.00    -0.004 A 
ATOM      5  C5  N4B d   1      -0.308   4.360  -0.351  0.00  0.00     0.002 A 
ATOM      6  C6  N4B d   1      -1.113   3.808   0.625  0.00  0.00     0.002 A 
ENDROOT
BRANCH   1   7
ATOM      7  C1' N4B d   1      -2.067   1.878   1.834  0.00  0.00     0.057 C 
BRANCH   7   8
ATOM      8  C2' N4B d   1      -2.144   0.367   1.639  0.00  0.00     0.009 C 
BRANCH   8   9
ATOM      9  C3' N4B d   1      -1.292  -0.382   2.649  0.00  0.00     0.004 C 
ATOM     10  C4' N4B d   1      -1.947  -1.635   3.147  0.00  0.00     0.003 C 
ENDBRANCH   8   9
ENDBRANCH   7   8
ENDBRANCH   1   7
TORSDOF 3
ENDMDL
