MODEL 1
REMARK minimizedAffinity 5.44368553
REMARK minimizedRMSD -1
REMARK  3 active torsions:
REMARK  status: ('A' for Active; 'I' for Inactive)
REMARK    1  A    between atoms: C3'_2  and  C2'_3 
REMARK    2  A    between atoms: C2'_3  and  C1'_4 
REMARK    3  A    between atoms: C1'_4  and  C1_5 
ROOT
ATOM      1  C1  N4B d   1       0.218   0.696   1.754  0.00  0.00    -0.075 A 
ATOM      2  C2  N4B d   1      -0.816  -0.060   2.349  0.00  0.00     0.002 A 
ATOM      3  C3  N4B d   1      -2.124   0.337   2.211  0.00  0.00     0.002 A 
ATOM      4  C4  N4B d   1      -2.419   1.492   1.501  0.00  0.00    -0.004 A 
ATOM      5  C5  N4B d   1      -1.416   2.202   0.908  0.00  0.00     0.002 A 
ATOM      6  C6  N4B d   1      -0.098   1.813   1.035  0.00  0.00     0.002 A 
ENDROOT
BRANCH   1   7
ATOM      7  C1' N4B d   1       1.668   0.350   1.950  0.00  0.00     0.057 C 
BRANCH   7   8
ATOM      8  C2' N4B d   1       2.244  -0.161   0.632  0.00  0.00     0.009 C 
BRANCH   8   9
ATOM      9  C3' N4B d   1       3.745  -0.375   0.713  0.00  0.00     0.004 C 
ATOM     10  C4' N4B d   1       4.144  -1.798   0.456  0.00  0.00     0.003 C 
ENDBRANCH   8   9
ENDBRANCH   7   8
ENDBRANCH   1   7
TORSDOF 3
ENDMDL
