MODEL 1
REMARK minimizedAffinity 2.49632287
REMARK minimizedRMSD -1
REMARK  3 active torsions:
REMARK  status: ('A' for Active; 'I' for Inactive)
REMARK    1  A    between atoms: C3'_2  and  C2'_3 
REMARK    2  A    between atoms: C2'_3  and  C1'_4 
REMARK    3  A    between atoms: C1'_4  and  C1_5 
ROOT
ATOM      1  C1  N4B d   1      -0.139   1.604   0.959  0.00  0.00    -0.075 A 
ATOM      2  C2  N4B d   1       0.961   0.867   1.448  0.00  0.00     0.002 A 
ATOM      3  C3  N4B d   1       1.989   0.526   0.603  0.00  0.00     0.002 A 
ATOM      4  C4  N4B d   1       1.929   0.893  -0.733  0.00  0.00    -0.004 A 
ATOM      5  C5  N4B d   1       0.874   1.627  -1.191  0.00  0.00     0.002 A 
ATOM      6  C6  N4B d   1      -0.163   1.980  -0.353  0.00  0.00     0.002 A 
ENDROOT
BRANCH   1   7
ATOM      7  C1' N4B d   1      -1.327   1.927   1.825  0.00  0.00     0.057 C 
BRANCH   7   8
ATOM      8  C2' N4B d   1      -2.283   0.738   1.826  0.00  0.00     0.009 C 
BRANCH   8   9
ATOM      9  C3' N4B d   1      -2.274   0.003   3.155  0.00  0.00     0.004 C 
ATOM     10  C4' N4B d   1      -1.492  -1.275   3.107  0.00  0.00     0.003 C 
ENDBRANCH   8   9
ENDBRANCH   7   8
ENDBRANCH   1   7
TORSDOF 3
ENDMDL
