MODEL 1
REMARK minimizedAffinity 8.32632351
REMARK minimizedRMSD -1
REMARK  3 active torsions:
REMARK  status: ('A' for Active; 'I' for Inactive)
REMARK    1  A    between atoms: C3'_2  and  C2'_3 
REMARK    2  A    between atoms: C2'_3  and  C1'_4 
REMARK    3  A    between atoms: C1'_4  and  C1_5 
ROOT
ATOM      1  C1  N4B d   1      -1.278   2.583   0.687  0.00  0.00    -0.075 A 
ATOM      2  C2  N4B d   1      -0.805   1.773  -0.369  0.00  0.00     0.002 A 
ATOM      3  C3  N4B d   1      -0.024   2.320  -1.357  0.00  0.00     0.002 A 
ATOM      4  C4  N4B d   1       0.281   3.672  -1.321  0.00  0.00    -0.004 A 
ATOM      5  C5  N4B d   1      -0.158   4.442  -0.284  0.00  0.00     0.002 A 
ATOM      6  C6  N4B d   1      -0.941   3.905   0.718  0.00  0.00     0.002 A 
ENDROOT
BRANCH   1   7
ATOM      7  C1' N4B d   1      -2.206   2.049   1.743  0.00  0.00     0.057 C 
BRANCH   7   8
ATOM      8  C2' N4B d   1      -2.250   0.526   1.648  0.00  0.00     0.009 C 
BRANCH   8   9
ATOM      9  C3' N4B d   1      -1.802  -0.137   2.939  0.00  0.00     0.004 C 
ATOM     10  C4' N4B d   1      -2.153  -1.594   2.995  0.00  0.00     0.003 C 
ENDBRANCH   8   9
ENDBRANCH   7   8
ENDBRANCH   1   7
TORSDOF 3
ENDMDL
