MODEL 1
REMARK minimizedAffinity 4.1218214
REMARK minimizedRMSD -1
REMARK  3 active torsions:
REMARK  status: ('A' for Active; 'I' for Inactive)
REMARK    1  A    between atoms: C3'_2  and  C2'_3 
REMARK    2  A    between atoms: C2'_3  and  C1'_4 
REMARK    3  A    between atoms: C1'_4  and  C1_5 
ROOT
ATOM      1  C1  N4B d   1      -2.090  -2.398   3.995  0.00  0.00    -0.075 A 
ATOM      2  C2  N4B d   1      -2.787  -2.804   5.155  0.00  0.00     0.002 A 
ATOM      3  C3  N4B d   1      -2.232  -3.733   6.000  0.00  0.00     0.002 A 
ATOM      4  C4  N4B d   1      -0.995  -4.282   5.698  0.00  0.00    -0.004 A 
ATOM      5  C5  N4B d   1      -0.317  -3.866   4.590  0.00  0.00     0.002 A 
ATOM      6  C6  N4B d   1      -0.861  -2.930   3.733  0.00  0.00     0.002 A 
ENDROOT
BRANCH   1   7
ATOM      7  C1' N4B d   1      -2.694  -1.450   2.996  0.00  0.00     0.057 C 
BRANCH   7   8
ATOM      8  C2' N4B d   1      -1.712  -0.314   2.726  0.00  0.00     0.009 C 
BRANCH   8   9
ATOM      9  C3' N4B d   1      -2.410   0.930   2.205  0.00  0.00     0.004 C 
ATOM     10  C4' N4B d   1      -1.481   1.857   1.480  0.00  0.00     0.003 C 
ENDBRANCH   8   9
ENDBRANCH   7   8
ENDBRANCH   1   7
TORSDOF 3
ENDMDL
