MODEL 1
REMARK minimizedAffinity 1.02558041
REMARK minimizedRMSD -1
REMARK  3 active torsions:
REMARK  status: ('A' for Active; 'I' for Inactive)
REMARK    1  A    between atoms: C3'_2  and  C2'_3 
REMARK    2  A    between atoms: C2'_3  and  C1'_4 
REMARK    3  A    between atoms: C1'_4  and  C1_5 
ROOT
ATOM      1  C1  N4B d   1      -1.195   2.151   0.726  0.00  0.00    -0.075 A 
ATOM      2  C2  N4B d   1      -0.553   1.387  -0.273  0.00  0.00     0.002 A 
ATOM      3  C3  N4B d   1       0.052   2.014  -1.334  0.00  0.00     0.002 A 
ATOM      4  C4  N4B d   1       0.013   3.397  -1.427  0.00  0.00    -0.004 A 
ATOM      5  C5  N4B d   1      -0.587   4.129  -0.445  0.00  0.00     0.002 A 
ATOM      6  C6  N4B d   1      -1.197   3.512   0.629  0.00  0.00     0.002 A 
ENDROOT
BRANCH   1   7
ATOM      7  C1' N4B d   1      -1.945   1.507   1.859  0.00  0.00     0.057 C 
BRANCH   7   8
ATOM      8  C2' N4B d   1      -1.244   0.209   2.250  0.00  0.00     0.009 C 
BRANCH   8   9
ATOM      9  C3' N4B d   1      -2.180  -0.749   2.967  0.00  0.00     0.004 C 
ATOM     10  C4' N4B d   1      -1.508  -2.029   3.365  0.00  0.00     0.003 C 
ENDBRANCH   8   9
ENDBRANCH   7   8
ENDBRANCH   1   7
TORSDOF 3
ENDMDL
