MODEL 1
REMARK minimizedAffinity 14.2020292
REMARK minimizedRMSD -1
REMARK  3 active torsions:
REMARK  status: ('A' for Active; 'I' for Inactive)
REMARK    1  A    between atoms: C3'_2  and  C2'_3 
REMARK    2  A    between atoms: C2'_3  and  C1'_4 
REMARK    3  A    between atoms: C1'_4  and  C1_5 
ROOT
ATOM      1  C1  N4B d   1      -1.121   0.425   2.388  0.00  0.00    -0.075 A 
ATOM      2  C2  N4B d   1      -1.296   1.791   2.699  0.00  0.00     0.002 A 
ATOM      3  C3  N4B d   1      -0.253   2.670   2.542  0.00  0.00     0.002 A 
ATOM      4  C4  N4B d   1       0.975   2.204   2.095  0.00  0.00    -0.004 A 
ATOM      5  C5  N4B d   1       1.128   0.888   1.773  0.00  0.00     0.002 A 
ATOM      6  C6  N4B d   1       0.087  -0.006   1.922  0.00  0.00     0.002 A 
ENDROOT
BRANCH   1   7
ATOM      7  C1' N4B d   1      -2.207  -0.589   2.624  0.00  0.00     0.057 C 
BRANCH   7   8
ATOM      8  C2' N4B d   1      -1.582  -1.881   3.143  0.00  0.00     0.009 C 
BRANCH   8   9
ATOM      9  C3' N4B d   1      -2.559  -2.690   3.978  0.00  0.00     0.004 C 
ATOM     10  C4' N4B d   1      -1.877  -3.555   4.995  0.00  0.00     0.003 C 
ENDBRANCH   8   9
ENDBRANCH   7   8
ENDBRANCH   1   7
TORSDOF 3
ENDMDL
