MODEL 1
REMARK minimizedAffinity 1.68058217
REMARK minimizedRMSD -1
REMARK  0 active torsions:
REMARK  status: ('A' for Active; 'I' for Inactive)
ROOT
ATOM      1  C   UNL d   1      -2.833  -6.000  -6.000  0.00  0.00     0.077 C 
ATOM      2  C1  UNL d   1      -1.745  -5.603  -5.048  0.00  0.00    -0.074 A 
ATOM      3  C2  UNL d   1      -2.036  -4.891  -3.879  0.00  0.00    -0.005 A 
ATOM      4  C3  UNL d   1      -1.014  -4.538  -2.998  0.00  0.00     0.006 A 
ATOM      5  C4  UNL d   1       0.307  -4.891  -3.276  0.00  0.00    -0.005 A 
ATOM      6  C5  UNL d   1       0.617  -5.604  -4.439  0.00  0.00    -0.074 A 
ATOM      7  C6  UNL d   1       2.030  -6.000  -4.748  0.00  0.00     0.077 C 
ATOM      8  C7  UNL d   1      -0.416  -5.961  -5.316  0.00  0.00    -0.001 A 
ENDROOT
TORSDOF 0
ENDMDL
