MODEL 1
REMARK minimizedAffinity 11.9138813
REMARK minimizedRMSD -1
REMARK  0 active torsions:
REMARK  status: ('A' for Active; 'I' for Inactive)
ROOT
ATOM      1  C   UNL d   1       6.000   4.305  -4.500  0.00  0.00     0.077 C 
ATOM      2  C1  UNL d   1       4.657   3.837  -4.024  0.00  0.00    -0.074 A 
ATOM      3  C2  UNL d   1       4.132   2.611  -4.446  0.00  0.00    -0.005 A 
ATOM      4  C3  UNL d   1       2.886   2.184  -3.988  0.00  0.00     0.006 A 
ATOM      5  C4  UNL d   1       2.153   2.978  -3.104  0.00  0.00    -0.005 A 
ATOM      6  C5  UNL d   1       2.662   4.206  -2.671  0.00  0.00    -0.074 A 
ATOM      7  C6  UNL d   1       1.891   5.066  -1.713  0.00  0.00     0.077 C 
ATOM      8  C7  UNL d   1       3.918   4.625  -3.130  0.00  0.00    -0.001 A 
ENDROOT
TORSDOF 0
ENDMDL
