MODEL 1
REMARK minimizedAffinity 17.342905
REMARK minimizedRMSD -1
REMARK  0 active torsions:
REMARK  status: ('A' for Active; 'I' for Inactive)
ROOT
ATOM      1  C   UNL d   1      -5.022  -0.473  -2.371  0.00  0.00     0.077 C 
ATOM      2  C1  UNL d   1      -3.872  -0.532  -1.410  0.00  0.00    -0.074 A 
ATOM      3  C2  UNL d   1      -2.882  -1.511  -1.533  0.00  0.00    -0.005 A 
ATOM      4  C3  UNL d   1      -1.813  -1.547  -0.637  0.00  0.00     0.006 A 
ATOM      5  C4  UNL d   1      -1.724  -0.605   0.389  0.00  0.00    -0.005 A 
ATOM      6  C5  UNL d   1      -2.705   0.382   0.527  0.00  0.00    -0.074 A 
ATOM      7  C6  UNL d   1      -2.620   1.407   1.618  0.00  0.00     0.077 C 
ATOM      8  C7  UNL d   1      -3.772   0.416  -0.381  0.00  0.00    -0.001 A 
ENDROOT
TORSDOF 0
ENDMDL
