MODEL 1
REMARK minimizedAffinity 11.7057714
REMARK minimizedRMSD -1
REMARK  0 active torsions:
REMARK  status: ('A' for Active; 'I' for Inactive)
ROOT
ATOM      1  C   UNL d   1       5.522   3.790   1.278  0.00  0.00     0.077 C 
ATOM      2  C1  UNL d   1       4.409   3.000   0.656  0.00  0.00    -0.074 A 
ATOM      3  C2  UNL d   1       3.673   2.079   1.409  0.00  0.00    -0.005 A 
ATOM      4  C3  UNL d   1       2.634   1.359   0.820  0.00  0.00     0.006 A 
ATOM      5  C4  UNL d   1       2.321   1.551  -0.526  0.00  0.00    -0.005 A 
ATOM      6  C5  UNL d   1       3.045   2.469  -1.295  0.00  0.00    -0.074 A 
ATOM      7  C6  UNL d   1       2.715   2.695  -2.740  0.00  0.00     0.077 C 
ATOM      8  C7  UNL d   1       4.083   3.194  -0.694  0.00  0.00    -0.001 A 
ENDROOT
TORSDOF 0
ENDMDL
