MODEL 1
REMARK minimizedAffinity 8.83619785
REMARK minimizedRMSD -1
REMARK  0 active torsions:
REMARK  status: ('A' for Active; 'I' for Inactive)
ROOT
ATOM      1  C   UNL d   1       2.921   3.476  -3.602  0.00  0.00     0.077 C 
ATOM      2  C1  UNL d   1       1.758   4.338  -3.209  0.00  0.00    -0.074 A 
ATOM      3  C2  UNL d   1       1.840   5.197  -2.109  0.00  0.00    -0.005 A 
ATOM      4  C3  UNL d   1       0.753   6.000  -1.761  0.00  0.00     0.006 A 
ATOM      5  C4  UNL d   1      -0.424   5.951  -2.509  0.00  0.00    -0.005 A 
ATOM      6  C5  UNL d   1      -0.524   5.098  -3.612  0.00  0.00    -0.074 A 
ATOM      7  C6  UNL d   1      -1.779   5.040  -4.432  0.00  0.00     0.077 C 
ATOM      8  C7  UNL d   1       0.575   4.300  -3.960  0.00  0.00    -0.001 A 
ENDROOT
TORSDOF 0
ENDMDL
