MODEL 1
REMARK minimizedAffinity 9.38554955
REMARK minimizedRMSD -1
REMARK  0 active torsions:
REMARK  status: ('A' for Active; 'I' for Inactive)
ROOT
ATOM      1  C   UNL d   1       2.610   1.876  -1.590  0.00  0.00     0.077 C 
ATOM      2  C1  UNL d   1       3.444   1.902  -0.344  0.00  0.00    -0.074 A 
ATOM      3  C2  UNL d   1       3.398   0.847   0.573  0.00  0.00    -0.005 A 
ATOM      4  C3  UNL d   1       4.186   0.880   1.723  0.00  0.00     0.006 A 
ATOM      5  C4  UNL d   1       5.027   1.967   1.967  0.00  0.00    -0.005 A 
ATOM      6  C5  UNL d   1       5.087   3.030   1.061  0.00  0.00    -0.074 A 
ATOM      7  C6  UNL d   1       5.993   4.201   1.303  0.00  0.00     0.077 C 
ATOM      8  C7  UNL d   1       4.297   2.986  -0.096  0.00  0.00    -0.001 A 
ENDROOT
TORSDOF 0
ENDMDL
