MODEL 1
REMARK minimizedAffinity 8.4312439
REMARK minimizedRMSD -1
REMARK  0 active torsions:
REMARK  status: ('A' for Active; 'I' for Inactive)
ROOT
ATOM      1  C   UNL d   1       4.118   3.279  -5.996  0.00  0.00     0.077 C 
ATOM      2  C1  UNL d   1       4.096   3.952  -4.656  0.00  0.00    -0.074 A 
ATOM      3  C2  UNL d   1       5.275   4.420  -4.066  0.00  0.00    -0.005 A 
ATOM      4  C3  UNL d   1       5.237   5.053  -2.824  0.00  0.00     0.006 A 
ATOM      5  C4  UNL d   1       4.022   5.224  -2.159  0.00  0.00    -0.005 A 
ATOM      6  C5  UNL d   1       2.833   4.763  -2.733  0.00  0.00    -0.074 A 
ATOM      7  C6  UNL d   1       1.518   4.948  -2.036  0.00  0.00     0.077 C 
ATOM      8  C7  UNL d   1       2.878   4.135  -3.985  0.00  0.00    -0.001 A 
ENDROOT
TORSDOF 0
ENDMDL
