MODEL 1
REMARK minimizedAffinity 13.8925667
REMARK minimizedRMSD -1
REMARK  0 active torsions:
REMARK  status: ('A' for Active; 'I' for Inactive)
ROOT
ATOM      1  C   UNL d   1       5.651   5.266  -1.416  0.00  0.00     0.077 C 
ATOM      2  C1  UNL d   1       4.940   4.516  -2.503  0.00  0.00    -0.074 A 
ATOM      3  C2  UNL d   1       5.522   4.353  -3.764  0.00  0.00    -0.005 A 
ATOM      4  C3  UNL d   1       4.852   3.646  -4.762  0.00  0.00     0.006 A 
ATOM      5  C4  UNL d   1       3.595   3.094  -4.510  0.00  0.00    -0.005 A 
ATOM      6  C5  UNL d   1       2.998   3.246  -3.254  0.00  0.00    -0.074 A 
ATOM      7  C6  UNL d   1       1.652   2.652  -2.963  0.00  0.00     0.077 C 
ATOM      8  C7  UNL d   1       3.680   3.953  -2.255  0.00  0.00    -0.001 A 
ENDROOT
TORSDOF 0
ENDMDL
