MODEL 1
REMARK minimizedAffinity 16.7084637
REMARK minimizedRMSD -1
REMARK  0 active torsions:
REMARK  status: ('A' for Active; 'I' for Inactive)
ROOT
ATOM      1  C   UNL d   1       2.014   3.373  -3.376  0.00  0.00     0.077 C 
ATOM      2  C1  UNL d   1       3.406   3.892  -3.584  0.00  0.00    -0.074 A 
ATOM      3  C2  UNL d   1       4.104   3.626  -4.766  0.00  0.00    -0.005 A 
ATOM      4  C3  UNL d   1       5.394   4.124  -4.948  0.00  0.00     0.006 A 
ATOM      5  C4  UNL d   1       5.998   4.891  -3.952  0.00  0.00    -0.005 A 
ATOM      6  C5  UNL d   1       5.316   5.168  -2.763  0.00  0.00    -0.074 A 
ATOM      7  C6  UNL d   1       5.947   6.000  -1.686  0.00  0.00     0.077 C 
ATOM      8  C7  UNL d   1       4.017   4.670  -2.590  0.00  0.00    -0.001 A 
ENDROOT
TORSDOF 0
ENDMDL
