MODEL 1
REMARK minimizedAffinity 1.66171253
REMARK minimizedRMSD -1
REMARK  0 active torsions:
REMARK  status: ('A' for Active; 'I' for Inactive)
ROOT
ATOM      1  C   UNL d   1      -4.682  -0.382   0.221  0.00  0.00     0.077 C 
ATOM      2  C1  UNL d   1      -3.844  -0.101   1.433  0.00  0.00    -0.074 A 
ATOM      3  C2  UNL d   1      -2.608  -0.732   1.614  0.00  0.00    -0.005 A 
ATOM      4  C3  UNL d   1      -1.836  -0.454   2.741  0.00  0.00     0.006 A 
ATOM      5  C4  UNL d   1      -2.290   0.456   3.697  0.00  0.00    -0.005 A 
ATOM      6  C5  UNL d   1      -3.522   1.096   3.533  0.00  0.00    -0.074 A 
ATOM      7  C6  UNL d   1      -4.020   2.084   4.546  0.00  0.00     0.077 C 
ATOM      8  C7  UNL d   1      -4.289   0.817   2.394  0.00  0.00    -0.001 A 
ENDROOT
TORSDOF 0
ENDMDL
