MODEL 1
REMARK minimizedAffinity 17.0551033
REMARK minimizedRMSD -1
REMARK  0 active torsions:
REMARK  status: ('A' for Active; 'I' for Inactive)
ROOT
ATOM      1  C   UNL d   1       0.001   5.999  -1.606  0.00  0.00     0.077 C 
ATOM      2  C1  UNL d   1       0.994   5.060  -2.223  0.00  0.00    -0.074 A 
ATOM      3  C2  UNL d   1       0.570   3.951  -2.963  0.00  0.00    -0.005 A 
ATOM      4  C3  UNL d   1       1.505   3.091  -3.540  0.00  0.00     0.006 A 
ATOM      5  C4  UNL d   1       2.870   3.331  -3.383  0.00  0.00    -0.005 A 
ATOM      6  C5  UNL d   1       3.313   4.435  -2.647  0.00  0.00    -0.074 A 
ATOM      7  C6  UNL d   1       4.777   4.712  -2.477  0.00  0.00     0.077 C 
ATOM      8  C7  UNL d   1       2.367   5.298  -2.077  0.00  0.00    -0.001 A 
ENDROOT
TORSDOF 0
ENDMDL
