MODEL 1
REMARK minimizedAffinity 8.83087349
REMARK minimizedRMSD -1
REMARK  0 active torsions:
REMARK  status: ('A' for Active; 'I' for Inactive)
ROOT
ATOM      1  C   UNL d   1       0.356   5.999  -1.834  0.00  0.00     0.077 C 
ATOM      2  C1  UNL d   1       1.338   4.918  -2.176  0.00  0.00    -0.074 A 
ATOM      3  C2  UNL d   1       0.902   3.637  -2.533  0.00  0.00    -0.005 A 
ATOM      4  C3  UNL d   1       1.826   2.645  -2.857  0.00  0.00     0.006 A 
ATOM      5  C4  UNL d   1       3.194   2.922  -2.828  0.00  0.00    -0.005 A 
ATOM      6  C5  UNL d   1       3.648   4.196  -2.474  0.00  0.00    -0.074 A 
ATOM      7  C6  UNL d   1       5.114   4.513  -2.447  0.00  0.00     0.077 C 
ATOM      8  C7  UNL d   1       2.713   5.190  -2.156  0.00  0.00    -0.001 A 
ENDROOT
TORSDOF 0
ENDMDL
