MODEL 1
REMARK minimizedAffinity 15.8947754
REMARK minimizedRMSD -1
REMARK  0 active torsions:
REMARK  status: ('A' for Active; 'I' for Inactive)
ROOT
ATOM      1  C   UNL d   1      -4.279  -0.014   0.002  0.00  0.00     0.077 C 
ATOM      2  C1  UNL d   1      -3.282  -0.024   1.122  0.00  0.00    -0.074 A 
ATOM      3  C2  UNL d   1      -3.316   0.952   2.123  0.00  0.00    -0.005 A 
ATOM      4  C3  UNL d   1      -2.388   0.924   3.165  0.00  0.00     0.006 A 
ATOM      5  C4  UNL d   1      -1.419  -0.078   3.215  0.00  0.00    -0.005 A 
ATOM      6  C5  UNL d   1      -1.370  -1.063   2.224  0.00  0.00    -0.074 A 
ATOM      7  C6  UNL d   1      -0.341  -2.153   2.268  0.00  0.00     0.077 C 
ATOM      8  C7  UNL d   1      -2.310  -1.032   1.184  0.00  0.00    -0.001 A 
ENDROOT
TORSDOF 0
ENDMDL
