MODEL 1
REMARK minimizedAffinity 12.2098312
REMARK minimizedRMSD -1
REMARK  0 active torsions:
REMARK  status: ('A' for Active; 'I' for Inactive)
ROOT
ATOM      1  C   UNL d   1       5.655   4.034   2.650  0.00  0.00     0.077 C 
ATOM      2  C1  UNL d   1       5.216   3.146   1.524  0.00  0.00    -0.074 A 
ATOM      3  C2  UNL d   1       5.996   3.006   0.372  0.00  0.00    -0.005 A 
ATOM      4  C3  UNL d   1       5.579   2.169  -0.663  0.00  0.00     0.006 A 
ATOM      5  C4  UNL d   1       4.379   1.464  -0.556  0.00  0.00    -0.005 A 
ATOM      6  C5  UNL d   1       3.586   1.590   0.589  0.00  0.00    -0.074 A 
ATOM      7  C6  UNL d   1       2.299   0.832   0.725  0.00  0.00     0.077 C 
ATOM      8  C7  UNL d   1       4.016   2.428   1.628  0.00  0.00    -0.001 A 
ENDROOT
TORSDOF 0
ENDMDL
