MODEL 1
REMARK minimizedAffinity 18.4277687
REMARK minimizedRMSD -1
REMARK  0 active torsions:
REMARK  status: ('A' for Active; 'I' for Inactive)
ROOT
ATOM      1  C   UNL d   1      -2.278   0.990   3.585  0.00  0.00     0.077 C 
ATOM      2  C1  UNL d   1      -1.560  -0.215   3.054  0.00  0.00    -0.074 A 
ATOM      3  C2  UNL d   1      -2.043  -0.906   1.939  0.00  0.00    -0.005 A 
ATOM      4  C3  UNL d   1      -1.359  -2.019   1.450  0.00  0.00     0.006 A 
ATOM      5  C4  UNL d   1      -0.186  -2.451   2.071  0.00  0.00    -0.005 A 
ATOM      6  C5  UNL d   1       0.313  -1.772   3.186  0.00  0.00    -0.074 A 
ATOM      7  C6  UNL d   1       1.577  -2.217   3.859  0.00  0.00     0.077 C 
ATOM      8  C7  UNL d   1      -0.376  -0.650   3.667  0.00  0.00    -0.001 A 
ENDROOT
TORSDOF 0
ENDMDL
