MODEL 1
REMARK minimizedAffinity 19.4627056
REMARK minimizedRMSD -1
REMARK  0 active torsions:
REMARK  status: ('A' for Active; 'I' for Inactive)
ROOT
ATOM      1  C   UNL d   1      -0.695  -2.234   2.075  0.00  0.00     0.077 C 
ATOM      2  C1  UNL d   1      -1.688  -1.111   2.050  0.00  0.00    -0.074 A 
ATOM      3  C2  UNL d   1      -1.565  -0.023   2.920  0.00  0.00    -0.005 A 
ATOM      4  C3  UNL d   1      -2.491   1.019   2.879  0.00  0.00     0.006 A 
ATOM      5  C4  UNL d   1      -3.549   0.983   1.969  0.00  0.00    -0.005 A 
ATOM      6  C5  UNL d   1      -3.688  -0.096   1.091  0.00  0.00    -0.074 A 
ATOM      7  C6  UNL d   1      -4.813  -0.145   0.100  0.00  0.00     0.077 C 
ATOM      8  C7  UNL d   1      -2.749  -1.136   1.134  0.00  0.00    -0.001 A 
ENDROOT
TORSDOF 0
ENDMDL
