MODEL 1
REMARK minimizedAffinity 2.7958653
REMARK minimizedRMSD -1
REMARK  0 active torsions:
REMARK  status: ('A' for Active; 'I' for Inactive)
ROOT
ATOM      1  C   UNL d   1       2.656  -0.910  -0.177  0.00  0.00    -0.002 A 
ATOM      2  C1  UNL d   1       2.435  -1.902   0.768  0.00  0.00     0.010 A 
ATOM      3  C2  UNL d   1       1.275  -1.898   1.545  0.00  0.00     0.041 A 
ATOM      4  C3  UNL d   1       0.330  -0.871   1.353  0.00  0.00    -0.075 A 
ATOM      5  S   UNL d   1      -1.164  -0.664   2.188  0.00  0.00     0.015 SA
ATOM      6  C4  UNL d   1      -1.545   0.746   1.310  0.00  0.00     0.022 A 
ATOM      7  C5  UNL d   1      -0.567   1.066   0.398  0.00  0.00     0.026 A 
ATOM      8  C6  UNL d   1       0.529   0.139   0.407  0.00  0.00    -0.082 A 
ATOM      9  C7  UNL d   1       1.716   0.108  -0.364  0.00  0.00     0.045 A 
ENDROOT
TORSDOF 0
ENDMDL
