MODEL 1
REMARK minimizedAffinity -1.82299066
REMARK minimizedRMSD -1
REMARK  0 active torsions:
REMARK  status: ('A' for Active; 'I' for Inactive)
ROOT
ATOM      1  C   UNL d   1       2.264  -1.097   0.388  0.00  0.00    -0.002 A 
ATOM      2  C1  UNL d   1       1.502  -1.471   1.485  0.00  0.00     0.010 A 
ATOM      3  C2  UNL d   1       0.224  -0.941   1.676  0.00  0.00     0.041 A 
ATOM      4  C3  UNL d   1      -0.280  -0.021   0.736  0.00  0.00    -0.075 A 
ATOM      5  S   UNL d   1      -1.818   0.758   0.765  0.00  0.00     0.015 SA
ATOM      6  C4  UNL d   1      -1.499   1.605  -0.679  0.00  0.00     0.022 A 
ATOM      7  C5  UNL d   1      -0.254   1.314  -1.184  0.00  0.00     0.026 A 
ATOM      8  C6  UNL d   1       0.469   0.371  -0.377  0.00  0.00    -0.082 A 
ATOM      9  C7  UNL d   1       1.761  -0.183  -0.543  0.00  0.00     0.045 A 
ENDROOT
TORSDOF 0
ENDMDL
