MODEL 1
REMARK minimizedAffinity -0.658739269
REMARK minimizedRMSD -1
REMARK  0 active torsions:
REMARK  status: ('A' for Active; 'I' for Inactive)
ROOT
ATOM      1  C   UNL d   1       2.285  -0.393  -0.454  0.00  0.00    -0.002 A 
ATOM      2  C1  UNL d   1       1.271   0.461  -0.862  0.00  0.00     0.010 A 
ATOM      3  C2  UNL d   1       0.089   0.564  -0.125  0.00  0.00     0.041 A 
ATOM      4  C3  UNL d   1      -0.056  -0.212   1.042  0.00  0.00    -0.075 A 
ATOM      5  S   UNL d   1      -1.414  -0.250   2.103  0.00  0.00     0.015 SA
ATOM      6  C4  UNL d   1      -0.679  -1.400   3.124  0.00  0.00     0.022 A 
ATOM      7  C5  UNL d   1       0.572  -1.758   2.680  0.00  0.00     0.026 A 
ATOM      8  C6  UNL d   1       0.952  -1.079   1.473  0.00  0.00    -0.082 A 
ATOM      9  C7  UNL d   1       2.138  -1.162   0.704  0.00  0.00     0.045 A 
ENDROOT
TORSDOF 0
ENDMDL
