MODEL 1
REMARK minimizedAffinity -2.49426365
REMARK minimizedRMSD -1
REMARK  0 active torsions:
REMARK  status: ('A' for Active; 'I' for Inactive)
ROOT
ATOM      1  C   UNL d   1       2.522  -0.582   0.402  0.00  0.00    -0.002 A 
ATOM      2  C1  UNL d   1       1.494  -1.373   0.895  0.00  0.00     0.010 A 
ATOM      3  C2  UNL d   1       0.161  -1.039   0.650  0.00  0.00     0.041 A 
ATOM      4  C3  UNL d   1      -0.124   0.113  -0.109  0.00  0.00    -0.075 A 
ATOM      5  S   UNL d   1      -1.682   0.717  -0.536  0.00  0.00     0.015 SA
ATOM      6  C4  UNL d   1      -1.019   2.039  -1.384  0.00  0.00     0.022 A 
ATOM      7  C5  UNL d   1       0.355   2.035  -1.352  0.00  0.00     0.026 A 
ATOM      8  C6  UNL d   1       0.894   0.925  -0.617  0.00  0.00    -0.082 A 
ATOM      9  C7  UNL d   1       2.235   0.561  -0.349  0.00  0.00     0.045 A 
ENDROOT
TORSDOF 0
ENDMDL
