MODEL 1
REMARK minimizedAffinity 3.57012153
REMARK minimizedRMSD -1
REMARK  0 active torsions:
REMARK  status: ('A' for Active; 'I' for Inactive)
ROOT
ATOM      1  C   UNL d   1       2.909  -0.651   0.723  0.00  0.00    -0.002 A 
ATOM      2  C1  UNL d   1       2.046  -1.507   1.392  0.00  0.00     0.010 A 
ATOM      3  C2  UNL d   1       0.663  -1.365   1.264  0.00  0.00     0.041 A 
ATOM      4  C3  UNL d   1       0.156  -0.339   0.442  0.00  0.00    -0.075 A 
ATOM      5  S   UNL d   1      -1.501   0.025   0.135  0.00  0.00     0.015 SA
ATOM      6  C4  UNL d   1      -1.102   1.324  -0.894  0.00  0.00     0.022 A 
ATOM      7  C5  UNL d   1       0.257   1.491  -1.011  0.00  0.00     0.026 A 
ATOM      8  C6  UNL d   1       1.005   0.535  -0.243  0.00  0.00    -0.082 A 
ATOM      9  C7  UNL d   1       2.403   0.365  -0.092  0.00  0.00     0.045 A 
ENDROOT
TORSDOF 0
ENDMDL
