MODEL 1
REMARK minimizedAffinity -1.05854917
REMARK minimizedRMSD -1
REMARK  0 active torsions:
REMARK  status: ('A' for Active; 'I' for Inactive)
ROOT
ATOM      1  C   UNL d   1      -0.710   1.225  -0.901  0.00  0.00    -0.002 A 
ATOM      2  C1  UNL d   1       0.558   1.631  -1.293  0.00  0.00     0.010 A 
ATOM      3  C2  UNL d   1       1.688   0.916  -0.894  0.00  0.00     0.041 A 
ATOM      4  C3  UNL d   1       1.522  -0.228  -0.088  0.00  0.00    -0.075 A 
ATOM      5  S   UNL d   1       2.762  -1.261   0.519  0.00  0.00     0.015 SA
ATOM      6  C4  UNL d   1       1.638  -2.267   1.313  0.00  0.00     0.022 A 
ATOM      7  C5  UNL d   1       0.344  -1.840   1.130  0.00  0.00     0.026 A 
ATOM      8  C6  UNL d   1       0.256  -0.658   0.319  0.00  0.00    -0.082 A 
ATOM      9  C7  UNL d   1      -0.871   0.090  -0.101  0.00  0.00     0.045 A 
ENDROOT
TORSDOF 0
ENDMDL
