MODEL 1
REMARK minimizedAffinity 0.69004941
REMARK minimizedRMSD -1
REMARK  0 active torsions:
REMARK  status: ('A' for Active; 'I' for Inactive)
ROOT
ATOM      1  C   UNL d   1      -0.238   0.364   0.599  0.00  0.00    -0.002 A 
ATOM      2  C1  UNL d   1       0.414   1.474   0.080  0.00  0.00     0.010 A 
ATOM      3  C2  UNL d   1      -0.003   2.043  -1.125  0.00  0.00     0.041 A 
ATOM      4  C3  UNL d   1      -1.099   1.474  -1.804  0.00  0.00    -0.075 A 
ATOM      5  S   UNL d   1      -1.786   2.003  -3.294  0.00  0.00     0.015 SA
ATOM      6  C4  UNL d   1      -2.962   0.770  -3.276  0.00  0.00     0.022 A 
ATOM      7  C5  UNL d   1      -2.847  -0.035  -2.167  0.00  0.00     0.026 A 
ATOM      8  C6  UNL d   1      -1.772   0.358  -1.300  0.00  0.00    -0.082 A 
ATOM      9  C7  UNL d   1      -1.324  -0.197  -0.077  0.00  0.00     0.045 A 
ENDROOT
TORSDOF 0
ENDMDL
