MODEL 1
REMARK minimizedAffinity -0.42062071
REMARK minimizedRMSD -1
REMARK  0 active torsions:
REMARK  status: ('A' for Active; 'I' for Inactive)
ROOT
ATOM      1  C   UNL d   1      -2.034   0.906   0.119  0.00  0.00    -0.002 A 
ATOM      2  C1  UNL d   1      -1.903   0.457   1.426  0.00  0.00     0.010 A 
ATOM      3  C2  UNL d   1      -0.667   0.020   1.907  0.00  0.00     0.041 A 
ATOM      4  C3  UNL d   1       0.446   0.044   1.044  0.00  0.00    -0.075 A 
ATOM      5  S   UNL d   1       2.058  -0.442   1.415  0.00  0.00     0.015 SA
ATOM      6  C4  UNL d   1       2.612  -0.065  -0.152  0.00  0.00     0.022 A 
ATOM      7  C5  UNL d   1       1.605   0.421  -0.952  0.00  0.00     0.026 A 
ATOM      8  C6  UNL d   1       0.340   0.492  -0.275  0.00  0.00    -0.082 A 
ATOM      9  C7  UNL d   1      -0.926   0.928  -0.733  0.00  0.00     0.045 A 
ENDROOT
TORSDOF 0
ENDMDL
