MODEL 1
REMARK minimizedAffinity 0.595034719
REMARK minimizedRMSD -1
REMARK  0 active torsions:
REMARK  status: ('A' for Active; 'I' for Inactive)
ROOT
ATOM      1  C   UNL d   1       2.833  -1.342   0.501  0.00  0.00    -0.002 A 
ATOM      2  C1  UNL d   1       2.636  -0.584  -0.644  0.00  0.00     0.010 A 
ATOM      3  C2  UNL d   1       1.446   0.122  -0.832  0.00  0.00     0.041 A 
ATOM      4  C3  UNL d   1       0.448   0.054   0.161  0.00  0.00    -0.075 A 
ATOM      5  S   UNL d   1      -1.088   0.835   0.146  0.00  0.00     0.015 SA
ATOM      6  C4  UNL d   1      -1.519   0.181   1.660  0.00  0.00     0.022 A 
ATOM      7  C5  UNL d   1      -0.527  -0.617   2.178  0.00  0.00     0.026 A 
ATOM      8  C6  UNL d   1       0.624  -0.703   1.323  0.00  0.00    -0.082 A 
ATOM      9  C7  UNL d   1       1.841  -1.408   1.484  0.00  0.00     0.045 A 
ENDROOT
TORSDOF 0
ENDMDL
