MODEL 1
REMARK minimizedAffinity 2.52721477
REMARK minimizedRMSD -1
REMARK  0 active torsions:
REMARK  status: ('A' for Active; 'I' for Inactive)
ROOT
ATOM      1  C   UNL d   1       3.480  -0.209  -0.683  0.00  0.00    -0.002 A 
ATOM      2  C1  UNL d   1       3.248  -0.706   0.591  0.00  0.00     0.010 A 
ATOM      3  C2  UNL d   1       1.978  -0.628   1.164  0.00  0.00     0.041 A 
ATOM      4  C3  UNL d   1       0.932  -0.038   0.427  0.00  0.00    -0.075 A 
ATOM      5  S   UNL d   1      -0.705   0.166   0.926  0.00  0.00     0.015 SA
ATOM      6  C4  UNL d   1      -1.137   0.917  -0.542  0.00  0.00     0.022 A 
ATOM      7  C5  UNL d   1      -0.070   1.019  -1.402  0.00  0.00     0.026 A 
ATOM      8  C6  UNL d   1       1.140   0.469  -0.859  0.00  0.00    -0.082 A 
ATOM      9  C7  UNL d   1       2.440   0.376  -1.412  0.00  0.00     0.045 A 
ENDROOT
TORSDOF 0
ENDMDL
