MODEL 1
REMARK minimizedAffinity 4.5349741
REMARK minimizedRMSD -1
REMARK  0 active torsions:
REMARK  status: ('A' for Active; 'I' for Inactive)
ROOT
ATOM      1  C   UNL d   1      -2.655   1.017  -2.648  0.00  0.00    -0.002 A 
ATOM      2  C1  UNL d   1      -1.973   2.226  -2.658  0.00  0.00     0.010 A 
ATOM      3  C2  UNL d   1      -0.834   2.405  -1.871  0.00  0.00     0.041 A 
ATOM      4  C3  UNL d   1      -0.385   1.338  -1.068  0.00  0.00    -0.075 A 
ATOM      5  S   UNL d   1       0.986   1.328  -0.023  0.00  0.00     0.015 SA
ATOM      6  C4  UNL d   1       0.701  -0.281   0.459  0.00  0.00     0.022 A 
ATOM      7  C5  UNL d   1      -0.410  -0.813  -0.151  0.00  0.00     0.026 A 
ATOM      8  C6  UNL d   1      -1.054   0.111  -1.042  0.00  0.00    -0.082 A 
ATOM      9  C7  UNL d   1      -2.207  -0.039  -1.850  0.00  0.00     0.045 A 
ENDROOT
TORSDOF 0
ENDMDL
