MODEL 1
REMARK minimizedAffinity 16.5347061
REMARK minimizedRMSD -1
REMARK  1 active torsions:
REMARK  status: ('A' for Active; 'I' for Inactive)
REMARK    1  A    between atoms: C1_2  and  C2_3 
ROOT
ATOM      1  C2  UNL d   1       1.366  -2.341   0.076  0.00  0.00    -0.081 A 
ATOM      2  C3  UNL d   1       2.567  -1.660   0.309  0.00  0.00     0.006 A 
ATOM      3  C4  UNL d   1       3.284  -1.874   1.489  0.00  0.00     0.002 A 
ATOM      4  C5  UNL d   1       2.817  -2.777   2.449  0.00  0.00    -0.080 A 
ATOM      5  C6  UNL d   1       3.594  -3.039   3.706  0.00  0.00     0.076 C 
ATOM      6  C7  UNL d   1       1.609  -3.444   2.224  0.00  0.00     0.002 A 
ATOM      7  C8  UNL d   1       0.890  -3.230   1.045  0.00  0.00     0.006 A 
ENDROOT
BRANCH   1   8
ATOM      8  C1  UNL d   1       0.623  -2.160  -1.223  0.00  0.00     0.054 C 
ATOM      9  C   UNL d   1      -0.755  -1.556  -0.994  0.00  0.00     0.018 C 
ENDBRANCH   1   8
TORSDOF 1
ENDMDL
