MODEL 1
REMARK minimizedAffinity 17.4103718
REMARK minimizedRMSD -1
REMARK  1 active torsions:
REMARK  status: ('A' for Active; 'I' for Inactive)
REMARK    1  A    between atoms: C1_2  and  C2_3 
ROOT
ATOM      1  C2  UNL d   1      -0.657  -3.661  -1.090  0.00  0.00    -0.081 A 
ATOM      2  C3  UNL d   1      -0.958  -3.544   0.272  0.00  0.00     0.006 A 
ATOM      3  C4  UNL d   1      -1.296  -2.304   0.819  0.00  0.00     0.002 A 
ATOM      4  C5  UNL d   1      -1.346  -1.162   0.012  0.00  0.00    -0.080 A 
ATOM      5  C6  UNL d   1      -1.737   0.170   0.581  0.00  0.00     0.076 C 
ATOM      6  C7  UNL d   1      -1.028  -1.275  -1.345  0.00  0.00     0.002 A 
ATOM      7  C8  UNL d   1      -0.690  -2.515  -1.893  0.00  0.00     0.006 A 
ENDROOT
BRANCH   1   8
ATOM      8  C1  UNL d   1      -0.355  -5.008  -1.696  0.00  0.00     0.054 C 
ATOM      9  C   UNL d   1       0.105  -6.000  -0.638  0.00  0.00     0.018 C 
ENDBRANCH   1   8
TORSDOF 1
ENDMDL
