MODEL 1
REMARK minimizedAffinity 18.8623562
REMARK minimizedRMSD -1
REMARK  1 active torsions:
REMARK  status: ('A' for Active; 'I' for Inactive)
REMARK    1  A    between atoms: C1_2  and  C2_3 
ROOT
ATOM      1  C2  UNL d   1       0.685  -3.150  -2.963  0.00  0.00    -0.081 A 
ATOM      2  C3  UNL d   1      -0.330  -2.381  -3.545  0.00  0.00     0.006 A 
ATOM      3  C4  UNL d   1      -1.209  -1.647  -2.746  0.00  0.00     0.002 A 
ATOM      4  C5  UNL d   1      -1.082  -1.662  -1.353  0.00  0.00    -0.080 A 
ATOM      5  C6  UNL d   1      -2.000  -0.853  -0.484  0.00  0.00     0.076 C 
ATOM      6  C7  UNL d   1      -0.079  -2.443  -0.770  0.00  0.00     0.002 A 
ATOM      7  C8  UNL d   1       0.800  -3.179  -1.569  0.00  0.00     0.006 A 
ENDROOT
BRANCH   1   8
ATOM      8  C1  UNL d   1       1.674  -3.892  -3.825  0.00  0.00     0.054 C 
ATOM      9  C   UNL d   1       3.106  -3.503  -3.485  0.00  0.00     0.018 C 
ENDBRANCH   1   8
TORSDOF 1
ENDMDL
