MODEL 1
REMARK minimizedAffinity 9.27116299
REMARK minimizedRMSD -1
REMARK  1 active torsions:
REMARK  status: ('A' for Active; 'I' for Inactive)
REMARK    1  A    between atoms: C1_2  and  C2_3 
ROOT
ATOM      1  C2  UNL d   1       0.798  -2.520  -2.004  0.00  0.00    -0.081 A 
ATOM      2  C3  UNL d   1      -0.379  -1.842  -2.343  0.00  0.00     0.006 A 
ATOM      3  C4  UNL d   1      -1.381  -1.642  -1.391  0.00  0.00     0.002 A 
ATOM      4  C5  UNL d   1      -1.219  -2.109  -0.082  0.00  0.00    -0.080 A 
ATOM      5  C6  UNL d   1      -2.274  -1.874   0.959  0.00  0.00     0.076 C 
ATOM      6  C7  UNL d   1      -0.051  -2.802   0.253  0.00  0.00     0.002 A 
ATOM      7  C8  UNL d   1       0.951  -3.003  -0.699  0.00  0.00     0.006 A 
ENDROOT
BRANCH   1   8
ATOM      8  C1  UNL d   1       1.907  -2.681  -3.012  0.00  0.00     0.054 C 
ATOM      9  C   UNL d   1       3.150  -1.908  -2.595  0.00  0.00     0.018 C 
ENDBRANCH   1   8
TORSDOF 1
ENDMDL
