MODEL 1
REMARK minimizedAffinity 7.61533594
REMARK minimizedRMSD -1
REMARK  1 active torsions:
REMARK  status: ('A' for Active; 'I' for Inactive)
REMARK    1  A    between atoms: C1_2  and  C2_3 
ROOT
ATOM      1  C2  UNL d   1      -2.656  -3.252  -5.147  0.00  0.00    -0.081 A 
ATOM      2  C3  UNL d   1      -2.629  -4.374  -5.984  0.00  0.00     0.006 A 
ATOM      3  C4  UNL d   1      -3.698  -5.273  -5.999  0.00  0.00     0.002 A 
ATOM      4  C5  UNL d   1      -4.815  -5.060  -5.184  0.00  0.00    -0.080 A 
ATOM      5  C6  UNL d   1      -5.984  -6.000  -5.212  0.00  0.00     0.076 C 
ATOM      6  C7  UNL d   1      -4.835  -3.948  -4.335  0.00  0.00     0.002 A 
ATOM      7  C8  UNL d   1      -3.766  -3.050  -4.319  0.00  0.00     0.006 A 
ENDROOT
BRANCH   1   8
ATOM      8  C1  UNL d   1      -1.533  -2.247  -5.176  0.00  0.00     0.054 C 
ATOM      9  C   UNL d   1      -1.133  -1.824  -3.770  0.00  0.00     0.018 C 
ENDBRANCH   1   8
TORSDOF 1
ENDMDL
