MODEL 1
REMARK minimizedAffinity 13.8878727
REMARK minimizedRMSD -1
REMARK  1 active torsions:
REMARK  status: ('A' for Active; 'I' for Inactive)
REMARK    1  A    between atoms: C1_2  and  C2_3 
ROOT
ATOM      1  C2  UNL d   1      -1.742  -2.952  -4.527  0.00  0.00    -0.081 A 
ATOM      2  C3  UNL d   1      -0.490  -2.581  -4.021  0.00  0.00     0.006 A 
ATOM      3  C4  UNL d   1      -0.358  -2.167  -2.693  0.00  0.00     0.002 A 
ATOM      4  C5  UNL d   1      -1.472  -2.126  -1.848  0.00  0.00    -0.080 A 
ATOM      5  C6  UNL d   1      -1.338  -1.713  -0.413  0.00  0.00     0.076 C 
ATOM      6  C7  UNL d   1      -2.725  -2.480  -2.359  0.00  0.00     0.002 A 
ATOM      7  C8  UNL d   1      -2.858  -2.893  -3.686  0.00  0.00     0.006 A 
ENDROOT
BRANCH   1   8
ATOM      8  C1  UNL d   1      -1.877  -3.460  -5.940  0.00  0.00     0.054 C 
ATOM      9  C   UNL d   1      -1.732  -4.974  -6.000  0.00  0.00     0.018 C 
ENDBRANCH   1   8
TORSDOF 1
ENDMDL
