MODEL 1
REMARK minimizedAffinity 13.7379618
REMARK minimizedRMSD -1
REMARK  1 active torsions:
REMARK  status: ('A' for Active; 'I' for Inactive)
REMARK    1  A    between atoms: C1_2  and  C2_3 
ROOT
ATOM      1  C2  UNL d   1       0.093  -2.933   0.389  0.00  0.00    -0.081 A 
ATOM      2  C3  UNL d   1      -1.181  -2.361   0.283  0.00  0.00     0.006 A 
ATOM      3  C4  UNL d   1      -1.789  -2.214  -0.966  0.00  0.00     0.002 A 
ATOM      4  C5  UNL d   1      -1.138  -2.641  -2.127  0.00  0.00    -0.080 A 
ATOM      5  C6  UNL d   1      -1.792  -2.516  -3.471  0.00  0.00     0.076 C 
ATOM      6  C7  UNL d   1       0.143  -3.196  -2.023  0.00  0.00     0.002 A 
ATOM      7  C8  UNL d   1       0.752  -3.343  -0.775  0.00  0.00     0.006 A 
ENDROOT
BRANCH   1   8
ATOM      8  C1  UNL d   1       0.725  -3.153   1.740  0.00  0.00     0.054 C 
ATOM      9  C   UNL d   1       2.035  -2.388   1.870  0.00  0.00     0.018 C 
ENDBRANCH   1   8
TORSDOF 1
ENDMDL
