MODEL 1
REMARK minimizedAffinity 7.5753808
REMARK minimizedRMSD -1
REMARK  1 active torsions:
REMARK  status: ('A' for Active; 'I' for Inactive)
REMARK    1  A    between atoms: C1_2  and  C2_3 
ROOT
ATOM      1  C2  UNL d   1       5.949   3.919  -4.503  0.00  0.00    -0.081 A 
ATOM      2  C3  UNL d   1       5.937   3.204  -3.300  0.00  0.00     0.006 A 
ATOM      3  C4  UNL d   1       5.830   3.875  -2.079  0.00  0.00     0.002 A 
ATOM      4  C5  UNL d   1       5.725   5.269  -2.042  0.00  0.00    -0.080 A 
ATOM      5  C6  UNL d   1       5.579   5.999  -0.740  0.00  0.00     0.076 C 
ATOM      6  C7  UNL d   1       5.755   5.985  -3.244  0.00  0.00     0.002 A 
ATOM      7  C8  UNL d   1       5.863   5.315  -4.464  0.00  0.00     0.006 A 
ENDROOT
BRANCH   1   8
ATOM      8  C1  UNL d   1       6.000   3.195  -5.824  0.00  0.00     0.054 C 
ATOM      9  C   UNL d   1       5.966   1.686  -5.630  0.00  0.00     0.018 C 
ENDBRANCH   1   8
TORSDOF 1
ENDMDL
