MODEL 1
REMARK minimizedAffinity 13.7806816
REMARK minimizedRMSD -1
REMARK  1 active torsions:
REMARK  status: ('A' for Active; 'I' for Inactive)
REMARK    1  A    between atoms: C1_2  and  C2_3 
ROOT
ATOM      1  C2  UNL d   1       3.695   4.513  -1.723  0.00  0.00    -0.081 A 
ATOM      2  C3  UNL d   1       2.468   4.938  -2.248  0.00  0.00     0.006 A 
ATOM      3  C4  UNL d   1       1.275   4.654  -1.579  0.00  0.00     0.002 A 
ATOM      4  C5  UNL d   1       1.289   3.950  -0.371  0.00  0.00    -0.080 A 
ATOM      5  C6  UNL d   1       0.018   3.665   0.373  0.00  0.00     0.076 C 
ATOM      6  C7  UNL d   1       2.513   3.511   0.146  0.00  0.00     0.002 A 
ATOM      7  C8  UNL d   1       3.706   3.793  -0.523  0.00  0.00     0.006 A 
ENDROOT
BRANCH   1   8
ATOM      8  C1  UNL d   1       4.988   4.873  -2.409  0.00  0.00     0.054 C 
ATOM      9  C   UNL d   1       5.777   5.893  -1.601  0.00  0.00     0.018 C 
ENDBRANCH   1   8
TORSDOF 1
ENDMDL
