MODEL 1
REMARK minimizedAffinity 8.98001385
REMARK minimizedRMSD -1
REMARK  1 active torsions:
REMARK  status: ('A' for Active; 'I' for Inactive)
REMARK    1  A    between atoms: C1_2  and  C2_3 
ROOT
ATOM      1  C2  UNL d   1      -1.391  -1.923   2.859  0.00  0.00    -0.081 A 
ATOM      2  C3  UNL d   1      -0.182  -2.543   2.520  0.00  0.00     0.006 A 
ATOM      3  C4  UNL d   1       0.073  -2.922   1.200  0.00  0.00     0.002 A 
ATOM      4  C5  UNL d   1      -0.872  -2.681   0.197  0.00  0.00    -0.080 A 
ATOM      5  C6  UNL d   1      -0.599  -3.056  -1.230  0.00  0.00     0.076 C 
ATOM      6  C7  UNL d   1      -2.087  -2.078   0.539  0.00  0.00     0.002 A 
ATOM      7  C8  UNL d   1      -2.343  -1.699   1.859  0.00  0.00     0.006 A 
ENDROOT
BRANCH   1   8
ATOM      8  C1  UNL d   1      -1.642  -1.454   4.270  0.00  0.00     0.054 C 
ATOM      9  C   UNL d   1      -2.233  -0.052   4.290  0.00  0.00     0.018 C 
ENDBRANCH   1   8
TORSDOF 1
ENDMDL
