MODEL 1
REMARK minimizedAffinity 3.23173141
REMARK minimizedRMSD -1
REMARK  1 active torsions:
REMARK  status: ('A' for Active; 'I' for Inactive)
REMARK    1  A    between atoms: C1_2  and  C2_3 
ROOT
ATOM      1  C2  UNL d   1       5.851   3.960  -4.610  0.00  0.00    -0.081 A 
ATOM      2  C3  UNL d   1       5.935   5.355  -4.529  0.00  0.00     0.006 A 
ATOM      3  C4  UNL d   1       5.910   5.996  -3.288  0.00  0.00     0.002 A 
ATOM      4  C5  UNL d   1       5.810   5.252  -2.107  0.00  0.00    -0.080 A 
ATOM      5  C6  UNL d   1       5.812   5.925  -0.767  0.00  0.00     0.076 C 
ATOM      6  C7  UNL d   1       5.708   3.859  -2.188  0.00  0.00     0.002 A 
ATOM      7  C8  UNL d   1       5.733   3.218  -3.429  0.00  0.00     0.006 A 
ENDROOT
BRANCH   1   8
ATOM      8  C1  UNL d   1       5.943   3.262  -5.943  0.00  0.00     0.054 C 
ATOM      9  C   UNL d   1       5.018   2.055  -6.000  0.00  0.00     0.018 C 
ENDBRANCH   1   8
TORSDOF 1
ENDMDL
