MODEL 1
REMARK minimizedAffinity 17.6244373
REMARK minimizedRMSD -1
REMARK  1 active torsions:
REMARK  status: ('A' for Active; 'I' for Inactive)
REMARK    1  A    between atoms: C1_2  and  C2_3 
ROOT
ATOM      1  C2  UNL d   1      -2.143  -0.954   0.226  0.00  0.00    -0.081 A 
ATOM      2  C3  UNL d   1      -3.356  -0.690   0.876  0.00  0.00     0.006 A 
ATOM      3  C4  UNL d   1      -3.837   0.618   0.971  0.00  0.00     0.002 A 
ATOM      4  C5  UNL d   1      -3.120   1.681   0.413  0.00  0.00    -0.080 A 
ATOM      5  C6  UNL d   1      -3.641   3.086   0.482  0.00  0.00     0.076 C 
ATOM      6  C7  UNL d   1      -1.900   1.419  -0.221  0.00  0.00     0.002 A 
ATOM      7  C8  UNL d   1      -1.418   0.112  -0.316  0.00  0.00     0.006 A 
ENDROOT
BRANCH   1   8
ATOM      8  C1  UNL d   1      -1.653  -2.370   0.065  0.00  0.00     0.054 C 
ATOM      9  C   UNL d   1      -0.644  -2.481  -1.069  0.00  0.00     0.018 C 
ENDBRANCH   1   8
TORSDOF 1
ENDMDL
