MODEL 1
REMARK minimizedAffinity 10.8879757
REMARK minimizedRMSD -1
REMARK  1 active torsions:
REMARK  status: ('A' for Active; 'I' for Inactive)
REMARK    1  A    between atoms: C1_2  and  C2_3 
ROOT
ATOM      1  C2  UNL d   1       2.329   4.512  -1.727  0.00  0.00    -0.081 A 
ATOM      2  C3  UNL d   1       2.302   5.252  -2.915  0.00  0.00     0.006 A 
ATOM      3  C4  UNL d   1       3.486   5.744  -3.469  0.00  0.00     0.002 A 
ATOM      4  C5  UNL d   1       4.716   5.499  -2.849  0.00  0.00    -0.080 A 
ATOM      5  C6  UNL d   1       5.998   5.996  -3.449  0.00  0.00     0.076 C 
ATOM      6  C7  UNL d   1       4.741   4.775  -1.652  0.00  0.00     0.002 A 
ATOM      7  C8  UNL d   1       3.557   4.283  -1.097  0.00  0.00     0.006 A 
ENDROOT
BRANCH   1   8
ATOM      8  C1  UNL d   1       1.061   3.925  -1.161  0.00  0.00     0.054 C 
ATOM      9  C   UNL d   1       1.302   3.297   0.204  0.00  0.00     0.018 C 
ENDBRANCH   1   8
TORSDOF 1
ENDMDL
