MODEL 1
REMARK minimizedAffinity 7.96316481
REMARK minimizedRMSD -1
REMARK  0 active torsions:
REMARK  status: ('A' for Active; 'I' for Inactive)
ROOT
ATOM      1  C2' OXE d   1       1.654   0.387  -1.901  0.00  0.00     0.078 C 
ATOM      2  C1' OXE d   1      -0.458  -1.323  -1.198  0.00  0.00     0.078 C 
ATOM      3  C1  OXE d   1       0.844  -1.468  -0.450  0.00  0.00    -0.078 A 
ATOM      4  C2  OXE d   1       1.886  -0.659  -0.833  0.00  0.00    -0.078 A 
ATOM      5  C3  OXE d   1       3.092  -0.714  -0.139  0.00  0.00     0.003 A 
ATOM      6  C4  OXE d   1       3.302  -1.691   0.841  0.00  0.00    -0.002 A 
ATOM      7  C5  OXE d   1       2.266  -2.552   1.219  0.00  0.00    -0.002 A 
ATOM      8  C6  OXE d   1       1.020  -2.426   0.614  0.00  0.00     0.003 A 
ENDROOT
TORSDOF 0
ENDMDL
