MODEL 1
REMARK minimizedAffinity 2.514256
REMARK minimizedRMSD -1
REMARK  0 active torsions:
REMARK  status: ('A' for Active; 'I' for Inactive)
ROOT
ATOM      1  C2' OXE d   1       0.982  -1.317   3.021  0.00  0.00     0.078 C 
ATOM      2  C1' OXE d   1      -1.383  -1.485   1.517  0.00  0.00     0.078 C 
ATOM      3  C1  OXE d   1      -0.084  -1.314   0.769  0.00  0.00    -0.078 A 
ATOM      4  C2  OXE d   1       1.063  -1.186   1.515  0.00  0.00    -0.078 A 
ATOM      5  C3  OXE d   1       2.294  -1.081   0.874  0.00  0.00     0.003 A 
ATOM      6  C4  OXE d   1       2.360  -0.951  -0.518  0.00  0.00    -0.002 A 
ATOM      7  C5  OXE d   1       1.199  -1.039  -1.295  0.00  0.00    -0.002 A 
ATOM      8  C6  OXE d   1      -0.023  -1.262  -0.671  0.00  0.00     0.003 A 
ENDROOT
TORSDOF 0
ENDMDL
