MODEL 1
REMARK minimizedAffinity 8.22532082
REMARK minimizedRMSD -1
REMARK  0 active torsions:
REMARK  status: ('A' for Active; 'I' for Inactive)
ROOT
ATOM      1  C2' OXE d   1       2.401  -1.083  -0.900  0.00  0.00     0.078 C 
ATOM      2  C1' OXE d   1       2.798   1.642  -0.355  0.00  0.00     0.078 C 
ATOM      3  C1  OXE d   1       3.870   0.674   0.081  0.00  0.00    -0.078 A 
ATOM      4  C2  OXE d   1       3.645  -0.662  -0.148  0.00  0.00    -0.078 A 
ATOM      5  C3  OXE d   1       4.626  -1.593   0.185  0.00  0.00     0.003 A 
ATOM      6  C4  OXE d   1       5.769  -1.196   0.889  0.00  0.00    -0.002 A 
ATOM      7  C5  OXE d   1       5.999   0.155   1.167  0.00  0.00    -0.002 A 
ATOM      8  C6  OXE d   1       5.081   1.106   0.733  0.00  0.00     0.003 A 
ENDROOT
TORSDOF 0
ENDMDL
