MODEL 1
REMARK minimizedAffinity 11.681386
REMARK minimizedRMSD -1
REMARK  0 active torsions:
REMARK  status: ('A' for Active; 'I' for Inactive)
ROOT
ATOM      1  C2' OXE d   1      -2.973   2.610  -2.717  0.00  0.00     0.078 C 
ATOM      2  C1' OXE d   1      -4.612   4.718  -3.583  0.00  0.00     0.078 C 
ATOM      3  C1  OXE d   1      -4.839   3.356  -4.188  0.00  0.00    -0.078 A 
ATOM      4  C2  OXE d   1      -4.002   2.340  -3.793  0.00  0.00    -0.078 A 
ATOM      5  C3  OXE d   1      -4.204   1.052  -4.279  0.00  0.00     0.003 A 
ATOM      6  C4  OXE d   1      -5.152   0.813  -5.282  0.00  0.00    -0.002 A 
ATOM      7  C5  OXE d   1      -5.989   1.841  -5.728  0.00  0.00    -0.002 A 
ATOM      8  C6  OXE d   1      -5.874   3.106  -5.162  0.00  0.00     0.003 A 
ENDROOT
TORSDOF 0
ENDMDL
