MODEL 1
REMARK minimizedAffinity 6.59260845
REMARK minimizedRMSD -1
REMARK  0 active torsions:
REMARK  status: ('A' for Active; 'I' for Inactive)
ROOT
ATOM      1  C2' OXE d   1      -2.958   2.249  -6.000  0.00  0.00     0.078 C 
ATOM      2  C1' OXE d   1      -5.442   3.061  -4.975  0.00  0.00     0.078 C 
ATOM      3  C1  OXE d   1      -5.107   1.591  -4.925  0.00  0.00    -0.078 A 
ATOM      4  C2  OXE d   1      -3.909   1.197  -5.471  0.00  0.00    -0.078 A 
ATOM      5  C3  OXE d   1      -3.527  -0.140  -5.402  0.00  0.00     0.003 A 
ATOM      6  C4  OXE d   1      -4.416  -1.108  -4.921  0.00  0.00    -0.002 A 
ATOM      7  C5  OXE d   1      -5.658  -0.733  -4.396  0.00  0.00    -0.002 A 
ATOM      8  C6  OXE d   1      -6.000   0.614  -4.352  0.00  0.00     0.003 A 
ENDROOT
TORSDOF 0
ENDMDL
