MODEL 1
REMARK minimizedAffinity 9.13323879
REMARK minimizedRMSD -1
REMARK  0 active torsions:
REMARK  status: ('A' for Active; 'I' for Inactive)
ROOT
ATOM      1  C2' OXE d   1      -2.287   1.073   4.241  0.00  0.00     0.078 C 
ATOM      2  C1' OXE d   1      -3.110   0.596   1.600  0.00  0.00     0.078 C 
ATOM      3  C1  OXE d   1      -1.828  -0.048   2.064  0.00  0.00    -0.078 A 
ATOM      4  C2  OXE d   1      -1.408   0.228   3.343  0.00  0.00    -0.078 A 
ATOM      5  C3  OXE d   1      -0.261  -0.384   3.840  0.00  0.00     0.003 A 
ATOM      6  C4  OXE d   1       0.551  -1.156   3.000  0.00  0.00    -0.002 A 
ATOM      7  C5  OXE d   1       0.162  -1.418   1.682  0.00  0.00    -0.002 A 
ATOM      8  C6  OXE d   1      -1.043  -0.907   1.213  0.00  0.00     0.003 A 
ENDROOT
TORSDOF 0
ENDMDL
