MODEL 1
REMARK minimizedAffinity 6.69433784
REMARK minimizedRMSD -1
REMARK  0 active torsions:
REMARK  status: ('A' for Active; 'I' for Inactive)
ROOT
ATOM      1  C2' OXE d   1       1.432  -1.886   0.711  0.00  0.00     0.078 C 
ATOM      2  C1' OXE d   1      -0.115  -1.188  -1.526  0.00  0.00     0.078 C 
ATOM      3  C1  OXE d   1       1.386  -1.184  -1.679  0.00  0.00    -0.078 A 
ATOM      4  C2  OXE d   1       2.136  -1.481  -0.567  0.00  0.00    -0.078 A 
ATOM      5  C3  OXE d   1       3.523  -1.545  -0.667  0.00  0.00     0.003 A 
ATOM      6  C4  OXE d   1       4.166  -1.160  -1.849  0.00  0.00    -0.002 A 
ATOM      7  C5  OXE d   1       3.422  -0.815  -2.983  0.00  0.00    -0.002 A 
ATOM      8  C6  OXE d   1       2.034  -0.863  -2.927  0.00  0.00     0.003 A 
ENDROOT
TORSDOF 0
ENDMDL
