MODEL 1
REMARK minimizedAffinity 10.0528297
REMARK minimizedRMSD -1
REMARK  0 active torsions:
REMARK  status: ('A' for Active; 'I' for Inactive)
ROOT
ATOM      1  C2' OXE d   1      -2.182   1.512   4.055  0.00  0.00     0.078 C 
ATOM      2  C1' OXE d   1      -3.632   0.471   1.889  0.00  0.00     0.078 C 
ATOM      3  C1  OXE d   1      -2.269  -0.112   2.168  0.00  0.00    -0.078 A 
ATOM      4  C2  OXE d   1      -1.547   0.436   3.201  0.00  0.00    -0.078 A 
ATOM      5  C3  OXE d   1      -0.307  -0.100   3.536  0.00  0.00     0.003 A 
ATOM      6  C4  OXE d   1       0.277  -1.089   2.735  0.00  0.00    -0.002 A 
ATOM      7  C5  OXE d   1      -0.425  -1.633   1.654  0.00  0.00    -0.002 A 
ATOM      8  C6  OXE d   1      -1.714  -1.186   1.383  0.00  0.00     0.003 A 
ENDROOT
TORSDOF 0
ENDMDL
