MODEL 1
REMARK minimizedAffinity 1.21362782
REMARK minimizedRMSD -1
REMARK  0 active torsions:
REMARK  status: ('A' for Active; 'I' for Inactive)
ROOT
ATOM      1  C2' OXE d   1       1.846  -1.925   0.395  0.00  0.00     0.078 C 
ATOM      2  C1' OXE d   1      -0.191  -1.102  -1.354  0.00  0.00     0.078 C 
ATOM      3  C1  OXE d   1       0.953  -0.150  -1.108  0.00  0.00    -0.078 A 
ATOM      4  C2  OXE d   1       1.921  -0.541  -0.215  0.00  0.00    -0.078 A 
ATOM      5  C3  OXE d   1       3.026   0.276   0.006  0.00  0.00     0.003 A 
ATOM      6  C4  OXE d   1       3.083   1.558  -0.554  0.00  0.00    -0.002 A 
ATOM      7  C5  OXE d   1       2.087   1.992  -1.435  0.00  0.00    -0.002 A 
ATOM      8  C6  OXE d   1       1.040   1.136  -1.755  0.00  0.00     0.003 A 
ENDROOT
TORSDOF 0
ENDMDL
