MODEL 1
REMARK minimizedAffinity 7.60984564
REMARK minimizedRMSD -1
REMARK  0 active torsions:
REMARK  status: ('A' for Active; 'I' for Inactive)
ROOT
ATOM      1  C2' OXE d   1      -1.827  -0.751   2.612  0.00  0.00     0.078 C 
ATOM      2  C1' OXE d   1      -3.591  -0.532   0.439  0.00  0.00     0.078 C 
ATOM      3  C1  OXE d   1      -3.974   0.151   1.728  0.00  0.00    -0.078 A 
ATOM      4  C2  OXE d   1      -3.127  -0.000   2.800  0.00  0.00    -0.078 A 
ATOM      5  C3  OXE d   1      -3.406   0.655   3.996  0.00  0.00     0.003 A 
ATOM      6  C4  OXE d   1      -4.615   1.339   4.165  0.00  0.00    -0.002 A 
ATOM      7  C5  OXE d   1      -5.511   1.472   3.098  0.00  0.00    -0.002 A 
ATOM      8  C6  OXE d   1      -5.186   0.921   1.863  0.00  0.00     0.003 A 
ENDROOT
TORSDOF 0
ENDMDL
