MODEL 1
REMARK minimizedAffinity -3.21317625
REMARK minimizedRMSD -1
REMARK  0 active torsions:
REMARK  status: ('A' for Active; 'I' for Inactive)
ROOT
ATOM      1  C2' OXE d   1      -2.972  -0.090   1.383  0.00  0.00     0.078 C 
ATOM      2  C1' OXE d   1      -0.798  -1.275   2.706  0.00  0.00     0.078 C 
ATOM      3  C1  OXE d   1      -0.520  -0.526   1.427  0.00  0.00    -0.078 A 
ATOM      4  C2  OXE d   1      -1.596   0.011   0.762  0.00  0.00    -0.078 A 
ATOM      5  C3  OXE d   1      -1.388   0.758  -0.394  0.00  0.00     0.003 A 
ATOM      6  C4  OXE d   1      -0.113   0.838  -0.967  0.00  0.00    -0.002 A 
ATOM      7  C5  OXE d   1       0.990   0.265  -0.327  0.00  0.00    -0.002 A 
ATOM      8  C6  OXE d   1       0.811  -0.383   0.890  0.00  0.00     0.003 A 
ENDROOT
TORSDOF 0
ENDMDL
