MODEL 1
REMARK minimizedAffinity -2.83596516
REMARK minimizedRMSD -1
REMARK  1 active torsions:
REMARK  status: ('A' for Active; 'I' for Inactive)
REMARK    1  A    between atoms: C1_2  and  C2_3 
ROOT
ATOM      1  C2  UNL d   1       0.733   0.334   0.351  0.00  0.00    -0.076 A 
ATOM      2  C3  UNL d   1       0.487   1.479  -0.425  0.00  0.00     0.004 A 
ATOM      3  C4  UNL d   1      -0.659   1.580  -1.213  0.00  0.00    -0.003 A 
ATOM      4  C5  UNL d   1      -1.577   0.535  -1.237  0.00  0.00     0.000 A 
ATOM      5  C6  UNL d   1      -1.357  -0.601  -0.460  0.00  0.00     0.000 A 
ATOM      6  C7  UNL d   1      -0.215  -0.711   0.352  0.00  0.00    -0.073 A 
ATOM      7  C8  UNL d   1      -0.026  -1.963   1.165  0.00  0.00     0.078 C 
ENDROOT
BRANCH   1   8
ATOM      8  C1  UNL d   1       2.006   0.270   1.165  0.00  0.00     0.053 C 
ATOM      9  C   UNL d   1       3.175  -0.298   0.375  0.00  0.00     0.018 C 
ENDBRANCH   1   8
TORSDOF 1
ENDMDL
