MODEL 1
REMARK minimizedAffinity -5.03383636
REMARK minimizedRMSD -1
REMARK  1 active torsions:
REMARK  status: ('A' for Active; 'I' for Inactive)
REMARK    1  A    between atoms: C1_2  and  C2_3 
ROOT
ATOM      1  C2  UNL d   1       0.649  -0.399   0.715  0.00  0.00    -0.076 A 
ATOM      2  C3  UNL d   1      -0.223  -1.392   1.196  0.00  0.00     0.004 A 
ATOM      3  C4  UNL d   1       0.225  -2.378   2.072  0.00  0.00    -0.003 A 
ATOM      4  C5  UNL d   1       1.554  -2.387   2.484  0.00  0.00     0.000 A 
ATOM      5  C6  UNL d   1       2.428  -1.400   2.031  0.00  0.00     0.000 A 
ATOM      6  C7  UNL d   1       1.988  -0.389   1.160  0.00  0.00    -0.073 A 
ATOM      7  C8  UNL d   1       2.976   0.647   0.698  0.00  0.00     0.078 C 
ENDROOT
BRANCH   1   8
ATOM      8  C1  UNL d   1       0.112   0.629  -0.255  0.00  0.00     0.053 C 
ATOM      9  C   UNL d   1      -1.382   0.478  -0.496  0.00  0.00     0.018 C 
ENDBRANCH   1   8
TORSDOF 1
ENDMDL
