MODEL 1
REMARK minimizedAffinity -2.91399169
REMARK minimizedRMSD -1
REMARK  0 active torsions:
REMARK  status: ('A' for Active; 'I' for Inactive)
ROOT
ATOM      1  C4' PXY d   1       2.267   2.248  -0.219  0.00  0.00     0.077 C 
ATOM      2  C1' PXY d   1      -0.790  -1.320   3.149  0.00  0.00     0.077 C 
ATOM      3  C1  PXY d   1       0.007  -0.390   2.255  0.00  0.00    -0.082 A 
ATOM      4  C2  PXY d   1       1.095   0.197   2.726  0.00  0.00     0.003 A 
ATOM      5  C3  PXY d   1       1.810   1.065   1.942  0.00  0.00     0.003 A 
ATOM      6  C4  PXY d   1       1.437   1.294   0.644  0.00  0.00    -0.082 A 
ATOM      7  C5  PXY d   1       0.334   0.690   0.153  0.00  0.00     0.003 A 
ATOM      8  C6  PXY d   1      -0.401  -0.156   0.978  0.00  0.00     0.003 A 
ENDROOT
TORSDOF 0
ENDMDL
