MODEL 1
REMARK minimizedAffinity -4.00591135
REMARK minimizedRMSD -1
REMARK  0 active torsions:
REMARK  status: ('A' for Active; 'I' for Inactive)
ROOT
ATOM      1  C4' PXY d   1       0.891  -0.717  -2.055  0.00  0.00     0.077 C 
ATOM      2  C1' PXY d   1      -0.185   0.180   3.554  0.00  0.00     0.077 C 
ATOM      3  C1  PXY d   1       0.085  -0.060   2.081  0.00  0.00    -0.082 A 
ATOM      4  C2  PXY d   1       1.331  -0.200   1.659  0.00  0.00     0.003 A 
ATOM      5  C3  PXY d   1       1.595  -0.386   0.327  0.00  0.00     0.003 A 
ATOM      6  C4  PXY d   1       0.570  -0.482  -0.576  0.00  0.00    -0.082 A 
ATOM      7  C5  PXY d   1      -0.705  -0.351  -0.152  0.00  0.00     0.003 A 
ATOM      8  C6  PXY d   1      -0.949  -0.122   1.199  0.00  0.00     0.003 A 
ENDROOT
TORSDOF 0
ENDMDL
