MODEL 1
REMARK minimizedAffinity -2.74441338
REMARK minimizedRMSD -1
REMARK  0 active torsions:
REMARK  status: ('A' for Active; 'I' for Inactive)
ROOT
ATOM      1  C4' PXY d   1      -2.510   0.334   0.686  0.00  0.00     0.077 C 
ATOM      2  C1' PXY d   1       3.180   0.037   1.662  0.00  0.00     0.077 C 
ATOM      3  C1  PXY d   1       1.685   0.108   1.417  0.00  0.00    -0.082 A 
ATOM      4  C2  PXY d   1       1.233   0.316   0.191  0.00  0.00     0.003 A 
ATOM      5  C3  PXY d   1      -0.115   0.415  -0.044  0.00  0.00     0.003 A 
ATOM      6  C4  PXY d   1      -1.010   0.246   0.978  0.00  0.00    -0.082 A 
ATOM      7  C5  PXY d   1      -0.556   0.022   2.230  0.00  0.00     0.003 A 
ATOM      8  C6  PXY d   1       0.816  -0.033   2.454  0.00  0.00     0.003 A 
ENDROOT
TORSDOF 0
ENDMDL
