MODEL 1
REMARK minimizedAffinity -2.08465028
REMARK minimizedRMSD -1
REMARK  0 active torsions:
REMARK  status: ('A' for Active; 'I' for Inactive)
ROOT
ATOM      1  C4' PXY d   1       4.073   4.144   0.266  0.00  0.00     0.077 C 
ATOM      2  C1' PXY d   1       0.020   0.056  -0.252  0.00  0.00     0.077 C 
ATOM      3  C1  PXY d   1       1.081   1.131  -0.129  0.00  0.00    -0.082 A 
ATOM      4  C2  PXY d   1       2.009   1.030   0.809  0.00  0.00     0.003 A 
ATOM      5  C3  PXY d   1       2.957   2.009   0.955  0.00  0.00     0.003 A 
ATOM      6  C4  PXY d   1       2.988   3.077   0.098  0.00  0.00    -0.082 A 
ATOM      7  C5  PXY d   1       2.051   3.182  -0.868  0.00  0.00     0.003 A 
ATOM      8  C6  PXY d   1       1.073   2.198  -0.973  0.00  0.00     0.003 A 
ENDROOT
TORSDOF 0
ENDMDL
