MODEL 1
REMARK minimizedAffinity -5.45720816
REMARK minimizedRMSD -1
REMARK  0 active torsions:
REMARK  status: ('A' for Active; 'I' for Inactive)
ROOT
ATOM      1  C4' PXY d   1       1.619   1.982  -1.167  0.00  0.00     0.077 C 
ATOM      2  C1' PXY d   1      -0.453  -1.518   2.940  0.00  0.00     0.077 C 
ATOM      3  C1  PXY d   1       0.098  -0.594   1.872  0.00  0.00    -0.082 A 
ATOM      4  C2  PXY d   1      -0.615  -0.353   0.784  0.00  0.00     0.003 A 
ATOM      5  C3  PXY d   1      -0.118   0.454  -0.207  0.00  0.00     0.003 A 
ATOM      6  C4  PXY d   1       1.098   1.064  -0.058  0.00  0.00    -0.082 A 
ATOM      7  C5  PXY d   1       1.828   0.832   1.054  0.00  0.00     0.003 A 
ATOM      8  C6  PXY d   1       1.323  -0.024   2.029  0.00  0.00     0.003 A 
ENDROOT
TORSDOF 0
ENDMDL
