MODEL 1
REMARK minimizedAffinity -0.586245537
REMARK minimizedRMSD -1
REMARK  0 active torsions:
REMARK  status: ('A' for Active; 'I' for Inactive)
ROOT
ATOM      1  C4' PXY d   1       1.489  -0.084   1.160  0.00  0.00     0.077 C 
ATOM      2  C1' PXY d   1      -3.728   0.028  -1.329  0.00  0.00     0.077 C 
ATOM      3  C1  PXY d   1      -2.365  -0.003  -0.664  0.00  0.00    -0.082 A 
ATOM      4  C2  PXY d   1      -1.332   0.566  -1.264  0.00  0.00     0.003 A 
ATOM      5  C3  PXY d   1      -0.087   0.519  -0.693  0.00  0.00     0.003 A 
ATOM      6  C4  PXY d   1       0.093  -0.069   0.531  0.00  0.00    -0.082 A 
ATOM      7  C5  PXY d   1      -0.958  -0.642   1.154  0.00  0.00     0.003 A 
ATOM      8  C6  PXY d   1      -2.206  -0.620   0.538  0.00  0.00     0.003 A 
ENDROOT
TORSDOF 0
ENDMDL
