MODEL 1
REMARK minimizedAffinity 0.189404756
REMARK minimizedRMSD -1
REMARK  0 active torsions:
REMARK  status: ('A' for Active; 'I' for Inactive)
ROOT
ATOM      1  C4' PXY d   1      -2.344  -1.034  -5.869  0.00  0.00     0.077 C 
ATOM      2  C1' PXY d   1       2.474  -1.944  -2.809  0.00  0.00     0.077 C 
ATOM      3  C1  PXY d   1       1.213  -1.692  -3.611  0.00  0.00    -0.082 A 
ATOM      4  C2  PXY d   1       0.231  -2.579  -3.581  0.00  0.00     0.003 A 
ATOM      5  C3  PXY d   1      -0.903  -2.382  -4.326  0.00  0.00     0.003 A 
ATOM      6  C4  PXY d   1      -1.056  -1.242  -5.068  0.00  0.00    -0.082 A 
ATOM      7  C5  PXY d   1      -0.063  -0.328  -5.095  0.00  0.00     0.003 A 
ATOM      8  C6  PXY d   1       1.097  -0.565  -4.365  0.00  0.00     0.003 A 
ENDROOT
TORSDOF 0
ENDMDL
