MODEL 1
REMARK minimizedAffinity 10.1456404
REMARK minimizedRMSD -1
REMARK  0 active torsions:
REMARK  status: ('A' for Active; 'I' for Inactive)
ROOT
ATOM      1  C4' PXY d   1       0.247   0.572  -0.282  0.00  0.00     0.077 C 
ATOM      2  C1' PXY d   1      -0.700  -2.965  -4.754  0.00  0.00     0.077 C 
ATOM      3  C1  PXY d   1      -0.463  -2.031  -3.584  0.00  0.00    -0.082 A 
ATOM      4  C2  PXY d   1       0.765  -1.863  -3.120  0.00  0.00     0.003 A 
ATOM      5  C3  PXY d   1       0.993  -1.047  -2.042  0.00  0.00     0.003 A 
ATOM      6  C4  PXY d   1      -0.039  -0.354  -1.467  0.00  0.00    -0.082 A 
ATOM      7  C5  PXY d   1      -1.292  -0.512  -1.942  0.00  0.00     0.003 A 
ATOM      8  C6  PXY d   1      -1.509  -1.377  -3.011  0.00  0.00     0.003 A 
ENDROOT
TORSDOF 0
ENDMDL
