MODEL 1
REMARK minimizedAffinity 1.00374687
REMARK minimizedRMSD -1
REMARK  0 active torsions:
REMARK  status: ('A' for Active; 'I' for Inactive)
ROOT
ATOM      1  C4' PXY d   1       2.447   0.863  -2.390  0.00  0.00     0.077 C 
ATOM      2  C1' PXY d   1       0.553  -4.598  -2.357  0.00  0.00     0.077 C 
ATOM      3  C1  PXY d   1       1.038  -3.161  -2.362  0.00  0.00    -0.082 A 
ATOM      4  C2  PXY d   1       2.092  -2.830  -3.090  0.00  0.00     0.003 A 
ATOM      5  C3  PXY d   1       2.563  -1.542  -3.081  0.00  0.00     0.003 A 
ATOM      6  C4  PXY d   1       1.917  -0.573  -2.362  0.00  0.00    -0.082 A 
ATOM      7  C5  PXY d   1       0.834  -0.901  -1.626  0.00  0.00     0.003 A 
ATOM      8  C6  PXY d   1       0.396  -2.222  -1.616  0.00  0.00     0.003 A 
ENDROOT
TORSDOF 0
ENDMDL
