MODEL 1
REMARK minimizedAffinity 0.175458461
REMARK minimizedRMSD -1
REMARK  0 active torsions:
REMARK  status: ('A' for Active; 'I' for Inactive)
ROOT
ATOM      1  C4' PXY d   1       2.386  -3.707  -3.706  0.00  0.00     0.077 C 
ATOM      2  C1' PXY d   1       2.185   1.391  -0.988  0.00  0.00     0.077 C 
ATOM      3  C1  PXY d   1       2.249   0.057  -1.706  0.00  0.00    -0.082 A 
ATOM      4  C2  PXY d   1       1.132  -0.610  -1.947  0.00  0.00     0.003 A 
ATOM      5  C3  PXY d   1       1.175  -1.833  -2.567  0.00  0.00     0.003 A 
ATOM      6  C4  PXY d   1       2.368  -2.353  -2.992  0.00  0.00    -0.082 A 
ATOM      7  C5  PXY d   1       3.511  -1.673  -2.760  0.00  0.00     0.003 A 
ATOM      8  C6  PXY d   1       3.450  -0.453  -2.093  0.00  0.00     0.003 A 
ENDROOT
TORSDOF 0
ENDMDL
