MODEL 1
REMARK minimizedAffinity 0.956123114
REMARK minimizedRMSD -1
REMARK  0 active torsions:
REMARK  status: ('A' for Active; 'I' for Inactive)
ROOT
ATOM      1  C4' PXY d   1       2.189  -2.304  -2.951  0.00  0.00     0.077 C 
ATOM      2  C1' PXY d   1       2.370   2.955  -0.559  0.00  0.00     0.077 C 
ATOM      3  C1  PXY d   1       2.328   1.581  -1.197  0.00  0.00    -0.082 A 
ATOM      4  C2  PXY d   1       1.489   0.669  -0.732  0.00  0.00     0.003 A 
ATOM      5  C3  PXY d   1       1.460  -0.589  -1.277  0.00  0.00     0.003 A 
ATOM      6  C4  PXY d   1       2.260  -0.901  -2.344  0.00  0.00    -0.082 A 
ATOM      7  C5  PXY d   1       3.111   0.027  -2.831  0.00  0.00     0.003 A 
ATOM      8  C6  PXY d   1       3.154   1.286  -2.237  0.00  0.00     0.003 A 
ENDROOT
TORSDOF 0
ENDMDL
