MODEL 1
REMARK minimizedAffinity 0.552741647
REMARK minimizedRMSD -1
REMARK  0 active torsions:
REMARK  status: ('A' for Active; 'I' for Inactive)
ROOT
ATOM      1  C4' PXY d   1      -0.992  -3.346   1.973  0.00  0.00     0.077 C 
ATOM      2  C1' PXY d   1      -5.999  -6.000   0.829  0.00  0.00     0.077 C 
ATOM      3  C1  PXY d   1      -4.691  -5.293   1.124  0.00  0.00    -0.082 A 
ATOM      4  C2  PXY d   1      -3.579  -6.000   1.252  0.00  0.00     0.003 A 
ATOM      5  C3  PXY d   1      -2.393  -5.380   1.550  0.00  0.00     0.003 A 
ATOM      6  C4  PXY d   1      -2.334  -4.017   1.666  0.00  0.00    -0.082 A 
ATOM      7  C5  PXY d   1      -3.462  -3.287   1.527  0.00  0.00     0.003 A 
ATOM      8  C6  PXY d   1      -4.663  -3.940   1.265  0.00  0.00     0.003 A 
ENDROOT
TORSDOF 0
ENDMDL
