MODEL 1
REMARK minimizedAffinity -0.00240464858
REMARK minimizedRMSD -1
REMARK  0 active torsions:
REMARK  status: ('A' for Active; 'I' for Inactive)
ROOT
ATOM      1  C4' PXY d   1      -6.000   1.930   5.582  0.00  0.00     0.077 C 
ATOM      2  C1' PXY d   1      -1.039   1.925   2.615  0.00  0.00     0.077 C 
ATOM      3  C1  PXY d   1      -2.345   1.935   3.384  0.00  0.00    -0.082 A 
ATOM      4  C2  PXY d   1      -2.358   1.568   4.656  0.00  0.00     0.003 A 
ATOM      5  C3  PXY d   1      -3.535   1.541   5.358  0.00  0.00     0.003 A 
ATOM      6  C4  PXY d   1      -4.703   1.944   4.768  0.00  0.00    -0.082 A 
ATOM      7  C5  PXY d   1      -4.696   2.330   3.474  0.00  0.00     0.003 A 
ATOM      8  C6  PXY d   1      -3.498   2.311   2.767  0.00  0.00     0.003 A 
ENDROOT
TORSDOF 0
ENDMDL
