MODEL 1
REMARK minimizedAffinity 9.50584507
REMARK minimizedRMSD -1
REMARK  0 active torsions:
REMARK  status: ('A' for Active; 'I' for Inactive)
ROOT
ATOM      1  C4' PXY d   1       2.999  -0.759  -4.125  0.00  0.00     0.077 C 
ATOM      2  C1' PXY d   1      -1.980  -3.284  -5.623  0.00  0.00     0.077 C 
ATOM      3  C1  PXY d   1      -0.668  -2.631  -5.237  0.00  0.00    -0.082 A 
ATOM      4  C2  PXY d   1      -0.610  -1.865  -4.160  0.00  0.00     0.003 A 
ATOM      5  C3  PXY d   1       0.561  -1.241  -3.813  0.00  0.00     0.003 A 
ATOM      6  C4  PXY d   1       1.698  -1.446  -4.548  0.00  0.00    -0.082 A 
ATOM      7  C5  PXY d   1       1.650  -2.235  -5.642  0.00  0.00     0.003 A 
ATOM      8  C6  PXY d   1       0.442  -2.826  -6.000  0.00  0.00     0.003 A 
ENDROOT
TORSDOF 0
ENDMDL
