MODEL 1
REMARK minimizedAffinity 6.22589397
REMARK minimizedRMSD -1
REMARK  0 active torsions:
REMARK  status: ('A' for Active; 'I' for Inactive)
ROOT
ATOM      1  C4' PXY d   1      -3.527   1.178   5.609  0.00  0.00     0.077 C 
ATOM      2  C1' PXY d   1       1.745   2.960   4.045  0.00  0.00     0.077 C 
ATOM      3  C1  PXY d   1       0.361   2.489   4.443  0.00  0.00    -0.082 A 
ATOM      4  C2  PXY d   1      -0.250   3.048   5.475  0.00  0.00     0.003 A 
ATOM      5  C3  PXY d   1      -1.489   2.612   5.868  0.00  0.00     0.003 A 
ATOM      6  C4  PXY d   1      -2.132   1.629   5.166  0.00  0.00    -0.082 A 
ATOM      7  C5  PXY d   1      -1.521   1.060   4.105  0.00  0.00     0.003 A 
ATOM      8  C6  PXY d   1      -0.246   1.489   3.747  0.00  0.00     0.003 A 
ENDROOT
TORSDOF 0
ENDMDL
