MODEL 1
REMARK minimizedAffinity 1.98433995
REMARK minimizedRMSD -1
REMARK  0 active torsions:
REMARK  status: ('A' for Active; 'I' for Inactive)
ROOT
ATOM      1  C4' PXY d   1      -5.524  -3.758   0.745  0.00  0.00     0.077 C 
ATOM      2  C1' PXY d   1      -0.294  -5.707   2.250  0.00  0.00     0.077 C 
ATOM      3  C1  PXY d   1      -1.662  -5.184   1.858  0.00  0.00    -0.082 A 
ATOM      4  C2  PXY d   1      -2.704  -6.000   1.873  0.00  0.00     0.003 A 
ATOM      5  C3  PXY d   1      -3.942  -5.552   1.491  0.00  0.00     0.003 A 
ATOM      6  C4  PXY d   1      -4.126  -4.241   1.141  0.00  0.00    -0.082 A 
ATOM      7  C5  PXY d   1      -3.071  -3.399   1.134  0.00  0.00     0.003 A 
ATOM      8  C6  PXY d   1      -1.815  -3.884   1.485  0.00  0.00     0.003 A 
ENDROOT
TORSDOF 0
ENDMDL
