MODEL 1
REMARK minimizedAffinity 0.817606449
REMARK minimizedRMSD -1
REMARK  0 active torsions:
REMARK  status: ('A' for Active; 'I' for Inactive)
ROOT
ATOM      1  C4' PXY d   1      -1.846  -5.293   1.887  0.00  0.00     0.077 C 
ATOM      2  C1' PXY d   1       3.712  -5.227   3.473  0.00  0.00     0.077 C 
ATOM      3  C1  PXY d   1       2.251  -5.241   3.069  0.00  0.00    -0.082 A 
ATOM      4  C2  PXY d   1       1.859  -5.999   2.058  0.00  0.00     0.003 A 
ATOM      5  C3  PXY d   1       0.547  -5.999   1.659  0.00  0.00     0.003 A 
ATOM      6  C4  PXY d   1      -0.383  -5.256   2.336  0.00  0.00    -0.082 A 
ATOM      7  C5  PXY d   1       0.007  -4.487   3.375  0.00  0.00     0.003 A 
ATOM      8  C6  PXY d   1       1.351  -4.470   3.738  0.00  0.00     0.003 A 
ENDROOT
TORSDOF 0
ENDMDL
