MODEL 1
REMARK minimizedAffinity 0.0270172954
REMARK minimizedRMSD -1
REMARK  0 active torsions:
REMARK  status: ('A' for Active; 'I' for Inactive)
ROOT
ATOM      1  C4' PXY d   1      -5.989  -3.369   0.778  0.00  0.00     0.077 C 
ATOM      2  C1' PXY d   1      -0.871  -5.999   0.224  0.00  0.00     0.077 C 
ATOM      3  C1  PXY d   1      -2.208  -5.300   0.376  0.00  0.00    -0.082 A 
ATOM      4  C2  PXY d   1      -3.327  -6.000   0.280  0.00  0.00     0.003 A 
ATOM      5  C3  PXY d   1      -4.544  -5.378   0.383  0.00  0.00     0.003 A 
ATOM      6  C4  PXY d   1      -4.617  -4.035   0.641  0.00  0.00    -0.082 A 
ATOM      7  C5  PXY d   1      -3.480  -3.316   0.751  0.00  0.00     0.003 A 
ATOM      8  C6  PXY d   1      -2.254  -3.959   0.602  0.00  0.00     0.003 A 
ENDROOT
TORSDOF 0
ENDMDL
