MODEL 1
REMARK minimizedAffinity 4.24846172
REMARK minimizedRMSD -1
REMARK  0 active torsions:
REMARK  status: ('A' for Active; 'I' for Inactive)
ROOT
ATOM      1  C4' PXY d   1       0.436  -0.438   0.369  0.00  0.00     0.077 C 
ATOM      2  C1' PXY d   1      -0.230   3.065   4.919  0.00  0.00     0.077 C 
ATOM      3  C1  PXY d   1      -0.067   2.141   3.728  0.00  0.00    -0.082 A 
ATOM      4  C2  PXY d   1       1.145   1.780   3.341  0.00  0.00     0.003 A 
ATOM      5  C3  PXY d   1       1.312   0.971   2.246  0.00  0.00     0.003 A 
ATOM      6  C4  PXY d   1       0.224   0.485   1.572  0.00  0.00    -0.082 A 
ATOM      7  C5  PXY d   1      -1.017   0.841   1.967  0.00  0.00     0.003 A 
ATOM      8  C6  PXY d   1      -1.163   1.695   3.056  0.00  0.00     0.003 A 
ENDROOT
TORSDOF 0
ENDMDL
