MODEL 1
REMARK minimizedAffinity -3.04588008
REMARK minimizedRMSD -1
REMARK  0 active torsions:
REMARK  status: ('A' for Active; 'I' for Inactive)
ROOT
ATOM      1  C4' PXY d   1      -5.871  -3.855   0.311  0.00  0.00     0.077 C 
ATOM      2  C1' PXY d   1      -0.640  -5.627   2.018  0.00  0.00     0.077 C 
ATOM      3  C1  PXY d   1      -2.009  -5.150   1.573  0.00  0.00    -0.082 A 
ATOM      4  C2  PXY d   1      -3.022  -6.000   1.552  0.00  0.00     0.003 A 
ATOM      5  C3  PXY d   1      -4.259  -5.593   1.123  0.00  0.00     0.003 A 
ATOM      6  C4  PXY d   1      -4.474  -4.290   0.761  0.00  0.00    -0.082 A 
ATOM      7  C5  PXY d   1      -3.447  -3.414   0.791  0.00  0.00     0.003 A 
ATOM      8  C6  PXY d   1      -2.189  -3.857   1.191  0.00  0.00     0.003 A 
ENDROOT
TORSDOF 0
ENDMDL
