MODEL 1
REMARK minimizedAffinity 6.41656542
REMARK minimizedRMSD -1
REMARK  3 active torsions:
REMARK  status: ('A' for Active; 'I' for Inactive)
REMARK    1  A    between atoms: C3'_2  and  C2'_3 
REMARK    2  A    between atoms: C2'_3  and  C1'_4 
REMARK    3  A    between atoms: C1'_4  and  C1_5 
ROOT
ATOM      1  C1  N4B d   1       5.862  -2.475   4.748  0.00  0.00    -0.075 A 
ATOM      2  C2  N4B d   1       5.949  -3.183   5.967  0.00  0.00     0.002 A 
ATOM      3  C3  N4B d   1       5.738  -4.540   5.988  0.00  0.00     0.002 A 
ATOM      4  C4  N4B d   1       5.421  -5.204   4.813  0.00  0.00    -0.004 A 
ATOM      5  C5  N4B d   1       5.364  -4.517   3.636  0.00  0.00     0.002 A 
ATOM      6  C6  N4B d   1       5.578  -3.153   3.598  0.00  0.00     0.002 A 
ENDROOT
BRANCH   1   7
ATOM      7  C1' N4B d   1       6.000  -0.978   4.688  0.00  0.00     0.057 C 
BRANCH   7   8
ATOM      8  C2' N4B d   1       4.709  -0.378   4.140  0.00  0.00     0.009 C 
BRANCH   8   9
ATOM      9  C3' N4B d   1       4.454  -0.795   2.702  0.00  0.00     0.004 C 
ATOM     10  C4' N4B d   1       4.534   0.353   1.741  0.00  0.00     0.003 C 
ENDBRANCH   8   9
ENDBRANCH   7   8
ENDBRANCH   1   7
TORSDOF 3
ENDMDL
