MODEL 1
REMARK minimizedAffinity 14.9800835
REMARK minimizedRMSD -1
REMARK  3 active torsions:
REMARK  status: ('A' for Active; 'I' for Inactive)
REMARK    1  A    between atoms: C3'_2  and  C2'_3 
REMARK    2  A    between atoms: C2'_3  and  C1'_4 
REMARK    3  A    between atoms: C1'_4  and  C1_5 
ROOT
ATOM      1  C1  N4B d   1       3.422   3.945  -2.701  0.00  0.00    -0.075 A 
ATOM      2  C2  N4B d   1       3.752   2.575  -2.615  0.00  0.00     0.002 A 
ATOM      3  C3  N4B d   1       3.288   1.822  -1.564  0.00  0.00     0.002 A 
ATOM      4  C4  N4B d   1       2.511   2.419  -0.583  0.00  0.00    -0.004 A 
ATOM      5  C5  N4B d   1       2.175   3.737  -0.687  0.00  0.00     0.002 A 
ATOM      6  C6  N4B d   1       2.632   4.505  -1.740  0.00  0.00     0.002 A 
ENDROOT
BRANCH   1   7
ATOM      7  C1' N4B d   1       3.977   4.829  -3.784  0.00  0.00     0.057 C 
BRANCH   7   8
ATOM      8  C2' N4B d   1       4.645   3.961  -4.846  0.00  0.00     0.009 C 
BRANCH   8   9
ATOM      9  C3' N4B d   1       3.676   3.562  -5.946  0.00  0.00     0.004 C 
ATOM     10  C4' N4B d   1       3.426   2.084  -5.993  0.00  0.00     0.003 C 
ENDBRANCH   8   9
ENDBRANCH   7   8
ENDBRANCH   1   7
TORSDOF 3
ENDMDL
