MODEL 1
REMARK minimizedAffinity 9.99567127
REMARK minimizedRMSD -1
REMARK  3 active torsions:
REMARK  status: ('A' for Active; 'I' for Inactive)
REMARK    1  A    between atoms: C3'_2  and  C2'_3 
REMARK    2  A    between atoms: C2'_3  and  C1'_4 
REMARK    3  A    between atoms: C1'_4  and  C1_5 
ROOT
ATOM      1  C1  N4B d   1      -4.590  -3.776   0.051  0.00  0.00    -0.075 A 
ATOM      2  C2  N4B d   1      -4.448  -3.706   1.455  0.00  0.00     0.002 A 
ATOM      3  C3  N4B d   1      -3.963  -4.786   2.150  0.00  0.00     0.002 A 
ATOM      4  C4  N4B d   1      -3.631  -5.948   1.470  0.00  0.00    -0.004 A 
ATOM      5  C5  N4B d   1      -3.747  -5.999   0.111  0.00  0.00     0.002 A 
ATOM      6  C6  N4B d   1      -4.230  -4.919  -0.601  0.00  0.00     0.002 A 
ENDROOT
BRANCH   1   7
ATOM      7  C1' N4B d   1      -5.197  -2.652  -0.743  0.00  0.00     0.057 C 
BRANCH   7   8
ATOM      8  C2' N4B d   1      -5.597  -3.171  -2.120  0.00  0.00     0.009 C 
BRANCH   8   9
ATOM      9  C3' N4B d   1      -5.999  -2.044  -3.057  0.00  0.00     0.004 C 
ATOM     10  C4' N4B d   1      -5.536  -0.700  -2.581  0.00  0.00     0.003 C 
ENDBRANCH   8   9
ENDBRANCH   7   8
ENDBRANCH   1   7
TORSDOF 3
ENDMDL
