MODEL 1
REMARK minimizedAffinity 13.9882965
REMARK minimizedRMSD -1
REMARK  3 active torsions:
REMARK  status: ('A' for Active; 'I' for Inactive)
REMARK    1  A    between atoms: C3'_2  and  C2'_3 
REMARK    2  A    between atoms: C2'_3  and  C1'_4 
REMARK    3  A    between atoms: C1'_4  and  C1_5 
ROOT
ATOM      1  C1  N4B d   1       2.989   3.803  -2.151  0.00  0.00    -0.075 A 
ATOM      2  C2  N4B d   1       3.658   3.162  -3.217  0.00  0.00     0.002 A 
ATOM      3  C3  N4B d   1       4.179   3.907  -4.247  0.00  0.00     0.002 A 
ATOM      4  C4  N4B d   1       4.028   5.285  -4.241  0.00  0.00    -0.004 A 
ATOM      5  C5  N4B d   1       3.403   5.898  -3.194  0.00  0.00     0.002 A 
ATOM      6  C6  N4B d   1       2.878   5.163  -2.151  0.00  0.00     0.002 A 
ENDROOT
BRANCH   1   7
ATOM      7  C1' N4B d   1       2.328   3.024  -1.046  0.00  0.00     0.057 C 
BRANCH   7   8
ATOM      8  C2' N4B d   1       1.250   2.125  -1.643  0.00  0.00     0.009 C 
BRANCH   8   9
ATOM      9  C3' N4B d   1       1.645   0.658  -1.599  0.00  0.00     0.004 C 
ATOM     10  C4' N4B d   1       1.685   0.027  -2.959  0.00  0.00     0.003 C 
ENDBRANCH   8   9
ENDBRANCH   7   8
ENDBRANCH   1   7
TORSDOF 3
ENDMDL
