MODEL 1
REMARK minimizedAffinity 11.4138546
REMARK minimizedRMSD -1
REMARK  3 active torsions:
REMARK  status: ('A' for Active; 'I' for Inactive)
REMARK    1  A    between atoms: C3'_2  and  C2'_3 
REMARK    2  A    between atoms: C2'_3  and  C1'_4 
REMARK    3  A    between atoms: C1'_4  and  C1_5 
ROOT
ATOM      1  C1  N4B d   1      -2.146  -1.334   1.857  0.00  0.00    -0.075 A 
ATOM      2  C2  N4B d   1      -1.182  -2.112   1.179  0.00  0.00     0.002 A 
ATOM      3  C3  N4B d   1      -1.456  -3.420   0.860  0.00  0.00     0.002 A 
ATOM      4  C4  N4B d   1      -2.674  -3.973   1.224  0.00  0.00    -0.004 A 
ATOM      5  C5  N4B d   1      -3.610  -3.208   1.856  0.00  0.00     0.002 A 
ATOM      6  C6  N4B d   1      -3.349  -1.891   2.179  0.00  0.00     0.002 A 
ENDROOT
BRANCH   1   7
ATOM      7  C1' N4B d   1      -1.859   0.074   2.303  0.00  0.00     0.057 C 
BRANCH   7   8
ATOM      8  C2' N4B d   1      -1.600   0.944   1.077  0.00  0.00     0.009 C 
BRANCH   8   9
ATOM      9  C3' N4B d   1      -2.757   1.887   0.795  0.00  0.00     0.004 C 
ATOM     10  C4' N4B d   1      -2.890   2.968   1.826  0.00  0.00     0.003 C 
ENDBRANCH   8   9
ENDBRANCH   7   8
ENDBRANCH   1   7
TORSDOF 3
ENDMDL
