MODEL 1
REMARK minimizedAffinity 3.2343123
REMARK minimizedRMSD -1
REMARK  3 active torsions:
REMARK  status: ('A' for Active; 'I' for Inactive)
REMARK    1  A    between atoms: C3'_2  and  C2'_3 
REMARK    2  A    between atoms: C2'_3  and  C1'_4 
REMARK    3  A    between atoms: C1'_4  and  C1_5 
ROOT
ATOM      1  C1  N4B d   1       2.273   2.608  -3.500  0.00  0.00    -0.075 A 
ATOM      2  C2  N4B d   1       3.279   2.562  -4.490  0.00  0.00     0.002 A 
ATOM      3  C3  N4B d   1       3.579   3.689  -5.217  0.00  0.00     0.002 A 
ATOM      4  C4  N4B d   1       2.876   4.861  -4.985  0.00  0.00    -0.004 A 
ATOM      5  C5  N4B d   1       1.923   4.904  -4.010  0.00  0.00     0.002 A 
ATOM      6  C6  N4B d   1       1.614   3.781  -3.269  0.00  0.00     0.002 A 
ENDROOT
BRANCH   1   7
ATOM      7  C1' N4B d   1       1.852   1.381  -2.739  0.00  0.00     0.057 C 
BRANCH   7   8
ATOM      8  C2' N4B d   1       2.215   0.140  -3.550  0.00  0.00     0.009 C 
BRANCH   8   9
ATOM      9  C3' N4B d   1       1.355  -1.055  -3.175  0.00  0.00     0.004 C 
ATOM     10  C4' N4B d   1       0.778  -1.753  -4.371  0.00  0.00     0.003 C 
ENDBRANCH   8   9
ENDBRANCH   7   8
ENDBRANCH   1   7
TORSDOF 3
ENDMDL
