MODEL 1
REMARK minimizedAffinity 7.6777854
REMARK minimizedRMSD -1
REMARK  3 active torsions:
REMARK  status: ('A' for Active; 'I' for Inactive)
REMARK    1  A    between atoms: C3'_2  and  C2'_3 
REMARK    2  A    between atoms: C2'_3  and  C1'_4 
REMARK    3  A    between atoms: C1'_4  and  C1_5 
ROOT
ATOM      1  C1  N4B d   1       0.826  -0.445   3.762  0.00  0.00    -0.075 A 
ATOM      2  C2  N4B d   1       0.457   0.864   3.381  0.00  0.00     0.002 A 
ATOM      3  C3  N4B d   1       1.389   1.705   2.825  0.00  0.00     0.002 A 
ATOM      4  C4  N4B d   1       2.694   1.268   2.657  0.00  0.00    -0.004 A 
ATOM      5  C5  N4B d   1       3.037  -0.006   3.003  0.00  0.00     0.002 A 
ATOM      6  C6  N4B d   1       2.110  -0.864   3.560  0.00  0.00     0.002 A 
ENDROOT
BRANCH   1   7
ATOM      7  C1' N4B d   1      -0.136  -1.372   4.453  0.00  0.00     0.057 C 
BRANCH   7   8
ATOM      8  C2' N4B d   1      -1.518  -0.727   4.486  0.00  0.00     0.009 C 
BRANCH   8   9
ATOM      9  C3' N4B d   1      -2.104  -0.710   5.887  0.00  0.00     0.004 C 
ATOM     10  C4' N4B d   1      -3.374  -1.500   5.995  0.00  0.00     0.003 C 
ENDBRANCH   8   9
ENDBRANCH   7   8
ENDBRANCH   1   7
TORSDOF 3
ENDMDL
