MODEL 1
REMARK minimizedAffinity 9.30822849
REMARK minimizedRMSD -1
REMARK  3 active torsions:
REMARK  status: ('A' for Active; 'I' for Inactive)
REMARK    1  A    between atoms: C3'_2  and  C2'_3 
REMARK    2  A    between atoms: C2'_3  and  C1'_4 
REMARK    3  A    between atoms: C1'_4  and  C1_5 
ROOT
ATOM      1  C1  N4B d   1       1.975   0.366  -2.171  0.00  0.00    -0.075 A 
ATOM      2  C2  N4B d   1       3.057   1.269  -2.084  0.00  0.00     0.002 A 
ATOM      3  C3  N4B d   1       3.085   2.214  -1.088  0.00  0.00     0.002 A 
ATOM      4  C4  N4B d   1       2.038   2.286  -0.182  0.00  0.00    -0.004 A 
ATOM      5  C5  N4B d   1       1.009   1.393  -0.256  0.00  0.00     0.002 A 
ATOM      6  C6  N4B d   1       0.970   0.436  -1.250  0.00  0.00     0.002 A 
ENDROOT
BRANCH   1   7
ATOM      7  C1' N4B d   1       1.858  -0.628  -3.293  0.00  0.00     0.057 C 
BRANCH   7   8
ATOM      8  C2' N4B d   1       1.784   0.121  -4.620  0.00  0.00     0.009 C 
BRANCH   8   9
ATOM      9  C3' N4B d   1       3.093   0.051  -5.387  0.00  0.00     0.004 C 
ATOM     10  C4' N4B d   1       3.479   1.364  -6.000  0.00  0.00     0.003 C 
ENDBRANCH   8   9
ENDBRANCH   7   8
ENDBRANCH   1   7
TORSDOF 3
ENDMDL
