MODEL 1
REMARK minimizedAffinity 4.72005177
REMARK minimizedRMSD -1
REMARK  3 active torsions:
REMARK  status: ('A' for Active; 'I' for Inactive)
REMARK    1  A    between atoms: C3'_2  and  C2'_3 
REMARK    2  A    between atoms: C2'_3  and  C1'_4 
REMARK    3  A    between atoms: C1'_4  and  C1_5 
ROOT
ATOM      1  C1  N4B d   1       1.083   1.530  -1.005  0.00  0.00    -0.075 A 
ATOM      2  C2  N4B d   1       0.187   0.949  -0.080  0.00  0.00     0.002 A 
ATOM      3  C3  N4B d   1       0.188   1.364   1.229  0.00  0.00     0.002 A 
ATOM      4  C4  N4B d   1       1.084   2.340   1.639  0.00  0.00    -0.004 A 
ATOM      5  C5  N4B d   1       1.928   2.914   0.734  0.00  0.00     0.002 A 
ATOM      6  C6  N4B d   1       1.936   2.510  -0.586  0.00  0.00     0.002 A 
ENDROOT
BRANCH   1   7
ATOM      7  C1' N4B d   1       1.178   1.050  -2.427  0.00  0.00     0.057 C 
BRANCH   7   8
ATOM      8  C2' N4B d   1       1.153  -0.476  -2.443  0.00  0.00     0.009 C 
BRANCH   8   9
ATOM      9  C3' N4B d   1       0.383  -1.019  -3.635  0.00  0.00     0.004 C 
ATOM     10  C4' N4B d   1      -0.376   0.045  -4.370  0.00  0.00     0.003 C 
ENDBRANCH   8   9
ENDBRANCH   7   8
ENDBRANCH   1   7
TORSDOF 3
ENDMDL
