MODEL 1
REMARK minimizedAffinity 8.97324276
REMARK minimizedRMSD -1
REMARK  3 active torsions:
REMARK  status: ('A' for Active; 'I' for Inactive)
REMARK    1  A    between atoms: C3'_2  and  C2'_3 
REMARK    2  A    between atoms: C2'_3  and  C1'_4 
REMARK    3  A    between atoms: C1'_4  and  C1_5 
ROOT
ATOM      1  C1  N4B d   1       1.905   1.371  -1.748  0.00  0.00    -0.075 A 
ATOM      2  C2  N4B d   1       2.616   0.921  -2.883  0.00  0.00     0.002 A 
ATOM      3  C3  N4B d   1       2.338  -0.311  -3.422  0.00  0.00     0.002 A 
ATOM      4  C4  N4B d   1       1.371  -1.115  -2.836  0.00  0.00    -0.004 A 
ATOM      5  C5  N4B d   1       0.672  -0.662  -1.755  0.00  0.00     0.002 A 
ATOM      6  C6  N4B d   1       0.938   0.576  -1.205  0.00  0.00     0.002 A 
ENDROOT
BRANCH   1   7
ATOM      7  C1' N4B d   1       2.234   2.674  -1.071  0.00  0.00     0.057 C 
BRANCH   7   8
ATOM      8  C2' N4B d   1       1.889   3.826  -2.010  0.00  0.00     0.009 C 
BRANCH   8   9
ATOM      9  C3' N4B d   1       3.023   4.133  -2.973  0.00  0.00     0.004 C 
ATOM     10  C4' N4B d   1       2.627   5.103  -4.046  0.00  0.00     0.003 C 
ENDBRANCH   8   9
ENDBRANCH   7   8
ENDBRANCH   1   7
TORSDOF 3
ENDMDL
