MODEL 1
REMARK minimizedAffinity 10.6947441
REMARK minimizedRMSD -1
REMARK  3 active torsions:
REMARK  status: ('A' for Active; 'I' for Inactive)
REMARK    1  A    between atoms: C3'_2  and  C2'_3 
REMARK    2  A    between atoms: C2'_3  and  C1'_4 
REMARK    3  A    between atoms: C1'_4  and  C1_5 
ROOT
ATOM      1  C1  N4B d   1       3.316   4.009  -2.618  0.00  0.00    -0.075 A 
ATOM      2  C2  N4B d   1       2.728   4.600  -1.478  0.00  0.00     0.002 A 
ATOM      3  C3  N4B d   1       2.179   3.809  -0.500  0.00  0.00     0.002 A 
ATOM      4  C4  N4B d   1       2.189   2.430  -0.647  0.00  0.00    -0.004 A 
ATOM      5  C5  N4B d   1       2.782   1.865  -1.739  0.00  0.00     0.002 A 
ATOM      6  C6  N4B d   1       3.341   2.648  -2.728  0.00  0.00     0.002 A 
ENDROOT
BRANCH   1   7
ATOM      7  C1' N4B d   1       3.853   4.835  -3.754  0.00  0.00     0.057 C 
BRANCH   7   8
ATOM      8  C2' N4B d   1       4.880   4.015  -4.529  0.00  0.00     0.009 C 
BRANCH   8   9
ATOM      9  C3' N4B d   1       4.235   3.193  -5.633  0.00  0.00     0.004 C 
ATOM     10  C4' N4B d   1       2.866   3.684  -5.998  0.00  0.00     0.003 C 
ENDBRANCH   8   9
ENDBRANCH   7   8
ENDBRANCH   1   7
TORSDOF 3
ENDMDL
