MODEL 1
REMARK minimizedAffinity 10.1717157
REMARK minimizedRMSD -1
REMARK  3 active torsions:
REMARK  status: ('A' for Active; 'I' for Inactive)
REMARK    1  A    between atoms: C3'_2  and  C2'_3 
REMARK    2  A    between atoms: C2'_3  and  C1'_4 
REMARK    3  A    between atoms: C1'_4  and  C1_5 
ROOT
ATOM      1  C1  N4B d   1       3.018   3.594  -2.595  0.00  0.00    -0.075 A 
ATOM      2  C2  N4B d   1       4.198   3.154  -3.235  0.00  0.00     0.002 A 
ATOM      3  C3  N4B d   1       4.838   3.973  -4.132  0.00  0.00     0.002 A 
ATOM      4  C4  N4B d   1       4.310   5.223  -4.418  0.00  0.00    -0.004 A 
ATOM      5  C5  N4B d   1       3.184   5.650  -3.776  0.00  0.00     0.002 A 
ATOM      6  C6  N4B d   1       2.532   4.839  -2.869  0.00  0.00     0.002 A 
ENDROOT
BRANCH   1   7
ATOM      7  C1' N4B d   1       2.236   2.700  -1.672  0.00  0.00     0.057 C 
BRANCH   7   8
ATOM      8  C2' N4B d   1       2.622   1.248  -1.934  0.00  0.00     0.009 C 
BRANCH   8   9
ATOM      9  C3' N4B d   1       1.412   0.386  -2.251  0.00  0.00     0.004 C 
ATOM     10  C4' N4B d   1       1.643  -0.536  -3.411  0.00  0.00     0.003 C 
ENDBRANCH   8   9
ENDBRANCH   7   8
ENDBRANCH   1   7
TORSDOF 3
ENDMDL
