MODEL 1
REMARK minimizedAffinity 5.64580297
REMARK minimizedRMSD -1
REMARK  0 active torsions:
REMARK  status: ('A' for Active; 'I' for Inactive)
ROOT
ATOM      1  N1  IND d   1       0.843  -2.026  -0.366  0.00  0.00    -0.196 N 
ATOM      2  C2  IND d   1       0.962  -0.942   0.458  0.00  0.00     0.054 A 
ATOM      3  C3  IND d   1       1.230   0.170  -0.263  0.00  0.00    -0.031 A 
ATOM      4  C4  IND d   1       1.414   0.460  -2.814  0.00  0.00     0.051 A 
ATOM      5  C5  IND d   1       1.417  -0.250  -3.981  0.00  0.00    -0.031 A 
ATOM      6  C6  IND d   1       1.221  -1.616  -4.004  0.00  0.00     0.015 A 
ATOM      7  C7  IND d   1       1.004  -2.324  -2.856  0.00  0.00    -0.016 A 
ATOM      8  C8  IND d   1       1.008  -1.607  -1.668  0.00  0.00    -0.047 A 
ATOM      9  C9  IND d   1       1.248  -0.227  -1.635  0.00  0.00    -0.096 A 
ATOM     10  HN1 IND d   1       0.690  -2.834  -0.114  0.00  0.00     0.298 HD
ENDROOT
TORSDOF 0
ENDMDL
