MODEL 1
REMARK minimizedAffinity 1.08684921
REMARK minimizedRMSD -1
REMARK  0 active torsions:
REMARK  status: ('A' for Active; 'I' for Inactive)
ROOT
ATOM      1  N1  IND d   1       2.823  -1.114  -0.680  0.00  0.00    -0.196 N 
ATOM      2  C2  IND d   1       2.502  -0.064  -1.495  0.00  0.00     0.054 A 
ATOM      3  C3  IND d   1       1.159   0.053  -1.605  0.00  0.00    -0.031 A 
ATOM      4  C4  IND d   1      -0.700  -1.306  -0.455  0.00  0.00     0.051 A 
ATOM      5  C5  IND d   1      -0.900  -2.392   0.351  0.00  0.00    -0.031 A 
ATOM      6  C6  IND d   1       0.153  -3.119   0.868  0.00  0.00     0.015 A 
ATOM      7  C7  IND d   1       1.450  -2.780   0.605  0.00  0.00    -0.016 A 
ATOM      8  C8  IND d   1       1.656  -1.683  -0.219  0.00  0.00    -0.047 A 
ATOM      9  C9  IND d   1       0.592  -0.967  -0.781  0.00  0.00    -0.096 A 
ATOM     10  HN1 IND d   1       3.619  -1.374  -0.487  0.00  0.00     0.298 HD
ENDROOT
TORSDOF 0
ENDMDL
