MODEL 1
REMARK minimizedAffinity 8.26513195
REMARK minimizedRMSD -1
REMARK  0 active torsions:
REMARK  status: ('A' for Active; 'I' for Inactive)
ROOT
ATOM      1  N1  IND d   1       1.038  -1.861  -1.113  0.00  0.00    -0.196 N 
ATOM      2  C2  IND d   1       1.383  -0.828  -0.286  0.00  0.00     0.054 A 
ATOM      3  C3  IND d   1       1.236   0.355  -0.924  0.00  0.00    -0.031 A 
ATOM      4  C4  IND d   1       0.346   0.837  -3.291  0.00  0.00     0.051 A 
ATOM      5  C5  IND d   1      -0.060   0.213  -4.437  0.00  0.00    -0.031 A 
ATOM      6  C6  IND d   1      -0.125  -1.162  -4.535  0.00  0.00     0.015 A 
ATOM      7  C7  IND d   1       0.205  -1.967  -3.482  0.00  0.00    -0.016 A 
ATOM      8  C8  IND d   1       0.624  -1.337  -2.319  0.00  0.00    -0.047 A 
ATOM      9  C9  IND d   1       0.733   0.056  -2.227  0.00  0.00    -0.096 A 
ATOM     10  HN1 IND d   1       1.074  -2.696  -0.914  0.00  0.00     0.298 HD
ENDROOT
TORSDOF 0
ENDMDL
