MODEL 1
REMARK minimizedAffinity 9.54742527
REMARK minimizedRMSD -1
REMARK  0 active torsions:
REMARK  status: ('A' for Active; 'I' for Inactive)
ROOT
ATOM      1  N1  IND d   1       2.243   1.372  -2.962  0.00  0.00    -0.196 N 
ATOM      2  C2  IND d   1       1.155   1.786  -3.678  0.00  0.00     0.054 A 
ATOM      3  C3  IND d   1       1.531   2.198  -4.910  0.00  0.00    -0.031 A 
ATOM      4  C4  IND d   1       3.865   2.183  -5.996  0.00  0.00     0.051 A 
ATOM      5  C5  IND d   1       5.179   1.929  -5.722  0.00  0.00    -0.031 A 
ATOM      6  C6  IND d   1       5.590   1.464  -4.490  0.00  0.00     0.015 A 
ATOM      7  C7  IND d   1       4.696   1.224  -3.485  0.00  0.00    -0.016 A 
ATOM      8  C8  IND d   1       3.361   1.488  -3.757  0.00  0.00    -0.047 A 
ATOM      9  C9  IND d   1       2.944   2.000  -4.992  0.00  0.00    -0.096 A 
ATOM     10  HN1 IND d   1       2.231   1.087  -2.150  0.00  0.00     0.298 HD
ENDROOT
TORSDOF 0
ENDMDL
