MODEL 1
REMARK minimizedAffinity -0.609290898
REMARK minimizedRMSD -1
REMARK  0 active torsions:
REMARK  status: ('A' for Active; 'I' for Inactive)
ROOT
ATOM      1  N1  IND d   1       0.774   2.438  -4.028  0.00  0.00    -0.196 N 
ATOM      2  C2  IND d   1       1.580   1.896  -4.990  0.00  0.00     0.054 A 
ATOM      3  C3  IND d   1       2.188   0.783  -4.521  0.00  0.00    -0.031 A 
ATOM      4  C4  IND d   1       1.927  -0.387  -2.243  0.00  0.00     0.051 A 
ATOM      5  C5  IND d   1       1.330  -0.246  -1.022  0.00  0.00    -0.031 A 
ATOM      6  C6  IND d   1       0.498   0.817  -0.736  0.00  0.00     0.015 A 
ATOM      7  C7  IND d   1       0.222   1.777  -1.668  0.00  0.00    -0.016 A 
ATOM      8  C8  IND d   1       0.832   1.641  -2.907  0.00  0.00    -0.047 A 
ATOM      9  C9  IND d   1       1.711   0.587  -3.189  0.00  0.00    -0.096 A 
ATOM     10  HN1 IND d   1       0.309   3.157  -4.110  0.00  0.00     0.298 HD
ENDROOT
TORSDOF 0
ENDMDL
