MODEL 1
REMARK minimizedAffinity 11.7991438
REMARK minimizedRMSD -1
REMARK  0 active torsions:
REMARK  status: ('A' for Active; 'I' for Inactive)
ROOT
ATOM      1  N1  IND d   1      -5.990   5.998   4.772  0.00  0.00    -0.196 N 
ATOM      2  C2  IND d   1      -5.391   6.000   6.000  0.00  0.00     0.054 A 
ATOM      3  C3  IND d   1      -4.086   5.662   5.887  0.00  0.00    -0.031 A 
ATOM      4  C4  IND d   1      -2.703   5.166   3.773  0.00  0.00     0.051 A 
ATOM      5  C5  IND d   1      -2.821   5.007   2.421  0.00  0.00    -0.031 A 
ATOM      6  C6  IND d   1      -4.025   5.176   1.770  0.00  0.00     0.015 A 
ATOM      7  C7  IND d   1      -5.159   5.524   2.448  0.00  0.00    -0.016 A 
ATOM      8  C8  IND d   1      -5.045   5.679   3.822  0.00  0.00    -0.047 A 
ATOM      9  C9  IND d   1      -3.834   5.467   4.494  0.00  0.00    -0.096 A 
ATOM     10  HN1 IND d   1      -6.819   6.168   4.618  0.00  0.00     0.298 HD
ENDROOT
TORSDOF 0
ENDMDL
