MODEL 1
REMARK minimizedAffinity 4.60172272
REMARK minimizedRMSD -1
REMARK  0 active torsions:
REMARK  status: ('A' for Active; 'I' for Inactive)
ROOT
ATOM      1  N1  IND d   1       0.593   0.612  -3.510  0.00  0.00    -0.196 N 
ATOM      2  C2  IND d   1       0.744   1.810  -2.869  0.00  0.00     0.054 A 
ATOM      3  C3  IND d   1       0.827   1.621  -1.533  0.00  0.00    -0.031 A 
ATOM      4  C4  IND d   1       0.842  -0.575  -0.189  0.00  0.00     0.051 A 
ATOM      5  C5  IND d   1       0.693  -1.926  -0.332  0.00  0.00    -0.031 A 
ATOM      6  C6  IND d   1       0.502  -2.512  -1.566  0.00  0.00     0.015 A 
ATOM      7  C7  IND d   1       0.464  -1.767  -2.710  0.00  0.00    -0.016 A 
ATOM      8  C8  IND d   1       0.608  -0.394  -2.569  0.00  0.00    -0.047 A 
ATOM      9  C9  IND d   1       0.759   0.211  -1.315  0.00  0.00    -0.096 A 
ATOM     10  HN1 IND d   1       0.504   0.504  -4.359  0.00  0.00     0.298 HD
ENDROOT
TORSDOF 0
ENDMDL
