MODEL 1
REMARK minimizedAffinity 2.70543575
REMARK minimizedRMSD -1
REMARK  0 active torsions:
REMARK  status: ('A' for Active; 'I' for Inactive)
ROOT
ATOM      1  N1  IND d   1       1.128   0.104  -3.924  0.00  0.00    -0.196 N 
ATOM      2  C2  IND d   1       1.602  -1.103  -4.356  0.00  0.00     0.054 A 
ATOM      3  C3  IND d   1       1.681  -1.974  -3.325  0.00  0.00    -0.031 A 
ATOM      4  C4  IND d   1       0.988  -1.664  -0.865  0.00  0.00     0.051 A 
ATOM      5  C5  IND d   1       0.535  -0.722   0.016  0.00  0.00    -0.031 A 
ATOM      6  C6  IND d   1       0.247   0.568  -0.380  0.00  0.00     0.015 A 
ATOM      7  C7  IND d   1       0.393   0.964  -1.680  0.00  0.00    -0.016 A 
ATOM      8  C8  IND d   1       0.859   0.012  -2.575  0.00  0.00    -0.047 A 
ATOM      9  C9  IND d   1       1.193  -1.287  -2.171  0.00  0.00    -0.096 A 
ATOM     10  HN1 IND d   1       1.016   0.803  -4.412  0.00  0.00     0.298 HD
ENDROOT
TORSDOF 0
ENDMDL
