MODEL 1
REMARK minimizedAffinity 7.06317043
REMARK minimizedRMSD -1
REMARK  0 active torsions:
REMARK  status: ('A' for Active; 'I' for Inactive)
ROOT
ATOM      1  N1  IND d   1       1.386  -1.629  -1.920  0.00  0.00    -0.196 N 
ATOM      2  C2  IND d   1       1.178  -1.496  -0.575  0.00  0.00     0.054 A 
ATOM      3  C3  IND d   1       0.902  -0.209  -0.267  0.00  0.00    -0.031 A 
ATOM      4  C4  IND d   1       0.637   1.825  -1.823  0.00  0.00     0.051 A 
ATOM      5  C5  IND d   1       0.768   2.206  -3.129  0.00  0.00    -0.031 A 
ATOM      6  C6  IND d   1       1.115   1.310  -4.119  0.00  0.00     0.015 A 
ATOM      7  C7  IND d   1       1.335  -0.010  -3.840  0.00  0.00    -0.016 A 
ATOM      8  C8  IND d   1       1.210  -0.399  -2.514  0.00  0.00    -0.047 A 
ATOM      9  C9  IND d   1       0.899   0.515  -1.499  0.00  0.00    -0.096 A 
ATOM     10  HN1 IND d   1       1.591  -2.359  -2.326  0.00  0.00     0.298 HD
ENDROOT
TORSDOF 0
ENDMDL
