MODEL 1
REMARK minimizedAffinity 15.0642328
REMARK minimizedRMSD -1
REMARK  0 active torsions:
REMARK  status: ('A' for Active; 'I' for Inactive)
ROOT
ATOM      1  N1  IND d   1       0.499  -1.965  -0.980  0.00  0.00    -0.196 N 
ATOM      2  C2  IND d   1       0.642  -2.795  -2.056  0.00  0.00     0.054 A 
ATOM      3  C3  IND d   1       0.900  -2.079  -3.173  0.00  0.00    -0.031 A 
ATOM      4  C4  IND d   1       1.233   0.459  -3.447  0.00  0.00     0.051 A 
ATOM      5  C5  IND d   1       1.164   1.636  -2.754  0.00  0.00    -0.031 A 
ATOM      6  C6  IND d   1       0.867   1.673  -1.407  0.00  0.00     0.015 A 
ATOM      7  C7  IND d   1       0.637   0.529  -0.697  0.00  0.00    -0.016 A 
ATOM      8  C8  IND d   1       0.700  -0.667  -1.398  0.00  0.00    -0.047 A 
ATOM      9  C9  IND d   1       0.959  -0.708  -2.774  0.00  0.00    -0.096 A 
ATOM     10  HN1 IND d   1       0.315  -2.211  -0.177  0.00  0.00     0.298 HD
ENDROOT
TORSDOF 0
ENDMDL
