MODEL 1
REMARK minimizedAffinity 4.14094305
REMARK minimizedRMSD -1
REMARK  0 active torsions:
REMARK  status: ('A' for Active; 'I' for Inactive)
ROOT
ATOM      1  N1  IND d   1       1.277  -2.476  -1.759  0.00  0.00    -0.196 N 
ATOM      2  C2  IND d   1       1.481  -2.792  -3.073  0.00  0.00     0.054 A 
ATOM      3  C3  IND d   1       1.436  -1.677  -3.837  0.00  0.00    -0.031 A 
ATOM      4  C4  IND d   1       1.144   0.781  -3.128  0.00  0.00     0.051 A 
ATOM      5  C5  IND d   1       0.888   1.564  -2.037  0.00  0.00    -0.031 A 
ATOM      6  C6  IND d   1       0.748   1.030  -0.773  0.00  0.00     0.015 A 
ATOM      7  C7  IND d   1       0.871  -0.312  -0.548  0.00  0.00    -0.016 A 
ATOM      8  C8  IND d   1       1.124  -1.111  -1.654  0.00  0.00    -0.047 A 
ATOM      9  C9  IND d   1       1.225  -0.580  -2.946  0.00  0.00    -0.096 A 
ATOM     10  HN1 IND d   1       1.249  -3.036  -1.107  0.00  0.00     0.298 HD
ENDROOT
TORSDOF 0
ENDMDL
