MODEL 1
REMARK minimizedAffinity 3.76748395
REMARK minimizedRMSD -1
REMARK  0 active torsions:
REMARK  status: ('A' for Active; 'I' for Inactive)
ROOT
ATOM      1  N1  IND d   1       1.291  -1.898  -0.894  0.00  0.00    -0.196 N 
ATOM      2  C2  IND d   1       0.741  -1.587   0.318  0.00  0.00     0.054 A 
ATOM      3  C3  IND d   1       0.303  -0.308   0.321  0.00  0.00    -0.031 A 
ATOM      4  C4  IND d   1       0.296   1.423  -1.585  0.00  0.00     0.051 A 
ATOM      5  C5  IND d   1       0.726   1.615  -2.868  0.00  0.00    -0.031 A 
ATOM      6  C6  IND d   1       1.377   0.624  -3.574  0.00  0.00     0.015 A 
ATOM      7  C7  IND d   1       1.613  -0.604  -3.024  0.00  0.00    -0.016 A 
ATOM      8  C8  IND d   1       1.185  -0.800  -1.719  0.00  0.00    -0.047 A 
ATOM      9  C9  IND d   1       0.561   0.216  -0.983  0.00  0.00    -0.096 A 
ATOM     10  HN1 IND d   1       1.645  -2.652  -1.105  0.00  0.00     0.298 HD
ENDROOT
TORSDOF 0
ENDMDL
