MODEL 1
REMARK minimizedAffinity 10.8653908
REMARK minimizedRMSD -1
REMARK  0 active torsions:
REMARK  status: ('A' for Active; 'I' for Inactive)
ROOT
ATOM      1  N1  IND d   1       4.980  -5.998   2.675  0.00  0.00    -0.196 N 
ATOM      2  C2  IND d   1       5.711  -5.979   3.830  0.00  0.00     0.054 A 
ATOM      3  C3  IND d   1       4.891  -5.937   4.904  0.00  0.00    -0.031 A 
ATOM      4  C4  IND d   1       2.319  -5.994   5.002  0.00  0.00     0.051 A 
ATOM      5  C5  IND d   1       1.210  -5.974   4.203  0.00  0.00    -0.031 A 
ATOM      6  C6  IND d   1       1.303  -5.965   2.827  0.00  0.00     0.015 A 
ATOM      7  C7  IND d   1       2.514  -5.985   2.194  0.00  0.00    -0.016 A 
ATOM      8  C8  IND d   1       3.642  -5.998   3.002  0.00  0.00    -0.047 A 
ATOM      9  C9  IND d   1       3.555  -5.965   4.400  0.00  0.00    -0.096 A 
ATOM     10  HN1 IND d   1       5.303  -6.008   1.877  0.00  0.00     0.298 HD
ENDROOT
TORSDOF 0
ENDMDL
