MODEL 1
REMARK minimizedAffinity 1.53314304
REMARK minimizedRMSD -1
REMARK  0 active torsions:
REMARK  status: ('A' for Active; 'I' for Inactive)
ROOT
ATOM      1  N1  IND d   1       0.439  -1.942  -0.553  0.00  0.00    -0.196 N 
ATOM      2  C2  IND d   1       0.120  -1.082   0.461  0.00  0.00     0.054 A 
ATOM      3  C3  IND d   1       0.296   0.198   0.065  0.00  0.00    -0.031 A 
ATOM      4  C4  IND d   1       1.003   1.116  -2.234  0.00  0.00     0.051 A 
ATOM      5  C5  IND d   1       1.436   0.716  -3.467  0.00  0.00    -0.031 A 
ATOM      6  C6  IND d   1       1.558  -0.617  -3.799  0.00  0.00     0.015 A 
ATOM      7  C7  IND d   1       1.240  -1.605  -2.911  0.00  0.00    -0.016 A 
ATOM      8  C8  IND d   1       0.807  -1.202  -1.655  0.00  0.00    -0.047 A 
ATOM      9  C9  IND d   1       0.722   0.149  -1.298  0.00  0.00    -0.096 A 
ATOM     10  HN1 IND d   1       0.414  -2.800  -0.509  0.00  0.00     0.298 HD
ENDROOT
TORSDOF 0
ENDMDL
