MODEL 1
REMARK minimizedAffinity 2.26703882
REMARK minimizedRMSD -1
REMARK  0 active torsions:
REMARK  status: ('A' for Active; 'I' for Inactive)
ROOT
ATOM      1  N1  IND d   1       0.719   1.494  -2.862  0.00  0.00    -0.196 N 
ATOM      2  C2  IND d   1       0.629   1.661  -1.509  0.00  0.00     0.054 A 
ATOM      3  C3  IND d   1       0.778   0.475  -0.877  0.00  0.00    -0.031 A 
ATOM      4  C4  IND d   1       1.280  -1.850  -1.862  0.00  0.00     0.051 A 
ATOM      5  C5  IND d   1       1.414  -2.511  -3.051  0.00  0.00    -0.031 A 
ATOM      6  C6  IND d   1       1.324  -1.856  -4.262  0.00  0.00     0.015 A 
ATOM      7  C7  IND d   1       1.107  -0.509  -4.330  0.00  0.00    -0.016 A 
ATOM      8  C8  IND d   1       0.964   0.164  -3.125  0.00  0.00    -0.047 A 
ATOM      9  C9  IND d   1       1.012  -0.502  -1.893  0.00  0.00    -0.096 A 
ATOM     10  HN1 IND d   1       0.637   2.115  -3.451  0.00  0.00     0.298 HD
ENDROOT
TORSDOF 0
ENDMDL
