MODEL 1
REMARK minimizedAffinity 6.02413177
REMARK minimizedRMSD -1
REMARK  0 active torsions:
REMARK  status: ('A' for Active; 'I' for Inactive)
ROOT
ATOM      1  N1  IND d   1       1.119   0.974  -2.843  0.00  0.00    -0.196 N 
ATOM      2  C2  IND d   1       0.599   1.035  -1.580  0.00  0.00     0.054 A 
ATOM      3  C3  IND d   1       0.339  -0.209  -1.118  0.00  0.00    -0.031 A 
ATOM      4  C4  IND d   1       0.784  -2.490  -2.226  0.00  0.00     0.051 A 
ATOM      5  C5  IND d   1       1.214  -3.055  -3.394  0.00  0.00    -0.031 A 
ATOM      6  C6  IND d   1       1.644  -2.291  -4.458  0.00  0.00     0.015 A 
ATOM      7  C7  IND d   1       1.673  -0.926  -4.390  0.00  0.00    -0.016 A 
ATOM      8  C8  IND d   1       1.231  -0.349  -3.208  0.00  0.00    -0.047 A 
ATOM      9  C9  IND d   1       0.753  -1.119  -2.140  0.00  0.00    -0.096 A 
ATOM     10  HN1 IND d   1       1.339   1.650  -3.327  0.00  0.00     0.298 HD
ENDROOT
TORSDOF 0
ENDMDL
