MODEL 1
REMARK minimizedAffinity 23.9056053
REMARK minimizedRMSD -1
REMARK  1 active torsions:
REMARK  status: ('A' for Active; 'I' for Inactive)
REMARK    1  A    between atoms: C1_2  and  C2_3 
ROOT
ATOM      1  C2  UNL d   1      -1.147   0.593   1.487  0.00  0.00    -0.076 A 
ATOM      2  C3  UNL d   1      -2.054  -0.116   2.293  0.00  0.00     0.004 A 
ATOM      3  C4  UNL d   1      -3.118  -0.818   1.729  0.00  0.00    -0.003 A 
ATOM      4  C5  UNL d   1      -3.292  -0.822   0.350  0.00  0.00     0.000 A 
ATOM      5  C6  UNL d   1      -2.392  -0.138  -0.467  0.00  0.00     0.000 A 
ATOM      6  C7  UNL d   1      -1.305   0.561   0.085  0.00  0.00    -0.073 A 
ATOM      7  C8  UNL d   1      -0.369   1.286  -0.843  0.00  0.00     0.078 C 
ENDROOT
BRANCH   1   8
ATOM      8  C1  UNL d   1      -0.028   1.359   2.156  0.00  0.00     0.053 C 
ATOM      9  C   UNL d   1       0.701   0.529   3.201  0.00  0.00     0.018 C 
ENDBRANCH   1   8
TORSDOF 1
ENDMDL
