MODEL 1
REMARK minimizedAffinity 8.70832253
REMARK minimizedRMSD -1
REMARK  1 active torsions:
REMARK  status: ('A' for Active; 'I' for Inactive)
REMARK    1  A    between atoms: C1_2  and  C2_3 
ROOT
ATOM      1  C2  UNL d   1      -3.483  -1.669  -5.466  0.00  0.00    -0.076 A 
ATOM      2  C3  UNL d   1      -4.404  -0.730  -4.970  0.00  0.00     0.004 A 
ATOM      3  C4  UNL d   1      -5.651  -1.131  -4.492  0.00  0.00    -0.003 A 
ATOM      4  C5  UNL d   1      -5.996  -2.478  -4.502  0.00  0.00     0.000 A 
ATOM      5  C6  UNL d   1      -5.088  -3.425  -4.974  0.00  0.00     0.000 A 
ATOM      6  C7  UNL d   1      -3.821  -3.039  -5.445  0.00  0.00    -0.073 A 
ATOM      7  C8  UNL d   1      -2.883  -4.102  -5.948  0.00  0.00     0.078 C 
ENDROOT
BRANCH   1   8
ATOM      8  C1  UNL d   1      -2.157  -1.172  -5.997  0.00  0.00     0.053 C 
ATOM      9  C   UNL d   1      -2.061   0.346  -5.996  0.00  0.00     0.018 C 
ENDBRANCH   1   8
TORSDOF 1
ENDMDL
