MODEL 1
REMARK minimizedAffinity 9.82935333
REMARK minimizedRMSD -1
REMARK  1 active torsions:
REMARK  status: ('A' for Active; 'I' for Inactive)
REMARK    1  A    between atoms: C1_2  and  C2_3 
ROOT
ATOM      1  C2  UNL d   1      -4.209   0.493   1.580  0.00  0.00    -0.076 A 
ATOM      2  C3  UNL d   1      -3.180  -0.464   1.569  0.00  0.00     0.004 A 
ATOM      3  C4  UNL d   1      -1.844  -0.083   1.681  0.00  0.00    -0.003 A 
ATOM      4  C5  UNL d   1      -1.515   1.262   1.806  0.00  0.00     0.000 A 
ATOM      5  C6  UNL d   1      -2.524   2.224   1.836  0.00  0.00     0.000 A 
ATOM      6  C7  UNL d   1      -3.877   1.855   1.741  0.00  0.00    -0.073 A 
ATOM      7  C8  UNL d   1      -4.924   2.935   1.774  0.00  0.00     0.078 C 
ENDROOT
BRANCH   1   8
ATOM      8  C1  UNL d   1      -5.638   0.023   1.428  0.00  0.00     0.053 C 
ATOM      9  C   UNL d   1      -5.730  -1.399   0.897  0.00  0.00     0.018 C 
ENDBRANCH   1   8
TORSDOF 1
ENDMDL
