MODEL 1
REMARK minimizedAffinity 2.49687314
REMARK minimizedRMSD -1
REMARK  1 active torsions:
REMARK  status: ('A' for Active; 'I' for Inactive)
REMARK    1  A    between atoms: C1_2  and  C2_3 
ROOT
ATOM      1  C2  UNL d   1      -3.013   1.512   1.892  0.00  0.00    -0.076 A 
ATOM      2  C3  UNL d   1      -2.604   2.813   2.231  0.00  0.00     0.004 A 
ATOM      3  C4  UNL d   1      -3.515   3.869   2.248  0.00  0.00    -0.003 A 
ATOM      4  C5  UNL d   1      -4.848   3.640   1.927  0.00  0.00     0.000 A 
ATOM      5  C6  UNL d   1      -5.274   2.351   1.606  0.00  0.00     0.000 A 
ATOM      6  C7  UNL d   1      -4.372   1.273   1.600  0.00  0.00    -0.073 A 
ATOM      7  C8  UNL d   1      -4.885  -0.095   1.240  0.00  0.00     0.078 C 
ENDROOT
BRANCH   1   8
ATOM      8  C1  UNL d   1      -1.975   0.412   1.864  0.00  0.00     0.053 C 
ATOM      9  C   UNL d   1      -1.885  -0.338   3.184  0.00  0.00     0.018 C 
ENDBRANCH   1   8
TORSDOF 1
ENDMDL
