MODEL 1
REMARK minimizedAffinity 15.9986429
REMARK minimizedRMSD -1
REMARK  1 active torsions:
REMARK  status: ('A' for Active; 'I' for Inactive)
REMARK    1  A    between atoms: C1_2  and  C2_3 
ROOT
ATOM      1  C2  UNL d   1      -5.413  -3.275   2.290  0.00  0.00    -0.076 A 
ATOM      2  C3  UNL d   1      -5.998  -2.040   1.963  0.00  0.00     0.004 A 
ATOM      3  C4  UNL d   1      -5.860  -1.496   0.687  0.00  0.00    -0.003 A 
ATOM      4  C5  UNL d   1      -5.134  -2.179  -0.283  0.00  0.00     0.000 A 
ATOM      5  C6  UNL d   1      -4.562  -3.414   0.019  0.00  0.00     0.000 A 
ATOM      6  C7  UNL d   1      -4.706  -3.984   1.296  0.00  0.00    -0.073 A 
ATOM      7  C8  UNL d   1      -4.062  -5.316   1.568  0.00  0.00     0.078 C 
ENDROOT
BRANCH   1   8
ATOM      8  C1  UNL d   1      -5.574  -3.802   3.698  0.00  0.00     0.053 C 
ATOM      9  C   UNL d   1      -4.754  -3.019   4.711  0.00  0.00     0.018 C 
ENDBRANCH   1   8
TORSDOF 1
ENDMDL
