MODEL 1
REMARK minimizedAffinity 14.9638271
REMARK minimizedRMSD -1
REMARK  1 active torsions:
REMARK  status: ('A' for Active; 'I' for Inactive)
REMARK    1  A    between atoms: C1_2  and  C2_3 
ROOT
ATOM      1  C2  UNL d   1       2.798   0.237  -3.762  0.00  0.00    -0.076 A 
ATOM      2  C3  UNL d   1       3.430   1.017  -2.778  0.00  0.00     0.004 A 
ATOM      3  C4  UNL d   1       2.743   1.424  -1.635  0.00  0.00    -0.003 A 
ATOM      4  C5  UNL d   1       1.414   1.057  -1.457  0.00  0.00     0.000 A 
ATOM      5  C6  UNL d   1       0.777   0.268  -2.414  0.00  0.00     0.000 A 
ATOM      6  C7  UNL d   1       1.459  -0.164  -3.564  0.00  0.00    -0.073 A 
ATOM      7  C8  UNL d   1       0.721  -1.008  -4.567  0.00  0.00     0.078 C 
ENDROOT
BRANCH   1   8
ATOM      8  C1  UNL d   1       3.584  -0.152  -4.993  0.00  0.00     0.053 C 
ATOM      9  C   UNL d   1       4.017   1.054  -5.813  0.00  0.00     0.018 C 
ENDBRANCH   1   8
TORSDOF 1
ENDMDL
