MODEL 1
REMARK minimizedAffinity 6.97754383
REMARK minimizedRMSD -1
REMARK  1 active torsions:
REMARK  status: ('A' for Active; 'I' for Inactive)
REMARK    1  A    between atoms: C1_2  and  C2_3 
ROOT
ATOM      1  C2  UNL d   1       0.942   0.517  -3.027  0.00  0.00    -0.076 A 
ATOM      2  C3  UNL d   1      -0.079   0.048  -3.871  0.00  0.00     0.004 A 
ATOM      3  C4  UNL d   1      -1.374   0.558  -3.783  0.00  0.00    -0.003 A 
ATOM      4  C5  UNL d   1      -1.667   1.546  -2.849  0.00  0.00     0.000 A 
ATOM      5  C6  UNL d   1      -0.662   2.035  -2.016  0.00  0.00     0.000 A 
ATOM      6  C7  UNL d   1       0.652   1.544  -2.103  0.00  0.00    -0.073 A 
ATOM      7  C8  UNL d   1       1.695   2.104  -1.176  0.00  0.00     0.078 C 
ENDROOT
BRANCH   1   8
ATOM      8  C1  UNL d   1       2.320  -0.092  -3.150  0.00  0.00     0.053 C 
ATOM      9  C   UNL d   1       2.308  -1.413  -3.904  0.00  0.00     0.018 C 
ENDBRANCH   1   8
TORSDOF 1
ENDMDL
