MODEL 1
REMARK minimizedAffinity -1.47896922
REMARK minimizedRMSD -1
REMARK  1 active torsions:
REMARK  status: ('A' for Active; 'I' for Inactive)
REMARK    1  A    between atoms: C1_2  and  C2_3 
ROOT
ATOM      1  C2  UNL d   1      -3.059   0.506   1.254  0.00  0.00    -0.076 A 
ATOM      2  C3  UNL d   1      -3.683   1.176   2.321  0.00  0.00     0.004 A 
ATOM      3  C4  UNL d   1      -4.976   0.842   2.719  0.00  0.00    -0.003 A 
ATOM      4  C5  UNL d   1      -5.666  -0.168   2.057  0.00  0.00     0.000 A 
ATOM      5  C6  UNL d   1      -5.056  -0.855   1.009  0.00  0.00     0.000 A 
ATOM      6  C7  UNL d   1      -3.746  -0.542   0.605  0.00  0.00    -0.073 A 
ATOM      7  C8  UNL d   1      -3.139  -1.311  -0.536  0.00  0.00     0.078 C 
ENDROOT
BRANCH   1   8
ATOM      8  C1  UNL d   1      -1.665   0.930   0.849  0.00  0.00     0.053 C 
ATOM      9  C   UNL d   1      -0.673   0.846   1.999  0.00  0.00     0.018 C 
ENDBRANCH   1   8
TORSDOF 1
ENDMDL
