MODEL 1
REMARK minimizedAffinity 15.2513685
REMARK minimizedRMSD -1
REMARK  1 active torsions:
REMARK  status: ('A' for Active; 'I' for Inactive)
REMARK    1  A    between atoms: C1_2  and  C2_3 
ROOT
ATOM      1  C2  UNL d   1       4.453   1.483  -5.071  0.00  0.00    -0.076 A 
ATOM      2  C3  UNL d   1       4.023   2.449  -5.997  0.00  0.00     0.004 A 
ATOM      3  C4  UNL d   1       4.565   3.733  -5.999  0.00  0.00    -0.003 A 
ATOM      4  C5  UNL d   1       5.547   4.072  -5.075  0.00  0.00     0.000 A 
ATOM      5  C6  UNL d   1       5.999   3.121  -4.161  0.00  0.00     0.000 A 
ATOM      6  C7  UNL d   1       5.475   1.817  -4.156  0.00  0.00    -0.073 A 
ATOM      7  C8  UNL d   1       5.995   0.833  -3.144  0.00  0.00     0.078 C 
ENDROOT
BRANCH   1   8
ATOM      8  C1  UNL d   1       3.810   0.115  -5.099  0.00  0.00     0.053 C 
ATOM      9  C   UNL d   1       2.902  -0.127  -3.903  0.00  0.00     0.018 C 
ENDBRANCH   1   8
TORSDOF 1
ENDMDL
