MODEL 1
REMARK minimizedAffinity 6.97414207
REMARK minimizedRMSD -1
REMARK  1 active torsions:
REMARK  status: ('A' for Active; 'I' for Inactive)
REMARK    1  A    between atoms: C1_2  and  C2_3 
ROOT
ATOM      1  C2  UNL d   1       2.176   0.192  -4.824  0.00  0.00    -0.076 A 
ATOM      2  C3  UNL d   1       1.462  -0.543  -5.786  0.00  0.00     0.004 A 
ATOM      3  C4  UNL d   1       1.577  -1.930  -5.861  0.00  0.00    -0.003 A 
ATOM      4  C5  UNL d   1       2.408  -2.605  -4.974  0.00  0.00     0.000 A 
ATOM      5  C6  UNL d   1       3.110  -1.894  -4.001  0.00  0.00     0.000 A 
ATOM      6  C7  UNL d   1       2.993  -0.497  -3.902  0.00  0.00    -0.073 A 
ATOM      7  C8  UNL d   1       3.778   0.220  -2.838  0.00  0.00     0.078 C 
ENDROOT
BRANCH   1   8
ATOM      8  C1  UNL d   1       2.033   1.697  -4.808  0.00  0.00     0.053 C 
ATOM      9  C   UNL d   1       2.765   2.364  -5.962  0.00  0.00     0.018 C 
ENDBRANCH   1   8
TORSDOF 1
ENDMDL
