MODEL 1
REMARK minimizedAffinity 10.6263428
REMARK minimizedRMSD -1
REMARK  1 active torsions:
REMARK  status: ('A' for Active; 'I' for Inactive)
REMARK    1  A    between atoms: C1_2  and  C2_3 
ROOT
ATOM      1  C2  UNL d   1      -3.770  -0.316   1.087  0.00  0.00    -0.076 A 
ATOM      2  C3  UNL d   1      -2.454   0.043   0.745  0.00  0.00     0.004 A 
ATOM      3  C4  UNL d   1      -1.769   1.022   1.462  0.00  0.00    -0.003 A 
ATOM      4  C5  UNL d   1      -2.388   1.658   2.533  0.00  0.00     0.000 A 
ATOM      5  C6  UNL d   1      -3.686   1.302   2.896  0.00  0.00     0.000 A 
ATOM      6  C7  UNL d   1      -4.385   0.305   2.194  0.00  0.00    -0.073 A 
ATOM      7  C8  UNL d   1      -5.786  -0.034   2.626  0.00  0.00     0.078 C 
ENDROOT
BRANCH   1   8
ATOM      8  C1  UNL d   1      -4.473  -1.366   0.256  0.00  0.00     0.053 C 
ATOM      9  C   UNL d   1      -3.501  -2.313  -0.430  0.00  0.00     0.018 C 
ENDBRANCH   1   8
TORSDOF 1
ENDMDL
