MODEL 1
REMARK minimizedAffinity 5.29325819
REMARK minimizedRMSD -1
REMARK  1 active torsions:
REMARK  status: ('A' for Active; 'I' for Inactive)
REMARK    1  A    between atoms: C1_2  and  C2_3 
ROOT
ATOM      1  C2  UNL d   1       0.320   0.051   0.906  0.00  0.00    -0.073 A 
ATOM      2  C3  UNL d   1      -0.788   0.790   0.479  0.00  0.00    -0.002 A 
ATOM      3  C4  UNL d   1      -1.915   0.906   1.294  0.00  0.00     0.004 A 
ATOM      4  C5  UNL d   1      -1.942   0.290   2.546  0.00  0.00    -0.004 A 
ATOM      5  C6  UNL d   1      -0.839  -0.444   2.995  0.00  0.00    -0.075 A 
ATOM      6  C7  UNL d   1      -0.853  -1.114   4.337  0.00  0.00     0.076 C 
ATOM      7  C8  UNL d   1       0.287  -0.557   2.169  0.00  0.00     0.001 A 
ENDROOT
BRANCH   1   8
ATOM      8  C1  UNL d   1       1.541  -0.072   0.031  0.00  0.00     0.053 C 
ATOM      9  C   UNL d   1       2.463   1.130   0.168  0.00  0.00     0.018 C 
ENDBRANCH   1   8
TORSDOF 1
ENDMDL
