MODEL 1
REMARK minimizedAffinity 3.20663381
REMARK minimizedRMSD -1
REMARK  1 active torsions:
REMARK  status: ('A' for Active; 'I' for Inactive)
REMARK    1  A    between atoms: C1_2  and  C2_3 
ROOT
ATOM      1  C2  UNL d   1      -1.719   0.273   1.408  0.00  0.00    -0.073 A 
ATOM      2  C3  UNL d   1      -2.435   0.337   0.207  0.00  0.00    -0.002 A 
ATOM      3  C4  UNL d   1      -1.761   0.337  -1.015  0.00  0.00     0.004 A 
ATOM      4  C5  UNL d   1      -0.369   0.267  -1.049  0.00  0.00    -0.004 A 
ATOM      5  C6  UNL d   1       0.363   0.190   0.140  0.00  0.00    -0.075 A 
ATOM      6  C7  UNL d   1       1.862   0.116   0.120  0.00  0.00     0.076 C 
ATOM      7  C8  UNL d   1      -0.320   0.193   1.363  0.00  0.00     0.001 A 
ENDROOT
BRANCH   1   8
ATOM      8  C1  UNL d   1      -2.442   0.265   2.731  0.00  0.00     0.053 C 
ATOM      9  C   UNL d   1      -3.353  -0.943   2.876  0.00  0.00     0.018 C 
ENDBRANCH   1   8
TORSDOF 1
ENDMDL
