MODEL 1
REMARK minimizedAffinity 11.6673431
REMARK minimizedRMSD -1
REMARK  1 active torsions:
REMARK  status: ('A' for Active; 'I' for Inactive)
REMARK    1  A    between atoms: C1_2  and  C2_3 
ROOT
ATOM      1  C2  UNL d   1       0.189   0.058   0.229  0.00  0.00    -0.073 A 
ATOM      2  C3  UNL d   1      -0.552  -0.164  -0.938  0.00  0.00    -0.002 A 
ATOM      3  C4  UNL d   1      -1.947  -0.153  -0.900  0.00  0.00     0.004 A 
ATOM      4  C5  UNL d   1      -2.615   0.088   0.301  0.00  0.00    -0.004 A 
ATOM      5  C6  UNL d   1      -1.892   0.323   1.475  0.00  0.00    -0.075 A 
ATOM      6  C7  UNL d   1      -2.595   0.581   2.775  0.00  0.00     0.076 C 
ATOM      7  C8  UNL d   1      -0.491   0.307   1.429  0.00  0.00     0.001 A 
ENDROOT
BRANCH   1   8
ATOM      8  C1  UNL d   1       1.695   0.052   0.192  0.00  0.00     0.053 C 
ATOM      9  C   UNL d   1       2.291   1.128   1.085  0.00  0.00     0.018 C 
ENDBRANCH   1   8
TORSDOF 1
ENDMDL
