MODEL 1
REMARK minimizedAffinity 6.75104952
REMARK minimizedRMSD -1
REMARK  1 active torsions:
REMARK  status: ('A' for Active; 'I' for Inactive)
REMARK    1  A    between atoms: C1_2  and  C2_3 
ROOT
ATOM      1  C2  UNL d   1      -2.305   0.225   2.200  0.00  0.00    -0.073 A 
ATOM      2  C3  UNL d   1      -3.400  -0.588   2.512  0.00  0.00    -0.002 A 
ATOM      3  C4  UNL d   1      -3.290  -1.572   3.496  0.00  0.00     0.004 A 
ATOM      4  C5  UNL d   1      -2.088  -1.748   4.182  0.00  0.00    -0.004 A 
ATOM      5  C6  UNL d   1      -0.986  -0.938   3.892  0.00  0.00    -0.075 A 
ATOM      6  C7  UNL d   1       0.315  -1.116   4.619  0.00  0.00     0.076 C 
ATOM      7  C8  UNL d   1      -1.103   0.046   2.901  0.00  0.00     0.001 A 
ENDROOT
BRANCH   1   8
ATOM      8  C1  UNL d   1      -2.420   1.293   1.144  0.00  0.00     0.053 C 
ATOM      9  C   UNL d   1      -2.456   0.706  -0.258  0.00  0.00     0.018 C 
ENDBRANCH   1   8
TORSDOF 1
ENDMDL
