MODEL 1
REMARK minimizedAffinity 3.15468907
REMARK minimizedRMSD -1
REMARK  1 active torsions:
REMARK  status: ('A' for Active; 'I' for Inactive)
REMARK    1  A    between atoms: C1_2  and  C2_3 
ROOT
ATOM      1  C2  UNL d   1      -2.507  -0.399   1.253  0.00  0.00    -0.073 A 
ATOM      2  C3  UNL d   1      -3.000  -0.697  -0.022  0.00  0.00    -0.002 A 
ATOM      3  C4  UNL d   1      -2.145  -0.702  -1.125  0.00  0.00     0.004 A 
ATOM      4  C5  UNL d   1      -0.789  -0.417  -0.964  0.00  0.00    -0.004 A 
ATOM      5  C6  UNL d   1      -0.275  -0.129   0.305  0.00  0.00    -0.075 A 
ATOM      6  C7  UNL d   1       1.180   0.182   0.495  0.00  0.00     0.076 C 
ATOM      7  C8  UNL d   1      -1.140  -0.123   1.407  0.00  0.00     0.001 A 
ENDROOT
BRANCH   1   8
ATOM      8  C1  UNL d   1      -3.425  -0.399   2.448  0.00  0.00     0.053 C 
ATOM      9  C   UNL d   1      -3.514  -1.770   3.099  0.00  0.00     0.018 C 
ENDBRANCH   1   8
TORSDOF 1
ENDMDL
