MODEL 1
REMARK minimizedAffinity 3.82694912
REMARK minimizedRMSD -1
REMARK  1 active torsions:
REMARK  status: ('A' for Active; 'I' for Inactive)
REMARK    1  A    between atoms: C1_2  and  C2_3 
ROOT
ATOM      1  C2  UNL d   1      -0.893   0.200   1.867  0.00  0.00    -0.073 A 
ATOM      2  C3  UNL d   1       0.111   0.568   0.965  0.00  0.00    -0.002 A 
ATOM      3  C4  UNL d   1       1.447   0.268   1.236  0.00  0.00     0.004 A 
ATOM      4  C5  UNL d   1       1.791  -0.408   2.406  0.00  0.00    -0.004 A 
ATOM      5  C6  UNL d   1       0.800  -0.795   3.314  0.00  0.00    -0.075 A 
ATOM      6  C7  UNL d   1       1.154  -1.521   4.579  0.00  0.00     0.076 C 
ATOM      7  C8  UNL d   1      -0.538  -0.488   3.036  0.00  0.00     0.001 A 
ENDROOT
BRANCH   1   8
ATOM      8  C1  UNL d   1      -2.337   0.516   1.575  0.00  0.00     0.053 C 
ATOM      9  C   UNL d   1      -2.662   0.388   0.095  0.00  0.00     0.018 C 
ENDBRANCH   1   8
TORSDOF 1
ENDMDL
