MODEL 1
REMARK minimizedAffinity 9.67509747
REMARK minimizedRMSD -1
REMARK  1 active torsions:
REMARK  status: ('A' for Active; 'I' for Inactive)
REMARK    1  A    between atoms: C1_2  and  C2_3 
ROOT
ATOM      1  C2  UNL d   1       0.793  -0.078   0.666  0.00  0.00    -0.073 A 
ATOM      2  C3  UNL d   1       0.794  -0.783  -0.543  0.00  0.00    -0.002 A 
ATOM      3  C4  UNL d   1      -0.409  -1.093  -1.179  0.00  0.00     0.004 A 
ATOM      4  C5  UNL d   1      -1.622  -0.696  -0.618  0.00  0.00    -0.004 A 
ATOM      5  C6  UNL d   1      -1.643   0.020   0.583  0.00  0.00    -0.075 A 
ATOM      6  C7  UNL d   1      -2.940   0.453   1.201  0.00  0.00     0.076 C 
ATOM      7  C8  UNL d   1      -0.431   0.325   1.217  0.00  0.00     0.001 A 
ENDROOT
BRANCH   1   8
ATOM      8  C1  UNL d   1       2.090   0.265   1.353  0.00  0.00     0.053 C 
ATOM      9  C   UNL d   1       2.653   1.595   0.877  0.00  0.00     0.018 C 
ENDBRANCH   1   8
TORSDOF 1
ENDMDL
