MODEL 1
REMARK minimizedAffinity 1.9148308
REMARK minimizedRMSD -1
REMARK  0 active torsions:
REMARK  status: ('A' for Active; 'I' for Inactive)
ROOT
ATOM      1  C1  BNZ d   1       2.171   0.302   0.093  0.00  0.00     0.000 A 
ATOM      2  C2  BNZ d   1       1.481  -0.804   0.511  0.00  0.00     0.000 A 
ATOM      3  C3  BNZ d   1       1.901  -2.060   0.174  0.00  0.00     0.000 A 
ATOM      4  C4  BNZ d   1       2.986  -2.207  -0.614  0.00  0.00     0.000 A 
ATOM      5  C5  BNZ d   1       3.687  -1.101  -1.052  0.00  0.00     0.000 A 
ATOM      6  C6  BNZ d   1       3.284   0.160  -0.678  0.00  0.00     0.000 A 
ENDROOT
TORSDOF 0
ENDMDL
