MODEL 1
REMARK minimizedAffinity 0.607510209
REMARK minimizedRMSD -1
REMARK  0 active torsions:
REMARK  status: ('A' for Active; 'I' for Inactive)
ROOT
ATOM      1  C1  BNZ d   1       3.841  -2.057  -2.280  0.00  0.00     0.000 A 
ATOM      2  C2  BNZ d   1       3.048  -2.886  -1.532  0.00  0.00     0.000 A 
ATOM      3  C3  BNZ d   1       2.625  -2.513  -0.287  0.00  0.00     0.000 A 
ATOM      4  C4  BNZ d   1       3.026  -1.332   0.224  0.00  0.00     0.000 A 
ATOM      5  C5  BNZ d   1       3.834  -0.489  -0.514  0.00  0.00     0.000 A 
ATOM      6  C6  BNZ d   1       4.226  -0.850  -1.782  0.00  0.00     0.000 A 
ENDROOT
TORSDOF 0
ENDMDL
