MODEL 1
REMARK minimizedAffinity -1.47309291
REMARK minimizedRMSD -1
REMARK  0 active torsions:
REMARK  status: ('A' for Active; 'I' for Inactive)
ROOT
ATOM      1  C1  BNZ d   1      -0.139   0.517   2.454  0.00  0.00     0.000 A 
ATOM      2  C2  BNZ d   1      -1.241   1.160   1.955  0.00  0.00     0.000 A 
ATOM      3  C3  BNZ d   1      -1.248   1.648   0.679  0.00  0.00     0.000 A 
ATOM      4  C4  BNZ d   1      -0.142   1.528  -0.084  0.00  0.00     0.000 A 
ATOM      5  C5  BNZ d   1       0.979   0.890   0.407  0.00  0.00     0.000 A 
ATOM      6  C6  BNZ d   1       0.970   0.365   1.679  0.00  0.00     0.000 A 
ENDROOT
TORSDOF 0
ENDMDL
