MODEL 1
REMARK minimizedAffinity 1.1357398
REMARK minimizedRMSD -1
REMARK  0 active torsions:
REMARK  status: ('A' for Active; 'I' for Inactive)
ROOT
ATOM      1  C1  BNZ d   1       1.229   0.813   0.454  0.00  0.00     0.000 A 
ATOM      2  C2  BNZ d   1       1.767   0.586   1.693  0.00  0.00     0.000 A 
ATOM      3  C3  BNZ d   1       0.964   0.446   2.790  0.00  0.00     0.000 A 
ATOM      4  C4  BNZ d   1      -0.371   0.572   2.654  0.00  0.00     0.000 A 
ATOM      5  C5  BNZ d   1      -0.929   0.810   1.414  0.00  0.00     0.000 A 
ATOM      6  C6  BNZ d   1      -0.120   0.912   0.305  0.00  0.00     0.000 A 
ENDROOT
TORSDOF 0
ENDMDL
