MODEL 1
REMARK minimizedAffinity 4.99951506
REMARK minimizedRMSD -1
REMARK  0 active torsions:
REMARK  status: ('A' for Active; 'I' for Inactive)
ROOT
ATOM      1  C1  BNZ d   1      -3.542   1.923  -0.210  0.00  0.00     0.000 A 
ATOM      2  C2  BNZ d   1      -2.335   1.974   0.435  0.00  0.00     0.000 A 
ATOM      3  C3  BNZ d   1      -1.920   3.121   1.053  0.00  0.00     0.000 A 
ATOM      4  C4  BNZ d   1      -2.693   4.224   0.991  0.00  0.00     0.000 A 
ATOM      5  C5  BNZ d   1      -3.908   4.191   0.336  0.00  0.00     0.000 A 
ATOM      6  C6  BNZ d   1      -4.340   3.024  -0.251  0.00  0.00     0.000 A 
ENDROOT
TORSDOF 0
ENDMDL
