MODEL 1
REMARK minimizedAffinity -0.840345562
REMARK minimizedRMSD -1
REMARK  0 active torsions:
REMARK  status: ('A' for Active; 'I' for Inactive)
ROOT
ATOM      1  C1  BNZ d   1       0.977   0.795   0.629  0.00  0.00     0.000 A 
ATOM      2  C2  BNZ d   1       1.305   0.390   1.895  0.00  0.00     0.000 A 
ATOM      3  C3  BNZ d   1       0.351   0.303   2.871  0.00  0.00     0.000 A 
ATOM      4  C4  BNZ d   1      -0.919   0.659   2.590  0.00  0.00     0.000 A 
ATOM      5  C5  BNZ d   1      -1.263   1.079   1.321  0.00  0.00     0.000 A 
ATOM      6  C6  BNZ d   1      -0.308   1.128   0.331  0.00  0.00     0.000 A 
ENDROOT
TORSDOF 0
ENDMDL
