MODEL 1
REMARK minimizedAffinity 0.933316708
REMARK minimizedRMSD -1
REMARK  0 active torsions:
REMARK  status: ('A' for Active; 'I' for Inactive)
ROOT
ATOM      1  C1  BNZ d   1       3.676  -2.140  -2.138  0.00  0.00     0.000 A 
ATOM      2  C2  BNZ d   1       2.709  -2.683  -1.336  0.00  0.00     0.000 A 
ATOM      3  C3  BNZ d   1       2.283  -2.029  -0.213  0.00  0.00     0.000 A 
ATOM      4  C4  BNZ d   1       2.853  -0.855   0.127  0.00  0.00     0.000 A 
ATOM      5  C5  BNZ d   1       3.836  -0.300  -0.667  0.00  0.00     0.000 A 
ATOM      6  C6  BNZ d   1       4.235  -0.942  -1.817  0.00  0.00     0.000 A 
ENDROOT
TORSDOF 0
ENDMDL
