MODEL 1
REMARK minimizedAffinity 17.5804272
REMARK minimizedRMSD -1
REMARK  2 active torsions:
REMARK  status: ('A' for Active; 'I' for Inactive)
REMARK    1  A    between atoms: C2'_3  and  C1'_4 
REMARK    2  A    between atoms: C1'_4  and  C1_5 
ROOT
ATOM      1  C1  I4B d   1      -1.931   1.179  -2.034  0.00  0.00    -0.075 A 
ATOM      2  C2  I4B d   1      -2.968   1.088  -2.929  0.00  0.00     0.003 A 
ATOM      3  C3  I4B d   1      -3.001   1.926  -4.070  0.00  0.00     0.002 A 
ATOM      4  C4  I4B d   1      -2.011   2.870  -4.248  0.00  0.00    -0.004 A 
ATOM      5  C5  I4B d   1      -0.948   2.946  -3.352  0.00  0.00     0.002 A 
ATOM      6  C6  I4B d   1      -0.902   2.087  -2.244  0.00  0.00     0.003 A 
ENDROOT
BRANCH   1   7
ATOM      7  C1' I4B d   1      -1.945   0.301  -0.823  0.00  0.00     0.060 C 
BRANCH   7   8
ATOM      8  C2' I4B d   1      -1.923   1.194   0.401  0.00  0.00    -0.013 C 
ATOM      9  C4' I4B d   1      -3.300   1.347   0.989  0.00  0.00     0.013 C 
ATOM     10  C3' I4B d   1      -0.974   0.593   1.395  0.00  0.00     0.013 C 
ENDBRANCH   7   8
ENDBRANCH   1   7
TORSDOF 2
ENDMDL
