MODEL 1
REMARK minimizedAffinity 8.30718327
REMARK minimizedRMSD -1
REMARK  2 active torsions:
REMARK  status: ('A' for Active; 'I' for Inactive)
REMARK    1  A    between atoms: C2'_3  and  C1'_4 
REMARK    2  A    between atoms: C1'_4  and  C1_5 
ROOT
ATOM      1  C1  I4B d   1      -1.459   1.377  -3.973  0.00  0.00    -0.075 A 
ATOM      2  C2  I4B d   1      -0.223   1.966  -3.870  0.00  0.00     0.003 A 
ATOM      3  C3  I4B d   1       0.399   2.100  -2.605  0.00  0.00     0.002 A 
ATOM      4  C4  I4B d   1      -0.267   1.679  -1.472  0.00  0.00    -0.004 A 
ATOM      5  C5  I4B d   1      -1.510   1.062  -1.581  0.00  0.00     0.002 A 
ATOM      6  C6  I4B d   1      -2.104   0.898  -2.841  0.00  0.00     0.003 A 
ENDROOT
BRANCH   1   7
ATOM      7  C1' I4B d   1      -2.101   1.282  -5.321  0.00  0.00     0.060 C 
BRANCH   7   8
ATOM      8  C2' I4B d   1      -3.018   0.075  -5.317  0.00  0.00    -0.013 C 
ATOM      9  C4' I4B d   1      -4.325   0.382  -5.998  0.00  0.00     0.013 C 
ATOM     10  C3' I4B d   1      -2.302  -1.052  -6.000  0.00  0.00     0.013 C 
ENDBRANCH   7   8
ENDBRANCH   1   7
TORSDOF 2
ENDMDL
