MODEL 1
REMARK minimizedAffinity 1.07546651
REMARK minimizedRMSD -1
REMARK  2 active torsions:
REMARK  status: ('A' for Active; 'I' for Inactive)
REMARK    1  A    between atoms: C2'_3  and  C1'_4 
REMARK    2  A    between atoms: C1'_4  and  C1_5 
ROOT
ATOM      1  C1  I4B d   1       1.133   0.792  -2.341  0.00  0.00    -0.075 A 
ATOM      2  C2  I4B d   1       1.427   2.062  -2.773  0.00  0.00     0.003 A 
ATOM      3  C3  I4B d   1       0.415   2.874  -3.339  0.00  0.00     0.002 A 
ATOM      4  C4  I4B d   1      -0.857   2.363  -3.500  0.00  0.00    -0.004 A 
ATOM      5  C5  I4B d   1      -1.159   1.084  -3.041  0.00  0.00     0.002 A 
ATOM      6  C6  I4B d   1      -0.161   0.298  -2.447  0.00  0.00     0.003 A 
ENDROOT
BRANCH   1   7
ATOM      7  C1' I4B d   1       2.233  -0.051  -1.778  0.00  0.00     0.060 C 
BRANCH   7   8
ATOM      8  C2' I4B d   1       2.457  -1.216  -2.721  0.00  0.00    -0.013 C 
ATOM      9  C4' I4B d   1       3.476  -0.875  -3.776  0.00  0.00     0.013 C 
ATOM     10  C3' I4B d   1       2.897  -2.394  -1.904  0.00  0.00     0.013 C 
ENDBRANCH   7   8
ENDBRANCH   1   7
TORSDOF 2
ENDMDL
