MODEL 1
REMARK minimizedAffinity 8.65956402
REMARK minimizedRMSD -1
REMARK  2 active torsions:
REMARK  status: ('A' for Active; 'I' for Inactive)
REMARK    1  A    between atoms: C2'_3  and  C1'_4 
REMARK    2  A    between atoms: C1'_4  and  C1_5 
ROOT
ATOM      1  C1  I4B d   1      -5.897   2.041   5.247  0.00  0.00    -0.075 A 
ATOM      2  C2  I4B d   1      -5.902   2.067   3.875  0.00  0.00     0.003 A 
ATOM      3  C3  I4B d   1      -5.775   0.864   3.139  0.00  0.00     0.002 A 
ATOM      4  C4  I4B d   1      -5.596  -0.328   3.811  0.00  0.00    -0.004 A 
ATOM      5  C5  I4B d   1      -5.614  -0.355   5.203  0.00  0.00     0.002 A 
ATOM      6  C6  I4B d   1      -5.778   0.835   5.926  0.00  0.00     0.003 A 
ENDROOT
BRANCH   1   7
ATOM      7  C1' I4B d   1      -6.000   3.334   5.993  0.00  0.00     0.060 C 
BRANCH   7   8
ATOM      8  C2' I4B d   1      -5.096   4.340   5.309  0.00  0.00    -0.013 C 
ATOM      9  C4' I4B d   1      -5.695   5.722   5.342  0.00  0.00     0.013 C 
ATOM     10  C3' I4B d   1      -3.765   4.311   5.998  0.00  0.00     0.013 C 
ENDBRANCH   7   8
ENDBRANCH   1   7
TORSDOF 2
ENDMDL
