MODEL 1
REMARK minimizedAffinity 8.46916771
REMARK minimizedRMSD -1
REMARK  2 active torsions:
REMARK  status: ('A' for Active; 'I' for Inactive)
REMARK    1  A    between atoms: C2'_3  and  C1'_4 
REMARK    2  A    between atoms: C1'_4  and  C1_5 
ROOT
ATOM      1  C1  I4B d   1       2.397   1.833  -2.465  0.00  0.00    -0.075 A 
ATOM      2  C2  I4B d   1       1.654   2.979  -2.606  0.00  0.00     0.003 A 
ATOM      3  C3  I4B d   1       1.830   3.808  -3.741  0.00  0.00     0.002 A 
ATOM      4  C4  I4B d   1       2.789   3.481  -4.678  0.00  0.00    -0.004 A 
ATOM      5  C5  I4B d   1       3.525   2.307  -4.546  0.00  0.00     0.002 A 
ATOM      6  C6  I4B d   1       3.319   1.471  -3.438  0.00  0.00     0.003 A 
ENDROOT
BRANCH   1   7
ATOM      7  C1' I4B d   1       2.208   0.999  -1.238  0.00  0.00     0.060 C 
BRANCH   7   8
ATOM      8  C2' I4B d   1       2.657   1.816  -0.044  0.00  0.00    -0.013 C 
ATOM      9  C4' I4B d   1       1.545   1.972   0.959  0.00  0.00     0.013 C 
ATOM     10  C3' I4B d   1       3.844   1.132   0.565  0.00  0.00     0.013 C 
ENDBRANCH   7   8
ENDBRANCH   1   7
TORSDOF 2
ENDMDL
