MODEL 1
REMARK minimizedAffinity 7.39622164
REMARK minimizedRMSD -1
REMARK  2 active torsions:
REMARK  status: ('A' for Active; 'I' for Inactive)
REMARK    1  A    between atoms: C2'_3  and  C1'_4 
REMARK    2  A    between atoms: C1'_4  and  C1_5 
ROOT
ATOM      1  C1  I4B d   1      -3.571   0.849   0.602  0.00  0.00    -0.075 A 
ATOM      2  C2  I4B d   1      -3.888   1.901   1.424  0.00  0.00     0.003 A 
ATOM      3  C3  I4B d   1      -5.109   1.902   2.141  0.00  0.00     0.002 A 
ATOM      4  C4  I4B d   1      -6.000   0.863   1.968  0.00  0.00    -0.004 A 
ATOM      5  C5  I4B d   1      -5.666  -0.214   1.152  0.00  0.00     0.002 A 
ATOM      6  C6  I4B d   1      -4.439  -0.228   0.473  0.00  0.00     0.003 A 
ENDROOT
BRANCH   1   7
ATOM      7  C1' I4B d   1      -2.288   0.895  -0.166  0.00  0.00     0.060 C 
BRANCH   7   8
ATOM      8  C2' I4B d   1      -2.591   0.532  -1.605  0.00  0.00    -0.013 C 
ATOM      9  C4' I4B d   1      -1.847   1.426  -2.562  0.00  0.00     0.013 C 
ATOM     10  C3' I4B d   1      -2.219  -0.907  -1.808  0.00  0.00     0.013 C 
ENDBRANCH   7   8
ENDBRANCH   1   7
TORSDOF 2
ENDMDL
