MODEL 1
REMARK minimizedAffinity 0.42661652
REMARK minimizedRMSD -1
REMARK  2 active torsions:
REMARK  status: ('A' for Active; 'I' for Inactive)
REMARK    1  A    between atoms: C2'_3  and  C1'_4 
REMARK    2  A    between atoms: C1'_4  and  C1_5 
ROOT
ATOM      1  C1  I4B d   1      -3.640   0.195   3.313  0.00  0.00    -0.075 A 
ATOM      2  C2  I4B d   1      -4.742   0.472   2.542  0.00  0.00     0.003 A 
ATOM      3  C3  I4B d   1      -4.597   0.720   1.155  0.00  0.00     0.002 A 
ATOM      4  C4  I4B d   1      -3.336   0.730   0.595  0.00  0.00    -0.004 A 
ATOM      5  C5  I4B d   1      -2.223   0.427   1.373  0.00  0.00     0.002 A 
ATOM      6  C6  I4B d   1      -2.377   0.145   2.739  0.00  0.00     0.003 A 
ENDROOT
BRANCH   1   7
ATOM      7  C1' I4B d   1      -3.826  -0.029   4.780  0.00  0.00     0.060 C 
BRANCH   7   8
ATOM      8  C2' I4B d   1      -5.273   0.266   5.118  0.00  0.00    -0.013 C 
ATOM      9  C4' I4B d   1      -5.920  -0.902   5.813  0.00  0.00     0.013 C 
ATOM     10  C3' I4B d   1      -5.306   1.494   5.979  0.00  0.00     0.013 C 
ENDBRANCH   7   8
ENDBRANCH   1   7
TORSDOF 2
ENDMDL
