MODEL 1
REMARK minimizedAffinity 13.1817675
REMARK minimizedRMSD -1
REMARK  2 active torsions:
REMARK  status: ('A' for Active; 'I' for Inactive)
REMARK    1  A    between atoms: C2'_3  and  C1'_4 
REMARK    2  A    between atoms: C1'_4  and  C1_5 
ROOT
ATOM      1  C1  I4B d   1       0.488  -4.864   1.409  0.00  0.00    -0.075 A 
ATOM      2  C2  I4B d   1       1.626  -4.933   0.645  0.00  0.00     0.003 A 
ATOM      3  C3  I4B d   1       2.685  -4.018   0.857  0.00  0.00     0.002 A 
ATOM      4  C4  I4B d   1       2.544  -3.023   1.804  0.00  0.00    -0.004 A 
ATOM      5  C5  I4B d   1       1.399  -2.968   2.593  0.00  0.00     0.002 A 
ATOM      6  C6  I4B d   1       0.370  -3.902   2.404  0.00  0.00     0.003 A 
ENDROOT
BRANCH   1   7
ATOM      7  C1' I4B d   1      -0.624  -5.826   1.136  0.00  0.00     0.060 C 
BRANCH   7   8
ATOM      8  C2' I4B d   1      -1.916  -5.038   1.065  0.00  0.00    -0.013 C 
ATOM      9  C4' I4B d   1      -1.841  -3.961   0.014  0.00  0.00     0.013 C 
ATOM     10  C3' I4B d   1      -3.030  -6.000   0.776  0.00  0.00     0.013 C 
ENDBRANCH   7   8
ENDBRANCH   1   7
TORSDOF 2
ENDMDL
