MODEL 1
REMARK minimizedAffinity 1.78896415
REMARK minimizedRMSD -1
REMARK  2 active torsions:
REMARK  status: ('A' for Active; 'I' for Inactive)
REMARK    1  A    between atoms: C2'_3  and  C1'_4 
REMARK    2  A    between atoms: C1'_4  and  C1_5 
ROOT
ATOM      1  C1  I4B d   1      -0.453   1.487  -0.239  0.00  0.00    -0.075 A 
ATOM      2  C2  I4B d   1       0.138   1.865   0.941  0.00  0.00     0.003 A 
ATOM      3  C3  I4B d   1      -0.623   1.921   2.134  0.00  0.00     0.002 A 
ATOM      4  C4  I4B d   1      -1.973   1.640   2.092  0.00  0.00    -0.004 A 
ATOM      5  C5  I4B d   1      -2.566   1.235   0.900  0.00  0.00     0.002 A 
ATOM      6  C6  I4B d   1      -1.798   1.145  -0.271  0.00  0.00     0.003 A 
ENDROOT
BRANCH   1   7
ATOM      7  C1' I4B d   1       0.373   1.471  -1.486  0.00  0.00     0.060 C 
BRANCH   7   8
ATOM      8  C2' I4B d   1      -0.533   1.095  -2.641  0.00  0.00    -0.013 C 
ATOM      9  C4' I4B d   1      -0.638   2.218  -3.639  0.00  0.00     0.013 C 
ATOM     10  C3' I4B d   1       0.019  -0.145  -3.277  0.00  0.00     0.013 C 
ENDBRANCH   7   8
ENDBRANCH   1   7
TORSDOF 2
ENDMDL
