MODEL 1
REMARK minimizedAffinity 7.65531921
REMARK minimizedRMSD -1
REMARK  2 active torsions:
REMARK  status: ('A' for Active; 'I' for Inactive)
REMARK    1  A    between atoms: C2'_3  and  C1'_4 
REMARK    2  A    between atoms: C1'_4  and  C1_5 
ROOT
ATOM      1  C1  I4B d   1      -0.392   0.088  -3.453  0.00  0.00    -0.075 A 
ATOM      2  C2  I4B d   1      -1.572  -0.095  -4.129  0.00  0.00     0.003 A 
ATOM      3  C3  I4B d   1      -2.517   0.955  -4.210  0.00  0.00     0.002 A 
ATOM      4  C4  I4B d   1      -2.266   2.147  -3.561  0.00  0.00    -0.004 A 
ATOM      5  C5  I4B d   1      -1.059   2.339  -2.895  0.00  0.00     0.002 A 
ATOM      6  C6  I4B d   1      -0.110   1.307  -2.851  0.00  0.00     0.003 A 
ENDROOT
BRANCH   1   7
ATOM      7  C1' I4B d   1       0.570  -1.054  -3.359  0.00  0.00     0.060 C 
BRANCH   7   8
ATOM      8  C2' I4B d   1       1.935  -0.551  -3.784  0.00  0.00    -0.013 C 
ATOM      9  C4' I4B d   1       2.900  -0.550  -2.627  0.00  0.00     0.013 C 
ATOM     10  C3' I4B d   1       2.426  -1.427  -4.897  0.00  0.00     0.013 C 
ENDBRANCH   7   8
ENDBRANCH   1   7
TORSDOF 2
ENDMDL
