MODEL 1
REMARK minimizedAffinity -3.78350329
REMARK minimizedRMSD -1
REMARK  2 active torsions:
REMARK  status: ('A' for Active; 'I' for Inactive)
REMARK    1  A    between atoms: C2'_3  and  C1'_4 
REMARK    2  A    between atoms: C1'_4  and  C1_5 
ROOT
ATOM      1  C1  I4B d   1       0.374   1.121  -3.105  0.00  0.00    -0.075 A 
ATOM      2  C2  I4B d   1      -0.174   2.314  -3.507  0.00  0.00     0.003 A 
ATOM      3  C3  I4B d   1      -1.359   2.328  -4.283  0.00  0.00     0.002 A 
ATOM      4  C4  I4B d   1      -1.929   1.134  -4.675  0.00  0.00    -0.004 A 
ATOM      5  C5  I4B d   1      -1.384  -0.074  -4.248  0.00  0.00     0.002 A 
ATOM      6  C6  I4B d   1      -0.232  -0.080  -3.448  0.00  0.00     0.003 A 
ENDROOT
BRANCH   1   7
ATOM      7  C1' I4B d   1       1.644   1.142  -2.315  0.00  0.00     0.060 C 
BRANCH   7   8
ATOM      8  C2' I4B d   1       2.740   0.548  -3.176  0.00  0.00    -0.013 C 
ATOM      9  C4' I4B d   1       2.297  -0.745  -3.807  0.00  0.00     0.013 C 
ATOM     10  C3' I4B d   1       3.110   1.561  -4.218  0.00  0.00     0.013 C 
ENDBRANCH   7   8
ENDBRANCH   1   7
TORSDOF 2
ENDMDL
