MODEL 1
REMARK minimizedAffinity 8.00236988
REMARK minimizedRMSD -1
REMARK  2 active torsions:
REMARK  status: ('A' for Active; 'I' for Inactive)
REMARK    1  A    between atoms: C2'_3  and  C1'_4 
REMARK    2  A    between atoms: C1'_4  and  C1_5 
ROOT
ATOM      1  C1  I4B d   1       2.913   1.864  -2.597  0.00  0.00    -0.075 A 
ATOM      2  C2  I4B d   1       3.827   1.840  -3.620  0.00  0.00     0.003 A 
ATOM      3  C3  I4B d   1       3.730   2.769  -4.684  0.00  0.00     0.002 A 
ATOM      4  C4  I4B d   1       2.682   3.666  -4.711  0.00  0.00    -0.004 A 
ATOM      5  C5  I4B d   1       1.769   3.704  -3.661  0.00  0.00     0.002 A 
ATOM      6  C6  I4B d   1       1.891   2.806  -2.591  0.00  0.00     0.003 A 
ENDROOT
BRANCH   1   7
ATOM      7  C1' I4B d   1       3.025   0.848  -1.505  0.00  0.00     0.060 C 
BRANCH   7   8
ATOM      8  C2' I4B d   1       3.460   1.564  -0.243  0.00  0.00    -0.013 C 
ATOM      9  C4' I4B d   1       2.275   2.103   0.514  0.00  0.00     0.013 C 
ATOM     10  C3' I4B d   1       4.241   0.595   0.594  0.00  0.00     0.013 C 
ENDBRANCH   7   8
ENDBRANCH   1   7
TORSDOF 2
ENDMDL
