MODEL 1
REMARK minimizedAffinity -3.74794102
REMARK minimizedRMSD -1
REMARK  2 active torsions:
REMARK  status: ('A' for Active; 'I' for Inactive)
REMARK    1  A    between atoms: C1_2  and  C2_3 
REMARK    2  A    between atoms: C2_3  and  C3_4 
ROOT
ATOM      1  C3  UNL d   1       1.425  -2.868  -0.102  0.00  0.00    -0.075 A 
ATOM      2  C4  UNL d   1       2.121  -1.668   0.104  0.00  0.00     0.002 A 
ATOM      3  C5  UNL d   1       1.461  -0.543   0.600  0.00  0.00     0.002 A 
ATOM      4  C6  UNL d   1       0.099  -0.600   0.886  0.00  0.00    -0.004 A 
ATOM      5  C7  UNL d   1      -0.606  -1.782   0.670  0.00  0.00     0.002 A 
ATOM      6  C8  UNL d   1       0.053  -2.911   0.178  0.00  0.00     0.002 A 
ENDROOT
BRANCH   1   7
ATOM      7  C2  UNL d   1       2.139  -4.097  -0.611  0.00  0.00     0.056 C 
BRANCH   7   8
ATOM      8  C1  UNL d   1       3.619  -4.166  -0.219  0.00  0.00     0.007 C 
ATOM      9  C   UNL d   1       4.103  -5.584   0.052  0.00  0.00     0.009 C 
ENDBRANCH   7   8
ENDBRANCH   1   7
TORSDOF 2
ENDMDL
