MODEL 1
REMARK minimizedAffinity 0.888073564
REMARK minimizedRMSD -1
REMARK  2 active torsions:
REMARK  status: ('A' for Active; 'I' for Inactive)
REMARK    1  A    between atoms: C1_2  and  C2_3 
REMARK    2  A    between atoms: C2_3  and  C3_4 
ROOT
ATOM      1  C3  UNL d   1       2.068  -0.898   0.839  0.00  0.00    -0.075 A 
ATOM      2  C4  UNL d   1       1.323  -1.716  -0.022  0.00  0.00     0.002 A 
ATOM      3  C5  UNL d   1      -0.072  -1.686   0.003  0.00  0.00     0.002 A 
ATOM      4  C6  UNL d   1      -0.738  -0.848   0.895  0.00  0.00    -0.004 A 
ATOM      5  C7  UNL d   1      -0.007  -0.044   1.767  0.00  0.00     0.002 A 
ATOM      6  C8  UNL d   1       1.388  -0.068   1.741  0.00  0.00     0.002 A 
ENDROOT
BRANCH   1   7
ATOM      7  C2  UNL d   1       3.578  -0.903   0.796  0.00  0.00     0.056 C 
BRANCH   7   8
ATOM      8  C1  UNL d   1       4.241  -0.741   2.168  0.00  0.00     0.007 C 
ATOM      9  C   UNL d   1       5.567  -1.482   2.285  0.00  0.00     0.009 C 
ENDBRANCH   7   8
ENDBRANCH   1   7
TORSDOF 2
ENDMDL
