MODEL 1
REMARK minimizedAffinity -6.77472591
REMARK minimizedRMSD -1
REMARK  2 active torsions:
REMARK  status: ('A' for Active; 'I' for Inactive)
REMARK    1  A    between atoms: C1_2  and  C2_3 
REMARK    2  A    between atoms: C2_3  and  C3_4 
ROOT
ATOM      1  C3  UNL d   1      -0.003  -1.622   1.093  0.00  0.00    -0.075 A 
ATOM      2  C4  UNL d   1       1.017  -0.687   0.865  0.00  0.00     0.002 A 
ATOM      3  C5  UNL d   1       2.287  -1.107   0.468  0.00  0.00     0.002 A 
ATOM      4  C6  UNL d   1       2.556  -2.464   0.304  0.00  0.00    -0.004 A 
ATOM      5  C7  UNL d   1       1.555  -3.403   0.544  0.00  0.00     0.002 A 
ATOM      6  C8  UNL d   1       0.282  -2.985   0.937  0.00  0.00     0.002 A 
ENDROOT
BRANCH   1   7
ATOM      7  C2  UNL d   1      -1.388  -1.173   1.494  0.00  0.00     0.056 C 
BRANCH   7   8
ATOM      8  C1  UNL d   1      -1.498   0.329   1.779  0.00  0.00     0.007 C 
ATOM      9  C   UNL d   1      -2.557   1.024   0.934  0.00  0.00     0.009 C 
ENDBRANCH   7   8
ENDBRANCH   1   7
TORSDOF 2
ENDMDL
