MODEL 1
REMARK minimizedAffinity -4.80874491
REMARK minimizedRMSD -1
REMARK  2 active torsions:
REMARK  status: ('A' for Active; 'I' for Inactive)
REMARK    1  A    between atoms: C1_2  and  C2_3 
REMARK    2  A    between atoms: C2_3  and  C3_4 
ROOT
ATOM      1  C3  UNL d   1       1.226  -2.712   0.247  0.00  0.00    -0.075 A 
ATOM      2  C4  UNL d   1       1.905  -1.629   0.823  0.00  0.00     0.002 A 
ATOM      3  C5  UNL d   1       1.263  -0.403   1.000  0.00  0.00     0.002 A 
ATOM      4  C6  UNL d   1      -0.060  -0.242   0.594  0.00  0.00    -0.004 A 
ATOM      5  C7  UNL d   1      -0.740  -1.306   0.005  0.00  0.00     0.002 A 
ATOM      6  C8  UNL d   1      -0.101  -2.535  -0.169  0.00  0.00     0.002 A 
ENDROOT
BRANCH   1   7
ATOM      7  C2  UNL d   1       1.905  -4.050   0.080  0.00  0.00     0.056 C 
BRANCH   7   8
ATOM      8  C1  UNL d   1       3.436  -3.979   0.096  0.00  0.00     0.007 C 
ATOM      9  C   UNL d   1       4.100  -5.342   0.235  0.00  0.00     0.009 C 
ENDBRANCH   7   8
ENDBRANCH   1   7
TORSDOF 2
ENDMDL
