MODEL 1
REMARK minimizedAffinity -2.09568596
REMARK minimizedRMSD -1
REMARK  2 active torsions:
REMARK  status: ('A' for Active; 'I' for Inactive)
REMARK    1  A    between atoms: C1_2  and  C2_3 
REMARK    2  A    between atoms: C2_3  and  C3_4 
ROOT
ATOM      1  C3  UNL d   1       1.689  -2.958   0.404  0.00  0.00    -0.075 A 
ATOM      2  C4  UNL d   1       0.560  -3.717   0.064  0.00  0.00     0.002 A 
ATOM      3  C5  UNL d   1      -0.722  -3.194   0.233  0.00  0.00     0.002 A 
ATOM      4  C6  UNL d   1      -0.893  -1.913   0.753  0.00  0.00    -0.004 A 
ATOM      5  C7  UNL d   1       0.221  -1.156   1.110  0.00  0.00     0.002 A 
ATOM      6  C8  UNL d   1       1.506  -1.675   0.937  0.00  0.00     0.002 A 
ENDROOT
BRANCH   1   7
ATOM      7  C2  UNL d   1       3.080  -3.507   0.196  0.00  0.00     0.056 C 
BRANCH   7   8
ATOM      8  C1  UNL d   1       3.111  -4.926  -0.382  0.00  0.00     0.007 C 
ATOM      9  C   UNL d   1       4.184  -5.806   0.245  0.00  0.00     0.009 C 
ENDBRANCH   7   8
ENDBRANCH   1   7
TORSDOF 2
ENDMDL
