MODEL 1
REMARK minimizedAffinity -2.90253592
REMARK minimizedRMSD -1
REMARK  2 active torsions:
REMARK  status: ('A' for Active; 'I' for Inactive)
REMARK    1  A    between atoms: C1_2  and  C2_3 
REMARK    2  A    between atoms: C2_3  and  C3_4 
ROOT
ATOM      1  C3  UNL d   1       1.395  -3.097   0.343  0.00  0.00    -0.075 A 
ATOM      2  C4  UNL d   1       2.096  -1.911   0.607  0.00  0.00     0.002 A 
ATOM      3  C5  UNL d   1       1.410  -0.713   0.807  0.00  0.00     0.002 A 
ATOM      4  C6  UNL d   1       0.019  -0.682   0.736  0.00  0.00    -0.004 A 
ATOM      5  C7  UNL d   1      -0.686  -1.851   0.458  0.00  0.00     0.002 A 
ATOM      6  C8  UNL d   1      -0.003  -3.052   0.261  0.00  0.00     0.002 A 
ENDROOT
BRANCH   1   7
ATOM      7  C2  UNL d   1       2.130  -4.403   0.155  0.00  0.00     0.056 C 
BRANCH   7   8
ATOM      8  C1  UNL d   1       3.652  -4.255   0.069  0.00  0.00     0.007 C 
ATOM      9  C   UNL d   1       4.401  -5.524   0.453  0.00  0.00     0.009 C 
ENDBRANCH   7   8
ENDBRANCH   1   7
TORSDOF 2
ENDMDL
