MODEL 1
REMARK minimizedAffinity 9.11239243
REMARK minimizedRMSD -1
REMARK  2 active torsions:
REMARK  status: ('A' for Active; 'I' for Inactive)
REMARK    1  A    between atoms: C1_2  and  C2_3 
REMARK    2  A    between atoms: C2_3  and  C3_4 
ROOT
ATOM      1  C3  UNL d   1      -0.366  -0.386   3.039  0.00  0.00    -0.075 A 
ATOM      2  C4  UNL d   1      -0.400  -0.520   4.434  0.00  0.00     0.002 A 
ATOM      3  C5  UNL d   1      -1.232   0.293   5.204  0.00  0.00     0.002 A 
ATOM      4  C6  UNL d   1      -2.032   1.255   4.591  0.00  0.00    -0.004 A 
ATOM      5  C7  UNL d   1      -1.995   1.408   3.207  0.00  0.00     0.002 A 
ATOM      6  C8  UNL d   1      -1.166   0.593   2.434  0.00  0.00     0.002 A 
ENDROOT
BRANCH   1   7
ATOM      7  C2  UNL d   1       0.510  -1.283   2.197  0.00  0.00     0.056 C 
BRANCH   7   8
ATOM      8  C1  UNL d   1      -0.265  -2.310   1.365  0.00  0.00     0.007 C 
ATOM      9  C   UNL d   1       0.607  -3.449   0.854  0.00  0.00     0.009 C 
ENDBRANCH   7   8
ENDBRANCH   1   7
TORSDOF 2
ENDMDL
