MODEL 1
REMARK minimizedAffinity 2.01502705
REMARK minimizedRMSD -1
REMARK  2 active torsions:
REMARK  status: ('A' for Active; 'I' for Inactive)
REMARK    1  A    between atoms: C1_2  and  C2_3 
REMARK    2  A    between atoms: C2_3  and  C3_4 
ROOT
ATOM      1  C3  UNL d   1       2.656   3.387  -1.271  0.00  0.00    -0.075 A 
ATOM      2  C4  UNL d   1       1.954   3.011  -2.426  0.00  0.00     0.002 A 
ATOM      3  C5  UNL d   1       2.250   1.814  -3.077  0.00  0.00     0.002 A 
ATOM      4  C6  UNL d   1       3.257   0.983  -2.590  0.00  0.00    -0.004 A 
ATOM      5  C7  UNL d   1       3.973   1.355  -1.454  0.00  0.00     0.002 A 
ATOM      6  C8  UNL d   1       3.675   2.550  -0.798  0.00  0.00     0.002 A 
ENDROOT
BRANCH   1   7
ATOM      7  C2  UNL d   1       2.320   4.668  -0.545  0.00  0.00     0.056 C 
BRANCH   7   8
ATOM      8  C1  UNL d   1       1.457   4.467   0.705  0.00  0.00     0.007 C 
ATOM      9  C   UNL d   1      -0.034   4.404   0.402  0.00  0.00     0.009 C 
ENDBRANCH   7   8
ENDBRANCH   1   7
TORSDOF 2
ENDMDL
