MODEL 1
REMARK minimizedAffinity 5.26798439
REMARK minimizedRMSD -1
REMARK  0 active torsions:
REMARK  status: ('A' for Active; 'I' for Inactive)
ROOT
ATOM      1  C   UNL d   1       3.716   1.432   0.290  0.00  0.00     0.023 A 
ATOM      2  C1  UNL d   1       2.339   1.557   0.472  0.00  0.00     0.003 A 
ATOM      3  C2  UNL d   1       1.544   2.092  -0.543  0.00  0.00     0.048 A 
ATOM      4  C3  UNL d   1       2.133   2.501  -1.739  0.00  0.00     0.023 A 
ATOM      5  C4  UNL d   1       3.510   2.377  -1.927  0.00  0.00     0.048 A 
ATOM      6  C5  UNL d   1       4.301   1.842  -0.908  0.00  0.00     0.003 A 
ATOM      7  I   UNL d   1       0.952   3.298  -3.252  0.00  0.00    -0.146 I 
ENDROOT
TORSDOF 0
ENDMDL
