MODEL 1
REMARK minimizedAffinity 9.73668957
REMARK minimizedRMSD -1
REMARK  0 active torsions:
REMARK  status: ('A' for Active; 'I' for Inactive)
ROOT
ATOM      1  C   UNL d   1      -0.906  -3.619  -2.226  0.00  0.00     0.023 A 
ATOM      2  C1  UNL d   1      -1.838  -2.766  -2.815  0.00  0.00     0.003 A 
ATOM      3  C2  UNL d   1      -2.638  -3.222  -3.866  0.00  0.00     0.048 A 
ATOM      4  C3  UNL d   1      -2.499  -4.532  -4.321  0.00  0.00     0.023 A 
ATOM      5  C4  UNL d   1      -1.568  -5.390  -3.734  0.00  0.00     0.048 A 
ATOM      6  C5  UNL d   1      -0.771  -4.930  -2.684  0.00  0.00     0.003 A 
ATOM      7  I   UNL d   1      -3.688  -5.213  -5.884  0.00  0.00    -0.146 I 
ENDROOT
TORSDOF 0
ENDMDL
