MODEL 1
REMARK minimizedAffinity 13.4267406
REMARK minimizedRMSD -1
REMARK  0 active torsions:
REMARK  status: ('A' for Active; 'I' for Inactive)
ROOT
ATOM      1  C   UNL d   1       5.859   4.268  -4.876  0.00  0.00     0.023 A 
ATOM      2  C1  UNL d   1       4.903   3.458  -5.490  0.00  0.00     0.003 A 
ATOM      3  C2  UNL d   1       3.801   3.002  -4.764  0.00  0.00     0.048 A 
ATOM      4  C3  UNL d   1       3.660   3.361  -3.423  0.00  0.00     0.023 A 
ATOM      5  C4  UNL d   1       4.613   4.172  -2.805  0.00  0.00     0.048 A 
ATOM      6  C5  UNL d   1       5.714   4.624  -3.535  0.00  0.00     0.003 A 
ATOM      7  I   UNL d   1       2.021   2.684  -2.340  0.00  0.00    -0.146 I 
ENDROOT
TORSDOF 0
ENDMDL
