MODEL 1
REMARK minimizedAffinity 9.04718781
REMARK minimizedRMSD -1
REMARK  0 active torsions:
REMARK  status: ('A' for Active; 'I' for Inactive)
ROOT
ATOM      1  C   UNL d   1      -1.199  -0.870   2.274  0.00  0.00     0.023 A 
ATOM      2  C1  UNL d   1      -1.792  -1.619   1.258  0.00  0.00     0.003 A 
ATOM      3  C2  UNL d   1      -3.078  -1.302   0.815  0.00  0.00     0.048 A 
ATOM      4  C3  UNL d   1      -3.765  -0.235   1.392  0.00  0.00     0.023 A 
ATOM      5  C4  UNL d   1      -3.175   0.518   2.409  0.00  0.00     0.048 A 
ATOM      6  C5  UNL d   1      -1.889   0.197   2.849  0.00  0.00     0.003 A 
ATOM      7  I   UNL d   1      -5.679   0.239   0.735  0.00  0.00    -0.146 I 
ENDROOT
TORSDOF 0
ENDMDL
