MODEL 1
REMARK minimizedAffinity 15.2396708
REMARK minimizedRMSD -1
REMARK  0 active torsions:
REMARK  status: ('A' for Active; 'I' for Inactive)
ROOT
ATOM      1  C   UNL d   1       2.950   2.642  -4.623  0.00  0.00     0.023 A 
ATOM      2  C1  UNL d   1       4.148   3.199  -5.072  0.00  0.00     0.003 A 
ATOM      3  C2  UNL d   1       5.023   3.799  -4.164  0.00  0.00     0.048 A 
ATOM      4  C3  UNL d   1       4.695   3.837  -2.809  0.00  0.00     0.023 A 
ATOM      5  C4  UNL d   1       3.498   3.281  -2.356  0.00  0.00     0.048 A 
ATOM      6  C5  UNL d   1       2.626   2.683  -3.267  0.00  0.00     0.003 A 
ATOM      7  I   UNL d   1       5.997   4.729  -1.457  0.00  0.00    -0.146 I 
ENDROOT
TORSDOF 0
ENDMDL
