MODEL 1
REMARK minimizedAffinity 6.49735546
REMARK minimizedRMSD -1
REMARK  0 active torsions:
REMARK  status: ('A' for Active; 'I' for Inactive)
ROOT
ATOM      1  C   UNL d   1      -4.316   0.938   6.000  0.00  0.00     0.023 A 
ATOM      2  C1  UNL d   1      -5.633   1.168   5.603  0.00  0.00     0.003 A 
ATOM      3  C2  UNL d   1      -6.000   1.000   4.266  0.00  0.00     0.048 A 
ATOM      4  C3  UNL d   1      -5.045   0.601   3.332  0.00  0.00     0.023 A 
ATOM      5  C4  UNL d   1      -3.726   0.368   3.725  0.00  0.00     0.048 A 
ATOM      6  C5  UNL d   1      -3.363   0.538   5.062  0.00  0.00     0.003 A 
ATOM      7  I   UNL d   1      -5.589   0.350   1.341  0.00  0.00    -0.146 I 
ENDROOT
TORSDOF 0
ENDMDL
