MODEL 1
REMARK minimizedAffinity 18.9560032
REMARK minimizedRMSD -1
REMARK  0 active torsions:
REMARK  status: ('A' for Active; 'I' for Inactive)
ROOT
ATOM      1  C   UNL d   1      -2.535  -0.715   1.272  0.00  0.00     0.023 A 
ATOM      2  C1  UNL d   1      -1.829   0.053   2.198  0.00  0.00     0.003 A 
ATOM      3  C2  UNL d   1      -0.579  -0.375   2.653  0.00  0.00     0.048 A 
ATOM      4  C3  UNL d   1      -0.042  -1.570   2.175  0.00  0.00     0.023 A 
ATOM      5  C4  UNL d   1      -0.745  -2.340   1.248  0.00  0.00     0.048 A 
ATOM      6  C5  UNL d   1      -1.994  -1.909   0.798  0.00  0.00     0.003 A 
ATOM      7  I   UNL d   1       1.818  -2.207   2.850  0.00  0.00    -0.146 I 
ENDROOT
TORSDOF 0
ENDMDL
