MODEL 1
REMARK minimizedAffinity 10.0055656
REMARK minimizedRMSD -1
REMARK  0 active torsions:
REMARK  status: ('A' for Active; 'I' for Inactive)
ROOT
ATOM      1  C   UNL d   1       1.047  -5.291  -3.347  0.00  0.00     0.023 A 
ATOM      2  C1  UNL d   1       1.103  -5.813  -4.640  0.00  0.00     0.003 A 
ATOM      3  C2  UNL d   1      -0.066  -5.949  -5.391  0.00  0.00     0.048 A 
ATOM      4  C3  UNL d   1      -1.288  -5.559  -4.844  0.00  0.00     0.023 A 
ATOM      5  C4  UNL d   1      -1.349  -5.035  -3.552  0.00  0.00     0.048 A 
ATOM      6  C5  UNL d   1      -0.178  -4.902  -2.804  0.00  0.00     0.003 A 
ATOM      7  I   UNL d   1      -3.030  -5.760  -5.960  0.00  0.00    -0.146 I 
ENDROOT
TORSDOF 0
ENDMDL
