MODEL 1
REMARK minimizedAffinity 5.75802326
REMARK minimizedRMSD -1
REMARK  0 active torsions:
REMARK  status: ('A' for Active; 'I' for Inactive)
ROOT
ATOM      1  C   UNL d   1      -2.404  -4.748  -4.520  0.00  0.00     0.023 A 
ATOM      2  C1  UNL d   1      -1.905  -5.638  -5.472  0.00  0.00     0.003 A 
ATOM      3  C2  UNL d   1      -0.556  -5.998  -5.454  0.00  0.00     0.048 A 
ATOM      4  C3  UNL d   1       0.288  -5.465  -4.480  0.00  0.00     0.023 A 
ATOM      5  C4  UNL d   1      -0.206  -4.576  -3.525  0.00  0.00     0.048 A 
ATOM      6  C5  UNL d   1      -1.556  -4.218  -3.548  0.00  0.00     0.003 A 
ATOM      7  I   UNL d   1       2.297  -6.000  -4.451  0.00  0.00    -0.146 I 
ENDROOT
TORSDOF 0
ENDMDL
