MODEL 1
REMARK minimizedAffinity 14.5003548
REMARK minimizedRMSD -1
REMARK  0 active torsions:
REMARK  status: ('A' for Active; 'I' for Inactive)
ROOT
ATOM      1  C   UNL d   1       2.388   0.262   1.135  0.00  0.00     0.023 A 
ATOM      2  C1  UNL d   1       3.278   0.193   2.207  0.00  0.00     0.003 A 
ATOM      3  C2  UNL d   1       4.230   1.197   2.390  0.00  0.00     0.048 A 
ATOM      4  C3  UNL d   1       4.287   2.268   1.499  0.00  0.00     0.023 A 
ATOM      5  C4  UNL d   1       3.398   2.341   0.425  0.00  0.00     0.048 A 
ATOM      6  C5  UNL d   1       2.448   1.334   0.245  0.00  0.00     0.003 A 
ATOM      7  I   UNL d   1       5.704   3.764   1.769  0.00  0.00    -0.146 I 
ENDROOT
TORSDOF 0
ENDMDL
