MODEL 1
REMARK minimizedAffinity 6.73007488
REMARK minimizedRMSD -1
REMARK  0 active torsions:
REMARK  status: ('A' for Active; 'I' for Inactive)
ROOT
ATOM      1  C   UNL d   1      -4.874   1.202   5.620  0.00  0.00     0.023 A 
ATOM      2  C1  UNL d   1      -4.828  -0.139   5.999  0.00  0.00     0.003 A 
ATOM      3  C2  UNL d   1      -4.780  -1.140   5.027  0.00  0.00     0.048 A 
ATOM      4  C3  UNL d   1      -4.779  -0.793   3.677  0.00  0.00     0.023 A 
ATOM      5  C4  UNL d   1      -4.825   0.548   3.292  0.00  0.00     0.048 A 
ATOM      6  C5  UNL d   1      -4.873   1.546   4.268  0.00  0.00     0.003 A 
ATOM      7  I   UNL d   1      -4.709  -2.281   2.228  0.00  0.00    -0.146 I 
ENDROOT
TORSDOF 0
ENDMDL
