MODEL 1
REMARK minimizedAffinity 10.4836721
REMARK minimizedRMSD -1
REMARK  0 active torsions:
REMARK  status: ('A' for Active; 'I' for Inactive)
ROOT
ATOM      1  C   UNL d   1      -5.288  -3.652   1.738  0.00  0.00     0.023 A 
ATOM      2  C1  UNL d   1      -4.617  -3.103   2.831  0.00  0.00     0.003 A 
ATOM      3  C2  UNL d   1      -4.607  -3.775   4.055  0.00  0.00     0.048 A 
ATOM      4  C3  UNL d   1      -5.268  -4.996   4.179  0.00  0.00     0.023 A 
ATOM      5  C4  UNL d   1      -5.940  -5.550   3.088  0.00  0.00     0.048 A 
ATOM      6  C5  UNL d   1      -5.949  -4.874   1.866  0.00  0.00     0.003 A 
ATOM      7  I   UNL d   1      -5.254  -5.998   6.000  0.00  0.00    -0.146 I 
ENDROOT
TORSDOF 0
ENDMDL
