MODEL 1
REMARK minimizedAffinity 13.1331129
REMARK minimizedRMSD -1
REMARK  0 active torsions:
REMARK  status: ('A' for Active; 'I' for Inactive)
ROOT
ATOM      1  C   UNL d   1      -0.691  -0.586   2.404  0.00  0.00     0.023 A 
ATOM      2  C1  UNL d   1      -1.451   0.414   3.011  0.00  0.00     0.003 A 
ATOM      3  C2  UNL d   1      -2.762   0.648   2.591  0.00  0.00     0.048 A 
ATOM      4  C3  UNL d   1      -3.308  -0.122   1.565  0.00  0.00     0.023 A 
ATOM      5  C4  UNL d   1      -2.552  -1.125   0.956  0.00  0.00     0.048 A 
ATOM      6  C5  UNL d   1      -1.241  -1.355   1.378  0.00  0.00     0.003 A 
ATOM      7  I   UNL d   1      -5.259   0.224   0.939  0.00  0.00    -0.146 I 
ENDROOT
TORSDOF 0
ENDMDL
