MODEL 1
REMARK minimizedAffinity 14.9413595
REMARK minimizedRMSD -1
REMARK  0 active torsions:
REMARK  status: ('A' for Active; 'I' for Inactive)
ROOT
ATOM      1  C   UNL d   1      -4.875  -3.502   1.829  0.00  0.00     0.023 A 
ATOM      2  C1  UNL d   1      -4.971  -4.893   1.805  0.00  0.00     0.003 A 
ATOM      3  C2  UNL d   1      -5.027  -5.612   3.001  0.00  0.00     0.048 A 
ATOM      4  C3  UNL d   1      -4.988  -4.932   4.218  0.00  0.00     0.023 A 
ATOM      5  C4  UNL d   1      -4.893  -3.540   4.247  0.00  0.00     0.048 A 
ATOM      6  C5  UNL d   1      -4.836  -2.826   3.049  0.00  0.00     0.003 A 
ATOM      7  I   UNL d   1      -5.072  -5.999   6.000  0.00  0.00    -0.146 I 
ENDROOT
TORSDOF 0
ENDMDL
