MODEL 1
REMARK minimizedAffinity 6.77855778
REMARK minimizedRMSD -1
REMARK  0 active torsions:
REMARK  status: ('A' for Active; 'I' for Inactive)
ROOT
ATOM      1  C   UNL d   1      -5.999  -5.985   5.216  0.00  0.00     0.023 A 
ATOM      2  C1  UNL d   1      -5.711  -4.822   5.931  0.00  0.00     0.003 A 
ATOM      3  C2  UNL d   1      -5.298  -3.671   5.257  0.00  0.00     0.048 A 
ATOM      4  C3  UNL d   1      -5.176  -3.689   3.868  0.00  0.00     0.023 A 
ATOM      5  C4  UNL d   1      -5.464  -4.850   3.149  0.00  0.00     0.048 A 
ATOM      6  C5  UNL d   1      -5.876  -5.999   3.827  0.00  0.00     0.003 A 
ATOM      7  I   UNL d   1      -4.562  -1.977   2.862  0.00  0.00    -0.146 I 
ENDROOT
TORSDOF 0
ENDMDL
