MODEL 1
REMARK minimizedAffinity 3.16260076
REMARK minimizedRMSD -1
REMARK  0 active torsions:
REMARK  status: ('A' for Active; 'I' for Inactive)
ROOT
ATOM      1  C   UNL d   1      -2.164   1.413   4.944  0.00  0.00     0.023 A 
ATOM      2  C1  UNL d   1      -1.485   0.600   5.852  0.00  0.00     0.003 A 
ATOM      3  C2  UNL d   1      -0.426  -0.200   5.419  0.00  0.00     0.048 A 
ATOM      4  C3  UNL d   1      -0.050  -0.182   4.077  0.00  0.00     0.023 A 
ATOM      5  C4  UNL d   1      -0.725   0.631   3.165  0.00  0.00     0.048 A 
ATOM      6  C5  UNL d   1      -1.784   1.428   3.602  0.00  0.00     0.003 A 
ATOM      7  I   UNL d   1       1.527  -1.371   3.429  0.00  0.00    -0.146 I 
ENDROOT
TORSDOF 0
ENDMDL
