MODEL 1
REMARK minimizedAffinity 20.7037086
REMARK minimizedRMSD -1
REMARK  0 active torsions:
REMARK  status: ('A' for Active; 'I' for Inactive)
ROOT
ATOM      1  C   UNL d   1       2.023   2.960  -1.906  0.00  0.00     0.023 A 
ATOM      2  C1  UNL d   1       1.474   2.210  -2.947  0.00  0.00     0.003 A 
ATOM      3  C2  UNL d   1       0.497   2.770  -3.772  0.00  0.00     0.048 A 
ATOM      4  C3  UNL d   1       0.074   4.080  -3.552  0.00  0.00     0.023 A 
ATOM      5  C4  UNL d   1       0.621   4.834  -2.513  0.00  0.00     0.048 A 
ATOM      6  C5  UNL d   1       1.597   4.270  -1.690  0.00  0.00     0.003 A 
ATOM      7  I   UNL d   1      -1.381   4.916  -4.779  0.00  0.00    -0.146 I 
ENDROOT
TORSDOF 0
ENDMDL
