MODEL 1
REMARK minimizedAffinity 15.722476
REMARK minimizedRMSD -1
REMARK  0 active torsions:
REMARK  status: ('A' for Active; 'I' for Inactive)
ROOT
ATOM      1  C   UNL d   1      -5.894  -0.970  -4.665  0.00  0.00     0.023 A 
ATOM      2  C1  UNL d   1      -5.802   0.342  -4.200  0.00  0.00     0.003 A 
ATOM      3  C2  UNL d   1      -5.808   0.599  -2.827  0.00  0.00     0.048 A 
ATOM      4  C3  UNL d   1      -5.905  -0.460  -1.926  0.00  0.00     0.023 A 
ATOM      5  C4  UNL d   1      -5.997  -1.774  -2.387  0.00  0.00     0.048 A 
ATOM      6  C5  UNL d   1      -5.991  -2.027  -3.760  0.00  0.00     0.003 A 
ATOM      7  I   UNL d   1      -5.914  -0.079   0.118  0.00  0.00    -0.146 I 
ENDROOT
TORSDOF 0
ENDMDL
