MODEL 1
REMARK minimizedAffinity -3.90694571
REMARK minimizedRMSD -1
REMARK  0 active torsions:
REMARK  status: ('A' for Active; 'I' for Inactive)
ROOT
ATOM      1  C4' PXY d   1       1.507  -3.231   0.746  0.00  0.00     0.077 C 
ATOM      2  C1' PXY d   1      -1.067   1.828  -0.347  0.00  0.00     0.077 C 
ATOM      3  C1  PXY d   1      -0.382   0.505  -0.068  0.00  0.00    -0.082 A 
ATOM      4  C2  PXY d   1      -1.105  -0.544   0.289  0.00  0.00     0.003 A 
ATOM      5  C3  PXY d   1      -0.499  -1.740   0.576  0.00  0.00     0.003 A 
ATOM      6  C4  PXY d   1       0.857  -1.878   0.445  0.00  0.00    -0.082 A 
ATOM      7  C5  PXY d   1       1.601  -0.815   0.072  0.00  0.00     0.003 A 
ATOM      8  C6  PXY d   1       0.971   0.401  -0.176  0.00  0.00     0.003 A 
ENDROOT
TORSDOF 0
ENDMDL
