MODEL 1
REMARK minimizedAffinity -5.28112221
REMARK minimizedRMSD -1
REMARK  0 active torsions:
REMARK  status: ('A' for Active; 'I' for Inactive)
ROOT
ATOM      1  C4' PXY d   1       1.638  -2.889   1.010  0.00  0.00     0.077 C 
ATOM      2  C1' PXY d   1      -0.763   2.260  -0.055  0.00  0.00     0.077 C 
ATOM      3  C1  PXY d   1      -0.140   0.909   0.235  0.00  0.00    -0.082 A 
ATOM      4  C2  PXY d   1       1.055   0.621  -0.253  0.00  0.00     0.003 A 
ATOM      5  C3  PXY d   1       1.619  -0.608  -0.027  0.00  0.00     0.003 A 
ATOM      6  C4  PXY d   1       0.976  -1.533   0.751  0.00  0.00    -0.082 A 
ATOM      7  C5  PXY d   1      -0.240  -1.243   1.261  0.00  0.00     0.003 A 
ATOM      8  C6  PXY d   1      -0.813  -0.005   0.986  0.00  0.00     0.003 A 
ENDROOT
TORSDOF 0
ENDMDL
