MODEL 1
REMARK minimizedAffinity -3.10621095
REMARK minimizedRMSD -1
REMARK  0 active torsions:
REMARK  status: ('A' for Active; 'I' for Inactive)
ROOT
ATOM      1  C4' PXY d   1      -1.737  -2.177   1.625  0.00  0.00     0.077 C 
ATOM      2  C1' PXY d   1       2.731   0.999  -0.210  0.00  0.00     0.077 C 
ATOM      3  C1  PXY d   1       1.554   0.177   0.277  0.00  0.00    -0.082 A 
ATOM      4  C2  PXY d   1       1.696  -1.126   0.458  0.00  0.00     0.003 A 
ATOM      5  C3  PXY d   1       0.633  -1.890   0.866  0.00  0.00     0.003 A 
ATOM      6  C4  PXY d   1      -0.573  -1.306   1.144  0.00  0.00    -0.082 A 
ATOM      7  C5  PXY d   1      -0.724   0.025   0.973  0.00  0.00     0.003 A 
ATOM      8  C6  PXY d   1       0.356   0.776   0.517  0.00  0.00     0.003 A 
ENDROOT
TORSDOF 0
ENDMDL
