MODEL 1
REMARK minimizedAffinity -2.1079638
REMARK minimizedRMSD -1
REMARK  0 active torsions:
REMARK  status: ('A' for Active; 'I' for Inactive)
ROOT
ATOM      1  C4' PXY d   1      -0.609   1.946  -1.191  0.00  0.00     0.077 C 
ATOM      2  C1' PXY d   1       1.714  -2.880   0.983  0.00  0.00     0.077 C 
ATOM      3  C1  PXY d   1       1.093  -1.620   0.415  0.00  0.00    -0.082 A 
ATOM      4  C2  PXY d   1       1.804  -0.845  -0.388  0.00  0.00     0.003 A 
ATOM      5  C3  PXY d   1       1.269   0.316  -0.885  0.00  0.00     0.003 A 
ATOM      6  C4  PXY d   1      -0.026   0.659  -0.601  0.00  0.00    -0.082 A 
ATOM      7  C5  PXY d   1      -0.762  -0.132   0.208  0.00  0.00     0.003 A 
ATOM      8  C6  PXY d   1      -0.186  -1.285   0.736  0.00  0.00     0.003 A 
ENDROOT
TORSDOF 0
ENDMDL
