MODEL 1
REMARK minimizedAffinity -5.06768799
REMARK minimizedRMSD -1
REMARK  0 active torsions:
REMARK  status: ('A' for Active; 'I' for Inactive)
ROOT
ATOM      1  C4' PXY d   1      -1.305   1.926  -1.144  0.00  0.00     0.077 C 
ATOM      2  C1' PXY d   1       1.164  -2.628   1.420  0.00  0.00     0.077 C 
ATOM      3  C1  PXY d   1       0.506  -1.436   0.755  0.00  0.00    -0.082 A 
ATOM      4  C2  PXY d   1       0.946  -1.018  -0.421  0.00  0.00     0.003 A 
ATOM      5  C3  PXY d   1       0.383   0.078  -1.023  0.00  0.00     0.003 A 
ATOM      6  C4  PXY d   1      -0.676   0.721  -0.439  0.00  0.00    -0.082 A 
ATOM      7  C5  PXY d   1      -1.138   0.294   0.755  0.00  0.00     0.003 A 
ATOM      8  C6  PXY d   1      -0.526  -0.795   1.368  0.00  0.00     0.003 A 
ENDROOT
TORSDOF 0
ENDMDL
