MODEL 1
REMARK minimizedAffinity -5.21764469
REMARK minimizedRMSD -1
REMARK  0 active torsions:
REMARK  status: ('A' for Active; 'I' for Inactive)
ROOT
ATOM      1  C4' PXY d   1      -0.907   2.132  -1.112  0.00  0.00     0.077 C 
ATOM      2  C1' PXY d   1       2.172  -2.263   1.036  0.00  0.00     0.077 C 
ATOM      3  C1  PXY d   1       1.354  -1.117   0.474  0.00  0.00    -0.082 A 
ATOM      4  C2  PXY d   1       1.925  -0.239  -0.334  0.00  0.00     0.003 A 
ATOM      5  C3  PXY d   1       1.208   0.821  -0.825  0.00  0.00     0.003 A 
ATOM      6  C4  PXY d   1      -0.122   0.954  -0.529  0.00  0.00    -0.082 A 
ATOM      7  C5  PXY d   1      -0.715   0.057   0.287  0.00  0.00     0.003 A 
ATOM      8  C6  PXY d   1       0.041  -0.989   0.808  0.00  0.00     0.003 A 
ENDROOT
TORSDOF 0
ENDMDL
