MODEL 1
REMARK minimizedAffinity -4.09363937
REMARK minimizedRMSD -1
REMARK  0 active torsions:
REMARK  status: ('A' for Active; 'I' for Inactive)
ROOT
ATOM      1  C4' PXY d   1       1.571  -2.662   0.859  0.00  0.00     0.077 C 
ATOM      2  C1' PXY d   1      -1.085   2.237  -0.677  0.00  0.00     0.077 C 
ATOM      3  C1  PXY d   1      -0.380   0.954  -0.283  0.00  0.00    -0.082 A 
ATOM      4  C2  PXY d   1      -1.053   0.003   0.342  0.00  0.00     0.003 A 
ATOM      5  C3  PXY d   1      -0.423  -1.151   0.734  0.00  0.00     0.003 A 
ATOM      6  C4  PXY d   1       0.897  -1.354   0.435  0.00  0.00    -0.082 A 
ATOM      7  C5  PXY d   1       1.589  -0.393  -0.213  0.00  0.00     0.003 A 
ATOM      8  C6  PXY d   1       0.941   0.788  -0.565  0.00  0.00     0.003 A 
ENDROOT
TORSDOF 0
ENDMDL
