MODEL 1
REMARK minimizedAffinity -4.70249605
REMARK minimizedRMSD -1
REMARK  0 active torsions:
REMARK  status: ('A' for Active; 'I' for Inactive)
ROOT
ATOM      1  C4' PXY d   1      -1.138   2.462  -1.371  0.00  0.00     0.077 C 
ATOM      2  C1' PXY d   1       1.624  -1.933   1.173  0.00  0.00     0.077 C 
ATOM      3  C1  PXY d   1       0.888  -0.786   0.509  0.00  0.00    -0.082 A 
ATOM      4  C2  PXY d   1       1.473  -0.111  -0.467  0.00  0.00     0.003 A 
ATOM      5  C3  PXY d   1       0.834   0.950  -1.056  0.00  0.00     0.003 A 
ATOM      6  C4  PXY d   1      -0.437   1.290  -0.679  0.00  0.00    -0.082 A 
ATOM      7  C5  PXY d   1      -1.045   0.600   0.309  0.00  0.00     0.003 A 
ATOM      8  C6  PXY d   1      -0.364  -0.448   0.923  0.00  0.00     0.003 A 
ENDROOT
TORSDOF 0
ENDMDL
