MODEL 1
REMARK minimizedAffinity -4.48085308
REMARK minimizedRMSD -1
REMARK  0 active torsions:
REMARK  status: ('A' for Active; 'I' for Inactive)
ROOT
ATOM      1  C4' PXY d   1      -1.073   1.840  -1.102  0.00  0.00     0.077 C 
ATOM      2  C1' PXY d   1       1.646  -2.686   1.251  0.00  0.00     0.077 C 
ATOM      3  C1  PXY d   1       0.921  -1.505   0.636  0.00  0.00    -0.082 A 
ATOM      4  C2  PXY d   1       1.563  -0.709  -0.204  0.00  0.00     0.003 A 
ATOM      5  C3  PXY d   1       0.933   0.382  -0.744  0.00  0.00     0.003 A 
ATOM      6  C4  PXY d   1      -0.385   0.630  -0.464  0.00  0.00    -0.082 A 
ATOM      7  C5  PXY d   1      -1.049  -0.184   0.383  0.00  0.00     0.003 A 
ATOM      8  C6  PXY d   1      -0.379  -1.262   0.953  0.00  0.00     0.003 A 
ENDROOT
TORSDOF 0
ENDMDL
