MODEL 1
REMARK minimizedAffinity -4.05533791
REMARK minimizedRMSD -1
REMARK  0 active torsions:
REMARK  status: ('A' for Active; 'I' for Inactive)
ROOT
ATOM      1  C4' PXY d   1      -0.958   1.991  -0.845  0.00  0.00     0.077 C 
ATOM      2  C1' PXY d   1       1.465  -2.938   0.958  0.00  0.00     0.077 C 
ATOM      3  C1  PXY d   1       0.841  -1.640   0.483  0.00  0.00    -0.082 A 
ATOM      4  C2  PXY d   1      -0.377  -1.314   0.884  0.00  0.00     0.003 A 
ATOM      5  C3  PXY d   1      -0.968  -0.160   0.439  0.00  0.00     0.003 A 
ATOM      6  C4  PXY d   1      -0.286   0.695  -0.383  0.00  0.00    -0.082 A 
ATOM      7  C5  PXY d   1       0.962   0.375  -0.789  0.00  0.00     0.003 A 
ATOM      8  C6  PXY d   1       1.528  -0.821  -0.358  0.00  0.00     0.003 A 
ENDROOT
TORSDOF 0
ENDMDL
