MODEL 1
REMARK minimizedAffinity -4.77531242
REMARK minimizedRMSD -1
REMARK  0 active torsions:
REMARK  status: ('A' for Active; 'I' for Inactive)
ROOT
ATOM      1  C4' PXY d   1      -0.684   2.105  -1.143  0.00  0.00     0.077 C 
ATOM      2  C1' PXY d   1       1.681  -2.747   0.925  0.00  0.00     0.077 C 
ATOM      3  C1  PXY d   1       1.049  -1.480   0.385  0.00  0.00    -0.082 A 
ATOM      4  C2  PXY d   1       1.725  -0.721  -0.463  0.00  0.00     0.003 A 
ATOM      5  C3  PXY d   1       1.181   0.445  -0.937  0.00  0.00     0.003 A 
ATOM      6  C4  PXY d   1      -0.089   0.812  -0.580  0.00  0.00    -0.082 A 
ATOM      7  C5  PXY d   1      -0.789   0.038   0.276  0.00  0.00     0.003 A 
ATOM      8  C6  PXY d   1      -0.203  -1.121   0.778  0.00  0.00     0.003 A 
ENDROOT
TORSDOF 0
ENDMDL
