MODEL 1
REMARK minimizedAffinity -4.4040513
REMARK minimizedRMSD -1
REMARK  0 active torsions:
REMARK  status: ('A' for Active; 'I' for Inactive)
ROOT
ATOM      1  C4' PXY d   1      -2.155   1.026   1.562  0.00  0.00     0.077 C 
ATOM      2  C1' PXY d   1       2.468  -1.373  -0.945  0.00  0.00     0.077 C 
ATOM      3  C1  PXY d   1       1.259  -0.732  -0.292  0.00  0.00    -0.082 A 
ATOM      4  C2  PXY d   1       0.669  -1.337   0.727  0.00  0.00     0.003 A 
ATOM      5  C3  PXY d   1      -0.444  -0.787   1.308  0.00  0.00     0.003 A 
ATOM      6  C4  PXY d   1      -0.927   0.420   0.878  0.00  0.00    -0.082 A 
ATOM      7  C5  PXY d   1      -0.324   1.048  -0.154  0.00  0.00     0.003 A 
ATOM      8  C6  PXY d   1       0.780   0.453  -0.757  0.00  0.00     0.003 A 
ENDROOT
TORSDOF 0
ENDMDL
