MODEL 1
REMARK minimizedAffinity -5.26519489
REMARK minimizedRMSD -1
REMARK  0 active torsions:
REMARK  status: ('A' for Active; 'I' for Inactive)
ROOT
ATOM      1  C4' PXY d   1      -1.478   1.483  -1.104  0.00  0.00     0.077 C 
ATOM      2  C1' PXY d   1       1.883  -2.640   1.159  0.00  0.00     0.077 C 
ATOM      3  C1  PXY d   1       0.991  -1.567   0.567  0.00  0.00    -0.082 A 
ATOM      4  C2  PXY d   1       1.510  -0.660  -0.246  0.00  0.00     0.003 A 
ATOM      5  C3  PXY d   1       0.724   0.337  -0.764  0.00  0.00     0.003 A 
ATOM      6  C4  PXY d   1      -0.617   0.375  -0.491  0.00  0.00    -0.082 A 
ATOM      7  C5  PXY d   1      -1.156  -0.553   0.328  0.00  0.00     0.003 A 
ATOM      8  C6  PXY d   1      -0.333  -1.532   0.877  0.00  0.00     0.003 A 
ENDROOT
TORSDOF 0
ENDMDL
