MODEL 1
REMARK minimizedAffinity -4.70053768
REMARK minimizedRMSD -1
REMARK  0 active torsions:
REMARK  status: ('A' for Active; 'I' for Inactive)
ROOT
ATOM      1  C4' PXY d   1       1.820  -3.089   1.328  0.00  0.00     0.077 C 
ATOM      2  C1' PXY d   1      -1.188   1.424  -0.671  0.00  0.00     0.077 C 
ATOM      3  C1  PXY d   1      -0.389   0.245  -0.154  0.00  0.00    -0.082 A 
ATOM      4  C2  PXY d   1      -1.020  -0.838   0.269  0.00  0.00     0.003 A 
ATOM      5  C3  PXY d   1      -0.315  -1.902   0.770  0.00  0.00     0.003 A 
ATOM      6  C4  PXY d   1       1.054  -1.878   0.788  0.00  0.00    -0.082 A 
ATOM      7  C5  PXY d   1       1.707  -0.781   0.349  0.00  0.00     0.003 A 
ATOM      8  C6  PXY d   1       0.970   0.304  -0.117  0.00  0.00     0.003 A 
ENDROOT
TORSDOF 0
ENDMDL
