MODEL 1
REMARK minimizedAffinity -0.587894201
REMARK minimizedRMSD -1
REMARK  0 active torsions:
REMARK  status: ('A' for Active; 'I' for Inactive)
ROOT
ATOM      1  C4' PXY d   1      -2.310   1.291  -2.866  0.00  0.00     0.077 C 
ATOM      2  C1' PXY d   1       1.334  -0.756   1.126  0.00  0.00     0.077 C 
ATOM      3  C1  PXY d   1       0.373  -0.212   0.088  0.00  0.00    -0.082 A 
ATOM      4  C2  PXY d   1       0.104  -0.926  -0.993  0.00  0.00     0.003 A 
ATOM      5  C3  PXY d   1      -0.738  -0.434  -1.957  0.00  0.00     0.003 A 
ATOM      6  C4  PXY d   1      -1.353   0.777  -1.788  0.00  0.00    -0.082 A 
ATOM      7  C5  PXY d   1      -1.092   1.507  -0.682  0.00  0.00     0.003 A 
ATOM      8  C6  PXY d   1      -0.202   1.009   0.265  0.00  0.00     0.003 A 
ENDROOT
TORSDOF 0
ENDMDL
