MODEL 1
REMARK minimizedAffinity -4.04362726
REMARK minimizedRMSD -1
REMARK  0 active torsions:
REMARK  status: ('A' for Active; 'I' for Inactive)
ROOT
ATOM      1  C4' PXY d   1      -1.149   1.835  -1.042  0.00  0.00     0.077 C 
ATOM      2  C1' PXY d   1       1.729  -2.481   1.508  0.00  0.00     0.077 C 
ATOM      3  C1  PXY d   1       0.986  -1.343   0.836  0.00  0.00    -0.082 A 
ATOM      4  C2  PXY d   1      -0.264  -1.082   1.185  0.00  0.00     0.003 A 
ATOM      5  C3  PXY d   1      -0.961  -0.078   0.565  0.00  0.00     0.003 A 
ATOM      6  C4  PXY d   1      -0.357   0.702  -0.384  0.00  0.00    -0.082 A 
ATOM      7  C5  PXY d   1       0.922   0.449  -0.737  0.00  0.00     0.003 A 
ATOM      8  C6  PXY d   1       1.599  -0.601  -0.125  0.00  0.00     0.003 A 
ENDROOT
TORSDOF 0
ENDMDL
