MODEL 1
REMARK minimizedAffinity -4.25018358
REMARK minimizedRMSD -1
REMARK  0 active torsions:
REMARK  status: ('A' for Active; 'I' for Inactive)
ROOT
ATOM      1  C4' PXY d   1      -1.489   1.874  -1.358  0.00  0.00     0.077 C 
ATOM      2  C1' PXY d   1       1.979  -2.149   0.925  0.00  0.00     0.077 C 
ATOM      3  C1  PXY d   1       1.059  -1.100   0.332  0.00  0.00    -0.082 A 
ATOM      4  C2  PXY d   1       1.453  -0.406  -0.724  0.00  0.00     0.003 A 
ATOM      5  C3  PXY d   1       0.647   0.569  -1.254  0.00  0.00     0.003 A 
ATOM      6  C4  PXY d   1      -0.597   0.798  -0.731  0.00  0.00    -0.082 A 
ATOM      7  C5  PXY d   1      -1.011   0.087   0.339  0.00  0.00     0.003 A 
ATOM      8  C6  PXY d   1      -0.161  -0.869   0.887  0.00  0.00     0.003 A 
ENDROOT
TORSDOF 0
ENDMDL
