MODEL 1
REMARK minimizedAffinity -2.31347656
REMARK minimizedRMSD -1
REMARK  0 active torsions:
REMARK  status: ('A' for Active; 'I' for Inactive)
ROOT
ATOM      1  C4' PXY d   1       1.443  -3.185   0.655  0.00  0.00     0.077 C 
ATOM      2  C1' PXY d   1      -0.884   1.982  -0.486  0.00  0.00     0.077 C 
ATOM      3  C1  PXY d   1      -0.263   0.630  -0.194  0.00  0.00    -0.082 A 
ATOM      4  C2  PXY d   1      -1.044  -0.405   0.069  0.00  0.00     0.003 A 
ATOM      5  C3  PXY d   1      -0.498  -1.627   0.367  0.00  0.00     0.003 A 
ATOM      6  C4  PXY d   1       0.860  -1.804   0.344  0.00  0.00    -0.082 A 
ATOM      7  C5  PXY d   1       1.662  -0.754   0.068  0.00  0.00     0.003 A 
ATOM      8  C6  PXY d   1       1.090   0.487  -0.192  0.00  0.00     0.003 A 
ENDROOT
TORSDOF 0
ENDMDL
