MODEL 1
REMARK minimizedAffinity -3.85699749
REMARK minimizedRMSD -1
REMARK  0 active torsions:
REMARK  status: ('A' for Active; 'I' for Inactive)
ROOT
ATOM      1  C4' PXY d   1      -1.058   1.721  -1.028  0.00  0.00     0.077 C 
ATOM      2  C1' PXY d   1       1.946  -2.666   1.241  0.00  0.00     0.077 C 
ATOM      3  C1  PXY d   1       1.147  -1.521   0.650  0.00  0.00    -0.082 A 
ATOM      4  C2  PXY d   1       1.665  -0.800  -0.331  0.00  0.00     0.003 A 
ATOM      5  C3  PXY d   1       0.969   0.259  -0.855  0.00  0.00     0.003 A 
ATOM      6  C4  PXY d   1      -0.291   0.550  -0.407  0.00  0.00    -0.082 A 
ATOM      7  C5  PXY d   1      -0.831  -0.188   0.586  0.00  0.00     0.003 A 
ATOM      8  C6  PXY d   1      -0.092  -1.233   1.133  0.00  0.00     0.003 A 
ENDROOT
TORSDOF 0
ENDMDL
