MODEL 1
REMARK minimizedAffinity -0.249627739
REMARK minimizedRMSD -1
REMARK  1 active torsions:
REMARK  status: ('A' for Active; 'I' for Inactive)
REMARK    1  A    between atoms: C1_2  and  C2_3 
ROOT
ATOM      1  C2  UNL d   1       2.356  -0.613  -1.114  0.00  0.00    -0.073 A 
ATOM      2  C3  UNL d   1       1.225  -1.048  -0.414  0.00  0.00    -0.002 A 
ATOM      3  C4  UNL d   1       0.484  -0.150   0.355  0.00  0.00     0.004 A 
ATOM      4  C5  UNL d   1       0.861   1.190   0.427  0.00  0.00    -0.004 A 
ATOM      5  C6  UNL d   1       1.981   1.647  -0.275  0.00  0.00    -0.075 A 
ATOM      6  C7  UNL d   1       2.401   3.086  -0.207  0.00  0.00     0.076 C 
ATOM      7  C8  UNL d   1       2.722   0.738  -1.043  0.00  0.00     0.001 A 
ENDROOT
BRANCH   1   8
ATOM      8  C1  UNL d   1       3.156  -1.578  -1.951  0.00  0.00     0.053 C 
ATOM      9  C   UNL d   1       4.430  -2.021  -1.249  0.00  0.00     0.018 C 
ENDBRANCH   1   8
TORSDOF 1
ENDMDL
