MODEL 1
REMARK minimizedAffinity 8.14716148
REMARK minimizedRMSD -1
REMARK  1 active torsions:
REMARK  status: ('A' for Active; 'I' for Inactive)
REMARK    1  A    between atoms: C1_2  and  C2_3 
ROOT
ATOM      1  C2  UNL d   1       2.917  -0.925  -1.601  0.00  0.00    -0.073 A 
ATOM      2  C3  UNL d   1       2.104  -0.939  -2.740  0.00  0.00    -0.002 A 
ATOM      3  C4  UNL d   1       0.844  -0.340  -2.715  0.00  0.00     0.004 A 
ATOM      4  C5  UNL d   1       0.387   0.284  -1.554  0.00  0.00    -0.004 A 
ATOM      5  C6  UNL d   1       1.189   0.319  -0.409  0.00  0.00    -0.075 A 
ATOM      6  C7  UNL d   1       0.711   0.984   0.848  0.00  0.00     0.076 C 
ATOM      7  C8  UNL d   1       2.452  -0.288  -0.442  0.00  0.00     0.001 A 
ENDROOT
BRANCH   1   8
ATOM      8  C1  UNL d   1       4.280  -1.565  -1.626  0.00  0.00     0.053 C 
ATOM      9  C   UNL d   1       4.204  -3.076  -1.473  0.00  0.00     0.018 C 
ENDBRANCH   1   8
TORSDOF 1
ENDMDL
