MODEL 1
REMARK minimizedAffinity 0.858935237
REMARK minimizedRMSD -1
REMARK  1 active torsions:
REMARK  status: ('A' for Active; 'I' for Inactive)
REMARK    1  A    between atoms: C1_2  and  C2_3 
ROOT
ATOM      1  C2  UNL d   1      -3.519   2.052  -5.976  0.00  0.00    -0.073 A 
ATOM      2  C3  UNL d   1      -4.901   2.270  -5.991  0.00  0.00    -0.002 A 
ATOM      3  C4  UNL d   1      -5.410   3.570  -5.999  0.00  0.00     0.004 A 
ATOM      4  C5  UNL d   1      -4.544   4.663  -5.999  0.00  0.00    -0.004 A 
ATOM      5  C6  UNL d   1      -3.159   4.466  -5.996  0.00  0.00    -0.075 A 
ATOM      6  C7  UNL d   1      -2.213   5.631  -5.993  0.00  0.00     0.076 C 
ATOM      7  C8  UNL d   1      -2.656   3.158  -5.985  0.00  0.00     0.001 A 
ENDROOT
BRANCH   1   8
ATOM      8  C1  UNL d   1      -2.965   0.651  -5.974  0.00  0.00     0.053 C 
ATOM      9  C   UNL d   1      -4.036  -0.385  -5.669  0.00  0.00     0.018 C 
ENDBRANCH   1   8
TORSDOF 1
ENDMDL
