MODEL 1
REMARK minimizedAffinity -0.0362359434
REMARK minimizedRMSD -1
REMARK  1 active torsions:
REMARK  status: ('A' for Active; 'I' for Inactive)
REMARK    1  A    between atoms: C1_2  and  C2_3 
ROOT
ATOM      1  C2  UNL d   1      -4.396   2.412  -5.987  0.00  0.00    -0.073 A 
ATOM      2  C3  UNL d   1      -2.999   2.487  -5.998  0.00  0.00    -0.002 A 
ATOM      3  C4  UNL d   1      -2.231   1.322  -5.996  0.00  0.00     0.004 A 
ATOM      4  C5  UNL d   1      -2.850   0.072  -5.990  0.00  0.00    -0.004 A 
ATOM      5  C6  UNL d   1      -4.246  -0.023  -5.991  0.00  0.00    -0.075 A 
ATOM      6  C7  UNL d   1      -4.927  -1.360  -5.983  0.00  0.00     0.076 C 
ATOM      7  C8  UNL d   1      -5.010   1.151  -5.991  0.00  0.00     0.001 A 
ENDROOT
BRANCH   1   8
ATOM      8  C1  UNL d   1      -5.230   3.667  -5.996  0.00  0.00     0.053 C 
ATOM      9  C   UNL d   1      -4.372   4.922  -5.970  0.00  0.00     0.018 C 
ENDBRANCH   1   8
TORSDOF 1
ENDMDL
