MODEL 1
REMARK minimizedAffinity -0.286305666
REMARK minimizedRMSD -1
REMARK  1 active torsions:
REMARK  status: ('A' for Active; 'I' for Inactive)
REMARK    1  A    between atoms: C1_2  and  C2_3 
ROOT
ATOM      1  C2  UNL d   1      -3.551   1.141  -5.869  0.00  0.00    -0.073 A 
ATOM      2  C3  UNL d   1      -4.929   1.370  -5.939  0.00  0.00    -0.002 A 
ATOM      3  C4  UNL d   1      -5.425   2.673  -5.999  0.00  0.00     0.004 A 
ATOM      4  C5  UNL d   1      -4.549   3.759  -5.998  0.00  0.00    -0.004 A 
ATOM      5  C6  UNL d   1      -3.167   3.549  -5.941  0.00  0.00    -0.075 A 
ATOM      6  C7  UNL d   1      -2.211   4.706  -5.937  0.00  0.00     0.076 C 
ATOM      7  C8  UNL d   1      -2.677   2.238  -5.878  0.00  0.00     0.001 A 
ENDROOT
BRANCH   1   8
ATOM      8  C1  UNL d   1      -3.010  -0.264  -5.810  0.00  0.00     0.053 C 
ATOM      9  C   UNL d   1      -4.104  -1.304  -5.999  0.00  0.00     0.018 C 
ENDBRANCH   1   8
TORSDOF 1
ENDMDL
