MODEL 1
REMARK minimizedAffinity 3.4050591
REMARK minimizedRMSD -1
REMARK  1 active torsions:
REMARK  status: ('A' for Active; 'I' for Inactive)
REMARK    1  A    between atoms: C1_2  and  C2_3 
ROOT
ATOM      1  C2  UNL d   1       1.912  -0.188  -0.865  0.00  0.00    -0.073 A 
ATOM      2  C3  UNL d   1       1.550  -0.628  -2.143  0.00  0.00    -0.002 A 
ATOM      3  C4  UNL d   1       0.254  -0.424  -2.618  0.00  0.00     0.004 A 
ATOM      4  C5  UNL d   1      -0.690   0.227  -1.824  0.00  0.00    -0.004 A 
ATOM      5  C6  UNL d   1      -0.344   0.684  -0.548  0.00  0.00    -0.075 A 
ATOM      6  C7  UNL d   1      -1.349   1.384   0.319  0.00  0.00     0.076 C 
ATOM      7  C8  UNL d   1       0.959   0.473  -0.077  0.00  0.00     0.001 A 
ENDROOT
BRANCH   1   8
ATOM      8  C1  UNL d   1       3.313  -0.400  -0.350  0.00  0.00     0.053 C 
ATOM      9  C   UNL d   1       3.867  -1.758  -0.750  0.00  0.00     0.018 C 
ENDBRANCH   1   8
TORSDOF 1
ENDMDL
