MODEL 1
REMARK minimizedAffinity -3.15697169
REMARK minimizedRMSD -1
REMARK  1 active torsions:
REMARK  status: ('A' for Active; 'I' for Inactive)
REMARK    1  A    between atoms: C1_2  and  C2_3 
ROOT
ATOM      1  C2  UNL d   1      -3.962   2.457  -5.737  0.00  0.00    -0.073 A 
ATOM      2  C3  UNL d   1      -2.633   2.022  -5.805  0.00  0.00    -0.002 A 
ATOM      3  C4  UNL d   1      -2.341   0.663  -5.927  0.00  0.00     0.004 A 
ATOM      4  C5  UNL d   1      -3.372  -0.274  -5.990  0.00  0.00    -0.004 A 
ATOM      5  C6  UNL d   1      -4.707   0.142  -5.936  0.00  0.00    -0.075 A 
ATOM      6  C7  UNL d   1      -5.828  -0.854  -6.000  0.00  0.00     0.076 C 
ATOM      7  C8  UNL d   1      -4.992   1.508  -5.810  0.00  0.00     0.001 A 
ENDROOT
BRANCH   1   8
ATOM      8  C1  UNL d   1      -4.282   3.924  -5.612  0.00  0.00     0.053 C 
ATOM      9  C   UNL d   1      -5.720   4.228  -6.000  0.00  0.00     0.018 C 
ENDBRANCH   1   8
TORSDOF 1
ENDMDL
