MODEL 1
REMARK minimizedAffinity -1.31555748
REMARK minimizedRMSD -1
REMARK  1 active torsions:
REMARK  status: ('A' for Active; 'I' for Inactive)
REMARK    1  A    between atoms: C1_2  and  C2_3 
ROOT
ATOM      1  C2  UNL d   1      -4.295   1.370  -5.908  0.00  0.00    -0.073 A 
ATOM      2  C3  UNL d   1      -5.571   1.939  -5.978  0.00  0.00    -0.002 A 
ATOM      3  C4  UNL d   1      -5.725   3.326  -6.000  0.00  0.00     0.004 A 
ATOM      4  C5  UNL d   1      -4.605   4.156  -5.960  0.00  0.00    -0.004 A 
ATOM      5  C6  UNL d   1      -3.320   3.607  -5.903  0.00  0.00    -0.075 A 
ATOM      6  C7  UNL d   1      -2.106   4.487  -5.857  0.00  0.00     0.076 C 
ATOM      7  C8  UNL d   1      -3.175   2.213  -5.878  0.00  0.00     0.001 A 
ENDROOT
BRANCH   1   8
ATOM      8  C1  UNL d   1      -4.124  -0.127  -5.891  0.00  0.00     0.053 C 
ATOM      9  C   UNL d   1      -4.257  -0.700  -4.489  0.00  0.00     0.018 C 
ENDBRANCH   1   8
TORSDOF 1
ENDMDL
