MODEL 1
REMARK minimizedAffinity -0.641491711
REMARK minimizedRMSD -1
REMARK  1 active torsions:
REMARK  status: ('A' for Active; 'I' for Inactive)
REMARK    1  A    between atoms: C1_2  and  C2_3 
ROOT
ATOM      1  C2  UNL d   1      -3.051   0.658  -5.706  0.00  0.00    -0.073 A 
ATOM      2  C3  UNL d   1      -4.441   0.568  -5.846  0.00  0.00    -0.002 A 
ATOM      3  C4  UNL d   1      -5.211   1.723  -5.988  0.00  0.00     0.004 A 
ATOM      4  C5  UNL d   1      -4.600   2.977  -6.000  0.00  0.00    -0.004 A 
ATOM      5  C6  UNL d   1      -3.212   3.087  -5.874  0.00  0.00    -0.075 A 
ATOM      6  C7  UNL d   1      -2.540   4.429  -5.882  0.00  0.00     0.076 C 
ATOM      7  C8  UNL d   1      -2.446   1.923  -5.728  0.00  0.00     0.001 A 
ENDROOT
BRANCH   1   8
ATOM      8  C1  UNL d   1      -2.215  -0.586  -5.559  0.00  0.00     0.053 C 
ATOM      9  C   UNL d   1      -2.965  -1.833  -6.000  0.00  0.00     0.018 C 
ENDBRANCH   1   8
TORSDOF 1
ENDMDL
