MODEL 1
REMARK minimizedAffinity -1.31160533
REMARK minimizedRMSD -1
REMARK  1 active torsions:
REMARK  status: ('A' for Active; 'I' for Inactive)
REMARK    1  A    between atoms: C3_4  and  O_7 
ROOT
ATOM      1  C   UNL d   1      -3.085  -5.617  -4.756  0.00  0.00    -0.033 A 
ATOM      2  C1  UNL d   1      -2.440  -6.000  -5.934  0.00  0.00     0.039 A 
ATOM      3  C2  UNL d   1      -1.045  -5.998  -6.000  0.00  0.00    -0.080 A 
ATOM      4  C3  UNL d   1      -0.309  -5.614  -4.883  0.00  0.00     0.150 A 
ATOM      5  C4  UNL d   1      -0.945  -5.235  -3.705  0.00  0.00    -0.007 A 
ATOM      6  C5  UNL d   1      -2.338  -5.237  -3.641  0.00  0.00     0.039 A 
ENDROOT
BRANCH   4   7
ATOM      7  O   UNL d   1       1.054  -5.592  -4.901  0.00  0.00    -0.526 OA
ATOM      8  H5  UNL d   1       1.354  -5.850  -5.789  0.00  0.00     0.418 HD
ENDBRANCH   4   7
TORSDOF 1
ENDMDL
