MODEL 1
REMARK minimizedAffinity 7.69777584
REMARK minimizedRMSD -1
REMARK  1 active torsions:
REMARK  status: ('A' for Active; 'I' for Inactive)
REMARK    1  A    between atoms: C3_4  and  O_7 
ROOT
ATOM      1  C   UNL d   1       2.340   2.952  -3.071  0.00  0.00    -0.033 A 
ATOM      2  C1  UNL d   1       3.087   3.874  -2.336  0.00  0.00     0.039 A 
ATOM      3  C2  UNL d   1       4.317   4.324  -2.821  0.00  0.00    -0.080 A 
ATOM      4  C3  UNL d   1       4.786   3.845  -4.041  0.00  0.00     0.150 A 
ATOM      5  C4  UNL d   1       4.044   2.929  -4.781  0.00  0.00    -0.007 A 
ATOM      6  C5  UNL d   1       2.817   2.481  -4.294  0.00  0.00     0.039 A 
ENDROOT
BRANCH   4   7
ATOM      7  O   UNL d   1       5.983   4.251  -4.554  0.00  0.00    -0.526 OA
ATOM      8  H5  UNL d   1       6.397   4.861  -3.921  0.00  0.00     0.418 HD
ENDBRANCH   4   7
TORSDOF 1
ENDMDL
