MODEL 1
REMARK minimizedAffinity -0.551787198
REMARK minimizedRMSD -1
REMARK  1 active torsions:
REMARK  status: ('A' for Active; 'I' for Inactive)
REMARK    1  A    between atoms: C3_4  and  O_7 
ROOT
ATOM      1  C   UNL d   1       0.179  -4.886  -3.707  0.00  0.00    -0.033 A 
ATOM      2  C1  UNL d   1      -1.104  -4.523  -3.292  0.00  0.00     0.039 A 
ATOM      3  C2  UNL d   1      -2.216  -4.892  -4.052  0.00  0.00    -0.080 A 
ATOM      4  C3  UNL d   1      -2.032  -5.622  -5.222  0.00  0.00     0.150 A 
ATOM      5  C4  UNL d   1      -0.757  -5.990  -5.640  0.00  0.00    -0.007 A 
ATOM      6  C5  UNL d   1       0.352  -5.621  -4.880  0.00  0.00     0.039 A 
ENDROOT
BRANCH   4   7
ATOM      7  O   UNL d   1      -3.086  -6.000  -6.000  0.00  0.00    -0.526 OA
ATOM      8  H5  UNL d   1      -3.902  -5.651  -5.603  0.00  0.00     0.418 HD
ENDBRANCH   4   7
TORSDOF 1
ENDMDL
