MODEL 1
REMARK minimizedAffinity 11.7222767
REMARK minimizedRMSD -1
REMARK  1 active torsions:
REMARK  status: ('A' for Active; 'I' for Inactive)
REMARK    1  A    between atoms: C3_4  and  O_7 
ROOT
ATOM      1  C   UNL d   1      -5.256   1.406   4.567  0.00  0.00    -0.033 A 
ATOM      2  C1  UNL d   1      -6.000   2.301   3.796  0.00  0.00     0.039 A 
ATOM      3  C2  UNL d   1      -5.994   3.663   4.104  0.00  0.00    -0.080 A 
ATOM      4  C3  UNL d   1      -5.241   4.116   5.183  0.00  0.00     0.150 A 
ATOM      5  C4  UNL d   1      -4.495   3.230   5.954  0.00  0.00    -0.007 A 
ATOM      6  C5  UNL d   1      -4.502   1.870   5.645  0.00  0.00     0.039 A 
ENDROOT
BRANCH   4   7
ATOM      7  O   UNL d   1      -5.208   5.435   5.525  0.00  0.00    -0.526 OA
ATOM      8  H5  UNL d   1      -5.793   5.924   4.923  0.00  0.00     0.418 HD
ENDBRANCH   4   7
TORSDOF 1
ENDMDL
