MODEL 1
REMARK minimizedAffinity 5.83895063
REMARK minimizedRMSD -1
REMARK  1 active torsions:
REMARK  status: ('A' for Active; 'I' for Inactive)
REMARK    1  A    between atoms: C3_4  and  O_7 
ROOT
ATOM      1  C   UNL d   1       6.000   4.083   0.357  0.00  0.00    -0.033 A 
ATOM      2  C1  UNL d   1       5.257   4.200   1.533  0.00  0.00     0.039 A 
ATOM      3  C2  UNL d   1       4.509   3.117   1.999  0.00  0.00    -0.080 A 
ATOM      4  C3  UNL d   1       4.512   1.924   1.280  0.00  0.00     0.150 A 
ATOM      5  C4  UNL d   1       5.253   1.800   0.109  0.00  0.00    -0.007 A 
ATOM      6  C5  UNL d   1       5.999   2.883  -0.354  0.00  0.00     0.039 A 
ENDROOT
BRANCH   4   7
ATOM      7  O   UNL d   1       3.794   0.842   1.692  0.00  0.00    -0.526 OA
ATOM      8  H5  UNL d   1       3.309   1.083   2.499  0.00  0.00     0.418 HD
ENDBRANCH   4   7
TORSDOF 1
ENDMDL
