MODEL 1
REMARK minimizedAffinity 6.35197544
REMARK minimizedRMSD -1
REMARK  1 active torsions:
REMARK  status: ('A' for Active; 'I' for Inactive)
REMARK    1  A    between atoms: C3_4  and  O_7 
ROOT
ATOM      1  C   UNL d   1       1.905   5.109  -2.117  0.00  0.00    -0.033 A 
ATOM      2  C1  UNL d   1       0.853   6.000  -1.899  0.00  0.00     0.039 A 
ATOM      3  C2  UNL d   1      -0.309   5.913  -2.669  0.00  0.00    -0.080 A 
ATOM      4  C3  UNL d   1      -0.405   4.932  -3.651  0.00  0.00     0.150 A 
ATOM      5  C4  UNL d   1       0.638   4.038  -3.871  0.00  0.00    -0.007 A 
ATOM      6  C5  UNL d   1       1.797   4.127  -3.102  0.00  0.00     0.039 A 
ENDROOT
BRANCH   4   7
ATOM      7  O   UNL d   1      -1.517   4.811  -4.431  0.00  0.00    -0.526 OA
ATOM      8  H5  UNL d   1      -2.143   5.513  -4.186  0.00  0.00     0.418 HD
ENDBRANCH   4   7
TORSDOF 1
ENDMDL
