MODEL 1
REMARK minimizedAffinity -0.816863716
REMARK minimizedRMSD -1
REMARK  1 active torsions:
REMARK  status: ('A' for Active; 'I' for Inactive)
REMARK    1  A    between atoms: C3_4  and  O_7 
ROOT
ATOM      1  C   UNL d   1      -4.068  -0.306   1.075  0.00  0.00    -0.033 A 
ATOM      2  C1  UNL d   1      -4.246   0.851   1.836  0.00  0.00     0.039 A 
ATOM      3  C2  UNL d   1      -3.389   1.124   2.904  0.00  0.00    -0.080 A 
ATOM      4  C3  UNL d   1      -2.359   0.235   3.199  0.00  0.00     0.150 A 
ATOM      5  C4  UNL d   1      -2.174  -0.918   2.442  0.00  0.00    -0.007 A 
ATOM      6  C5  UNL d   1      -3.031  -1.189   1.376  0.00  0.00     0.039 A 
ENDROOT
BRANCH   4   7
ATOM      7  O   UNL d   1      -1.500   0.456   4.234  0.00  0.00    -0.526 OA
ATOM      8  H5  UNL d   1      -1.767   1.275   4.685  0.00  0.00     0.418 HD
ENDBRANCH   4   7
TORSDOF 1
ENDMDL
