MODEL 1
REMARK minimizedAffinity 9.57370377
REMARK minimizedRMSD -1
REMARK  1 active torsions:
REMARK  status: ('A' for Active; 'I' for Inactive)
REMARK    1  A    between atoms: C3_4  and  O_7 
ROOT
ATOM      1  C   UNL d   1       5.679   4.126  -4.852  0.00  0.00    -0.033 A 
ATOM      2  C1  UNL d   1       5.298   4.524  -3.569  0.00  0.00     0.039 A 
ATOM      3  C2  UNL d   1       4.055   4.143  -3.058  0.00  0.00    -0.080 A 
ATOM      4  C3  UNL d   1       3.205   3.365  -3.839  0.00  0.00     0.150 A 
ATOM      5  C4  UNL d   1       3.580   2.962  -5.116  0.00  0.00    -0.007 A 
ATOM      6  C5  UNL d   1       4.821   3.344  -5.625  0.00  0.00     0.039 A 
ENDROOT
BRANCH   4   7
ATOM      7  O   UNL d   1       1.981   2.973  -3.385  0.00  0.00    -0.526 OA
ATOM      8  H5  UNL d   1       1.846   3.349  -2.500  0.00  0.00     0.418 HD
ENDBRANCH   4   7
TORSDOF 1
ENDMDL
