MODEL 1
REMARK minimizedAffinity 14.4050875
REMARK minimizedRMSD -1
REMARK  1 active torsions:
REMARK  status: ('A' for Active; 'I' for Inactive)
REMARK    1  A    between atoms: C3_4  and  O_7 
ROOT
ATOM      1  C   UNL d   1      -1.881  -0.867   2.267  0.00  0.00    -0.033 A 
ATOM      2  C1  UNL d   1      -1.029  -1.838   1.737  0.00  0.00     0.039 A 
ATOM      3  C2  UNL d   1       0.154  -2.168   2.401  0.00  0.00    -0.080 A 
ATOM      4  C3  UNL d   1       0.473  -1.523   3.592  0.00  0.00     0.150 A 
ATOM      5  C4  UNL d   1      -0.374  -0.558   4.128  0.00  0.00    -0.007 A 
ATOM      6  C5  UNL d   1      -1.554  -0.228   3.463  0.00  0.00     0.039 A 
ENDROOT
BRANCH   4   7
ATOM      7  O   UNL d   1       1.618  -1.809   4.274  0.00  0.00    -0.526 OA
ATOM      8  H5  UNL d   1       2.118  -2.473   3.770  0.00  0.00     0.418 HD
ENDBRANCH   4   7
TORSDOF 1
ENDMDL
