MODEL 1
REMARK minimizedAffinity 2.55981445
REMARK minimizedRMSD -1
REMARK  1 active torsions:
REMARK  status: ('A' for Active; 'I' for Inactive)
REMARK    1  A    between atoms: C3_4  and  O_7 
ROOT
ATOM      1  C   UNL d   1       4.324   1.517  -0.403  0.00  0.00    -0.033 A 
ATOM      2  C1  UNL d   1       5.505   2.261  -0.386  0.00  0.00     0.039 A 
ATOM      3  C2  UNL d   1       5.670   3.292   0.540  0.00  0.00    -0.080 A 
ATOM      4  C3  UNL d   1       4.648   3.568   1.444  0.00  0.00     0.150 A 
ATOM      5  C4  UNL d   1       3.470   2.828   1.436  0.00  0.00    -0.007 A 
ATOM      6  C5  UNL d   1       3.307   1.799   0.510  0.00  0.00     0.039 A 
ENDROOT
BRANCH   4   7
ATOM      7  O   UNL d   1       4.760   4.568   2.364  0.00  0.00    -0.526 OA
ATOM      8  H5  UNL d   1       5.615   5.012   2.233  0.00  0.00     0.418 HD
ENDBRANCH   4   7
TORSDOF 1
ENDMDL
