MODEL 1
REMARK minimizedAffinity 5.46051455
REMARK minimizedRMSD -1
REMARK  1 active torsions:
REMARK  status: ('A' for Active; 'I' for Inactive)
REMARK    1  A    between atoms: C3_4  and  O_7 
ROOT
ATOM      1  C   UNL d   1       4.125   4.998  -2.260  0.00  0.00    -0.033 A 
ATOM      2  C1  UNL d   1       5.234   5.066  -3.105  0.00  0.00     0.039 A 
ATOM      3  C2  UNL d   1       5.187   4.475  -4.370  0.00  0.00    -0.080 A 
ATOM      4  C3  UNL d   1       4.027   3.821  -4.776  0.00  0.00     0.150 A 
ATOM      5  C4  UNL d   1       2.917   3.753  -3.940  0.00  0.00    -0.007 A 
ATOM      6  C5  UNL d   1       2.966   4.343  -2.677  0.00  0.00     0.039 A 
ENDROOT
BRANCH   4   7
ATOM      7  O   UNL d   1       3.936   3.225  -5.998  0.00  0.00    -0.526 OA
ATOM      8  H5  UNL d   1       4.787   3.328  -6.455  0.00  0.00     0.418 HD
ENDBRANCH   4   7
TORSDOF 1
ENDMDL
