MODEL 1
REMARK minimizedAffinity 10.6990366
REMARK minimizedRMSD -1
REMARK  1 active torsions:
REMARK  status: ('A' for Active; 'I' for Inactive)
REMARK    1  A    between atoms: C3_4  and  O_7 
ROOT
ATOM      1  C   UNL d   1       3.969   4.209  -2.089  0.00  0.00    -0.033 A 
ATOM      2  C1  UNL d   1       5.081   4.452  -2.898  0.00  0.00     0.039 A 
ATOM      3  C2  UNL d   1       5.097   4.000  -4.219  0.00  0.00    -0.080 A 
ATOM      4  C3  UNL d   1       3.997   3.307  -4.718  0.00  0.00     0.150 A 
ATOM      5  C4  UNL d   1       2.885   3.065  -3.919  0.00  0.00    -0.007 A 
ATOM      6  C5  UNL d   1       2.871   3.516  -2.600  0.00  0.00     0.039 A 
ENDROOT
BRANCH   4   7
ATOM      7  O   UNL d   1       3.969   2.842  -5.999  0.00  0.00    -0.526 OA
ATOM      8  H5  UNL d   1       4.817   3.058  -6.424  0.00  0.00     0.418 HD
ENDBRANCH   4   7
TORSDOF 1
ENDMDL
