MODEL 1
REMARK minimizedAffinity 14.3738136
REMARK minimizedRMSD -1
REMARK  1 active torsions:
REMARK  status: ('A' for Active; 'I' for Inactive)
REMARK    1  A    between atoms: C3_4  and  O_7 
ROOT
ATOM      1  C   UNL d   1      -1.458  -0.270   2.673  0.00  0.00    -0.033 A 
ATOM      2  C1  UNL d   1      -1.937  -1.482   2.172  0.00  0.00     0.039 A 
ATOM      3  C2  UNL d   1      -3.162  -1.527   1.503  0.00  0.00    -0.080 A 
ATOM      4  C3  UNL d   1      -3.895  -0.355   1.340  0.00  0.00     0.150 A 
ATOM      5  C4  UNL d   1      -3.421   0.857   1.833  0.00  0.00    -0.007 A 
ATOM      6  C5  UNL d   1      -2.199   0.900   2.502  0.00  0.00     0.039 A 
ENDROOT
BRANCH   4   7
ATOM      7  O   UNL d   1      -5.098  -0.350   0.698  0.00  0.00    -0.526 OA
ATOM      8  H5  UNL d   1      -5.311  -1.262   0.437  0.00  0.00     0.418 HD
ENDBRANCH   4   7
TORSDOF 1
ENDMDL
