MODEL 1
REMARK minimizedAffinity 5.19502878
REMARK minimizedRMSD -1
REMARK  1 active torsions:
REMARK  status: ('A' for Active; 'I' for Inactive)
REMARK    1  A    between atoms: C3_4  and  O_7 
ROOT
ATOM      1  C   UNL d   1       0.722   3.651  -2.669  0.00  0.00    -0.033 A 
ATOM      2  C1  UNL d   1       0.869   4.995  -2.318  0.00  0.00     0.039 A 
ATOM      3  C2  UNL d   1       2.141   5.526  -2.101  0.00  0.00    -0.080 A 
ATOM      4  C3  UNL d   1       3.257   4.706  -2.239  0.00  0.00     0.150 A 
ATOM      5  C4  UNL d   1       3.119   3.368  -2.592  0.00  0.00    -0.007 A 
ATOM      6  C5  UNL d   1       1.847   2.838  -2.807  0.00  0.00     0.039 A 
ENDROOT
BRANCH   4   7
ATOM      7  O   UNL d   1       4.519   5.179  -2.032  0.00  0.00    -0.526 OA
ATOM      8  H5  UNL d   1       4.459   6.111  -1.767  0.00  0.00     0.418 HD
ENDBRANCH   4   7
TORSDOF 1
ENDMDL
