MODEL 1
REMARK minimizedAffinity 7.41918707
REMARK minimizedRMSD -1
REMARK  1 active torsions:
REMARK  status: ('A' for Active; 'I' for Inactive)
REMARK    1  A    between atoms: C3_4  and  O_7 
ROOT
ATOM      1  C   UNL d   1       5.999  -4.860  -0.208  0.00  0.00    -0.033 A 
ATOM      2  C1  UNL d   1       5.216  -6.000  -0.017  0.00  0.00     0.039 A 
ATOM      3  C2  UNL d   1       3.823  -5.897   0.000  0.00  0.00    -0.080 A 
ATOM      4  C3  UNL d   1       3.228  -4.650  -0.175  0.00  0.00     0.150 A 
ATOM      5  C4  UNL d   1       4.003  -3.512  -0.370  0.00  0.00    -0.007 A 
ATOM      6  C5  UNL d   1       5.393  -3.616  -0.386  0.00  0.00     0.039 A 
ENDROOT
BRANCH   4   7
ATOM      7  O   UNL d   1       1.873  -4.500  -0.161  0.00  0.00    -0.526 OA
ATOM      8  H5  UNL d   1       1.469  -5.366   0.012  0.00  0.00     0.418 HD
ENDBRANCH   4   7
TORSDOF 1
ENDMDL
