MODEL 1
REMARK minimizedAffinity 14.1864815
REMARK minimizedRMSD -1
REMARK  1 active torsions:
REMARK  status: ('A' for Active; 'I' for Inactive)
REMARK    1  A    between atoms: C3_4  and  O_7 
ROOT
ATOM      1  C   UNL d   1       2.398   3.181  -3.480  0.00  0.00    -0.033 A 
ATOM      2  C1  UNL d   1       1.024   3.191  -3.728  0.00  0.00     0.039 A 
ATOM      3  C2  UNL d   1       0.207   4.135  -3.104  0.00  0.00    -0.080 A 
ATOM      4  C3  UNL d   1       0.775   5.062  -2.235  0.00  0.00     0.150 A 
ATOM      5  C4  UNL d   1       2.143   5.061  -1.986  0.00  0.00    -0.007 A 
ATOM      6  C5  UNL d   1       2.958   4.118  -2.610  0.00  0.00     0.039 A 
ENDROOT
BRANCH   4   7
ATOM      7  O   UNL d   1       0.017   6.000  -1.598  0.00  0.00    -0.526 OA
ATOM      8  H5  UNL d   1      -0.914   5.862  -1.844  0.00  0.00     0.418 HD
ENDBRANCH   4   7
TORSDOF 1
ENDMDL
