MODEL 1
REMARK minimizedAffinity 16.002594
REMARK minimizedRMSD -1
REMARK  1 active torsions:
REMARK  status: ('A' for Active; 'I' for Inactive)
REMARK    1  A    between atoms: C3_4  and  O_7 
ROOT
ATOM      1  C   UNL d   1      -1.395  -1.937   1.433  0.00  0.00    -0.033 A 
ATOM      2  C1  UNL d   1      -2.463  -1.215   0.898  0.00  0.00     0.039 A 
ATOM      3  C2  UNL d   1      -2.891  -0.038   1.514  0.00  0.00    -0.080 A 
ATOM      4  C3  UNL d   1      -2.242   0.406   2.664  0.00  0.00     0.150 A 
ATOM      5  C4  UNL d   1      -1.175  -0.307   3.200  0.00  0.00    -0.007 A 
ATOM      6  C5  UNL d   1      -0.750  -1.483   2.583  0.00  0.00     0.039 A 
ENDROOT
BRANCH   4   7
ATOM      7  O   UNL d   1      -2.627   1.547   3.303  0.00  0.00    -0.526 OA
ATOM      8  H5  UNL d   1      -3.394   1.918   2.836  0.00  0.00     0.418 HD
ENDBRANCH   4   7
TORSDOF 1
ENDMDL
