MODEL 1
REMARK minimizedAffinity 0.222344607
REMARK minimizedRMSD -1
REMARK  0 active torsions:
REMARK  status: ('A' for Active; 'I' for Inactive)
ROOT
ATOM      1  C   UNL d   1      -2.348  -0.961   2.984  0.00  0.00     0.077 C 
ATOM      2  C1  UNL d   1      -1.875   0.343   2.414  0.00  0.00    -0.074 A 
ATOM      3  C2  UNL d   1      -2.638   1.507   2.551  0.00  0.00    -0.005 A 
ATOM      4  C3  UNL d   1      -2.180   2.714   2.024  0.00  0.00     0.006 A 
ATOM      5  C4  UNL d   1      -0.956   2.770   1.357  0.00  0.00    -0.005 A 
ATOM      6  C5  UNL d   1      -0.179   1.617   1.211  0.00  0.00    -0.074 A 
ATOM      7  C6  UNL d   1       1.144   1.662   0.505  0.00  0.00     0.077 C 
ATOM      8  C7  UNL d   1      -0.642   0.409   1.749  0.00  0.00    -0.001 A 
ENDROOT
TORSDOF 0
ENDMDL
