MODEL 1
REMARK minimizedAffinity 3.02179909
REMARK minimizedRMSD -1
REMARK  0 active torsions:
REMARK  status: ('A' for Active; 'I' for Inactive)
ROOT
ATOM      1  C   UNL d   1       3.350   5.487  -5.999  0.00  0.00     0.077 C 
ATOM      2  C1  UNL d   1       2.704   4.454  -5.125  0.00  0.00    -0.074 A 
ATOM      3  C2  UNL d   1       1.452   4.684  -4.544  0.00  0.00    -0.005 A 
ATOM      4  C3  UNL d   1       0.860   3.710  -3.741  0.00  0.00     0.006 A 
ATOM      5  C4  UNL d   1       1.511   2.498  -3.511  0.00  0.00    -0.005 A 
ATOM      6  C5  UNL d   1       2.762   2.249  -4.084  0.00  0.00    -0.074 A 
ATOM      7  C6  UNL d   1       3.471   0.947  -3.854  0.00  0.00     0.077 C 
ATOM      8  C7  UNL d   1       3.348   3.230  -4.895  0.00  0.00    -0.001 A 
ENDROOT
TORSDOF 0
ENDMDL
