MODEL 1
REMARK minimizedAffinity -0.335129529
REMARK minimizedRMSD -1
REMARK  0 active torsions:
REMARK  status: ('A' for Active; 'I' for Inactive)
ROOT
ATOM      1  C   UNL d   1      -4.122  -2.243  -2.270  0.00  0.00     0.077 C 
ATOM      2  C1  UNL d   1      -3.902  -3.488  -1.463  0.00  0.00    -0.074 A 
ATOM      3  C2  UNL d   1      -2.615  -3.996  -1.260  0.00  0.00    -0.005 A 
ATOM      4  C3  UNL d   1      -2.425  -5.149  -0.500  0.00  0.00     0.006 A 
ATOM      5  C4  UNL d   1      -3.519  -5.806   0.066  0.00  0.00    -0.005 A 
ATOM      6  C5  UNL d   1      -4.814  -5.312  -0.125  0.00  0.00    -0.074 A 
ATOM      7  C6  UNL d   1      -5.999  -6.000   0.484  0.00  0.00     0.077 C 
ATOM      8  C7  UNL d   1      -4.995  -4.149  -0.885  0.00  0.00    -0.001 A 
ENDROOT
TORSDOF 0
ENDMDL
