MODEL 1
REMARK minimizedAffinity -3.26764011
REMARK minimizedRMSD -1
REMARK  0 active torsions:
REMARK  status: ('A' for Active; 'I' for Inactive)
ROOT
ATOM      1  C   UNL d   1      -0.341  -1.833   2.044  0.00  0.00     0.077 C 
ATOM      2  C1  UNL d   1      -0.381  -0.398   1.612  0.00  0.00    -0.074 A 
ATOM      3  C2  UNL d   1       0.569   0.110   0.719  0.00  0.00    -0.005 A 
ATOM      4  C3  UNL d   1       0.514   1.445   0.319  0.00  0.00     0.006 A 
ATOM      5  C4  UNL d   1      -0.490   2.284   0.805  0.00  0.00    -0.005 A 
ATOM      6  C5  UNL d   1      -1.449   1.793   1.697  0.00  0.00    -0.074 A 
ATOM      7  C6  UNL d   1      -2.540   2.679   2.222  0.00  0.00     0.077 C 
ATOM      8  C7  UNL d   1      -1.391   0.449   2.090  0.00  0.00    -0.001 A 
ENDROOT
TORSDOF 0
ENDMDL
