MODEL 1
REMARK minimizedAffinity 9.15790272
REMARK minimizedRMSD -1
REMARK  0 active torsions:
REMARK  status: ('A' for Active; 'I' for Inactive)
ROOT
ATOM      1  C   UNL d   1       1.487   0.563   1.063  0.00  0.00     0.077 C 
ATOM      2  C1  UNL d   1       2.119   0.351  -0.280  0.00  0.00    -0.074 A 
ATOM      3  C2  UNL d   1       2.644  -0.895  -0.639  0.00  0.00    -0.005 A 
ATOM      4  C3  UNL d   1       3.219  -1.080  -1.896  0.00  0.00     0.006 A 
ATOM      5  C4  UNL d   1       3.276  -0.023  -2.805  0.00  0.00    -0.005 A 
ATOM      6  C5  UNL d   1       2.756   1.229  -2.464  0.00  0.00    -0.074 A 
ATOM      7  C6  UNL d   1       2.800   2.373  -3.434  0.00  0.00     0.077 C 
ATOM      8  C7  UNL d   1       2.173   1.406  -1.202  0.00  0.00    -0.001 A 
ENDROOT
TORSDOF 0
ENDMDL
