MODEL 1
REMARK minimizedAffinity -0.13066116
REMARK minimizedRMSD -1
REMARK  0 active torsions:
REMARK  status: ('A' for Active; 'I' for Inactive)
ROOT
ATOM      1  C   UNL d   1      -1.498  -0.630   2.155  0.00  0.00     0.077 C 
ATOM      2  C1  UNL d   1      -0.389   0.234   1.631  0.00  0.00    -0.074 A 
ATOM      3  C2  UNL d   1      -0.572   1.609   1.453  0.00  0.00    -0.005 A 
ATOM      4  C3  UNL d   1       0.472   2.400   0.974  0.00  0.00     0.006 A 
ATOM      5  C4  UNL d   1       1.707   1.826   0.669  0.00  0.00    -0.005 A 
ATOM      6  C5  UNL d   1       1.908   0.453   0.842  0.00  0.00    -0.074 A 
ATOM      7  C6  UNL d   1       3.232  -0.178   0.529  0.00  0.00     0.077 C 
ATOM      8  C7  UNL d   1       0.857  -0.335   1.331  0.00  0.00    -0.001 A 
ENDROOT
TORSDOF 0
ENDMDL
