MODEL 1
REMARK minimizedAffinity 4.18267536
REMARK minimizedRMSD -1
REMARK  0 active torsions:
REMARK  status: ('A' for Active; 'I' for Inactive)
ROOT
ATOM      1  C   UNL d   1      -1.228  -1.181   1.433  0.00  0.00     0.077 C 
ATOM      2  C1  UNL d   1      -1.439   0.260   1.790  0.00  0.00    -0.074 A 
ATOM      3  C2  UNL d   1      -0.566   1.250   1.328  0.00  0.00    -0.005 A 
ATOM      4  C3  UNL d   1      -0.780   2.588   1.660  0.00  0.00     0.006 A 
ATOM      5  C4  UNL d   1      -1.867   2.948   2.457  0.00  0.00    -0.005 A 
ATOM      6  C5  UNL d   1      -2.751   1.972   2.928  0.00  0.00    -0.074 A 
ATOM      7  C6  UNL d   1      -3.930   2.344   3.778  0.00  0.00     0.077 C 
ATOM      8  C7  UNL d   1      -2.533   0.631   2.584  0.00  0.00    -0.001 A 
ENDROOT
TORSDOF 0
ENDMDL
