MODEL 1
REMARK minimizedAffinity -1.77531421
REMARK minimizedRMSD -1
REMARK  0 active torsions:
REMARK  status: ('A' for Active; 'I' for Inactive)
ROOT
ATOM      1  C   UNL d   1      -1.576  -1.917   1.307  0.00  0.00     0.077 C 
ATOM      2  C1  UNL d   1      -0.783  -0.652   1.167  0.00  0.00    -0.074 A 
ATOM      3  C2  UNL d   1       0.527  -0.674   0.678  0.00  0.00    -0.005 A 
ATOM      4  C3  UNL d   1       1.249   0.512   0.544  0.00  0.00     0.006 A 
ATOM      5  C4  UNL d   1       0.668   1.731   0.898  0.00  0.00    -0.005 A 
ATOM      6  C5  UNL d   1      -0.641   1.773   1.388  0.00  0.00    -0.074 A 
ATOM      7  C6  UNL d   1      -1.283   3.076   1.763  0.00  0.00     0.077 C 
ATOM      8  C7  UNL d   1      -1.362   0.578   1.513  0.00  0.00    -0.001 A 
ENDROOT
TORSDOF 0
ENDMDL
