MODEL 1
REMARK minimizedAffinity -0.205529451
REMARK minimizedRMSD -1
REMARK  0 active torsions:
REMARK  status: ('A' for Active; 'I' for Inactive)
ROOT
ATOM      1  C   UNL d   1      -0.163  -0.652   1.587  0.00  0.00     0.077 C 
ATOM      2  C1  UNL d   1      -0.977   0.604   1.489  0.00  0.00    -0.074 A 
ATOM      3  C2  UNL d   1      -0.686   1.575   0.526  0.00  0.00    -0.005 A 
ATOM      4  C3  UNL d   1      -1.458   2.734   0.441  0.00  0.00     0.006 A 
ATOM      5  C4  UNL d   1      -2.526   2.933   1.317  0.00  0.00    -0.005 A 
ATOM      6  C5  UNL d   1      -2.832   1.972   2.286  0.00  0.00    -0.074 A 
ATOM      7  C6  UNL d   1      -3.982   2.165   3.229  0.00  0.00     0.077 C 
ATOM      8  C7  UNL d   1      -2.056   0.807   2.361  0.00  0.00    -0.001 A 
ENDROOT
TORSDOF 0
ENDMDL
