MODEL 1
REMARK minimizedAffinity 5.39311504
REMARK minimizedRMSD -1
REMARK  0 active torsions:
REMARK  status: ('A' for Active; 'I' for Inactive)
ROOT
ATOM      1  C   UNL d   1      -1.867   3.213   1.703  0.00  0.00     0.077 C 
ATOM      2  C1  UNL d   1      -0.894   2.090   1.500  0.00  0.00    -0.074 A 
ATOM      3  C2  UNL d   1       0.237   2.256   0.695  0.00  0.00    -0.005 A 
ATOM      4  C3  UNL d   1       1.138   1.205   0.522  0.00  0.00     0.006 A 
ATOM      5  C4  UNL d   1       0.917  -0.021   1.151  0.00  0.00    -0.005 A 
ATOM      6  C5  UNL d   1      -0.209  -0.205   1.960  0.00  0.00    -0.074 A 
ATOM      7  C6  UNL d   1      -0.457  -1.513   2.652  0.00  0.00     0.077 C 
ATOM      8  C7  UNL d   1      -1.106   0.858   2.135  0.00  0.00    -0.001 A 
ENDROOT
TORSDOF 0
ENDMDL
