MODEL 1
REMARK minimizedAffinity -0.243244424
REMARK minimizedRMSD -1
REMARK  0 active torsions:
REMARK  status: ('A' for Active; 'I' for Inactive)
ROOT
ATOM      1  C   UNL d   1      -1.902   2.952   1.828  0.00  0.00     0.077 C 
ATOM      2  C1  UNL d   1      -0.931   1.889   1.409  0.00  0.00    -0.074 A 
ATOM      3  C2  UNL d   1       0.194   2.206   0.640  0.00  0.00    -0.005 A 
ATOM      4  C3  UNL d   1       1.094   1.208   0.266  0.00  0.00     0.006 A 
ATOM      5  C4  UNL d   1       0.879  -0.115   0.656  0.00  0.00    -0.005 A 
ATOM      6  C5  UNL d   1      -0.240  -0.450   1.426  0.00  0.00    -0.074 A 
ATOM      7  C6  UNL d   1      -0.481  -1.864   1.862  0.00  0.00     0.077 C 
ATOM      8  C7  UNL d   1      -1.136   0.560   1.804  0.00  0.00    -0.001 A 
ENDROOT
TORSDOF 0
ENDMDL
