MODEL 1
REMARK minimizedAffinity 7.5029726
REMARK minimizedRMSD -1
REMARK  0 active torsions:
REMARK  status: ('A' for Active; 'I' for Inactive)
ROOT
ATOM      1  C   UNL d   1      -0.217   2.321   1.263  0.00  0.00     0.077 C 
ATOM      2  C1  UNL d   1       0.953   1.565   0.708  0.00  0.00    -0.074 A 
ATOM      3  C2  UNL d   1       1.504   0.483   1.402  0.00  0.00    -0.005 A 
ATOM      4  C3  UNL d   1       2.587  -0.217   0.869  0.00  0.00     0.006 A 
ATOM      5  C4  UNL d   1       3.128   0.157  -0.362  0.00  0.00    -0.005 A 
ATOM      6  C5  UNL d   1       2.590   1.235  -1.071  0.00  0.00    -0.074 A 
ATOM      7  C6  UNL d   1       3.153   1.644  -2.399  0.00  0.00     0.077 C 
ATOM      8  C7  UNL d   1       1.498   1.929  -0.532  0.00  0.00    -0.001 A 
ENDROOT
TORSDOF 0
ENDMDL
