MODEL 1
REMARK minimizedAffinity 0.339324355
REMARK minimizedRMSD -1
REMARK  0 active torsions:
REMARK  status: ('A' for Active; 'I' for Inactive)
ROOT
ATOM      1  C   UNL d   1       1.927  -0.047   0.408  0.00  0.00     0.077 C 
ATOM      2  C1  UNL d   1       0.559   0.317   0.903  0.00  0.00    -0.074 A 
ATOM      3  C2  UNL d   1       0.110   1.641   0.868  0.00  0.00    -0.005 A 
ATOM      4  C3  UNL d   1      -1.169   1.962   1.324  0.00  0.00     0.006 A 
ATOM      5  C4  UNL d   1      -2.009   0.964   1.819  0.00  0.00    -0.005 A 
ATOM      6  C5  UNL d   1      -1.578  -0.365   1.861  0.00  0.00    -0.074 A 
ATOM      7  C6  UNL d   1      -2.472  -1.451   2.381  0.00  0.00     0.077 C 
ATOM      8  C7  UNL d   1      -0.294  -0.681   1.395  0.00  0.00    -0.001 A 
ENDROOT
TORSDOF 0
ENDMDL
