MODEL 1
REMARK minimizedAffinity 9.63269615
REMARK minimizedRMSD -1
REMARK  0 active torsions:
REMARK  status: ('A' for Active; 'I' for Inactive)
ROOT
ATOM      1  C   UNL d   1      -0.597  -4.812   1.027  0.00  0.00     0.077 C 
ATOM      2  C1  UNL d   1      -1.811  -4.809   0.146  0.00  0.00    -0.074 A 
ATOM      3  C2  UNL d   1      -2.311  -5.999  -0.392  0.00  0.00    -0.005 A 
ATOM      4  C3  UNL d   1      -3.447  -5.981  -1.202  0.00  0.00     0.006 A 
ATOM      5  C4  UNL d   1      -4.094  -4.776  -1.480  0.00  0.00    -0.005 A 
ATOM      6  C5  UNL d   1      -3.608  -3.576  -0.949  0.00  0.00    -0.074 A 
ATOM      7  C6  UNL d   1      -4.297  -2.274  -1.230  0.00  0.00     0.077 C 
ATOM      8  C7  UNL d   1      -2.470  -3.603  -0.131  0.00  0.00    -0.001 A 
ENDROOT
TORSDOF 0
ENDMDL
