MODEL 1
REMARK minimizedAffinity -0.268550456
REMARK minimizedRMSD -1
REMARK  0 active torsions:
REMARK  status: ('A' for Active; 'I' for Inactive)
ROOT
ATOM      1  C   UNL d   1      -3.544   1.832   3.617  0.00  0.00     0.077 C 
ATOM      2  C1  UNL d   1      -2.243   1.481   2.959  0.00  0.00    -0.074 A 
ATOM      3  C2  UNL d   1      -1.194   2.405   2.901  0.00  0.00    -0.005 A 
ATOM      4  C3  UNL d   1       0.014   2.061   2.294  0.00  0.00     0.006 A 
ATOM      5  C4  UNL d   1       0.185   0.791   1.740  0.00  0.00    -0.005 A 
ATOM      6  C5  UNL d   1      -0.851  -0.146   1.790  0.00  0.00    -0.074 A 
ATOM      7  C6  UNL d   1      -0.680  -1.518   1.209  0.00  0.00     0.077 C 
ATOM      8  C7  UNL d   1      -2.060   0.205   2.408  0.00  0.00    -0.001 A 
ENDROOT
TORSDOF 0
ENDMDL
