MODEL 1
REMARK minimizedAffinity 4.73169756
REMARK minimizedRMSD -1
REMARK  0 active torsions:
REMARK  status: ('A' for Active; 'I' for Inactive)
ROOT
ATOM      1  C1  BNZ d   1       0.007   0.313  -1.590  0.00  0.00     0.000 A 
ATOM      2  C2  BNZ d   1      -0.768   1.437  -1.694  0.00  0.00     0.000 A 
ATOM      3  C3  BNZ d   1      -0.480   2.556  -0.963  0.00  0.00     0.000 A 
ATOM      4  C4  BNZ d   1       0.556   2.536  -0.101  0.00  0.00     0.000 A 
ATOM      5  C5  BNZ d   1       1.342   1.407   0.022  0.00  0.00     0.000 A 
ATOM      6  C6  BNZ d   1       1.072   0.296  -0.744  0.00  0.00     0.000 A 
ENDROOT
TORSDOF 0
ENDMDL
