MODEL 1
REMARK minimizedAffinity 2.82506943
REMARK minimizedRMSD -1
REMARK  0 active torsions:
REMARK  status: ('A' for Active; 'I' for Inactive)
ROOT
ATOM      1  C1  BNZ d   1      -5.470   1.553   2.416  0.00  0.00     0.000 A 
ATOM      2  C2  BNZ d   1      -4.417   2.260   1.900  0.00  0.00     0.000 A 
ATOM      3  C3  BNZ d   1      -3.892   1.943   0.678  0.00  0.00     0.000 A 
ATOM      4  C4  BNZ d   1      -4.393   0.894  -0.006  0.00  0.00     0.000 A 
ATOM      5  C5  BNZ d   1      -5.448   0.165   0.506  0.00  0.00     0.000 A 
ATOM      6  C6  BNZ d   1      -5.999   0.512   1.718  0.00  0.00     0.000 A 
ENDROOT
TORSDOF 0
ENDMDL
