MODEL 1
REMARK minimizedAffinity 2.07916379
REMARK minimizedRMSD -1
REMARK  0 active torsions:
REMARK  status: ('A' for Active; 'I' for Inactive)
ROOT
ATOM      1  C1  BNZ d   1      -1.343   0.592  -1.157  0.00  0.00     0.000 A 
ATOM      2  C2  BNZ d   1      -0.104   0.008  -1.167  0.00  0.00     0.000 A 
ATOM      3  C3  BNZ d   1       1.007   0.717  -0.804  0.00  0.00     0.000 A 
ATOM      4  C4  BNZ d   1       0.884   2.018  -0.472  0.00  0.00     0.000 A 
ATOM      5  C5  BNZ d   1      -0.356   2.624  -0.467  0.00  0.00     0.000 A 
ATOM      6  C6  BNZ d   1      -1.478   1.897  -0.795  0.00  0.00     0.000 A 
ENDROOT
TORSDOF 0
ENDMDL
