MODEL 1
REMARK minimizedAffinity -2.70151663
REMARK minimizedRMSD -1
REMARK  0 active torsions:
REMARK  status: ('A' for Active; 'I' for Inactive)
ROOT
ATOM      1  C1  BNZ d   1      -0.006   0.875  -1.536  0.00  0.00     0.000 A 
ATOM      2  C2  BNZ d   1      -0.409   2.109  -1.103  0.00  0.00     0.000 A 
ATOM      3  C3  BNZ d   1       0.180   2.699  -0.020  0.00  0.00     0.000 A 
ATOM      4  C4  BNZ d   1       1.144   2.037   0.653  0.00  0.00     0.000 A 
ATOM      5  C5  BNZ d   1       1.555   0.787   0.234  0.00  0.00     0.000 A 
ATOM      6  C6  BNZ d   1       0.987   0.213  -0.880  0.00  0.00     0.000 A 
ENDROOT
TORSDOF 0
ENDMDL
