MODEL 1
REMARK minimizedAffinity 0.474916816
REMARK minimizedRMSD -1
REMARK  0 active torsions:
REMARK  status: ('A' for Active; 'I' for Inactive)
ROOT
ATOM      1  C1  BNZ d   1       0.703   0.744   0.279  0.00  0.00     0.000 A 
ATOM      2  C2  BNZ d   1       0.197   0.166  -0.854  0.00  0.00     0.000 A 
ATOM      3  C3  BNZ d   1      -0.679   0.845  -1.655  0.00  0.00     0.000 A 
ATOM      4  C4  BNZ d   1      -1.077   2.084  -1.302  0.00  0.00     0.000 A 
ATOM      5  C5  BNZ d   1      -0.582   2.677  -0.157  0.00  0.00     0.000 A 
ATOM      6  C6  BNZ d   1       0.329   2.006   0.626  0.00  0.00     0.000 A 
ENDROOT
TORSDOF 0
ENDMDL
