MODEL 1
REMARK minimizedAffinity 1.24108708
REMARK minimizedRMSD -1
REMARK  0 active torsions:
REMARK  status: ('A' for Active; 'I' for Inactive)
ROOT
ATOM      1  C1  BNZ d   1      -0.659   3.424   0.615  0.00  0.00     0.000 A 
ATOM      2  C2  BNZ d   1      -1.926   2.987   0.337  0.00  0.00     0.000 A 
ATOM      3  C3  BNZ d   1      -2.131   1.821  -0.346  0.00  0.00     0.000 A 
ATOM      4  C4  BNZ d   1      -1.069   1.116  -0.786  0.00  0.00     0.000 A 
ATOM      5  C5  BNZ d   1       0.215   1.548  -0.522  0.00  0.00     0.000 A 
ATOM      6  C6  BNZ d   1       0.417   2.702   0.200  0.00  0.00     0.000 A 
ENDROOT
TORSDOF 0
ENDMDL
