MODEL 1
REMARK minimizedAffinity 6.17451096
REMARK minimizedRMSD -1
REMARK  0 active torsions:
REMARK  status: ('A' for Active; 'I' for Inactive)
ROOT
ATOM      1  C1  BNZ d   1       1.562   0.033   0.548  0.00  0.00     0.000 A 
ATOM      2  C2  BNZ d   1       1.219  -0.154  -0.764  0.00  0.00     0.000 A 
ATOM      3  C3  BNZ d   1       2.141   0.011  -1.760  0.00  0.00     0.000 A 
ATOM      4  C4  BNZ d   1       3.393   0.402  -1.445  0.00  0.00     0.000 A 
ATOM      5  C5  BNZ d   1       3.752   0.604  -0.128  0.00  0.00     0.000 A 
ATOM      6  C6  BNZ d   1       2.832   0.399   0.875  0.00  0.00     0.000 A 
ENDROOT
TORSDOF 0
ENDMDL
