MODEL 1
REMARK minimizedAffinity 0.10722857
REMARK minimizedRMSD -1
REMARK  0 active torsions:
REMARK  status: ('A' for Active; 'I' for Inactive)
ROOT
ATOM      1  C1  BNZ d   1      -3.431   1.771  -0.016  0.00  0.00     0.000 A 
ATOM      2  C2  BNZ d   1      -2.727   2.923  -0.249  0.00  0.00     0.000 A 
ATOM      3  C3  BNZ d   1      -2.510   3.825   0.755  0.00  0.00     0.000 A 
ATOM      4  C4  BNZ d   1      -3.032   3.595   1.977  0.00  0.00     0.000 A 
ATOM      5  C5  BNZ d   1      -3.752   2.444   2.225  0.00  0.00     0.000 A 
ATOM      6  C6  BNZ d   1      -3.935   1.519   1.222  0.00  0.00     0.000 A 
ENDROOT
TORSDOF 0
ENDMDL
