MODEL 1
REMARK minimizedAffinity 0.960847735
REMARK minimizedRMSD -1
REMARK  0 active torsions:
REMARK  status: ('A' for Active; 'I' for Inactive)
ROOT
ATOM      1  C1  BNZ d   1       1.849   0.415   0.550  0.00  0.00     0.000 A 
ATOM      2  C2  BNZ d   1       1.092   0.066  -0.537  0.00  0.00     0.000 A 
ATOM      3  C3  BNZ d   1       1.661  -0.060  -1.774  0.00  0.00     0.000 A 
ATOM      4  C4  BNZ d   1       2.974   0.203  -1.930  0.00  0.00     0.000 A 
ATOM      5  C5  BNZ d   1       3.748   0.565  -0.845  0.00  0.00     0.000 A 
ATOM      6  C6  BNZ d   1       3.181   0.652   0.405  0.00  0.00     0.000 A 
ENDROOT
TORSDOF 0
ENDMDL
