MODEL 1
REMARK minimizedAffinity 1.72415519
REMARK minimizedRMSD -1
REMARK  0 active torsions:
REMARK  status: ('A' for Active; 'I' for Inactive)
ROOT
ATOM      1  C1  BNZ d   1       2.274  -0.100  -2.254  0.00  0.00     0.000 A 
ATOM      2  C2  BNZ d   1       3.212   0.302  -1.342  0.00  0.00     0.000 A 
ATOM      3  C3  BNZ d   1       2.942   0.279  -0.002  0.00  0.00     0.000 A 
ATOM      4  C4  BNZ d   1       1.721  -0.108   0.421  0.00  0.00     0.000 A 
ATOM      5  C5  BNZ d   1       0.761  -0.508  -0.486  0.00  0.00     0.000 A 
ATOM      6  C6  BNZ d   1       1.050  -0.520  -1.832  0.00  0.00     0.000 A 
ENDROOT
TORSDOF 0
ENDMDL
