MODEL 1
REMARK minimizedAffinity 5.70987988
REMARK minimizedRMSD -1
REMARK  0 active torsions:
REMARK  status: ('A' for Active; 'I' for Inactive)
ROOT
ATOM      1  C1  BNZ d   1      -1.618   2.738  -0.471  0.00  0.00     0.000 A 
ATOM      2  C2  BNZ d   1      -0.500   3.040   0.261  0.00  0.00     0.000 A 
ATOM      3  C3  BNZ d   1      -0.444   4.179   1.016  0.00  0.00     0.000 A 
ATOM      4  C4  BNZ d   1      -1.489   5.033   1.006  0.00  0.00     0.000 A 
ATOM      5  C5  BNZ d   1      -2.618   4.747   0.266  0.00  0.00     0.000 A 
ATOM      6  C6  BNZ d   1      -2.686   3.581  -0.462  0.00  0.00     0.000 A 
ENDROOT
TORSDOF 0
ENDMDL
