MODEL 1
REMARK minimizedAffinity 0.930184722
REMARK minimizedRMSD -1
REMARK  1 active torsions:
REMARK  status: ('A' for Active; 'I' for Inactive)
REMARK    1  A    between atoms: C1_2  and  C2_3 
ROOT
ATOM      1  C2  UNL d   1      -1.244  -2.032   1.031  0.00  0.00    -0.077 A 
ATOM      2  C3  UNL d   1      -0.243  -1.189   0.527  0.00  0.00     0.002 A 
ATOM      3  C4  UNL d   1       0.210  -1.336  -0.785  0.00  0.00     0.002 A 
ATOM      4  C5  UNL d   1      -0.335  -2.322  -1.606  0.00  0.00    -0.004 A 
ATOM      5  C6  UNL d   1      -1.329  -3.167  -1.114  0.00  0.00     0.002 A 
ATOM      6  C7  UNL d   1      -1.782  -3.022   0.198  0.00  0.00     0.002 A 
ENDROOT
BRANCH   1   7
ATOM      7  C1  UNL d   1      -1.769  -1.843   2.430  0.00  0.00     0.055 C 
ATOM      8  C   UNL d   1      -1.938  -3.177   3.143  0.00  0.00     0.019 C 
ENDBRANCH   1   7
TORSDOF 1
ENDMDL
