MODEL 1
REMARK minimizedAffinity 7.50322151
REMARK minimizedRMSD -1
REMARK  1 active torsions:
REMARK  status: ('A' for Active; 'I' for Inactive)
REMARK    1  A    between atoms: C1_2  and  C2_3 
ROOT
ATOM      1  C2  UNL d   1      -3.838   3.768  -5.035  0.00  0.00    -0.077 A 
ATOM      2  C3  UNL d   1      -3.265   4.887  -5.656  0.00  0.00     0.002 A 
ATOM      3  C4  UNL d   1      -4.055   5.986  -6.000  0.00  0.00     0.002 A 
ATOM      4  C5  UNL d   1      -5.420   5.979  -5.723  0.00  0.00    -0.004 A 
ATOM      5  C6  UNL d   1      -6.000   4.870  -5.107  0.00  0.00     0.002 A 
ATOM      6  C7  UNL d   1      -5.212   3.770  -4.764  0.00  0.00     0.002 A 
ENDROOT
BRANCH   1   7
ATOM      7  C1  UNL d   1      -2.980   2.602  -4.620  0.00  0.00     0.055 C 
ATOM      8  C   UNL d   1      -1.809   3.055  -3.759  0.00  0.00     0.019 C 
ENDBRANCH   1   7
TORSDOF 1
ENDMDL
