MODEL 1
REMARK minimizedAffinity 12.555254
REMARK minimizedRMSD -1
REMARK  1 active torsions:
REMARK  status: ('A' for Active; 'I' for Inactive)
REMARK    1  A    between atoms: C1_2  and  C2_3 
ROOT
ATOM      1  C2  UNL d   1      -0.700  -3.655  -0.689  0.00  0.00    -0.077 A 
ATOM      2  C3  UNL d   1       0.295  -4.642  -0.636  0.00  0.00     0.002 A 
ATOM      3  C4  UNL d   1       0.094  -5.808   0.106  0.00  0.00     0.002 A 
ATOM      4  C5  UNL d   1      -1.101  -5.999   0.796  0.00  0.00    -0.004 A 
ATOM      5  C6  UNL d   1      -2.095  -5.023   0.752  0.00  0.00     0.002 A 
ATOM      6  C7  UNL d   1      -1.896  -3.857   0.012  0.00  0.00     0.002 A 
ENDROOT
BRANCH   1   7
ATOM      7  C1  UNL d   1      -0.505  -2.420  -1.528  0.00  0.00     0.055 C 
ATOM      8  C   UNL d   1      -0.425  -2.763  -3.009  0.00  0.00     0.019 C 
ENDBRANCH   1   7
TORSDOF 1
ENDMDL
