MODEL 1
REMARK minimizedAffinity 6.20907068
REMARK minimizedRMSD -1
REMARK  1 active torsions:
REMARK  status: ('A' for Active; 'I' for Inactive)
REMARK    1  A    between atoms: C1_2  and  C2_3 
ROOT
ATOM      1  C2  UNL d   1       3.109   2.621   0.500  0.00  0.00    -0.077 A 
ATOM      2  C3  UNL d   1       1.872   2.801  -0.136  0.00  0.00     0.002 A 
ATOM      3  C4  UNL d   1       0.827   1.903   0.086  0.00  0.00     0.002 A 
ATOM      4  C5  UNL d   1       1.006   0.821   0.945  0.00  0.00    -0.004 A 
ATOM      5  C6  UNL d   1       2.232   0.632   1.581  0.00  0.00     0.002 A 
ATOM      6  C7  UNL d   1       3.279   1.529   1.360  0.00  0.00     0.002 A 
ENDROOT
BRANCH   1   7
ATOM      7  C1  UNL d   1       4.222   3.617   0.301  0.00  0.00     0.055 C 
ATOM      8  C   UNL d   1       4.693   4.193   1.628  0.00  0.00     0.019 C 
ENDBRANCH   1   7
TORSDOF 1
ENDMDL
