MODEL 1
REMARK minimizedAffinity 12.4015465
REMARK minimizedRMSD -1
REMARK  1 active torsions:
REMARK  status: ('A' for Active; 'I' for Inactive)
REMARK    1  A    between atoms: C1_2  and  C2_3 
ROOT
ATOM      1  C2  UNL d   1      -0.982  -2.622   0.063  0.00  0.00    -0.077 A 
ATOM      2  C3  UNL d   1      -1.983  -3.604   0.090  0.00  0.00     0.002 A 
ATOM      3  C4  UNL d   1      -2.282  -4.339  -1.059  0.00  0.00     0.002 A 
ATOM      4  C5  UNL d   1      -1.583  -4.103  -2.241  0.00  0.00    -0.004 A 
ATOM      5  C6  UNL d   1      -0.587  -3.127  -2.278  0.00  0.00     0.002 A 
ATOM      6  C7  UNL d   1      -0.288  -2.391  -1.131  0.00  0.00     0.002 A 
ENDROOT
BRANCH   1   7
ATOM      7  C1  UNL d   1      -0.625  -1.863   1.314  0.00  0.00     0.055 C 
ATOM      8  C   UNL d   1       0.701  -1.132   1.157  0.00  0.00     0.019 C 
ENDBRANCH   1   7
TORSDOF 1
ENDMDL
