MODEL 1
REMARK minimizedAffinity 7.54205656
REMARK minimizedRMSD -1
REMARK  1 active torsions:
REMARK  status: ('A' for Active; 'I' for Inactive)
REMARK    1  A    between atoms: C1_2  and  C2_3 
ROOT
ATOM      1  C2  UNL d   1       0.403  -1.461   0.295  0.00  0.00    -0.077 A 
ATOM      2  C3  UNL d   1       0.500  -1.588  -1.098  0.00  0.00     0.002 A 
ATOM      3  C4  UNL d   1      -0.409  -2.383  -1.799  0.00  0.00     0.002 A 
ATOM      4  C5  UNL d   1      -1.423  -3.052  -1.117  0.00  0.00    -0.004 A 
ATOM      5  C6  UNL d   1      -1.527  -2.933   0.269  0.00  0.00     0.002 A 
ATOM      6  C7  UNL d   1      -0.618  -2.140   0.971  0.00  0.00     0.002 A 
ENDROOT
BRANCH   1   7
ATOM      7  C1  UNL d   1       1.353  -0.565   1.047  0.00  0.00     0.055 C 
ATOM      8  C   UNL d   1       1.264   0.873   0.556  0.00  0.00     0.019 C 
ENDBRANCH   1   7
TORSDOF 1
ENDMDL
