MODEL 1
REMARK minimizedAffinity 3.68759441
REMARK minimizedRMSD -1
REMARK  1 active torsions:
REMARK  status: ('A' for Active; 'I' for Inactive)
REMARK    1  A    between atoms: C1_2  and  C2_3 
ROOT
ATOM      1  C2  UNL d   1      -1.462  -3.632   0.527  0.00  0.00    -0.077 A 
ATOM      2  C3  UNL d   1      -1.354  -4.887   1.143  0.00  0.00     0.002 A 
ATOM      3  C4  UNL d   1      -1.069  -4.982   2.506  0.00  0.00     0.002 A 
ATOM      4  C5  UNL d   1      -0.894  -3.827   3.265  0.00  0.00    -0.004 A 
ATOM      5  C6  UNL d   1      -0.997  -2.575   2.662  0.00  0.00     0.002 A 
ATOM      6  C7  UNL d   1      -1.281  -2.477   1.299  0.00  0.00     0.002 A 
ENDROOT
BRANCH   1   7
ATOM      7  C1  UNL d   1      -1.818  -3.526  -0.933  0.00  0.00     0.055 C 
ATOM      8  C   UNL d   1      -0.578  -3.325  -1.792  0.00  0.00     0.019 C 
ENDBRANCH   1   7
TORSDOF 1
ENDMDL
