MODEL 1
REMARK minimizedAffinity 6.85011816
REMARK minimizedRMSD -1
REMARK  1 active torsions:
REMARK  status: ('A' for Active; 'I' for Inactive)
REMARK    1  A    between atoms: C1_2  and  C2_3 
ROOT
ATOM      1  C2  UNL d   1       0.731   2.580   1.071  0.00  0.00    -0.077 A 
ATOM      2  C3  UNL d   1      -0.640   2.594   1.367  0.00  0.00     0.002 A 
ATOM      3  C4  UNL d   1      -1.530   3.301   0.557  0.00  0.00     0.002 A 
ATOM      4  C5  UNL d   1      -1.060   3.995  -0.556  0.00  0.00    -0.004 A 
ATOM      5  C6  UNL d   1       0.301   3.989  -0.858  0.00  0.00     0.002 A 
ATOM      6  C7  UNL d   1       1.192   3.284  -0.048  0.00  0.00     0.002 A 
ENDROOT
BRANCH   1   7
ATOM      7  C1  UNL d   1       1.686   1.777   1.916  0.00  0.00     0.055 C 
ATOM      8  C   UNL d   1       1.660   0.304   1.534  0.00  0.00     0.019 C 
ENDBRANCH   1   7
TORSDOF 1
ENDMDL
