MODEL 1
REMARK minimizedAffinity 9.63158417
REMARK minimizedRMSD -1
REMARK  1 active torsions:
REMARK  status: ('A' for Active; 'I' for Inactive)
REMARK    1  A    between atoms: C1_2  and  C2_3 
ROOT
ATOM      1  C2  UNL d   1       1.250   1.019   1.353  0.00  0.00    -0.077 A 
ATOM      2  C3  UNL d   1       1.288   1.729   0.145  0.00  0.00     0.002 A 
ATOM      3  C4  UNL d   1       1.880   2.993   0.087  0.00  0.00     0.002 A 
ATOM      4  C5  UNL d   1       2.441   3.554   1.232  0.00  0.00    -0.004 A 
ATOM      5  C6  UNL d   1       2.406   2.856   2.438  0.00  0.00     0.002 A 
ATOM      6  C7  UNL d   1       1.814   1.594   2.498  0.00  0.00     0.002 A 
ENDROOT
BRANCH   1   7
ATOM      7  C1  UNL d   1       0.656  -0.365   1.406  0.00  0.00     0.055 C 
ATOM      8  C   UNL d   1       1.737  -1.425   1.561  0.00  0.00     0.019 C 
ENDBRANCH   1   7
TORSDOF 1
ENDMDL
