MODEL 1
REMARK minimizedAffinity 7.01520252
REMARK minimizedRMSD -1
REMARK  1 active torsions:
REMARK  status: ('A' for Active; 'I' for Inactive)
REMARK    1  A    between atoms: C1_2  and  C2_3 
ROOT
ATOM      1  C2  UNL d   1       1.147   3.343   0.242  0.00  0.00    -0.077 A 
ATOM      2  C3  UNL d   1       0.890   3.219   1.615  0.00  0.00     0.002 A 
ATOM      3  C4  UNL d   1       1.452   2.171   2.346  0.00  0.00     0.002 A 
ATOM      4  C5  UNL d   1       2.276   1.242   1.715  0.00  0.00    -0.004 A 
ATOM      5  C6  UNL d   1       2.535   1.355   0.350  0.00  0.00     0.002 A 
ATOM      6  C7  UNL d   1       1.974   2.401  -0.383  0.00  0.00     0.002 A 
ENDROOT
BRANCH   1   7
ATOM      7  C1  UNL d   1       0.582   4.501  -0.539  0.00  0.00     0.055 C 
ATOM      8  C   UNL d   1       1.509   5.706  -0.490  0.00  0.00     0.019 C 
ENDBRANCH   1   7
TORSDOF 1
ENDMDL
