MODEL 1
REMARK minimizedAffinity 5.29787493
REMARK minimizedRMSD -1
REMARK  1 active torsions:
REMARK  status: ('A' for Active; 'I' for Inactive)
REMARK    1  A    between atoms: C1_2  and  C2_3 
ROOT
ATOM      1  C2  UNL d   1       4.916   1.536  -5.368  0.00  0.00    -0.077 A 
ATOM      2  C3  UNL d   1       5.853   2.578  -5.410  0.00  0.00     0.002 A 
ATOM      3  C4  UNL d   1       5.450   3.878  -5.724  0.00  0.00     0.002 A 
ATOM      4  C5  UNL d   1       4.110   4.148  -5.992  0.00  0.00    -0.004 A 
ATOM      5  C6  UNL d   1       3.171   3.119  -5.954  0.00  0.00     0.002 A 
ATOM      6  C7  UNL d   1       3.571   1.819  -5.642  0.00  0.00     0.002 A 
ENDROOT
BRANCH   1   7
ATOM      7  C1  UNL d   1       5.340   0.143  -4.982  0.00  0.00     0.055 C 
ATOM      8  C   UNL d   1       5.768   0.079  -3.523  0.00  0.00     0.019 C 
ENDBRANCH   1   7
TORSDOF 1
ENDMDL
