MODEL 1
REMARK minimizedAffinity 1.51841271
REMARK minimizedRMSD -1
REMARK  1 active torsions:
REMARK  status: ('A' for Active; 'I' for Inactive)
REMARK    1  A    between atoms: C1_2  and  C2_3 
ROOT
ATOM      1  C2  UNL d   1       2.868   1.866   1.987  0.00  0.00    -0.077 A 
ATOM      2  C3  UNL d   1       3.563   2.018   3.195  0.00  0.00     0.002 A 
ATOM      3  C4  UNL d   1       4.607   2.940   3.299  0.00  0.00     0.002 A 
ATOM      4  C5  UNL d   1       4.961   3.719   2.200  0.00  0.00    -0.004 A 
ATOM      5  C6  UNL d   1       4.278   3.574   0.993  0.00  0.00     0.002 A 
ATOM      6  C7  UNL d   1       3.235   2.653   0.887  0.00  0.00     0.002 A 
ENDROOT
BRANCH   1   7
ATOM      7  C1  UNL d   1       1.710   0.908   1.887  0.00  0.00     0.055 C 
ATOM      8  C   UNL d   1       0.378   1.643   1.926  0.00  0.00     0.019 C 
ENDBRANCH   1   7
TORSDOF 1
ENDMDL
