MODEL 1
REMARK minimizedAffinity 2.3417716
REMARK minimizedRMSD -1
REMARK  1 active torsions:
REMARK  status: ('A' for Active; 'I' for Inactive)
REMARK    1  A    between atoms: C1_2  and  C2_3 
ROOT
ATOM      1  C2  UNL d   1       5.227   1.985  -5.873  0.00  0.00    -0.077 A 
ATOM      2  C3  UNL d   1       5.941   3.169  -5.642  0.00  0.00     0.002 A 
ATOM      3  C4  UNL d   1       5.267   4.386  -5.516  0.00  0.00     0.002 A 
ATOM      4  C5  UNL d   1       3.878   4.429  -5.616  0.00  0.00    -0.004 A 
ATOM      5  C6  UNL d   1       3.160   3.256  -5.847  0.00  0.00     0.002 A 
ATOM      6  C7  UNL d   1       3.832   2.040  -5.974  0.00  0.00     0.002 A 
ENDROOT
BRANCH   1   7
ATOM      7  C1  UNL d   1       5.948   0.664  -5.960  0.00  0.00     0.055 C 
ATOM      8  C   UNL d   1       5.730  -0.168  -4.705  0.00  0.00     0.019 C 
ENDBRANCH   1   7
TORSDOF 1
ENDMDL
