MODEL 1
REMARK minimizedAffinity -4.5916028
REMARK minimizedRMSD -1
REMARK  1 active torsions:
REMARK  status: ('A' for Active; 'I' for Inactive)
REMARK    1  A    between atoms: C1_2  and  C2_3 
ROOT
ATOM      1  C2  UNL d   1       3.440   2.822   1.272  0.00  0.00    -0.077 A 
ATOM      2  C3  UNL d   1       3.077   1.686   2.009  0.00  0.00     0.002 A 
ATOM      3  C4  UNL d   1       3.613   1.468   3.280  0.00  0.00     0.002 A 
ATOM      4  C5  UNL d   1       4.511   2.384   3.826  0.00  0.00    -0.004 A 
ATOM      5  C6  UNL d   1       4.879   3.515   3.099  0.00  0.00     0.002 A 
ATOM      6  C7  UNL d   1       4.346   3.734   1.828  0.00  0.00     0.002 A 
ENDROOT
BRANCH   1   7
ATOM      7  C1  UNL d   1       2.826   3.083  -0.079  0.00  0.00     0.055 C 
ATOM      8  C   UNL d   1       1.308   3.148   0.007  0.00  0.00     0.019 C 
ENDBRANCH   1   7
TORSDOF 1
ENDMDL
