MODEL 1
REMARK minimizedAffinity 5.19659042
REMARK minimizedRMSD -1
REMARK  0 active torsions:
REMARK  status: ('A' for Active; 'I' for Inactive)
ROOT
ATOM      1  C   UNL d   1      -1.337   4.296  -1.171  0.00  0.00    -0.002 A 
ATOM      2  C1  UNL d   1       0.007   4.426  -1.489  0.00  0.00     0.010 A 
ATOM      3  C2  UNL d   1       0.993   4.015  -0.590  0.00  0.00     0.041 A 
ATOM      4  C3  UNL d   1       0.602   3.464   0.646  0.00  0.00    -0.075 A 
ATOM      5  S   UNL d   1       1.634   2.891   1.902  0.00  0.00     0.015 SA
ATOM      6  C4  UNL d   1       0.315   2.459   2.891  0.00  0.00     0.022 A 
ATOM      7  C5  UNL d   1      -0.891   2.738   2.293  0.00  0.00     0.026 A 
ATOM      8  C6  UNL d   1      -0.746   3.321   0.989  0.00  0.00    -0.082 A 
ATOM      9  C7  UNL d   1      -1.722   3.748   0.056  0.00  0.00     0.045 A 
ENDROOT
TORSDOF 0
ENDMDL
