MODEL 1
REMARK minimizedAffinity 9.13535976
REMARK minimizedRMSD -1
REMARK  0 active torsions:
REMARK  status: ('A' for Active; 'I' for Inactive)
ROOT
ATOM      1  C   UNL d   1       4.563  -4.076  -0.048  0.00  0.00    -0.002 A 
ATOM      2  C1  UNL d   1       4.461  -2.716  -0.301  0.00  0.00     0.010 A 
ATOM      3  C2  UNL d   1       4.456  -2.236  -1.612  0.00  0.00     0.041 A 
ATOM      4  C3  UNL d   1       4.554  -3.155  -2.675  0.00  0.00    -0.075 A 
ATOM      5  S   UNL d   1       4.567  -2.797  -4.361  0.00  0.00     0.015 SA
ATOM      6  C4  UNL d   1       4.707  -4.442  -4.785  0.00  0.00     0.022 A 
ATOM      7  C5  UNL d   1       4.745  -5.258  -3.680  0.00  0.00     0.026 A 
ATOM      8  C6  UNL d   1       4.656  -4.530  -2.445  0.00  0.00    -0.082 A 
ATOM      9  C7  UNL d   1       4.660  -4.985  -1.104  0.00  0.00     0.045 A 
ENDROOT
TORSDOF 0
ENDMDL
