MODEL 1
REMARK minimizedAffinity -1.84836304
REMARK minimizedRMSD -1
REMARK  0 active torsions:
REMARK  status: ('A' for Active; 'I' for Inactive)
ROOT
ATOM      1  C   UNL d   1      -4.889   3.398  -1.526  0.00  0.00    -0.002 A 
ATOM      2  C1  UNL d   1      -4.499   2.272  -2.238  0.00  0.00     0.010 A 
ATOM      3  C2  UNL d   1      -4.607   2.239  -3.630  0.00  0.00     0.041 A 
ATOM      4  C3  UNL d   1      -5.118   3.368  -4.301  0.00  0.00    -0.075 A 
ATOM      5  S   UNL d   1      -5.340   3.554  -6.000  0.00  0.00     0.015 SA
ATOM      6  C4  UNL d   1      -5.957   5.133  -5.821  0.00  0.00     0.022 A 
ATOM      7  C5  UNL d   1      -6.000   5.524  -4.504  0.00  0.00     0.026 A 
ATOM      8  C6  UNL d   1      -5.516   4.513  -3.606  0.00  0.00    -0.082 A 
ATOM      9  C7  UNL d   1      -5.394   4.515  -2.195  0.00  0.00     0.045 A 
ENDROOT
TORSDOF 0
ENDMDL
