MODEL 1
REMARK minimizedAffinity 13.1743155
REMARK minimizedRMSD -1
REMARK  0 active torsions:
REMARK  status: ('A' for Active; 'I' for Inactive)
ROOT
ATOM      1  C   UNL d   1      -2.244   5.998   0.119  0.00  0.00    -0.002 A 
ATOM      2  C1  UNL d   1      -2.889   5.657   1.299  0.00  0.00     0.010 A 
ATOM      3  C2  UNL d   1      -2.535   4.499   1.993  0.00  0.00     0.041 A 
ATOM      4  C3  UNL d   1      -1.510   3.682   1.477  0.00  0.00    -0.075 A 
ATOM      5  S   UNL d   1      -0.908   2.216   2.157  0.00  0.00     0.015 SA
ATOM      6  C4  UNL d   1       0.221   2.008   0.897  0.00  0.00     0.022 A 
ATOM      7  C5  UNL d   1       0.153   3.023  -0.028  0.00  0.00     0.026 A 
ATOM      8  C6  UNL d   1      -0.845   4.004   0.291  0.00  0.00    -0.082 A 
ATOM      9  C7  UNL d   1      -1.228   5.185  -0.390  0.00  0.00     0.045 A 
ENDROOT
TORSDOF 0
ENDMDL
