MODEL 1
REMARK minimizedAffinity 5.9094348
REMARK minimizedRMSD -1
REMARK  0 active torsions:
REMARK  status: ('A' for Active; 'I' for Inactive)
ROOT
ATOM      1  C   UNL d   1      -4.565   3.103  -1.707  0.00  0.00    -0.002 A 
ATOM      2  C1  UNL d   1      -5.502   2.208  -2.205  0.00  0.00     0.010 A 
ATOM      3  C2  UNL d   1      -5.999   2.348  -3.502  0.00  0.00     0.041 A 
ATOM      4  C3  UNL d   1      -5.533   3.412  -4.299  0.00  0.00    -0.075 A 
ATOM      5  S   UNL d   1      -6.000   3.780  -5.918  0.00  0.00     0.015 SA
ATOM      6  C4  UNL d   1      -4.965   5.133  -5.988  0.00  0.00     0.022 A 
ATOM      7  C5  UNL d   1      -4.274   5.314  -4.814  0.00  0.00     0.026 A 
ATOM      8  C6  UNL d   1      -4.589   4.325  -3.821  0.00  0.00    -0.082 A 
ATOM      9  C7  UNL d   1      -4.105   4.157  -2.502  0.00  0.00     0.045 A 
ENDROOT
TORSDOF 0
ENDMDL
