MODEL 1
REMARK minimizedAffinity -2.32656932
REMARK minimizedRMSD -1
REMARK  0 active torsions:
REMARK  status: ('A' for Active; 'I' for Inactive)
ROOT
ATOM      1  C   UNL d   1      -3.861   5.548   4.841  0.00  0.00     0.020 A 
ATOM      2  C1  UNL d   1      -3.927   4.417   5.653  0.00  0.00     0.020 A 
ATOM      3  C2  UNL d   1      -2.757   3.736   5.997  0.00  0.00     0.034 A 
ATOM      4  C3  UNL d   1      -1.517   4.186   5.530  0.00  0.00     0.017 A 
ATOM      5  C4  UNL d   1      -1.452   5.322   4.715  0.00  0.00     0.017 A 
ATOM      6  C5  UNL d   1      -2.627   6.000   4.373  0.00  0.00     0.034 A 
ATOM      7 Cl   UNL d   1       0.041   5.937   4.099  0.00  0.00    -0.070 Cl
ATOM      8 Cl1  UNL d   1      -0.112   3.295   5.995  0.00  0.00    -0.070 Cl
ENDROOT
TORSDOF 0
ENDMDL
