MODEL 1
REMARK minimizedAffinity 0.929669678
REMARK minimizedRMSD -1
REMARK  0 active torsions:
REMARK  status: ('A' for Active; 'I' for Inactive)
ROOT
ATOM      1  C   UNL d   1       5.051  -5.379   1.823  0.00  0.00     0.020 A 
ATOM      2  C1  UNL d   1       5.998  -4.388   2.077  0.00  0.00     0.020 A 
ATOM      3  C2  UNL d   1       5.649  -3.041   1.957  0.00  0.00     0.034 A 
ATOM      4  C3  UNL d   1       4.349  -2.682   1.581  0.00  0.00     0.017 A 
ATOM      5  C4  UNL d   1       3.400  -3.678   1.326  0.00  0.00     0.017 A 
ATOM      6  C5  UNL d   1       3.755  -5.025   1.449  0.00  0.00     0.034 A 
ATOM      7 Cl   UNL d   1       1.776  -3.313   0.858  0.00  0.00    -0.070 Cl
ATOM      8 Cl1  UNL d   1       3.987  -0.998   1.451  0.00  0.00    -0.070 Cl
ENDROOT
TORSDOF 0
ENDMDL
