MODEL 1
REMARK minimizedAffinity 8.53495216
REMARK minimizedRMSD -1
REMARK  0 active torsions:
REMARK  status: ('A' for Active; 'I' for Inactive)
ROOT
ATOM      1  C   UNL d   1      -3.339   4.229   4.807  0.00  0.00     0.020 A 
ATOM      2  C1  UNL d   1      -2.993   5.017   5.904  0.00  0.00     0.020 A 
ATOM      3  C2  UNL d   1      -1.707   5.553   5.999  0.00  0.00     0.034 A 
ATOM      4  C3  UNL d   1      -0.763   5.302   4.997  0.00  0.00     0.017 A 
ATOM      5  C4  UNL d   1      -1.112   4.511   3.896  0.00  0.00     0.017 A 
ATOM      6  C5  UNL d   1      -2.401   3.977   3.805  0.00  0.00     0.034 A 
ATOM      7 Cl   UNL d   1      -0.002   4.158   2.620  0.00  0.00    -0.070 Cl
ATOM      8 Cl1  UNL d   1       0.808   5.998   5.180  0.00  0.00    -0.070 Cl
ENDROOT
TORSDOF 0
ENDMDL
