MODEL 1
REMARK minimizedAffinity 6.12305832
REMARK minimizedRMSD -1
REMARK  0 active torsions:
REMARK  status: ('A' for Active; 'I' for Inactive)
ROOT
ATOM      1  C   UNL d   1       4.570  -6.000   0.982  0.00  0.00     0.020 A 
ATOM      2  C1  UNL d   1       5.702  -5.197   1.111  0.00  0.00     0.020 A 
ATOM      3  C2  UNL d   1       5.570  -3.808   1.165  0.00  0.00     0.034 A 
ATOM      4  C3  UNL d   1       4.303  -3.217   1.090  0.00  0.00     0.017 A 
ATOM      5  C4  UNL d   1       3.167  -4.024   0.962  0.00  0.00     0.017 A 
ATOM      6  C5  UNL d   1       3.305  -5.415   0.908  0.00  0.00     0.034 A 
ATOM      7 Cl   UNL d   1       1.571  -3.369   0.864  0.00  0.00    -0.070 Cl
ATOM      8 Cl1  UNL d   1       4.215  -1.493   1.164  0.00  0.00    -0.070 Cl
ENDROOT
TORSDOF 0
ENDMDL
