MODEL 1
REMARK minimizedAffinity -2.42867422
REMARK minimizedRMSD -1
REMARK  0 active torsions:
REMARK  status: ('A' for Active; 'I' for Inactive)
ROOT
ATOM      1  C   UNL d   1       5.755  -4.103   1.457  0.00  0.00     0.020 A 
ATOM      2  C1  UNL d   1       4.850  -5.117   1.144  0.00  0.00     0.020 A 
ATOM      3  C2  UNL d   1       3.480  -4.846   1.122  0.00  0.00     0.034 A 
ATOM      4  C3  UNL d   1       3.011  -3.560   1.413  0.00  0.00     0.017 A 
ATOM      5  C4  UNL d   1       3.921  -2.544   1.728  0.00  0.00     0.017 A 
ATOM      6  C5  UNL d   1       5.291  -2.820   1.749  0.00  0.00     0.034 A 
ATOM      7 Cl   UNL d   1       3.418  -0.933   2.099  0.00  0.00    -0.070 Cl
ATOM      8 Cl1  UNL d   1       1.304  -3.297   1.367  0.00  0.00    -0.070 Cl
ENDROOT
TORSDOF 0
ENDMDL
