MODEL 1
REMARK minimizedAffinity 1.94068849
REMARK minimizedRMSD -1
REMARK  0 active torsions:
REMARK  status: ('A' for Active; 'I' for Inactive)
ROOT
ATOM      1  C   UNL d   1      -2.495   5.858   5.840  0.00  0.00     0.020 A 
ATOM      2  C1  UNL d   1      -3.006   5.293   4.672  0.00  0.00     0.020 A 
ATOM      3  C2  UNL d   1      -2.138   4.870   3.663  0.00  0.00     0.034 A 
ATOM      4  C3  UNL d   1      -0.755   5.010   3.820  0.00  0.00     0.017 A 
ATOM      5  C4  UNL d   1      -0.243   5.577   4.993  0.00  0.00     0.017 A 
ATOM      6  C5  UNL d   1      -1.116   6.000   6.000  0.00  0.00     0.034 A 
ATOM      7 Cl   UNL d   1       1.453   5.783   5.259  0.00  0.00    -0.070 Cl
ATOM      8 Cl1  UNL d   1       0.260   4.464   2.533  0.00  0.00    -0.070 Cl
ENDROOT
TORSDOF 0
ENDMDL
