MODEL 1
REMARK minimizedAffinity 9.40420055
REMARK minimizedRMSD -1
REMARK  0 active torsions:
REMARK  status: ('A' for Active; 'I' for Inactive)
ROOT
ATOM      1  C   UNL d   1       2.083  -2.272   1.492  0.00  0.00     0.020 A 
ATOM      2  C1  UNL d   1       0.998  -1.422   1.704  0.00  0.00     0.020 A 
ATOM      3  C2  UNL d   1      -0.174  -1.918   2.279  0.00  0.00     0.034 A 
ATOM      4  C3  UNL d   1      -0.264  -3.266   2.645  0.00  0.00     0.017 A 
ATOM      5  C4  UNL d   1       0.826  -4.117   2.432  0.00  0.00     0.017 A 
ATOM      6  C5  UNL d   1       1.997  -3.616   1.855  0.00  0.00     0.034 A 
ATOM      7 Cl   UNL d   1       0.791  -5.792   2.857  0.00  0.00    -0.070 Cl
ATOM      8 Cl1  UNL d   1      -1.744  -3.810   3.352  0.00  0.00    -0.070 Cl
ENDROOT
TORSDOF 0
ENDMDL
