MODEL 1
REMARK minimizedAffinity 7.69603395
REMARK minimizedRMSD -1
REMARK  0 active torsions:
REMARK  status: ('A' for Active; 'I' for Inactive)
ROOT
ATOM      1  C   UNL d   1      -0.015   5.131   3.413  0.00  0.00     0.020 A 
ATOM      2  C1  UNL d   1       0.072   5.987   4.511  0.00  0.00     0.020 A 
ATOM      3  C2  UNL d   1       1.227   6.000   5.296  0.00  0.00     0.034 A 
ATOM      4  C3  UNL d   1       2.299   5.156   4.985  0.00  0.00     0.017 A 
ATOM      5  C4  UNL d   1       2.211   4.298   3.883  0.00  0.00     0.017 A 
ATOM      6  C5  UNL d   1       1.052   4.289   3.100  0.00  0.00     0.034 A 
ATOM      7 Cl   UNL d   1       3.492   3.227   3.436  0.00  0.00    -0.070 Cl
ATOM      8 Cl1  UNL d   1       3.696   5.225   5.999  0.00  0.00    -0.070 Cl
ENDROOT
TORSDOF 0
ENDMDL
