MODEL 1
REMARK minimizedAffinity 4.7363553
REMARK minimizedRMSD -1
REMARK  0 active torsions:
REMARK  status: ('A' for Active; 'I' for Inactive)
ROOT
ATOM      1  C   UNL d   1      -2.367   0.817  -0.604  0.00  0.00     0.020 A 
ATOM      2  C1  UNL d   1      -3.748   0.841  -0.797  0.00  0.00     0.020 A 
ATOM      3  C2  UNL d   1      -4.287   1.504  -1.902  0.00  0.00     0.034 A 
ATOM      4  C3  UNL d   1      -3.445   2.146  -2.817  0.00  0.00     0.017 A 
ATOM      5  C4  UNL d   1      -2.059   2.121  -2.623  0.00  0.00     0.017 A 
ATOM      6  C5  UNL d   1      -1.525   1.455  -1.515  0.00  0.00     0.034 A 
ATOM      7 Cl   UNL d   1      -0.956   2.889  -3.709  0.00  0.00    -0.070 Cl
ATOM      8 Cl1  UNL d   1      -4.180   2.946  -4.161  0.00  0.00    -0.070 Cl
ENDROOT
TORSDOF 0
ENDMDL
