MODEL 1
REMARK minimizedAffinity 2.80948901
REMARK minimizedRMSD -1
REMARK  0 active torsions:
REMARK  status: ('A' for Active; 'I' for Inactive)
ROOT
ATOM      1  C   UNL d   1      -2.151   5.438   4.952  0.00  0.00     0.020 A 
ATOM      2  C1  UNL d   1      -1.422   6.000   6.000  0.00  0.00     0.020 A 
ATOM      3  C2  UNL d   1      -0.026   5.997   5.960  0.00  0.00     0.034 A 
ATOM      4  C3  UNL d   1       0.646   5.431   4.870  0.00  0.00     0.017 A 
ATOM      5  C4  UNL d   1      -0.087   4.867   3.819  0.00  0.00     0.017 A 
ATOM      6  C5  UNL d   1      -1.484   4.873   3.864  0.00  0.00     0.034 A 
ATOM      7 Cl   UNL d   1       0.672   4.151   2.441  0.00  0.00    -0.070 Cl
ATOM      8 Cl1  UNL d   1       2.373   5.464   4.887  0.00  0.00    -0.070 Cl
ENDROOT
TORSDOF 0
ENDMDL
