MODEL 1
REMARK minimizedAffinity 7.28069878
REMARK minimizedRMSD -1
REMARK  1 active torsions:
REMARK  status: ('A' for Active; 'I' for Inactive)
REMARK    1  A    between atoms: C1_2  and  C2_3 
ROOT
ATOM      1  C2  UNL d   1       0.189  -1.065   1.766  0.00  0.00    -0.081 A 
ATOM      2  C3  UNL d   1      -0.984  -0.679   1.107  0.00  0.00     0.006 A 
ATOM      3  C4  UNL d   1      -2.001  -0.018   1.801  0.00  0.00     0.002 A 
ATOM      4  C5  UNL d   1      -1.858   0.274   3.162  0.00  0.00    -0.080 A 
ATOM      5  C6  UNL d   1      -2.928   1.010   3.911  0.00  0.00     0.076 C 
ATOM      6  C7  UNL d   1      -0.692  -0.127   3.823  0.00  0.00     0.002 A 
ATOM      7  C8  UNL d   1       0.324  -0.788   3.130  0.00  0.00     0.006 A 
ENDROOT
BRANCH   1   8
ATOM      8  C1  UNL d   1       1.314  -1.720   1.006  0.00  0.00     0.054 C 
ATOM      9  C   UNL d   1       1.697  -0.910  -0.225  0.00  0.00     0.018 C 
ENDBRANCH   1   8
TORSDOF 1
ENDMDL
