MODEL 1
REMARK minimizedAffinity 4.36738348
REMARK minimizedRMSD -1
REMARK  1 active torsions:
REMARK  status: ('A' for Active; 'I' for Inactive)
REMARK    1  A    between atoms: C1_2  and  C2_3 
ROOT
ATOM      1  C2  UNL d   1      -3.597   4.260  -3.587  0.00  0.00    -0.081 A 
ATOM      2  C3  UNL d   1      -3.240   2.983  -3.136  0.00  0.00     0.006 A 
ATOM      3  C4  UNL d   1      -1.895   2.617  -3.038  0.00  0.00     0.002 A 
ATOM      4  C5  UNL d   1      -0.886   3.523  -3.381  0.00  0.00    -0.080 A 
ATOM      5  C6  UNL d   1       0.562   3.152  -3.251  0.00  0.00     0.076 C 
ATOM      6  C7  UNL d   1      -1.243   4.792  -3.849  0.00  0.00     0.002 A 
ATOM      7  C8  UNL d   1      -2.587   5.159  -3.948  0.00  0.00     0.006 A 
ENDROOT
BRANCH   1   8
ATOM      8  C1  UNL d   1      -5.043   4.680  -3.633  0.00  0.00     0.054 C 
ATOM      9  C   UNL d   1      -5.741   4.130  -4.869  0.00  0.00     0.018 C 
ENDBRANCH   1   8
TORSDOF 1
ENDMDL
