MODEL 1
REMARK minimizedAffinity 7.18010092
REMARK minimizedRMSD -1
REMARK  1 active torsions:
REMARK  status: ('A' for Active; 'I' for Inactive)
REMARK    1  A    between atoms: C1_2  and  C2_3 
ROOT
ATOM      1  C2  UNL d   1      -4.336   1.157   3.987  0.00  0.00    -0.081 A 
ATOM      2  C3  UNL d   1      -3.253   0.321   3.687  0.00  0.00     0.006 A 
ATOM      3  C4  UNL d   1      -3.086  -0.185   2.395  0.00  0.00     0.002 A 
ATOM      4  C5  UNL d   1      -3.993   0.142   1.382  0.00  0.00    -0.080 A 
ATOM      5  C6  UNL d   1      -3.809  -0.370  -0.015  0.00  0.00     0.076 C 
ATOM      6  C7  UNL d   1      -5.085   0.962   1.686  0.00  0.00     0.002 A 
ATOM      7  C8  UNL d   1      -5.253   1.468   2.977  0.00  0.00     0.006 A 
ENDROOT
BRANCH   1   8
ATOM      8  C1  UNL d   1      -4.483   1.756   5.362  0.00  0.00     0.054 C 
ATOM      9  C   UNL d   1      -4.053   3.216   5.378  0.00  0.00     0.018 C 
ENDBRANCH   1   8
TORSDOF 1
ENDMDL
