MODEL 1
REMARK minimizedAffinity -3.60663509
REMARK minimizedRMSD -1
REMARK  1 active torsions:
REMARK  status: ('A' for Active; 'I' for Inactive)
REMARK    1  A    between atoms: C1_2  and  C2_3 
ROOT
ATOM      1  C2  UNL d   1       0.462   0.136   0.118  0.00  0.00    -0.081 A 
ATOM      2  C3  UNL d   1      -0.511   0.809  -0.633  0.00  0.00     0.006 A 
ATOM      3  C4  UNL d   1      -1.851   0.782  -0.241  0.00  0.00     0.002 A 
ATOM      4  C5  UNL d   1      -2.241   0.090   0.911  0.00  0.00    -0.080 A 
ATOM      5  C6  UNL d   1      -3.672   0.078   1.359  0.00  0.00     0.076 C 
ATOM      6  C7  UNL d   1      -1.272  -0.597   1.651  0.00  0.00     0.002 A 
ATOM      7  C8  UNL d   1       0.069  -0.571   1.259  0.00  0.00     0.006 A 
ENDROOT
BRANCH   1   8
ATOM      8  C1  UNL d   1       1.917   0.217  -0.266  0.00  0.00     0.054 C 
ATOM      9  C   UNL d   1       2.227  -0.683  -1.453  0.00  0.00     0.018 C 
ENDBRANCH   1   8
TORSDOF 1
ENDMDL
