MODEL 1
REMARK minimizedAffinity 3.74685454
REMARK minimizedRMSD -1
REMARK  1 active torsions:
REMARK  status: ('A' for Active; 'I' for Inactive)
REMARK    1  A    between atoms: C1_2  and  C2_3 
ROOT
ATOM      1  C2  UNL d   1       4.507   0.141   0.407  0.00  0.00    -0.076 A 
ATOM      2  C3  UNL d   1       4.020  -1.078   0.912  0.00  0.00     0.004 A 
ATOM      3  C4  UNL d   1       3.242  -1.921   0.121  0.00  0.00    -0.003 A 
ATOM      4  C5  UNL d   1       2.939  -1.561  -1.187  0.00  0.00     0.000 A 
ATOM      5  C6  UNL d   1       3.429  -0.365  -1.710  0.00  0.00     0.000 A 
ATOM      6  C7  UNL d   1       4.229   0.489  -0.932  0.00  0.00    -0.073 A 
ATOM      7  C8  UNL d   1       4.725   1.770  -1.544  0.00  0.00     0.078 C 
ENDROOT
BRANCH   1   8
ATOM      8  C1  UNL d   1       5.324   1.028   1.320  0.00  0.00     0.053 C 
ATOM      9  C   UNL d   1       4.554   2.256   1.780  0.00  0.00     0.018 C 
ENDBRANCH   1   8
TORSDOF 1
ENDMDL
