MODEL 1
REMARK minimizedAffinity 5.3797965
REMARK minimizedRMSD -1
REMARK  1 active torsions:
REMARK  status: ('A' for Active; 'I' for Inactive)
REMARK    1  A    between atoms: C1_2  and  C2_3 
ROOT
ATOM      1  C2  UNL d   1       3.005  -0.830  -0.677  0.00  0.00    -0.076 A 
ATOM      2  C3  UNL d   1       3.068  -0.727  -2.078  0.00  0.00     0.004 A 
ATOM      3  C4  UNL d   1       2.576  -1.744  -2.895  0.00  0.00    -0.003 A 
ATOM      4  C5  UNL d   1       2.012  -2.880  -2.324  0.00  0.00     0.000 A 
ATOM      5  C6  UNL d   1       1.925  -2.991  -0.937  0.00  0.00     0.000 A 
ATOM      6  C7  UNL d   1       2.401  -1.968  -0.099  0.00  0.00    -0.073 A 
ATOM      7  C8  UNL d   1       2.287  -2.143   1.390  0.00  0.00     0.078 C 
ENDROOT
BRANCH   1   8
ATOM      8  C1  UNL d   1       3.579   0.291   0.158  0.00  0.00     0.053 C 
ATOM      9  C   UNL d   1       4.047   1.466  -0.686  0.00  0.00     0.018 C 
ENDBRANCH   1   8
TORSDOF 1
ENDMDL
