MODEL 1
REMARK minimizedAffinity 4.60814285
REMARK minimizedRMSD -1
REMARK  1 active torsions:
REMARK  status: ('A' for Active; 'I' for Inactive)
REMARK    1  A    between atoms: C1_2  and  C2_3 
ROOT
ATOM      1  C2  UNL d   1       3.638   3.178   5.966  0.00  0.00    -0.076 A 
ATOM      2  C3  UNL d   1       2.248   3.385   6.000  0.00  0.00     0.004 A 
ATOM      3  C4  UNL d   1       1.714   4.673   5.996  0.00  0.00    -0.003 A 
ATOM      4  C5  UNL d   1       2.562   5.774   5.958  0.00  0.00     0.000 A 
ATOM      5  C6  UNL d   1       3.943   5.587   5.906  0.00  0.00     0.000 A 
ATOM      6  C7  UNL d   1       4.497   4.296   5.892  0.00  0.00    -0.073 A 
ATOM      7  C8  UNL d   1       5.993   4.153   5.842  0.00  0.00     0.078 C 
ENDROOT
BRANCH   1   8
ATOM      8  C1  UNL d   1       4.160   1.760   5.999  0.00  0.00     0.053 C 
ATOM      9  C   UNL d   1       3.043   0.727   5.994  0.00  0.00     0.018 C 
ENDBRANCH   1   8
TORSDOF 1
ENDMDL
