MODEL 1
REMARK minimizedAffinity 0.420765519
REMARK minimizedRMSD -1
REMARK  1 active torsions:
REMARK  status: ('A' for Active; 'I' for Inactive)
REMARK    1  A    between atoms: C1_2  and  C2_3 
ROOT
ATOM      1  C2  UNL d   1       3.214   3.854   5.785  0.00  0.00    -0.076 A 
ATOM      2  C3  UNL d   1       2.349   2.766   5.999  0.00  0.00     0.004 A 
ATOM      3  C4  UNL d   1       2.806   1.454   5.892  0.00  0.00    -0.003 A 
ATOM      4  C5  UNL d   1       4.136   1.208   5.569  0.00  0.00     0.000 A 
ATOM      5  C6  UNL d   1       5.012   2.274   5.370  0.00  0.00     0.000 A 
ATOM      6  C7  UNL d   1       4.571   3.603   5.491  0.00  0.00    -0.073 A 
ATOM      7  C8  UNL d   1       5.558   4.715   5.260  0.00  0.00     0.078 C 
ENDROOT
BRANCH   1   8
ATOM      8  C1  UNL d   1       2.655   5.255   5.888  0.00  0.00     0.053 C 
ATOM      9  C   UNL d   1       1.138   5.271   6.000  0.00  0.00     0.018 C 
ENDBRANCH   1   8
TORSDOF 1
ENDMDL
