MODEL 1
REMARK minimizedAffinity -1.38049626
REMARK minimizedRMSD -1
REMARK  1 active torsions:
REMARK  status: ('A' for Active; 'I' for Inactive)
REMARK    1  A    between atoms: C1_2  and  C2_3 
ROOT
ATOM      1  C2  UNL d   1       3.403   3.401   5.912  0.00  0.00    -0.076 A 
ATOM      2  C3  UNL d   1       2.012   3.583   5.827  0.00  0.00     0.004 A 
ATOM      3  C4  UNL d   1       1.457   4.861   5.779  0.00  0.00    -0.003 A 
ATOM      4  C5  UNL d   1       2.284   5.978   5.814  0.00  0.00     0.000 A 
ATOM      5  C6  UNL d   1       3.667   5.816   5.880  0.00  0.00     0.000 A 
ATOM      6  C7  UNL d   1       4.244   4.535   5.913  0.00  0.00    -0.073 A 
ATOM      7  C8  UNL d   1       5.742   4.419   5.990  0.00  0.00     0.078 C 
ENDROOT
BRANCH   1   8
ATOM      8  C1  UNL d   1       3.946   1.992   5.989  0.00  0.00     0.053 C 
ATOM      9  C   UNL d   1       2.845   0.943   5.997  0.00  0.00     0.018 C 
ENDBRANCH   1   8
TORSDOF 1
ENDMDL
