MODEL 1
REMARK minimizedAffinity 16.1709614
REMARK minimizedRMSD -1
REMARK  1 active torsions:
REMARK  status: ('A' for Active; 'I' for Inactive)
REMARK    1  A    between atoms: C1_2  and  C2_3 
ROOT
ATOM      1  C2  UNL d   1      -3.502   1.079  -3.956  0.00  0.00    -0.076 A 
ATOM      2  C3  UNL d   1      -4.539   0.205  -4.327  0.00  0.00     0.004 A 
ATOM      3  C4  UNL d   1      -5.777   0.695  -4.740  0.00  0.00    -0.003 A 
ATOM      4  C5  UNL d   1      -5.998   2.067  -4.789  0.00  0.00     0.000 A 
ATOM      5  C6  UNL d   1      -4.975   2.949  -4.442  0.00  0.00     0.000 A 
ATOM      6  C7  UNL d   1      -3.716   2.472  -4.039  0.00  0.00    -0.073 A 
ATOM      7  C8  UNL d   1      -2.651   3.468  -3.669  0.00  0.00     0.078 C 
ENDROOT
BRANCH   1   8
ATOM      8  C1  UNL d   1      -2.190   0.490  -3.490  0.00  0.00     0.053 C 
ATOM      9  C   UNL d   1      -2.199   0.146  -2.009  0.00  0.00     0.018 C 
ENDBRANCH   1   8
TORSDOF 1
ENDMDL
