MODEL 1
REMARK minimizedAffinity 5.79323673
REMARK minimizedRMSD -1
REMARK  1 active torsions:
REMARK  status: ('A' for Active; 'I' for Inactive)
REMARK    1  A    between atoms: C1_2  and  C2_3 
ROOT
ATOM      1  C2  UNL d   1       2.871   4.556   5.319  0.00  0.00    -0.076 A 
ATOM      2  C3  UNL d   1       2.536   3.372   6.000  0.00  0.00     0.004 A 
ATOM      3  C4  UNL d   1       3.396   2.275   5.998  0.00  0.00    -0.003 A 
ATOM      4  C5  UNL d   1       4.605   2.344   5.315  0.00  0.00     0.000 A 
ATOM      5  C6  UNL d   1       4.962   3.516   4.649  0.00  0.00     0.000 A 
ATOM      6  C7  UNL d   1       4.114   4.637   4.655  0.00  0.00    -0.073 A 
ATOM      7  C8  UNL d   1       4.545   5.873   3.915  0.00  0.00     0.078 C 
ENDROOT
BRANCH   1   8
ATOM      8  C1  UNL d   1       1.887   5.703   5.334  0.00  0.00     0.053 C 
ATOM      9  C   UNL d   1       0.569   5.332   5.996  0.00  0.00     0.018 C 
ENDBRANCH   1   8
TORSDOF 1
ENDMDL
