MODEL 1
REMARK minimizedAffinity -5.71364784
REMARK minimizedRMSD -1
REMARK  1 active torsions:
REMARK  status: ('A' for Active; 'I' for Inactive)
REMARK    1  A    between atoms: C1_2  and  C2_3 
ROOT
ATOM      1  C2  UNL d   1       0.396  -0.204   0.045  0.00  0.00    -0.073 A 
ATOM      2  C3  UNL d   1       1.513  -0.977  -0.291  0.00  0.00    -0.002 A 
ATOM      3  C4  UNL d   1       1.905  -2.039   0.525  0.00  0.00     0.004 A 
ATOM      4  C5  UNL d   1       1.182  -2.344   1.678  0.00  0.00    -0.004 A 
ATOM      5  C6  UNL d   1       0.056  -1.590   2.024  0.00  0.00    -0.075 A 
ATOM      6  C7  UNL d   1      -0.731  -1.902   3.262  0.00  0.00     0.076 C 
ATOM      7  C8  UNL d   1      -0.330  -0.523   1.201  0.00  0.00     0.001 A 
ENDROOT
BRANCH   1   8
ATOM      8  C1  UNL d   1      -0.035   0.940  -0.836  0.00  0.00     0.053 C 
ATOM      9  C   UNL d   1      -1.471   1.361  -0.562  0.00  0.00     0.018 C 
ENDBRANCH   1   8
TORSDOF 1
ENDMDL
