MODEL 1
REMARK minimizedAffinity -2.47859716
REMARK minimizedRMSD -1
REMARK  1 active torsions:
REMARK  status: ('A' for Active; 'I' for Inactive)
REMARK    1  A    between atoms: C1_2  and  C2_3 
ROOT
ATOM      1  C2  UNL d   1      -1.615   2.132  -2.516  0.00  0.00    -0.073 A 
ATOM      2  C3  UNL d   1      -2.014   1.573  -3.735  0.00  0.00    -0.002 A 
ATOM      3  C4  UNL d   1      -1.670   2.189  -4.939  0.00  0.00     0.004 A 
ATOM      4  C5  UNL d   1      -0.919   3.364  -4.937  0.00  0.00    -0.004 A 
ATOM      5  C6  UNL d   1      -0.501   3.932  -3.730  0.00  0.00    -0.075 A 
ATOM      6  C7  UNL d   1       0.305   5.197  -3.710  0.00  0.00     0.076 C 
ATOM      7  C8  UNL d   1      -0.852   3.309  -2.524  0.00  0.00     0.001 A 
ENDROOT
BRANCH   1   8
ATOM      8  C1  UNL d   1      -1.978   1.468  -1.213  0.00  0.00     0.053 C 
ATOM      9  C   UNL d   1      -0.829   0.643  -0.654  0.00  0.00     0.018 C 
ENDBRANCH   1   8
TORSDOF 1
ENDMDL
