MODEL 1
REMARK minimizedAffinity -4.62490606
REMARK minimizedRMSD -1
REMARK  1 active torsions:
REMARK  status: ('A' for Active; 'I' for Inactive)
REMARK    1  A    between atoms: C1_2  and  C2_3 
ROOT
ATOM      1  C2  UNL d   1       0.273  -0.904   1.802  0.00  0.00    -0.073 A 
ATOM      2  C3  UNL d   1       1.537  -1.105   1.235  0.00  0.00    -0.002 A 
ATOM      3  C4  UNL d   1       1.913  -0.409   0.085  0.00  0.00     0.004 A 
ATOM      4  C5  UNL d   1       1.033   0.499  -0.504  0.00  0.00    -0.004 A 
ATOM      5  C6  UNL d   1      -0.229   0.723   0.054  0.00  0.00    -0.075 A 
ATOM      6  C7  UNL d   1      -1.188   1.694  -0.569  0.00  0.00     0.076 C 
ATOM      7  C8  UNL d   1      -0.600   0.018   1.207  0.00  0.00     0.001 A 
ENDROOT
BRANCH   1   8
ATOM      8  C1  UNL d   1      -0.134  -1.649   3.047  0.00  0.00     0.053 C 
ATOM      9  C   UNL d   1      -1.517  -1.240   3.528  0.00  0.00     0.018 C 
ENDBRANCH   1   8
TORSDOF 1
ENDMDL
