MODEL 1
REMARK minimizedAffinity -1.54526687
REMARK minimizedRMSD -1
REMARK  1 active torsions:
REMARK  status: ('A' for Active; 'I' for Inactive)
REMARK    1  A    between atoms: C1_2  and  C2_3 
ROOT
ATOM      1  C2  UNL d   1      -0.759   0.282   0.893  0.00  0.00    -0.073 A 
ATOM      2  C3  UNL d   1      -0.629   1.205  -0.151  0.00  0.00    -0.002 A 
ATOM      3  C4  UNL d   1       0.532   1.235  -0.925  0.00  0.00     0.004 A 
ATOM      4  C5  UNL d   1       1.570   0.340  -0.668  0.00  0.00    -0.004 A 
ATOM      5  C6  UNL d   1       1.454  -0.598   0.363  0.00  0.00    -0.075 A 
ATOM      6  C7  UNL d   1       2.562  -1.567   0.654  0.00  0.00     0.076 C 
ATOM      7  C8  UNL d   1       0.286  -0.620   1.137  0.00  0.00     0.001 A 
ENDROOT
BRANCH   1   8
ATOM      8  C1  UNL d   1      -2.014   0.242   1.727  0.00  0.00     0.053 C 
ATOM      9  C   UNL d   1      -1.932  -0.803   2.828  0.00  0.00     0.018 C 
ENDBRANCH   1   8
TORSDOF 1
ENDMDL
