MODEL 1
REMARK minimizedAffinity -2.02653384
REMARK minimizedRMSD -1
REMARK  1 active torsions:
REMARK  status: ('A' for Active; 'I' for Inactive)
REMARK    1  A    between atoms: C1_2  and  C2_3 
ROOT
ATOM      1  C2  UNL d   1      -1.245   1.860  -1.293  0.00  0.00    -0.073 A 
ATOM      2  C3  UNL d   1      -2.344   1.388  -2.019  0.00  0.00    -0.002 A 
ATOM      3  C4  UNL d   1      -2.872   2.141  -3.069  0.00  0.00     0.004 A 
ATOM      4  C5  UNL d   1      -2.304   3.369  -3.407  0.00  0.00    -0.004 A 
ATOM      5  C6  UNL d   1      -1.197   3.852  -2.701  0.00  0.00    -0.075 A 
ATOM      6  C7  UNL d   1      -0.576   5.172  -3.051  0.00  0.00     0.076 C 
ATOM      7  C8  UNL d   1      -0.675   3.091  -1.647  0.00  0.00     0.001 A 
ENDROOT
BRANCH   1   8
ATOM      8  C1  UNL d   1      -0.667   1.047  -0.163  0.00  0.00     0.053 C 
ATOM      9  C   UNL d   1       0.660   0.408  -0.541  0.00  0.00     0.018 C 
ENDBRANCH   1   8
TORSDOF 1
ENDMDL
