MODEL 1
REMARK minimizedAffinity -5.25797987
REMARK minimizedRMSD -1
REMARK  1 active torsions:
REMARK  status: ('A' for Active; 'I' for Inactive)
REMARK    1  A    between atoms: C1_2  and  C2_3 
ROOT
ATOM      1  C2  UNL d   1      -0.618   0.866   0.100  0.00  0.00    -0.073 A 
ATOM      2  C3  UNL d   1      -1.462   0.882   1.217  0.00  0.00    -0.002 A 
ATOM      3  C4  UNL d   1      -1.380  -0.127   2.177  0.00  0.00     0.004 A 
ATOM      4  C5  UNL d   1      -0.452  -1.158   2.034  0.00  0.00    -0.004 A 
ATOM      5  C6  UNL d   1       0.408  -1.186   0.932  0.00  0.00    -0.075 A 
ATOM      6  C7  UNL d   1       1.410  -2.290   0.762  0.00  0.00     0.076 C 
ATOM      7  C8  UNL d   1       0.318  -0.170  -0.030  0.00  0.00     0.001 A 
ENDROOT
BRANCH   1   8
ATOM      8  C1  UNL d   1      -0.698   1.957  -0.936  0.00  0.00     0.053 C 
ATOM      9  C   UNL d   1      -1.501   1.529  -2.154  0.00  0.00     0.018 C 
ENDBRANCH   1   8
TORSDOF 1
ENDMDL
