MODEL 1
REMARK minimizedAffinity -5.30667591
REMARK minimizedRMSD -1
REMARK  1 active torsions:
REMARK  status: ('A' for Active; 'I' for Inactive)
REMARK    1  A    between atoms: C1_2  and  C2_3 
ROOT
ATOM      1  C2  UNL d   1      -1.104   1.502  -0.677  0.00  0.00    -0.073 A 
ATOM      2  C3  UNL d   1      -2.061   1.282   0.320  0.00  0.00    -0.002 A 
ATOM      3  C4  UNL d   1      -1.840   0.325   1.311  0.00  0.00     0.004 A 
ATOM      4  C5  UNL d   1      -0.658  -0.415   1.321  0.00  0.00    -0.004 A 
ATOM      5  C6  UNL d   1       0.316  -0.202   0.340  0.00  0.00    -0.075 A 
ATOM      6  C7  UNL d   1       1.592  -0.992   0.335  0.00  0.00     0.076 C 
ATOM      7  C8  UNL d   1       0.085   0.759  -0.654  0.00  0.00     0.001 A 
ENDROOT
BRANCH   1   8
ATOM      8  C1  UNL d   1      -1.335   2.539  -1.745  0.00  0.00     0.053 C 
ATOM      9  C   UNL d   1      -2.567   2.229  -2.582  0.00  0.00     0.018 C 
ENDBRANCH   1   8
TORSDOF 1
ENDMDL
