MODEL 1
REMARK minimizedAffinity 2.30102873
REMARK minimizedRMSD -1
REMARK  1 active torsions:
REMARK  status: ('A' for Active; 'I' for Inactive)
REMARK    1  A    between atoms: C1_2  and  C2_3 
ROOT
ATOM      1  C2  UNL d   1       0.185  -1.071   2.087  0.00  0.00    -0.073 A 
ATOM      2  C3  UNL d   1       1.511  -1.518   2.090  0.00  0.00    -0.002 A 
ATOM      3  C4  UNL d   1       2.360  -1.215   1.025  0.00  0.00     0.004 A 
ATOM      4  C5  UNL d   1       1.894  -0.458  -0.050  0.00  0.00    -0.004 A 
ATOM      5  C6  UNL d   1       0.575   0.007  -0.067  0.00  0.00    -0.075 A 
ATOM      6  C7  UNL d   1       0.058   0.821  -1.217  0.00  0.00     0.076 C 
ATOM      7  C8  UNL d   1      -0.272  -0.303   1.006  0.00  0.00     0.001 A 
ENDROOT
BRANCH   1   8
ATOM      8  C1  UNL d   1      -0.733  -1.390   3.238  0.00  0.00     0.053 C 
ATOM      9  C   UNL d   1      -2.198  -1.233   2.861  0.00  0.00     0.018 C 
ENDBRANCH   1   8
TORSDOF 1
ENDMDL
