MODEL 1
REMARK minimizedAffinity -0.241152689
REMARK minimizedRMSD -1
REMARK  1 active torsions:
REMARK  status: ('A' for Active; 'I' for Inactive)
REMARK    1  A    between atoms: C1_2  and  C2_3 
ROOT
ATOM      1  C2  UNL d   1       1.480   4.020  -0.551  0.00  0.00    -0.081 A 
ATOM      2  C3  UNL d   1       1.044   3.210   0.504  0.00  0.00     0.006 A 
ATOM      3  C4  UNL d   1       0.783   1.854   0.294  0.00  0.00     0.002 A 
ATOM      4  C5  UNL d   1       0.962   1.284  -0.971  0.00  0.00    -0.080 A 
ATOM      5  C6  UNL d   1       0.715  -0.177  -1.202  0.00  0.00     0.076 C 
ATOM      6  C7  UNL d   1       1.381   2.097  -2.029  0.00  0.00     0.002 A 
ATOM      7  C8  UNL d   1       1.641   3.454  -1.820  0.00  0.00     0.006 A 
ENDROOT
BRANCH   1   8
ATOM      8  C1  UNL d   1       1.824   5.469  -0.313  0.00  0.00     0.054 C 
ATOM      9  C   UNL d   1       2.758   6.000  -1.391  0.00  0.00     0.018 C 
ENDBRANCH   1   8
TORSDOF 1
ENDMDL
