MODEL 1
REMARK minimizedAffinity 2.92506909
REMARK minimizedRMSD -1
REMARK  1 active torsions:
REMARK  status: ('A' for Active; 'I' for Inactive)
REMARK    1  A    between atoms: C1_2  and  C2_3 
ROOT
ATOM      1  C2  UNL d   1       1.660   3.048  -1.194  0.00  0.00    -0.081 A 
ATOM      2  C3  UNL d   1       1.909   2.020  -2.112  0.00  0.00     0.006 A 
ATOM      3  C4  UNL d   1       1.677   0.687  -1.762  0.00  0.00     0.002 A 
ATOM      4  C5  UNL d   1       1.186   0.361  -0.493  0.00  0.00    -0.080 A 
ATOM      5  C6  UNL d   1       0.905  -1.062  -0.115  0.00  0.00     0.076 C 
ATOM      6  C7  UNL d   1       0.954   1.387   0.429  0.00  0.00     0.002 A 
ATOM      7  C8  UNL d   1       1.186   2.720   0.080  0.00  0.00     0.006 A 
ENDROOT
BRANCH   1   8
ATOM      8  C1  UNL d   1       1.847   4.490  -1.590  0.00  0.00     0.054 C 
ATOM      9  C   UNL d   1       1.852   5.402  -0.372  0.00  0.00     0.018 C 
ENDBRANCH   1   8
TORSDOF 1
ENDMDL
