MODEL 1
REMARK minimizedAffinity -5.75618362
REMARK minimizedRMSD -1
REMARK  1 active torsions:
REMARK  status: ('A' for Active; 'I' for Inactive)
REMARK    1  A    between atoms: C1_2  and  C2_3 
ROOT
ATOM      1  C2  UNL d   1       0.994   0.763  -0.893  0.00  0.00    -0.081 A 
ATOM      2  C3  UNL d   1       0.661   1.520   0.236  0.00  0.00     0.006 A 
ATOM      3  C4  UNL d   1       0.861   2.903   0.246  0.00  0.00     0.002 A 
ATOM      4  C5  UNL d   1       1.389   3.551  -0.875  0.00  0.00    -0.080 A 
ATOM      5  C6  UNL d   1       1.580   5.039  -0.889  0.00  0.00     0.076 C 
ATOM      6  C7  UNL d   1       1.739   2.792  -1.997  0.00  0.00     0.002 A 
ATOM      7  C8  UNL d   1       1.540   1.410  -2.007  0.00  0.00     0.006 A 
ENDROOT
BRANCH   1   8
ATOM      8  C1  UNL d   1       0.720  -0.719  -0.930  0.00  0.00     0.054 C 
ATOM      9  C   UNL d   1       1.833  -1.505  -0.252  0.00  0.00     0.018 C 
ENDBRANCH   1   8
TORSDOF 1
ENDMDL
