MODEL 1
REMARK minimizedAffinity 0.844828606
REMARK minimizedRMSD -1
REMARK  1 active torsions:
REMARK  status: ('A' for Active; 'I' for Inactive)
REMARK    1  A    between atoms: C1_2  and  C2_3 
ROOT
ATOM      1  C2  UNL d   1       1.452   4.046  -1.161  0.00  0.00    -0.081 A 
ATOM      2  C3  UNL d   1       0.724   3.754  -2.321  0.00  0.00     0.006 A 
ATOM      3  C4  UNL d   1       0.393   2.434  -2.636  0.00  0.00     0.002 A 
ATOM      4  C5  UNL d   1       0.778   1.386  -1.793  0.00  0.00    -0.080 A 
ATOM      5  C6  UNL d   1       0.403  -0.033  -2.104  0.00  0.00     0.076 C 
ATOM      6  C7  UNL d   1       1.521   1.676  -0.644  0.00  0.00     0.002 A 
ATOM      7  C8  UNL d   1       1.852   2.995  -0.329  0.00  0.00     0.006 A 
ENDROOT
BRANCH   1   8
ATOM      8  C1  UNL d   1       1.755   5.475  -0.785  0.00  0.00     0.054 C 
ATOM      9  C   UNL d   1       2.969   6.000  -1.538  0.00  0.00     0.018 C 
ENDBRANCH   1   8
TORSDOF 1
ENDMDL
