MODEL 1
REMARK minimizedAffinity 3.50214076
REMARK minimizedRMSD -1
REMARK  1 active torsions:
REMARK  status: ('A' for Active; 'I' for Inactive)
REMARK    1  A    between atoms: C1_2  and  C2_3 
ROOT
ATOM      1  C2  UNL d   1       1.376   0.110  -0.522  0.00  0.00    -0.081 A 
ATOM      2  C3  UNL d   1       2.119   0.818  -1.474  0.00  0.00     0.006 A 
ATOM      3  C4  UNL d   1       2.125   2.215  -1.471  0.00  0.00     0.002 A 
ATOM      4  C5  UNL d   1       1.395   2.926  -0.512  0.00  0.00    -0.080 A 
ATOM      5  C6  UNL d   1       1.417   4.425  -0.478  0.00  0.00     0.076 C 
ATOM      6  C7  UNL d   1       0.639   2.218   0.428  0.00  0.00     0.002 A 
ATOM      7  C8  UNL d   1       0.632   0.821   0.425  0.00  0.00     0.006 A 
ENDROOT
BRANCH   1   8
ATOM      8  C1  UNL d   1       1.419  -1.397  -0.483  0.00  0.00     0.054 C 
ATOM      9  C   UNL d   1       0.036  -1.996  -0.694  0.00  0.00     0.018 C 
ENDBRANCH   1   8
TORSDOF 1
ENDMDL
