MODEL 1
REMARK minimizedAffinity -2.5582943
REMARK minimizedRMSD -1
REMARK  1 active torsions:
REMARK  status: ('A' for Active; 'I' for Inactive)
REMARK    1  A    between atoms: C1_2  and  C2_3 
ROOT
ATOM      1  C2  UNL d   1       1.240   0.361  -0.859  0.00  0.00    -0.081 A 
ATOM      2  C3  UNL d   1       1.635   1.393  -1.719  0.00  0.00     0.006 A 
ATOM      3  C4  UNL d   1       1.679   2.714  -1.267  0.00  0.00     0.002 A 
ATOM      4  C5  UNL d   1       1.337   3.024   0.054  0.00  0.00    -0.080 A 
ATOM      5  C6  UNL d   1       1.408   4.433   0.561  0.00  0.00     0.076 C 
ATOM      6  C7  UNL d   1       0.925   1.995   0.908  0.00  0.00     0.002 A 
ATOM      7  C8  UNL d   1       0.880   0.674   0.456  0.00  0.00     0.006 A 
ENDROOT
BRANCH   1   8
ATOM      8  C1  UNL d   1       1.254  -1.073  -1.325  0.00  0.00     0.054 C 
ATOM      9  C   UNL d   1       2.012  -1.964  -0.352  0.00  0.00     0.018 C 
ENDBRANCH   1   8
TORSDOF 1
ENDMDL
