MODEL 1
REMARK minimizedAffinity 0.148540646
REMARK minimizedRMSD -1
REMARK  1 active torsions:
REMARK  status: ('A' for Active; 'I' for Inactive)
REMARK    1  A    between atoms: C1_2  and  C2_3 
ROOT
ATOM      1  C2  UNL d   1       1.433   3.886  -0.307  0.00  0.00    -0.081 A 
ATOM      2  C3  UNL d   1       1.162   3.109   0.826  0.00  0.00     0.006 A 
ATOM      3  C4  UNL d   1       0.992   1.727   0.713  0.00  0.00     0.002 A 
ATOM      4  C5  UNL d   1       1.099   1.098  -0.532  0.00  0.00    -0.080 A 
ATOM      5  C6  UNL d   1       0.948  -0.389  -0.663  0.00  0.00     0.076 C 
ATOM      6  C7  UNL d   1       1.352   1.876  -1.667  0.00  0.00     0.002 A 
ATOM      7  C8  UNL d   1       1.521   3.258  -1.555  0.00  0.00     0.006 A 
ENDROOT
BRANCH   1   8
ATOM      8  C1  UNL d   1       1.681   5.367  -0.179  0.00  0.00     0.054 C 
ATOM      9  C   UNL d   1       2.502   5.894  -1.348  0.00  0.00     0.018 C 
ENDBRANCH   1   8
TORSDOF 1
ENDMDL
