MODEL 1
REMARK minimizedAffinity -4.70915461
REMARK minimizedRMSD -1
REMARK  1 active torsions:
REMARK  status: ('A' for Active; 'I' for Inactive)
REMARK    1  A    between atoms: C1_2  and  C2_3 
ROOT
ATOM      1  C2  UNL d   1       1.333   3.331  -0.234  0.00  0.00    -0.081 A 
ATOM      2  C3  UNL d   1       1.000   2.461   0.811  0.00  0.00     0.006 A 
ATOM      3  C4  UNL d   1       0.957   1.081   0.598  0.00  0.00     0.002 A 
ATOM      4  C5  UNL d   1       1.254   0.548  -0.661  0.00  0.00    -0.080 A 
ATOM      5  C6  UNL d   1       1.241  -0.934  -0.895  0.00  0.00     0.076 C 
ATOM      6  C7  UNL d   1       1.569   1.418  -1.710  0.00  0.00     0.002 A 
ATOM      7  C8  UNL d   1       1.611   2.798  -1.498  0.00  0.00     0.006 A 
ENDROOT
BRANCH   1   8
ATOM      8  C1  UNL d   1       1.443   4.814   0.009  0.00  0.00     0.054 C 
ATOM      9  C   UNL d   1       2.260   5.494  -1.080  0.00  0.00     0.018 C 
ENDBRANCH   1   8
TORSDOF 1
ENDMDL
