MODEL 1
REMARK minimizedAffinity 11.0375023
REMARK minimizedRMSD -1
REMARK  1 active torsions:
REMARK  status: ('A' for Active; 'I' for Inactive)
REMARK    1  A    between atoms: C1_2  and  C2_3 
ROOT
ATOM      1  C2  UNL d   1       1.198   0.117  -0.889  0.00  0.00    -0.081 A 
ATOM      2  C3  UNL d   1       0.675   0.781  -2.006  0.00  0.00     0.006 A 
ATOM      3  C4  UNL d   1       0.897   2.149  -2.184  0.00  0.00     0.002 A 
ATOM      4  C5  UNL d   1       1.650   2.873  -1.254  0.00  0.00    -0.080 A 
ATOM      5  C6  UNL d   1       1.920   4.335  -1.450  0.00  0.00     0.076 C 
ATOM      6  C7  UNL d   1       2.157   2.213  -0.130  0.00  0.00     0.002 A 
ATOM      7  C8  UNL d   1       1.936   0.846   0.050  0.00  0.00     0.006 A 
ENDROOT
BRANCH   1   8
ATOM      8  C1  UNL d   1       1.015  -1.371  -0.727  0.00  0.00     0.054 C 
ATOM      9  C   UNL d   1       0.167  -1.950  -1.851  0.00  0.00     0.018 C 
ENDBRANCH   1   8
TORSDOF 1
ENDMDL
