MODEL 1
REMARK minimizedAffinity -5.79117775
REMARK minimizedRMSD -1
REMARK  1 active torsions:
REMARK  status: ('A' for Active; 'I' for Inactive)
REMARK    1  A    between atoms: C1_2  and  C2_3 
ROOT
ATOM      1  C2  UNL d   1       1.429   3.967  -0.668  0.00  0.00    -0.081 A 
ATOM      2  C3  UNL d   1       1.118   3.160   0.433  0.00  0.00     0.006 A 
ATOM      3  C4  UNL d   1       1.005   1.775   0.287  0.00  0.00     0.002 A 
ATOM      4  C5  UNL d   1       1.209   1.174  -0.960  0.00  0.00    -0.080 A 
ATOM      5  C6  UNL d   1       1.121  -0.314  -1.124  0.00  0.00     0.076 C 
ATOM      6  C7  UNL d   1       1.503   1.982  -2.064  0.00  0.00     0.002 A 
ATOM      7  C8  UNL d   1       1.615   3.367  -1.918  0.00  0.00     0.006 A 
ENDROOT
BRANCH   1   8
ATOM      8  C1  UNL d   1       1.615   5.453  -0.500  0.00  0.00     0.054 C 
ATOM      9  C   UNL d   1       2.630   6.000  -1.495  0.00  0.00     0.018 C 
ENDBRANCH   1   8
TORSDOF 1
ENDMDL
