MODEL 1
REMARK minimizedAffinity 0.4577474
REMARK minimizedRMSD -1
REMARK  1 active torsions:
REMARK  status: ('A' for Active; 'I' for Inactive)
REMARK    1  A    between atoms: C1_2  and  C2_3 
ROOT
ATOM      1  C2  UNL d   1       0.700   1.216   1.194  0.00  0.00    -0.081 A 
ATOM      2  C3  UNL d   1       0.776   2.517   0.683  0.00  0.00     0.006 A 
ATOM      3  C4  UNL d   1       1.188   2.738  -0.634  0.00  0.00     0.002 A 
ATOM      4  C5  UNL d   1       1.522   1.662  -1.463  0.00  0.00    -0.080 A 
ATOM      5  C6  UNL d   1       1.936   1.883  -2.887  0.00  0.00     0.076 C 
ATOM      6  C7  UNL d   1       1.462   0.363  -0.947  0.00  0.00     0.002 A 
ATOM      7  C8  UNL d   1       1.052   0.142   0.369  0.00  0.00     0.006 A 
ENDROOT
BRANCH   1   8
ATOM      8  C1  UNL d   1       0.194   0.970   2.592  0.00  0.00     0.054 C 
ATOM      9  C   UNL d   1       1.161   0.102   3.385  0.00  0.00     0.018 C 
ENDBRANCH   1   8
TORSDOF 1
ENDMDL
