MODEL 1
REMARK minimizedAffinity -0.899401009
REMARK minimizedRMSD -1
REMARK  1 active torsions:
REMARK  status: ('A' for Active; 'I' for Inactive)
REMARK    1  A    between atoms: C1_2  and  C2_3 
ROOT
ATOM      1  C2  UNL d   1       1.324   3.795  -0.547  0.00  0.00    -0.081 A 
ATOM      2  C3  UNL d   1       1.316   3.389  -1.887  0.00  0.00     0.006 A 
ATOM      3  C4  UNL d   1       1.088   2.052  -2.221  0.00  0.00     0.002 A 
ATOM      4  C5  UNL d   1       0.858   1.101  -1.221  0.00  0.00    -0.080 A 
ATOM      5  C6  UNL d   1       0.583  -0.333  -1.568  0.00  0.00     0.076 C 
ATOM      6  C7  UNL d   1       0.883   1.502   0.118  0.00  0.00     0.002 A 
ATOM      7  C8  UNL d   1       1.111   2.839   0.453  0.00  0.00     0.006 A 
ENDROOT
BRANCH   1   8
ATOM      8  C1  UNL d   1       1.504   5.248  -0.187  0.00  0.00     0.054 C 
ATOM      9  C   UNL d   1       2.255   5.999  -1.277  0.00  0.00     0.018 C 
ENDBRANCH   1   8
TORSDOF 1
ENDMDL
