MODEL 1
REMARK minimizedAffinity 6.19429064
REMARK minimizedRMSD -1
REMARK  1 active torsions:
REMARK  status: ('A' for Active; 'I' for Inactive)
REMARK    1  A    between atoms: C1_2  and  C2_3 
ROOT
ATOM      1  C2  UNL d   1       1.788   1.118  -0.455  0.00  0.00    -0.081 A 
ATOM      2  C3  UNL d   1       1.706   1.724  -1.715  0.00  0.00     0.006 A 
ATOM      3  C4  UNL d   1       1.364   3.073  -1.831  0.00  0.00     0.002 A 
ATOM      4  C5  UNL d   1       1.106   3.841  -0.690  0.00  0.00    -0.080 A 
ATOM      5  C6  UNL d   1       0.767   5.298  -0.800  0.00  0.00     0.076 C 
ATOM      6  C7  UNL d   1       1.170   3.231   0.567  0.00  0.00     0.002 A 
ATOM      7  C8  UNL d   1       1.511   1.882   0.684  0.00  0.00     0.006 A 
ENDROOT
BRANCH   1   8
ATOM      8  C1  UNL d   1       2.219  -0.320  -0.323  0.00  0.00     0.054 C 
ATOM      9  C   UNL d   1       3.553  -0.433   0.402  0.00  0.00     0.018 C 
ENDBRANCH   1   8
TORSDOF 1
ENDMDL
