MODEL 1
REMARK minimizedAffinity -2.95671177
REMARK minimizedRMSD -1
REMARK  1 active torsions:
REMARK  status: ('A' for Active; 'I' for Inactive)
REMARK    1  A    between atoms: C1_2  and  C2_3 
ROOT
ATOM      1  C2  UNL d   1       1.185   0.393  -0.481  0.00  0.00    -0.081 A 
ATOM      2  C3  UNL d   1       1.378   0.904  -1.770  0.00  0.00     0.006 A 
ATOM      3  C4  UNL d   1       1.502   2.280  -1.975  0.00  0.00     0.002 A 
ATOM      4  C5  UNL d   1       1.444   3.167  -0.895  0.00  0.00    -0.080 A 
ATOM      5  C6  UNL d   1       1.606   4.644  -1.098  0.00  0.00     0.076 C 
ATOM      6  C7  UNL d   1       1.234   2.658   0.391  0.00  0.00     0.002 A 
ATOM      7  C8  UNL d   1       1.109   1.282   0.597  0.00  0.00     0.006 A 
ENDROOT
BRANCH   1   8
ATOM      8  C1  UNL d   1       1.116  -1.095  -0.248  0.00  0.00     0.054 C 
ATOM      9  C   UNL d   1       1.031  -1.857  -1.563  0.00  0.00     0.018 C 
ENDBRANCH   1   8
TORSDOF 1
ENDMDL
