MODEL 1
REMARK minimizedAffinity 12.2892036
REMARK minimizedRMSD -1
REMARK  1 active torsions:
REMARK  status: ('A' for Active; 'I' for Inactive)
REMARK    1  A    between atoms: C1_2  and  C2_3 
ROOT
ATOM      1  C2  UNL d   1      -3.698   1.840  -3.020  0.00  0.00    -0.081 A 
ATOM      2  C3  UNL d   1      -4.501   1.217  -2.057  0.00  0.00     0.006 A 
ATOM      3  C4  UNL d   1      -4.133   1.234  -0.710  0.00  0.00     0.002 A 
ATOM      4  C5  UNL d   1      -2.962   1.881  -0.302  0.00  0.00    -0.080 A 
ATOM      5  C6  UNL d   1      -2.571   1.933   1.145  0.00  0.00     0.076 C 
ATOM      6  C7  UNL d   1      -2.150   2.489  -1.266  0.00  0.00     0.002 A 
ATOM      7  C8  UNL d   1      -2.517   2.471  -2.614  0.00  0.00     0.006 A 
ENDROOT
BRANCH   1   8
ATOM      8  C1  UNL d   1      -4.125   1.879  -4.465  0.00  0.00     0.054 C 
ATOM      9  C   UNL d   1      -5.085   3.031  -4.728  0.00  0.00     0.018 C 
ENDBRANCH   1   8
TORSDOF 1
ENDMDL
