MODEL 1
REMARK minimizedAffinity 10.7852859
REMARK minimizedRMSD -1
REMARK  1 active torsions:
REMARK  status: ('A' for Active; 'I' for Inactive)
REMARK    1  A    between atoms: C1_2  and  C2_3 
ROOT
ATOM      1  C2  UNL d   1      -5.272  -3.496  -5.428  0.00  0.00    -0.081 A 
ATOM      2  C3  UNL d   1      -5.999  -2.957  -4.359  0.00  0.00     0.006 A 
ATOM      3  C4  UNL d   1      -5.700  -1.682  -3.872  0.00  0.00     0.002 A 
ATOM      4  C5  UNL d   1      -4.677  -0.923  -4.449  0.00  0.00    -0.080 A 
ATOM      5  C6  UNL d   1      -4.366   0.459  -3.955  0.00  0.00     0.076 C 
ATOM      6  C7  UNL d   1      -3.939  -1.469  -5.505  0.00  0.00     0.002 A 
ATOM      7  C8  UNL d   1      -4.237  -2.743  -5.992  0.00  0.00     0.006 A 
ENDROOT
BRANCH   1   8
ATOM      8  C1  UNL d   1      -5.634  -4.844  -5.998  0.00  0.00     0.054 C 
ATOM      9  C   UNL d   1      -4.749  -5.942  -5.426  0.00  0.00     0.018 C 
ENDBRANCH   1   8
TORSDOF 1
ENDMDL
