MODEL 1
REMARK minimizedAffinity 13.1866608
REMARK minimizedRMSD -1
REMARK  1 active torsions:
REMARK  status: ('A' for Active; 'I' for Inactive)
REMARK    1  A    between atoms: C1_2  and  C2_3 
ROOT
ATOM      1  C2  UNL d   1       0.853  -0.882   1.829  0.00  0.00    -0.081 A 
ATOM      2  C3  UNL d   1       0.941   0.513   1.746  0.00  0.00     0.006 A 
ATOM      3  C4  UNL d   1      -0.098   1.256   1.181  0.00  0.00     0.002 A 
ATOM      4  C5  UNL d   1      -1.245   0.618   0.697  0.00  0.00    -0.080 A 
ATOM      5  C6  UNL d   1      -2.381   1.406   0.116  0.00  0.00     0.076 C 
ATOM      6  C7  UNL d   1      -1.326  -0.777   0.764  0.00  0.00     0.002 A 
ATOM      7  C8  UNL d   1      -0.287  -1.521   1.328  0.00  0.00     0.006 A 
ENDROOT
BRANCH   1   8
ATOM      8  C1  UNL d   1       1.943  -1.681   2.496  0.00  0.00     0.054 C 
ATOM      9  C   UNL d   1       1.521  -2.143   3.884  0.00  0.00     0.018 C 
ENDBRANCH   1   8
TORSDOF 1
ENDMDL
