MODEL 1
REMARK minimizedAffinity 17.1448479
REMARK minimizedRMSD -1
REMARK  1 active torsions:
REMARK  status: ('A' for Active; 'I' for Inactive)
REMARK    1  A    between atoms: C1_2  and  C2_3 
ROOT
ATOM      1  C2  UNL d   1       3.385  -2.184   2.886  0.00  0.00    -0.081 A 
ATOM      2  C3  UNL d   1       3.511  -1.320   1.791  0.00  0.00     0.006 A 
ATOM      3  C4  UNL d   1       2.379  -0.734   1.218  0.00  0.00     0.002 A 
ATOM      4  C5  UNL d   1       1.106  -0.996   1.734  0.00  0.00    -0.080 A 
ATOM      5  C6  UNL d   1      -0.114  -0.350   1.147  0.00  0.00     0.076 C 
ATOM      6  C7  UNL d   1       0.979  -1.873   2.817  0.00  0.00     0.002 A 
ATOM      7  C8  UNL d   1       2.109  -2.459   3.390  0.00  0.00     0.006 A 
ENDROOT
BRANCH   1   8
ATOM      8  C1  UNL d   1       4.608  -2.766   3.547  0.00  0.00     0.054 C 
ATOM      9  C   UNL d   1       5.876  -2.393   2.792  0.00  0.00     0.018 C 
ENDBRANCH   1   8
TORSDOF 1
ENDMDL
