MODEL 1
REMARK minimizedAffinity 3.25531912
REMARK minimizedRMSD -1
REMARK  1 active torsions:
REMARK  status: ('A' for Active; 'I' for Inactive)
REMARK    1  A    between atoms: C1_2  and  C2_3 
ROOT
ATOM      1  C2  UNL d   1       4.991  -1.484  -3.817  0.00  0.00    -0.081 A 
ATOM      2  C3  UNL d   1       3.866  -2.241  -3.468  0.00  0.00     0.006 A 
ATOM      3  C4  UNL d   1       3.387  -2.233  -2.156  0.00  0.00     0.002 A 
ATOM      4  C5  UNL d   1       4.018  -1.462  -1.174  0.00  0.00    -0.080 A 
ATOM      5  C6  UNL d   1       3.495  -1.421   0.231  0.00  0.00     0.076 C 
ATOM      6  C7  UNL d   1       5.152  -0.719  -1.519  0.00  0.00     0.002 A 
ATOM      7  C8  UNL d   1       5.633  -0.727  -2.830  0.00  0.00     0.006 A 
ENDROOT
BRANCH   1   8
ATOM      8  C1  UNL d   1       5.472  -1.439  -5.245  0.00  0.00     0.054 C 
ATOM      9  C   UNL d   1       4.858  -0.269  -6.000  0.00  0.00     0.018 C 
ENDBRANCH   1   8
TORSDOF 1
ENDMDL
