MODEL 1
REMARK minimizedAffinity 11.0266304
REMARK minimizedRMSD -1
REMARK  1 active torsions:
REMARK  status: ('A' for Active; 'I' for Inactive)
REMARK    1  A    between atoms: C1_2  and  C2_3 
ROOT
ATOM      1  C2  UNL d   1      -5.253  -3.756  -5.264  0.00  0.00    -0.081 A 
ATOM      2  C3  UNL d   1      -4.151  -2.988  -5.657  0.00  0.00     0.006 A 
ATOM      3  C4  UNL d   1      -3.796  -1.841  -4.942  0.00  0.00     0.002 A 
ATOM      4  C5  UNL d   1      -4.532  -1.449  -3.819  0.00  0.00    -0.080 A 
ATOM      5  C6  UNL d   1      -4.144  -0.237  -3.025  0.00  0.00     0.076 C 
ATOM      6  C7  UNL d   1      -5.644  -2.207  -3.437  0.00  0.00     0.002 A 
ATOM      7  C8  UNL d   1      -6.000  -3.353  -4.152  0.00  0.00     0.006 A 
ENDROOT
BRANCH   1   8
ATOM      8  C1  UNL d   1      -5.599  -5.029  -5.994  0.00  0.00     0.054 C 
ATOM      9  C   UNL d   1      -4.427  -6.000  -6.000  0.00  0.00     0.018 C 
ENDBRANCH   1   8
TORSDOF 1
ENDMDL
