MODEL 1
REMARK minimizedAffinity 10.701581
REMARK minimizedRMSD -1
REMARK  1 active torsions:
REMARK  status: ('A' for Active; 'I' for Inactive)
REMARK    1  A    between atoms: C1_2  and  C2_3 
ROOT
ATOM      1  C2  UNL d   1       2.849  -3.371   3.582  0.00  0.00    -0.081 A 
ATOM      2  C3  UNL d   1       3.766  -2.809   2.686  0.00  0.00     0.006 A 
ATOM      3  C4  UNL d   1       3.345  -1.880   1.731  0.00  0.00     0.002 A 
ATOM      4  C5  UNL d   1       2.003  -1.491   1.663  0.00  0.00    -0.080 A 
ATOM      5  C6  UNL d   1       1.544  -0.472   0.663  0.00  0.00     0.076 C 
ATOM      6  C7  UNL d   1       1.083  -2.065   2.547  0.00  0.00     0.002 A 
ATOM      7  C8  UNL d   1       1.503  -2.995   3.501  0.00  0.00     0.006 A 
ENDROOT
BRANCH   1   8
ATOM      8  C1  UNL d   1       3.311  -4.324   4.655  0.00  0.00     0.054 C 
ATOM      9  C   UNL d   1       4.804  -4.185   4.913  0.00  0.00     0.018 C 
ENDBRANCH   1   8
TORSDOF 1
ENDMDL
