MODEL 1
REMARK minimizedAffinity 2.26498365
REMARK minimizedRMSD -1
REMARK  1 active torsions:
REMARK  status: ('A' for Active; 'I' for Inactive)
REMARK    1  A    between atoms: C1_2  and  C2_3 
ROOT
ATOM      1  C2  UNL d   1       3.500  -1.791  -4.107  0.00  0.00    -0.081 A 
ATOM      2  C3  UNL d   1       4.708  -1.877  -4.809  0.00  0.00     0.006 A 
ATOM      3  C4  UNL d   1       5.247  -0.750  -5.434  0.00  0.00     0.002 A 
ATOM      4  C5  UNL d   1       4.591   0.484  -5.360  0.00  0.00    -0.080 A 
ATOM      5  C6  UNL d   1       5.173   1.709  -6.000  0.00  0.00     0.076 C 
ATOM      6  C7  UNL d   1       3.375   0.566  -4.673  0.00  0.00     0.002 A 
ATOM      7  C8  UNL d   1       2.835  -0.561  -4.050  0.00  0.00     0.006 A 
ENDROOT
BRANCH   1   8
ATOM      8  C1  UNL d   1       2.949  -2.990  -3.379  0.00  0.00     0.054 C 
ATOM      9  C   UNL d   1       2.467  -2.617  -1.984  0.00  0.00     0.018 C 
ENDBRANCH   1   8
TORSDOF 1
ENDMDL
