MODEL 1
REMARK minimizedAffinity -1.70478702
REMARK minimizedRMSD -1
REMARK  1 active torsions:
REMARK  status: ('A' for Active; 'I' for Inactive)
REMARK    1  A    between atoms: C1_2  and  C2_3 
ROOT
ATOM      1  C2  UNL d   1       4.156  -3.112   3.629  0.00  0.00    -0.081 A 
ATOM      2  C3  UNL d   1       4.702  -2.448   2.524  0.00  0.00     0.006 A 
ATOM      3  C4  UNL d   1       3.889  -1.683   1.684  0.00  0.00     0.002 A 
ATOM      4  C5  UNL d   1       2.519  -1.563   1.940  0.00  0.00    -0.080 A 
ATOM      5  C6  UNL d   1       1.640  -0.720   1.064  0.00  0.00     0.076 C 
ATOM      6  C7  UNL d   1       1.970  -2.240   3.034  0.00  0.00     0.002 A 
ATOM      7  C8  UNL d   1       2.783  -3.005   3.874  0.00  0.00     0.006 A 
ENDROOT
BRANCH   1   8
ATOM      8  C1  UNL d   1       5.041  -3.884   4.573  0.00  0.00     0.054 C 
ATOM      9  C   UNL d   1       6.000  -2.962   5.313  0.00  0.00     0.018 C 
ENDBRANCH   1   8
TORSDOF 1
ENDMDL
