MODEL 1
REMARK minimizedAffinity 19.1477318
REMARK minimizedRMSD -1
REMARK  1 active torsions:
REMARK  status: ('A' for Active; 'I' for Inactive)
REMARK    1  A    between atoms: C1_2  and  C2_3 
ROOT
ATOM      1  C2  UNL d   1      -3.320   2.022  -0.915  0.00  0.00    -0.081 A 
ATOM      2  C3  UNL d   1      -2.779   1.506  -2.099  0.00  0.00     0.006 A 
ATOM      3  C4  UNL d   1      -3.446   1.673  -3.314  0.00  0.00     0.002 A 
ATOM      4  C5  UNL d   1      -4.660   2.365  -3.368  0.00  0.00    -0.080 A 
ATOM      5  C6  UNL d   1      -5.372   2.579  -4.671  0.00  0.00     0.076 C 
ATOM      6  C7  UNL d   1      -5.210   2.866  -2.183  0.00  0.00     0.002 A 
ATOM      7  C8  UNL d   1      -4.544   2.698  -0.967  0.00  0.00     0.006 A 
ENDROOT
BRANCH   1   8
ATOM      8  C1  UNL d   1      -2.571   1.899   0.388  0.00  0.00     0.054 C 
ATOM      9  C   UNL d   1      -3.258   2.683   1.497  0.00  0.00     0.018 C 
ENDBRANCH   1   8
TORSDOF 1
ENDMDL
