MODEL 1
REMARK minimizedAffinity 1.43856406
REMARK minimizedRMSD -1
REMARK  0 active torsions:
REMARK  status: ('A' for Active; 'I' for Inactive)
ROOT
ATOM      1  C   UNL d   1       5.609  -3.733   0.201  0.00  0.00     0.172 C 
ATOM      2  N   UNL d   1       5.215  -3.710  -1.188  0.00  0.00    -0.070 N 
ATOM      3  C1  UNL d   1       5.998  -3.298  -2.233  0.00  0.00    -0.004 A 
ATOM      4  C2  UNL d   1       5.260  -3.428  -3.390  0.00  0.00    -0.047 A 
ATOM      5  C3  UNL d   1       3.989  -3.934  -3.027  0.00  0.00    -0.047 A 
ATOM      6  C4  UNL d   1       3.988  -4.099  -1.658  0.00  0.00    -0.004 A 
ENDROOT
TORSDOF 0
ENDMDL
