MODEL 1
REMARK minimizedAffinity 0.10845758
REMARK minimizedRMSD -1
REMARK  0 active torsions:
REMARK  status: ('A' for Active; 'I' for Inactive)
ROOT
ATOM      1  C   UNL d   1       0.035   2.423   4.167  0.00  0.00     0.172 C 
ATOM      2  N   UNL d   1      -0.616   1.811   3.032  0.00  0.00    -0.070 N 
ATOM      3  C1  UNL d   1      -1.443   2.449   2.147  0.00  0.00    -0.004 A 
ATOM      4  C2  UNL d   1      -1.856   1.523   1.213  0.00  0.00    -0.047 A 
ATOM      5  C3  UNL d   1      -1.257   0.286   1.550  0.00  0.00    -0.047 A 
ATOM      6  C4  UNL d   1      -0.494   0.493   2.680  0.00  0.00    -0.004 A 
ENDROOT
TORSDOF 0
ENDMDL
