MODEL 1
REMARK minimizedAffinity 3.93573332
REMARK minimizedRMSD -1
REMARK  0 active torsions:
REMARK  status: ('A' for Active; 'I' for Inactive)
ROOT
ATOM      1  C   UNL d   1       2.701  -4.128  -0.752  0.00  0.00     0.172 C 
ATOM      2  N   UNL d   1       3.895  -4.087  -1.563  0.00  0.00    -0.070 N 
ATOM      3  C1  UNL d   1       3.989  -4.497  -2.866  0.00  0.00    -0.004 A 
ATOM      4  C2  UNL d   1       5.289  -4.295  -3.279  0.00  0.00    -0.047 A 
ATOM      5  C3  UNL d   1       6.000  -3.746  -2.186  0.00  0.00    -0.047 A 
ATOM      6  C4  UNL d   1       5.113  -3.627  -1.136  0.00  0.00    -0.004 A 
ENDROOT
TORSDOF 0
ENDMDL
