MODEL 1
REMARK minimizedAffinity 2.50329638
REMARK minimizedRMSD -1
REMARK  0 active torsions:
REMARK  status: ('A' for Active; 'I' for Inactive)
ROOT
ATOM      1  C   UNL d   1      -5.598  -5.809   5.967  0.00  0.00     0.172 C 
ATOM      2  N   UNL d   1      -5.172  -4.430   5.968  0.00  0.00    -0.070 N 
ATOM      3  C1  UNL d   1      -5.999  -3.339   5.996  0.00  0.00    -0.004 A 
ATOM      4  C2  UNL d   1      -5.208  -2.210   5.987  0.00  0.00    -0.047 A 
ATOM      5  C3  UNL d   1      -3.860  -2.637   5.951  0.00  0.00    -0.047 A 
ATOM      6  C4  UNL d   1      -3.866  -4.016   5.939  0.00  0.00    -0.004 A 
ENDROOT
TORSDOF 0
ENDMDL
