MODEL 1
REMARK minimizedAffinity 3.03680992
REMARK minimizedRMSD -1
REMARK  0 active torsions:
REMARK  status: ('A' for Active; 'I' for Inactive)
ROOT
ATOM      1  C   UNL d   1       2.995  -2.955  -4.972  0.00  0.00     0.172 C 
ATOM      2  N   UNL d   1       3.902  -3.562  -4.026  0.00  0.00    -0.070 N 
ATOM      3  C1  UNL d   1       3.609  -4.614  -3.201  0.00  0.00    -0.004 A 
ATOM      4  C2  UNL d   1       4.735  -4.895  -2.457  0.00  0.00    -0.047 A 
ATOM      5  C3  UNL d   1       5.739  -3.978  -2.848  0.00  0.00    -0.047 A 
ATOM      6  C4  UNL d   1       5.197  -3.165  -3.821  0.00  0.00    -0.004 A 
ENDROOT
TORSDOF 0
ENDMDL
