MODEL 1
REMARK minimizedAffinity 5.30062437
REMARK minimizedRMSD -1
REMARK  0 active torsions:
REMARK  status: ('A' for Active; 'I' for Inactive)
ROOT
ATOM      1  C   UNL d   1       0.371  -4.502   6.000  0.00  0.00     0.172 C 
ATOM      2  N   UNL d   1      -0.587  -3.758   5.216  0.00  0.00    -0.070 N 
ATOM      3  C1  UNL d   1      -1.837  -3.381   5.630  0.00  0.00    -0.004 A 
ATOM      4  C2  UNL d   1      -2.434  -2.692   4.597  0.00  0.00    -0.047 A 
ATOM      5  C3  UNL d   1      -1.512  -2.655   3.524  0.00  0.00    -0.047 A 
ATOM      6  C4  UNL d   1      -0.377  -3.322   3.935  0.00  0.00    -0.004 A 
ENDROOT
TORSDOF 0
ENDMDL
