MODEL 1
REMARK minimizedAffinity 5.74723911
REMARK minimizedRMSD -1
REMARK  0 active torsions:
REMARK  status: ('A' for Active; 'I' for Inactive)
ROOT
ATOM      1  C   UNL d   1      -0.437   2.267  -1.033  0.00  0.00     0.172 C 
ATOM      2  N   UNL d   1      -1.228   2.264   0.175  0.00  0.00    -0.070 N 
ATOM      3  C1  UNL d   1      -0.770   1.960   1.429  0.00  0.00    -0.004 A 
ATOM      4  C2  UNL d   1      -1.829   2.073   2.304  0.00  0.00    -0.047 A 
ATOM      5  C3  UNL d   1      -2.963   2.457   1.550  0.00  0.00    -0.047 A 
ATOM      6  C4  UNL d   1      -2.563   2.569   0.235  0.00  0.00    -0.004 A 
ENDROOT
TORSDOF 0
ENDMDL
