MODEL 1
REMARK minimizedAffinity 2.65873575
REMARK minimizedRMSD -1
REMARK  0 active torsions:
REMARK  status: ('A' for Active; 'I' for Inactive)
ROOT
ATOM      1  C   UNL d   1      -0.422   1.964   0.340  0.00  0.00     0.172 C 
ATOM      2  N   UNL d   1      -0.074   1.535  -0.994  0.00  0.00    -0.070 N 
ATOM      3  C1  UNL d   1       0.741   2.211  -1.862  0.00  0.00    -0.004 A 
ATOM      4  C2  UNL d   1       0.821   1.475  -3.025  0.00  0.00    -0.047 A 
ATOM      5  C3  UNL d   1       0.026   0.317  -2.849  0.00  0.00    -0.047 A 
ATOM      6  C4  UNL d   1      -0.517   0.380  -1.583  0.00  0.00    -0.004 A 
ENDROOT
TORSDOF 0
ENDMDL
