MODEL 1
REMARK minimizedAffinity 2.47455359
REMARK minimizedRMSD -1
REMARK  0 active torsions:
REMARK  status: ('A' for Active; 'I' for Inactive)
ROOT
ATOM      1  C   UNL d   1      -2.178  -0.018  -2.671  0.00  0.00     0.172 C 
ATOM      2  N   UNL d   1      -0.886   0.508  -2.297  0.00  0.00    -0.070 N 
ATOM      3  C1  UNL d   1       0.307  -0.155  -2.405  0.00  0.00    -0.004 A 
ATOM      4  C2  UNL d   1       1.299   0.685  -1.946  0.00  0.00    -0.047 A 
ATOM      5  C3  UNL d   1       0.681   1.893  -1.547  0.00  0.00    -0.047 A 
ATOM      6  C4  UNL d   1      -0.672   1.756  -1.775  0.00  0.00    -0.004 A 
ENDROOT
TORSDOF 0
ENDMDL
