MODEL 1
REMARK minimizedAffinity 5.65441751
REMARK minimizedRMSD -1
REMARK  0 active torsions:
REMARK  status: ('A' for Active; 'I' for Inactive)
ROOT
ATOM      1  C   UNL d   1      -1.939   0.062  -3.414  0.00  0.00     0.172 C 
ATOM      2  N   UNL d   1      -0.655   0.694  -3.224  0.00  0.00    -0.070 N 
ATOM      3  C1  UNL d   1      -0.305   1.491  -2.168  0.00  0.00    -0.004 A 
ATOM      4  C2  UNL d   1       0.999   1.895  -2.357  0.00  0.00    -0.047 A 
ATOM      5  C3  UNL d   1       1.449   1.320  -3.569  0.00  0.00    -0.047 A 
ATOM      6  C4  UNL d   1       0.405   0.582  -4.086  0.00  0.00    -0.004 A 
ENDROOT
TORSDOF 0
ENDMDL
