MODEL 1
REMARK minimizedAffinity 2.7597394
REMARK minimizedRMSD -1
REMARK  0 active torsions:
REMARK  status: ('A' for Active; 'I' for Inactive)
ROOT
ATOM      1  C   UNL d   1       0.507   2.355   4.287  0.00  0.00     0.172 C 
ATOM      2  N   UNL d   1      -0.455   2.014   3.265  0.00  0.00    -0.070 N 
ATOM      3  C1  UNL d   1      -1.129   0.826   3.167  0.00  0.00    -0.004 A 
ATOM      4  C2  UNL d   1      -1.949   0.897   2.061  0.00  0.00    -0.047 A 
ATOM      5  C3  UNL d   1      -1.761   2.170   1.474  0.00  0.00    -0.047 A 
ATOM      6  C4  UNL d   1      -0.831   2.842   2.240  0.00  0.00    -0.004 A 
ENDROOT
TORSDOF 0
ENDMDL
