MODEL 1
REMARK minimizedAffinity -2.77532125
REMARK minimizedRMSD -1
REMARK  0 active torsions:
REMARK  status: ('A' for Active; 'I' for Inactive)
ROOT
ATOM      1  C   UNL d   1       0.580  -2.340  -1.098  0.00  0.00     0.172 C 
ATOM      2  N   UNL d   1       0.044  -1.008  -1.253  0.00  0.00    -0.070 N 
ATOM      3  C1  UNL d   1      -0.755  -0.584  -2.282  0.00  0.00    -0.004 A 
ATOM      4  C2  UNL d   1      -1.052   0.745  -2.065  0.00  0.00    -0.047 A 
ATOM      5  C3  UNL d   1      -0.409   1.132  -0.865  0.00  0.00    -0.047 A 
ATOM      6  C4  UNL d   1       0.262   0.027  -0.383  0.00  0.00    -0.004 A 
ENDROOT
TORSDOF 0
ENDMDL
