MODEL 1
REMARK minimizedAffinity 0.340852231
REMARK minimizedRMSD -1
REMARK  0 active torsions:
REMARK  status: ('A' for Active; 'I' for Inactive)
ROOT
ATOM      1  C   UNL d   1      -5.999   2.483  -4.945  0.00  0.00     0.172 C 
ATOM      2  N   UNL d   1      -5.610   3.872  -5.016  0.00  0.00    -0.070 N 
ATOM      3  C1  UNL d   1      -6.000   4.762  -5.981  0.00  0.00    -0.004 A 
ATOM      4  C2  UNL d   1      -5.418   5.977  -5.694  0.00  0.00    -0.047 A 
ATOM      5  C3  UNL d   1      -4.652   5.813  -4.516  0.00  0.00    -0.047 A 
ATOM      6  C4  UNL d   1      -4.788   4.500  -4.117  0.00  0.00    -0.004 A 
ENDROOT
TORSDOF 0
ENDMDL
