MODEL 1
REMARK minimizedAffinity 6.16951895
REMARK minimizedRMSD -1
REMARK  0 active torsions:
REMARK  status: ('A' for Active; 'I' for Inactive)
ROOT
ATOM      1  C   UNL d   1       3.743  -5.992  -2.520  0.00  0.00     0.172 C 
ATOM      2  N   UNL d   1       3.677  -5.357  -3.815  0.00  0.00    -0.070 N 
ATOM      3  C1  UNL d   1       3.922  -4.034  -4.070  0.00  0.00    -0.004 A 
ATOM      4  C2  UNL d   1       3.755  -3.826  -5.422  0.00  0.00    -0.047 A 
ATOM      5  C3  UNL d   1       3.396  -5.067  -6.000  0.00  0.00    -0.047 A 
ATOM      6  C4  UNL d   1       3.354  -5.997  -4.983  0.00  0.00    -0.004 A 
ENDROOT
TORSDOF 0
ENDMDL
