MODEL 1
REMARK minimizedAffinity 6.23712826
REMARK minimizedRMSD -1
REMARK  0 active torsions:
REMARK  status: ('A' for Active; 'I' for Inactive)
ROOT
ATOM      1  C   UNL d   1      -2.364  -0.083  -2.974  0.00  0.00     0.172 C 
ATOM      2  N   UNL d   1      -1.121   0.372  -2.398  0.00  0.00    -0.070 N 
ATOM      3  C1  UNL d   1       0.054  -0.331  -2.378  0.00  0.00    -0.004 A 
ATOM      4  C2  UNL d   1       0.999   0.445  -1.742  0.00  0.00    -0.047 A 
ATOM      5  C3  UNL d   1       0.370   1.656  -1.366  0.00  0.00    -0.047 A 
ATOM      6  C4  UNL d   1      -0.942   1.584  -1.784  0.00  0.00    -0.004 A 
ENDROOT
TORSDOF 0
ENDMDL
