MODEL 1
REMARK minimizedAffinity 5.63812065
REMARK minimizedRMSD -1
REMARK  0 active torsions:
REMARK  status: ('A' for Active; 'I' for Inactive)
ROOT
ATOM      1  C   UNL d   1      -1.917  -0.158   3.188  0.00  0.00     0.172 C 
ATOM      2  N   UNL d   1      -1.836   0.937   2.250  0.00  0.00    -0.070 N 
ATOM      3  C1  UNL d   1      -2.884   1.461   1.542  0.00  0.00    -0.004 A 
ATOM      4  C2  UNL d   1      -2.396   2.487   0.762  0.00  0.00    -0.047 A 
ATOM      5  C3  UNL d   1      -1.006   2.582   1.008  0.00  0.00    -0.047 A 
ATOM      6  C4  UNL d   1      -0.686   1.610   1.933  0.00  0.00    -0.004 A 
ENDROOT
TORSDOF 0
ENDMDL
