MODEL 1
REMARK minimizedAffinity -2.57763982
REMARK minimizedRMSD -1
REMARK  0 active torsions:
REMARK  status: ('A' for Active; 'I' for Inactive)
ROOT
ATOM      1  O1  BZF d   1       1.295  -0.688  -0.827  0.00  0.00    -0.204 OA
ATOM      2  C2  BZF d   1       0.070  -0.428  -1.411  0.00  0.00     0.174 A 
ATOM      3  C3  BZF d   1      -0.885  -0.274  -0.471  0.00  0.00    -0.012 A 
ATOM      4  C3A BZF d   1      -0.197  -0.357   0.781  0.00  0.00    -0.107 A 
ATOM      5  C4  BZF d   1      -0.601  -0.264   2.083  0.00  0.00     0.055 A 
ATOM      6  C5  BZF d   1       0.308  -0.463   3.073  0.00  0.00    -0.016 A 
ATOM      7  C6  BZF d   1       1.627  -0.763   2.798  0.00  0.00     0.022 A 
ATOM      8  C7  BZF d   1       2.076  -0.861   1.523  0.00  0.00     0.029 A 
ATOM      9  C7A BZF d   1       1.166  -0.627   0.520  0.00  0.00     0.058 A 
ENDROOT
TORSDOF 0
ENDMDL
