MODEL 1
REMARK minimizedAffinity -3.99386883
REMARK minimizedRMSD -1
REMARK  0 active torsions:
REMARK  status: ('A' for Active; 'I' for Inactive)
ROOT
ATOM      1  O1  BZF d   1      -0.326   1.517  -1.449  0.00  0.00    -0.204 OA
ATOM      2  C2  BZF d   1       0.383   0.411  -1.876  0.00  0.00     0.174 A 
ATOM      3  C3  BZF d   1       0.717  -0.376  -0.833  0.00  0.00    -0.012 A 
ATOM      4  C3A BZF d   1       0.104   0.232   0.308  0.00  0.00    -0.107 A 
ATOM      5  C4  BZF d   1       0.060  -0.092   1.634  0.00  0.00     0.055 A 
ATOM      6  C5  BZF d   1      -0.562   0.750   2.499  0.00  0.00    -0.016 A 
ATOM      7  C6  BZF d   1      -1.146   1.926   2.075  0.00  0.00     0.022 A 
ATOM      8  C7  BZF d   1      -1.132   2.287   0.769  0.00  0.00     0.029 A 
ATOM      9  C7A BZF d   1      -0.533   1.422  -0.113  0.00  0.00     0.058 A 
ENDROOT
TORSDOF 0
ENDMDL
