MODEL 1
REMARK minimizedAffinity -4.60635328
REMARK minimizedRMSD -1
REMARK  0 active torsions:
REMARK  status: ('A' for Active; 'I' for Inactive)
ROOT
ATOM      1  O1  BZF d   1       0.134   1.315   2.453  0.00  0.00    -0.204 OA
ATOM      2  C2  BZF d   1       0.258  -0.059   2.526  0.00  0.00     0.174 A 
ATOM      3  C3  BZF d   1       0.356  -0.597   1.293  0.00  0.00    -0.012 A 
ATOM      4  C3A BZF d   1       0.383   0.519   0.397  0.00  0.00    -0.107 A 
ATOM      5  C4  BZF d   1       0.485   0.631  -0.960  0.00  0.00     0.055 A 
ATOM      6  C5  BZF d   1       0.407   1.863  -1.529  0.00  0.00    -0.016 A 
ATOM      7  C6  BZF d   1       0.221   3.001  -0.772  0.00  0.00     0.022 A 
ATOM      8  C7  BZF d   1       0.119   2.941   0.578  0.00  0.00     0.029 A 
ATOM      9  C7A BZF d   1       0.231   1.701   1.158  0.00  0.00     0.058 A 
ENDROOT
TORSDOF 0
ENDMDL
