MODEL 1
REMARK minimizedAffinity -2.85405946
REMARK minimizedRMSD -1
REMARK  0 active torsions:
REMARK  status: ('A' for Active; 'I' for Inactive)
ROOT
ATOM      1  O1  BZF d   1       0.758   0.610   1.773  0.00  0.00    -0.204 OA
ATOM      2  C2  BZF d   1       0.248   1.828   2.179  0.00  0.00     0.174 A 
ATOM      3  C3  BZF d   1      -0.098   2.580   1.114  0.00  0.00    -0.012 A 
ATOM      4  C3A BZF d   1       0.130   1.746  -0.026  0.00  0.00    -0.107 A 
ATOM      5  C4  BZF d   1      -0.041   1.924  -1.369  0.00  0.00     0.055 A 
ATOM      6  C5  BZF d   1       0.346   0.938  -2.221  0.00  0.00    -0.016 A 
ATOM      7  C6  BZF d   1       0.912  -0.234  -1.765  0.00  0.00     0.022 A 
ATOM      8  C7  BZF d   1       1.097  -0.459  -0.441  0.00  0.00     0.029 A 
ATOM      9  C7A BZF d   1       0.677   0.522   0.424  0.00  0.00     0.058 A 
ENDROOT
TORSDOF 0
ENDMDL
