MODEL 1
REMARK minimizedAffinity -0.631795943
REMARK minimizedRMSD -1
REMARK  0 active torsions:
REMARK  status: ('A' for Active; 'I' for Inactive)
ROOT
ATOM      1  O1  BZF d   1       0.624   0.108  -1.014  0.00  0.00    -0.204 OA
ATOM      2  C2  BZF d   1       0.934  -1.120  -0.464  0.00  0.00     0.174 A 
ATOM      3  C3  BZF d   1       0.735  -1.111   0.870  0.00  0.00    -0.012 A 
ATOM      4  C3A BZF d   1       0.183   0.177   1.159  0.00  0.00    -0.107 A 
ATOM      5  C4  BZF d   1      -0.241   0.780   2.308  0.00  0.00     0.055 A 
ATOM      6  C5  BZF d   1      -0.659   2.073   2.260  0.00  0.00    -0.016 A 
ATOM      7  C6  BZF d   1      -0.661   2.792   1.083  0.00  0.00     0.022 A 
ATOM      8  C7  BZF d   1      -0.255   2.234  -0.083  0.00  0.00     0.029 A 
ATOM      9  C7A BZF d   1       0.137   0.919  -0.044  0.00  0.00     0.058 A 
ENDROOT
TORSDOF 0
ENDMDL
