MODEL 1
REMARK minimizedAffinity -4.14428043
REMARK minimizedRMSD -1
REMARK  0 active torsions:
REMARK  status: ('A' for Active; 'I' for Inactive)
ROOT
ATOM      1  O1  BZF d   1       0.638   0.429  -0.872  0.00  0.00    -0.204 OA
ATOM      2  C2  BZF d   1       0.824  -0.545   0.091  0.00  0.00     0.174 A 
ATOM      3  C3  BZF d   1       0.535  -0.065   1.318  0.00  0.00    -0.012 A 
ATOM      4  C3A BZF d   1       0.055   1.265   1.099  0.00  0.00    -0.107 A 
ATOM      5  C4  BZF d   1      -0.403   2.247   1.930  0.00  0.00     0.055 A 
ATOM      6  C5  BZF d   1      -0.726   3.459   1.406  0.00  0.00    -0.016 A 
ATOM      7  C6  BZF d   1      -0.598   3.724   0.059  0.00  0.00     0.022 A 
ATOM      8  C7  BZF d   1      -0.153   2.780  -0.806  0.00  0.00     0.029 A 
ATOM      9  C7A BZF d   1       0.143   1.545  -0.285  0.00  0.00     0.058 A 
ENDROOT
TORSDOF 0
ENDMDL
