MODEL 1
REMARK minimizedAffinity -3.23079801
REMARK minimizedRMSD -1
REMARK  0 active torsions:
REMARK  status: ('A' for Active; 'I' for Inactive)
ROOT
ATOM      1  O1  BZF d   1      -1.112  -0.931   0.342  0.00  0.00    -0.204 OA
ATOM      2  C2  BZF d   1      -0.106   0.006   0.487  0.00  0.00     0.174 A 
ATOM      3  C3  BZF d   1       1.038  -0.429  -0.079  0.00  0.00    -0.012 A 
ATOM      4  C3A BZF d   1       0.704  -1.678  -0.691  0.00  0.00    -0.107 A 
ATOM      5  C4  BZF d   1       1.416  -2.586  -1.421  0.00  0.00     0.055 A 
ATOM      6  C5  BZF d   1       0.813  -3.740  -1.810  0.00  0.00    -0.016 A 
ATOM      7  C6  BZF d   1      -0.497  -4.020  -1.483  0.00  0.00     0.022 A 
ATOM      8  C7  BZF d   1      -1.246  -3.148  -0.765  0.00  0.00     0.029 A 
ATOM      9  C7A BZF d   1      -0.649  -1.966  -0.399  0.00  0.00     0.058 A 
ENDROOT
TORSDOF 0
ENDMDL
