MODEL 1
REMARK minimizedAffinity 0.559059381
REMARK minimizedRMSD -1
REMARK  0 active torsions:
REMARK  status: ('A' for Active; 'I' for Inactive)
ROOT
ATOM      1  O1  BZF d   1      -0.151   2.137  -1.291  0.00  0.00    -0.204 OA
ATOM      2  C2  BZF d   1       0.139   1.116  -2.175  0.00  0.00     0.174 A 
ATOM      3  C3  BZF d   1       0.618   0.038  -1.520  0.00  0.00    -0.012 A 
ATOM      4  C3A BZF d   1       0.541   0.376  -0.132  0.00  0.00    -0.107 A 
ATOM      5  C4  BZF d   1       0.857  -0.293   1.016  0.00  0.00     0.055 A 
ATOM      6  C5  BZF d   1       0.732   0.347   2.209  0.00  0.00    -0.016 A 
ATOM      7  C6  BZF d   1       0.300   1.654   2.290  0.00  0.00     0.022 A 
ATOM      8  C7  BZF d   1      -0.029   2.357   1.179  0.00  0.00     0.029 A 
ATOM      9  C7A BZF d   1       0.064   1.703  -0.026  0.00  0.00     0.058 A 
ENDROOT
TORSDOF 0
ENDMDL
