MODEL 1
REMARK minimizedAffinity -4.1457119
REMARK minimizedRMSD -1
REMARK  0 active torsions:
REMARK  status: ('A' for Active; 'I' for Inactive)
ROOT
ATOM      1  O1  BZF d   1      -0.594   1.953   2.299  0.00  0.00    -0.204 OA
ATOM      2  C2  BZF d   1      -1.261   2.932   1.588  0.00  0.00     0.174 A 
ATOM      3  C3  BZF d   1      -1.262   2.647   0.269  0.00  0.00    -0.012 A 
ATOM      4  C3A BZF d   1      -0.631   1.368   0.160  0.00  0.00    -0.107 A 
ATOM      5  C4  BZF d   1      -0.349   0.547  -0.895  0.00  0.00     0.055 A 
ATOM      6  C5  BZF d   1       0.342  -0.602  -0.671  0.00  0.00    -0.016 A 
ATOM      7  C6  BZF d   1       0.771  -0.957   0.591  0.00  0.00     0.022 A 
ATOM      8  C7  BZF d   1       0.511  -0.178   1.669  0.00  0.00     0.029 A 
ATOM      9  C7A BZF d   1      -0.216   0.968   1.451  0.00  0.00     0.058 A 
ENDROOT
TORSDOF 0
ENDMDL
