MODEL 1
REMARK minimizedAffinity 0.507471561
REMARK minimizedRMSD -1
REMARK  0 active torsions:
REMARK  status: ('A' for Active; 'I' for Inactive)
ROOT
ATOM      1  O1  BZF d   1       0.000   1.029  -0.980  0.00  0.00    -0.204 OA
ATOM      2  C2  BZF d   1       0.326  -0.153  -1.617  0.00  0.00     0.174 A 
ATOM      3  C3  BZF d   1       0.596  -1.122  -0.719  0.00  0.00    -0.012 A 
ATOM      4  C3A BZF d   1       0.339  -0.533   0.559  0.00  0.00    -0.107 A 
ATOM      5  C4  BZF d   1       0.411  -1.001   1.840  0.00  0.00     0.055 A 
ATOM      6  C5  BZF d   1       0.164  -0.149   2.869  0.00  0.00    -0.016 A 
ATOM      7  C6  BZF d   1      -0.151   1.176   2.655  0.00  0.00     0.022 A 
ATOM      8  C7  BZF d   1      -0.239   1.685   1.402  0.00  0.00     0.029 A 
ATOM      9  C7A BZF d   1      -0.023   0.819   0.358  0.00  0.00     0.058 A 
ENDROOT
TORSDOF 0
ENDMDL
