MODEL 1
REMARK minimizedAffinity 11.6723251
REMARK minimizedRMSD -1
REMARK  0 active torsions:
REMARK  status: ('A' for Active; 'I' for Inactive)
ROOT
ATOM      1  O1  BZF d   1      -0.005   1.603  -0.626  0.00  0.00    -0.204 OA
ATOM      2  C2  BZF d   1      -0.116   0.319  -1.124  0.00  0.00     0.174 A 
ATOM      3  C3  BZF d   1       0.098  -0.591  -0.152  0.00  0.00    -0.012 A 
ATOM      4  C3A BZF d   1       0.267   0.172   1.047  0.00  0.00    -0.107 A 
ATOM      5  C4  BZF d   1       0.495  -0.166   2.351  0.00  0.00     0.055 A 
ATOM      6  C5  BZF d   1       0.684   0.821   3.265  0.00  0.00    -0.016 A 
ATOM      7  C6  BZF d   1       0.659   2.154   2.911  0.00  0.00     0.022 A 
ATOM      8  C7  BZF d   1       0.432   2.538   1.631  0.00  0.00     0.029 A 
ATOM      9  C7A BZF d   1       0.207   1.544   0.710  0.00  0.00     0.058 A 
ENDROOT
TORSDOF 0
ENDMDL
