MODEL 1
REMARK minimizedAffinity -5.39963245
REMARK minimizedRMSD -1
REMARK  1 active torsions:
REMARK  status: ('A' for Active; 'I' for Inactive)
REMARK    1  A    between atoms: C1_2  and  C2_3 
ROOT
ATOM      1  C2  UNL d   1      -0.444  -1.412   0.109  0.00  0.00    -0.077 A 
ATOM      2  C3  UNL d   1      -1.142  -1.012   1.258  0.00  0.00     0.002 A 
ATOM      3  C4  UNL d   1      -1.387   0.341   1.501  0.00  0.00     0.002 A 
ATOM      4  C5  UNL d   1      -0.940   1.304   0.599  0.00  0.00    -0.004 A 
ATOM      5  C6  UNL d   1      -0.243   0.917  -0.545  0.00  0.00     0.002 A 
ATOM      6  C7  UNL d   1       0.003  -0.435  -0.789  0.00  0.00     0.002 A 
ENDROOT
BRANCH   1   7
ATOM      7  C1  UNL d   1      -0.222  -2.873  -0.179  0.00  0.00     0.055 C 
ATOM      8  C   UNL d   1      -0.306  -3.162  -1.671  0.00  0.00     0.019 C 
ENDBRANCH   1   7
TORSDOF 1
ENDMDL
