MODEL 1
REMARK minimizedAffinity -3.98718572
REMARK minimizedRMSD -1
REMARK  1 active torsions:
REMARK  status: ('A' for Active; 'I' for Inactive)
REMARK    1  A    between atoms: C1_2  and  C2_3 
ROOT
ATOM      1  C2  UNL d   1      -0.423  -0.111   0.204  0.00  0.00    -0.077 A 
ATOM      2  C3  UNL d   1       0.525  -0.786  -0.579  0.00  0.00     0.002 A 
ATOM      3  C4  UNL d   1       0.680  -2.169  -0.463  0.00  0.00     0.002 A 
ATOM      4  C5  UNL d   1      -0.111  -2.889   0.431  0.00  0.00    -0.004 A 
ATOM      5  C6  UNL d   1      -1.054  -2.226   1.215  0.00  0.00     0.002 A 
ATOM      6  C7  UNL d   1      -1.210  -0.844   1.102  0.00  0.00     0.002 A 
ENDROOT
BRANCH   1   7
ATOM      7  C1  UNL d   1      -0.626   1.373   0.045  0.00  0.00     0.055 C 
ATOM      8  C   UNL d   1       0.697   2.122   0.103  0.00  0.00     0.019 C 
ENDBRANCH   1   7
TORSDOF 1
ENDMDL
