MODEL 1
REMARK minimizedAffinity -4.66193533
REMARK minimizedRMSD -1
REMARK  1 active torsions:
REMARK  status: ('A' for Active; 'I' for Inactive)
REMARK    1  A    between atoms: C1_2  and  C2_3 
ROOT
ATOM      1  C2  UNL d   1      -0.445  -1.385   0.221  0.00  0.00    -0.077 A 
ATOM      2  C3  UNL d   1      -0.883  -0.210   0.848  0.00  0.00     0.002 A 
ATOM      3  C4  UNL d   1      -0.644   1.035   0.262  0.00  0.00     0.002 A 
ATOM      4  C5  UNL d   1       0.030   1.116  -0.955  0.00  0.00    -0.004 A 
ATOM      5  C6  UNL d   1       0.471  -0.047  -1.585  0.00  0.00     0.002 A 
ATOM      6  C7  UNL d   1       0.234  -1.292  -1.001  0.00  0.00     0.002 A 
ENDROOT
BRANCH   1   7
ATOM      7  C1  UNL d   1      -0.745  -2.731   0.826  0.00  0.00     0.055 C 
ATOM      8  C   UNL d   1      -0.095  -3.854   0.031  0.00  0.00     0.019 C 
ENDBRANCH   1   7
TORSDOF 1
ENDMDL
