MODEL 1
REMARK minimizedAffinity -3.75407195
REMARK minimizedRMSD -1
REMARK  1 active torsions:
REMARK  status: ('A' for Active; 'I' for Inactive)
REMARK    1  A    between atoms: C1_2  and  C2_3 
ROOT
ATOM      1  C2  UNL d   1       0.575   2.022   0.321  0.00  0.00    -0.077 A 
ATOM      2  C3  UNL d   1       0.601   2.385   1.674  0.00  0.00     0.002 A 
ATOM      3  C4  UNL d   1       1.068   3.643   2.059  0.00  0.00     0.002 A 
ATOM      4  C5  UNL d   1       1.510   4.549   1.097  0.00  0.00    -0.004 A 
ATOM      5  C6  UNL d   1       1.490   4.196  -0.252  0.00  0.00     0.002 A 
ATOM      6  C7  UNL d   1       1.025   2.939  -0.639  0.00  0.00     0.002 A 
ENDROOT
BRANCH   1   7
ATOM      7  C1  UNL d   1       0.026   0.684  -0.101  0.00  0.00     0.055 C 
ATOM      8  C   UNL d   1      -0.900   0.107   0.961  0.00  0.00     0.019 C 
ENDBRANCH   1   7
TORSDOF 1
ENDMDL
