MODEL 1
REMARK minimizedAffinity -4.64190674
REMARK minimizedRMSD -1
REMARK  1 active torsions:
REMARK  status: ('A' for Active; 'I' for Inactive)
REMARK    1  A    between atoms: C1_2  and  C2_3 
ROOT
ATOM      1  C2  UNL d   1      -0.236  -0.154   0.128  0.00  0.00    -0.077 A 
ATOM      2  C3  UNL d   1      -1.049  -0.675   1.143  0.00  0.00     0.002 A 
ATOM      3  C4  UNL d   1      -0.908  -2.004   1.549  0.00  0.00     0.002 A 
ATOM      4  C5  UNL d   1       0.048  -2.820   0.948  0.00  0.00    -0.004 A 
ATOM      5  C6  UNL d   1       0.861  -2.311  -0.065  0.00  0.00     0.002 A 
ATOM      6  C7  UNL d   1       0.720  -0.984  -0.472  0.00  0.00     0.002 A 
ENDROOT
BRANCH   1   7
ATOM      7  C1  UNL d   1      -0.353   1.293  -0.277  0.00  0.00     0.055 C 
ATOM      8  C   UNL d   1       0.898   2.075   0.094  0.00  0.00     0.019 C 
ENDBRANCH   1   7
TORSDOF 1
ENDMDL
