MODEL 1
REMARK minimizedAffinity -4.77490616
REMARK minimizedRMSD -1
REMARK  1 active torsions:
REMARK  status: ('A' for Active; 'I' for Inactive)
REMARK    1  A    between atoms: C1_2  and  C2_3 
ROOT
ATOM      1  C2  UNL d   1       0.040   0.007  -0.613  0.00  0.00    -0.077 A 
ATOM      2  C3  UNL d   1       0.805  -1.102  -1.001  0.00  0.00     0.002 A 
ATOM      3  C4  UNL d   1       0.671  -2.321  -0.332  0.00  0.00     0.002 A 
ATOM      4  C5  UNL d   1      -0.229  -2.443   0.725  0.00  0.00    -0.004 A 
ATOM      5  C6  UNL d   1      -0.992  -1.345   1.119  0.00  0.00     0.002 A 
ATOM      6  C7  UNL d   1      -0.859  -0.126   0.453  0.00  0.00     0.002 A 
ENDROOT
BRANCH   1   7
ATOM      7  C1  UNL d   1       0.147   1.308  -1.364  0.00  0.00     0.055 C 
ATOM      8  C   UNL d   1       0.835   2.376  -0.526  0.00  0.00     0.019 C 
ENDBRANCH   1   7
TORSDOF 1
ENDMDL
