MODEL 1
REMARK minimizedAffinity -4.79333544
REMARK minimizedRMSD -1
REMARK  1 active torsions:
REMARK  status: ('A' for Active; 'I' for Inactive)
REMARK    1  A    between atoms: C1_2  and  C2_3 
ROOT
ATOM      1  C2  UNL d   1      -0.019  -1.138   0.075  0.00  0.00    -0.077 A 
ATOM      2  C3  UNL d   1       0.543  -1.394  -1.184  0.00  0.00     0.002 A 
ATOM      3  C4  UNL d   1       0.675  -2.706  -1.645  0.00  0.00     0.002 A 
ATOM      4  C5  UNL d   1       0.244  -3.770  -0.855  0.00  0.00    -0.004 A 
ATOM      5  C6  UNL d   1      -0.313  -3.525   0.399  0.00  0.00     0.002 A 
ATOM      6  C7  UNL d   1      -0.445  -2.215   0.862  0.00  0.00     0.002 A 
ENDROOT
BRANCH   1   7
ATOM      7  C1  UNL d   1      -0.207   0.278   0.553  0.00  0.00     0.055 C 
ATOM      8  C   UNL d   1       0.097   1.280  -0.552  0.00  0.00     0.019 C 
ENDBRANCH   1   7
TORSDOF 1
ENDMDL
