MODEL 1
REMARK minimizedAffinity -5.53941679
REMARK minimizedRMSD -1
REMARK  1 active torsions:
REMARK  status: ('A' for Active; 'I' for Inactive)
REMARK    1  A    between atoms: C1_2  and  C2_3 
ROOT
ATOM      1  C2  UNL d   1      -0.116  -1.563   0.666  0.00  0.00    -0.077 A 
ATOM      2  C3  UNL d   1      -0.976  -0.962   1.595  0.00  0.00     0.002 A 
ATOM      3  C4  UNL d   1      -1.291   0.394   1.492  0.00  0.00     0.002 A 
ATOM      4  C5  UNL d   1      -0.755   1.159   0.458  0.00  0.00    -0.004 A 
ATOM      5  C6  UNL d   1       0.103   0.570  -0.471  0.00  0.00     0.002 A 
ATOM      6  C7  UNL d   1       0.420  -0.785  -0.368  0.00  0.00     0.002 A 
ENDROOT
BRANCH   1   7
ATOM      7  C1  UNL d   1       0.186  -3.037   0.747  0.00  0.00     0.055 C 
ATOM      8  C   UNL d   1      -0.098  -3.734  -0.575  0.00  0.00     0.019 C 
ENDBRANCH   1   7
TORSDOF 1
ENDMDL
