MODEL 1
REMARK minimizedAffinity -4.88397455
REMARK minimizedRMSD -1
REMARK  1 active torsions:
REMARK  status: ('A' for Active; 'I' for Inactive)
REMARK    1  A    between atoms: C1_2  and  C2_3 
ROOT
ATOM      1  C2  UNL d   1       0.197   0.940  -0.026  0.00  0.00    -0.077 A 
ATOM      2  C3  UNL d   1      -0.684   0.612   1.014  0.00  0.00     0.002 A 
ATOM      3  C4  UNL d   1      -0.955  -0.724   1.315  0.00  0.00     0.002 A 
ATOM      4  C5  UNL d   1      -0.348  -1.742   0.583  0.00  0.00    -0.004 A 
ATOM      5  C6  UNL d   1       0.528  -1.426  -0.455  0.00  0.00     0.002 A 
ATOM      6  C7  UNL d   1       0.800  -0.091  -0.758  0.00  0.00     0.002 A 
ENDROOT
BRANCH   1   7
ATOM      7  C1  UNL d   1       0.529   2.380  -0.320  0.00  0.00     0.055 C 
ATOM      8  C   UNL d   1       1.860   2.779   0.301  0.00  0.00     0.019 C 
ENDBRANCH   1   7
TORSDOF 1
ENDMDL
