MODEL 1
REMARK minimizedAffinity -1.73944223
REMARK minimizedRMSD -1
REMARK  0 active torsions:
REMARK  status: ('A' for Active; 'I' for Inactive)
ROOT
ATOM      1  C   UNL d   1      -0.854   1.636   2.765  0.00  0.00     0.023 A 
ATOM      2  C1  UNL d   1       0.446   1.720   2.264  0.00  0.00     0.003 A 
ATOM      3  C2  UNL d   1       0.800   1.007   1.117  0.00  0.00     0.048 A 
ATOM      4  C3  UNL d   1      -0.150   0.214   0.474  0.00  0.00     0.023 A 
ATOM      5  C4  UNL d   1      -1.452   0.129   0.971  0.00  0.00     0.048 A 
ATOM      6  C5  UNL d   1      -1.801   0.842   2.119  0.00  0.00     0.003 A 
ATOM      7  I   UNL d   1       0.375  -0.847  -1.234  0.00  0.00    -0.146 I 
ENDROOT
TORSDOF 0
ENDMDL
