MODEL 1
REMARK minimizedAffinity -3.03553534
REMARK minimizedRMSD -1
REMARK  0 active torsions:
REMARK  status: ('A' for Active; 'I' for Inactive)
ROOT
ATOM      1  C   UNL d   1      -0.677   0.930   1.312  0.00  0.00     0.023 A 
ATOM      2  C1  UNL d   1      -1.975   0.465   1.527  0.00  0.00     0.003 A 
ATOM      3  C2  UNL d   1      -2.451  -0.634   0.811  0.00  0.00     0.048 A 
ATOM      4  C3  UNL d   1      -1.625  -1.265  -0.119  0.00  0.00     0.023 A 
ATOM      5  C4  UNL d   1      -0.326  -0.804  -0.337  0.00  0.00     0.048 A 
ATOM      6  C5  UNL d   1       0.146   0.297   0.381  0.00  0.00     0.003 A 
ATOM      7  I   UNL d   1      -2.333  -2.902  -1.186  0.00  0.00    -0.146 I 
ENDROOT
TORSDOF 0
ENDMDL
