MODEL 1
REMARK minimizedAffinity -1.87549353
REMARK minimizedRMSD -1
REMARK  0 active torsions:
REMARK  status: ('A' for Active; 'I' for Inactive)
ROOT
ATOM      1  C   UNL d   1      -1.509  -2.748  -2.247  0.00  0.00     0.023 A 
ATOM      2  C1  UNL d   1      -0.311  -2.063  -2.446  0.00  0.00     0.003 A 
ATOM      3  C2  UNL d   1       0.096  -1.086  -1.535  0.00  0.00     0.048 A 
ATOM      4  C3  UNL d   1      -0.700  -0.800  -0.426  0.00  0.00     0.023 A 
ATOM      5  C4  UNL d   1      -1.900  -1.484  -0.223  0.00  0.00     0.048 A 
ATOM      6  C5  UNL d   1      -2.303  -2.459  -1.137  0.00  0.00     0.003 A 
ATOM      7  I   UNL d   1      -0.097   0.653   0.932  0.00  0.00    -0.146 I 
ENDROOT
TORSDOF 0
ENDMDL
