MODEL 1
REMARK minimizedAffinity -4.93058681
REMARK minimizedRMSD -1
REMARK  0 active torsions:
REMARK  status: ('A' for Active; 'I' for Inactive)
ROOT
ATOM      1  C   UNL d   1      -1.078   1.136   3.092  0.00  0.00     0.023 A 
ATOM      2  C1  UNL d   1       0.263   0.771   2.970  0.00  0.00     0.003 A 
ATOM      3  C2  UNL d   1       0.701   0.087   1.834  0.00  0.00     0.048 A 
ATOM      4  C3  UNL d   1      -0.206  -0.228   0.824  0.00  0.00     0.023 A 
ATOM      5  C4  UNL d   1      -1.549   0.136   0.941  0.00  0.00     0.048 A 
ATOM      6  C5  UNL d   1      -1.983   0.818   2.079  0.00  0.00     0.003 A 
ATOM      7  I   UNL d   1       0.444  -1.246  -0.868  0.00  0.00    -0.146 I 
ENDROOT
TORSDOF 0
ENDMDL
