MODEL 1
REMARK minimizedAffinity -3.12369275
REMARK minimizedRMSD -1
REMARK  0 active torsions:
REMARK  status: ('A' for Active; 'I' for Inactive)
ROOT
ATOM      1  C   UNL d   1      -1.172   1.414   3.202  0.00  0.00     0.023 A 
ATOM      2  C1  UNL d   1      -0.124   1.844   2.390  0.00  0.00     0.003 A 
ATOM      3  C2  UNL d   1       0.132   1.201   1.177  0.00  0.00     0.048 A 
ATOM      4  C3  UNL d   1      -0.667   0.127   0.782  0.00  0.00     0.023 A 
ATOM      5  C4  UNL d   1      -1.718  -0.307   1.592  0.00  0.00     0.048 A 
ATOM      6  C5  UNL d   1      -1.968   0.339   2.804  0.00  0.00     0.003 A 
ATOM      7  I   UNL d   1      -0.289  -0.832  -1.022  0.00  0.00    -0.146 I 
ENDROOT
TORSDOF 0
ENDMDL
