MODEL 1
REMARK minimizedAffinity -1.85569263
REMARK minimizedRMSD -1
REMARK  0 active torsions:
REMARK  status: ('A' for Active; 'I' for Inactive)
ROOT
ATOM      1  C   UNL d   1       0.271   0.813   1.107  0.00  0.00     0.023 A 
ATOM      2  C1  UNL d   1       0.994   0.086   0.160  0.00  0.00     0.003 A 
ATOM      3  C2  UNL d   1       0.355  -0.887  -0.611  0.00  0.00     0.048 A 
ATOM      4  C3  UNL d   1      -1.006  -1.128  -0.431  0.00  0.00     0.023 A 
ATOM      5  C4  UNL d   1      -1.734  -0.403   0.514  0.00  0.00     0.048 A 
ATOM      6  C5  UNL d   1      -1.091   0.568   1.283  0.00  0.00     0.003 A 
ATOM      7  I   UNL d   1      -1.959  -2.577  -1.578  0.00  0.00    -0.146 I 
ENDROOT
TORSDOF 0
ENDMDL
