MODEL 1
REMARK minimizedAffinity -4.74065447
REMARK minimizedRMSD -1
REMARK  0 active torsions:
REMARK  status: ('A' for Active; 'I' for Inactive)
ROOT
ATOM      1  C   UNL d   1      -1.507  -1.991   4.412  0.00  0.00     0.023 A 
ATOM      2  C1  UNL d   1      -2.364  -1.230   3.618  0.00  0.00     0.003 A 
ATOM      3  C2  UNL d   1      -1.848  -0.229   2.791  0.00  0.00     0.048 A 
ATOM      4  C3  UNL d   1      -0.474   0.004   2.764  0.00  0.00     0.023 A 
ATOM      5  C4  UNL d   1       0.388  -0.755   3.557  0.00  0.00     0.048 A 
ATOM      6  C5  UNL d   1      -0.132  -1.754   4.382  0.00  0.00     0.003 A 
ATOM      7  I   UNL d   1       0.297   1.493   1.535  0.00  0.00    -0.146 I 
ENDROOT
TORSDOF 0
ENDMDL
