MODEL 1
REMARK minimizedAffinity -4.52231455
REMARK minimizedRMSD -1
REMARK  0 active torsions:
REMARK  status: ('A' for Active; 'I' for Inactive)
ROOT
ATOM      1  C   UNL d   1      -1.659   2.366   1.623  0.00  0.00    -0.002 A 
ATOM      2  C1  UNL d   1      -1.643   2.755   0.291  0.00  0.00     0.010 A 
ATOM      3  C2  UNL d   1      -0.929   2.017  -0.655  0.00  0.00     0.041 A 
ATOM      4  C3  UNL d   1      -0.227   0.870  -0.237  0.00  0.00    -0.075 A 
ATOM      5  S   UNL d   1       0.714  -0.188  -1.220  0.00  0.00     0.015 SA
ATOM      6  C4  UNL d   1       1.116  -1.182   0.105  0.00  0.00     0.022 A 
ATOM      7  C5  UNL d   1       0.555  -0.733   1.276  0.00  0.00     0.026 A 
ATOM      8  C6  UNL d   1      -0.229   0.457   1.098  0.00  0.00    -0.082 A 
ATOM      9  C7  UNL d   1      -0.961   1.227   2.034  0.00  0.00     0.045 A 
ENDROOT
TORSDOF 0
ENDMDL
