MODEL 1
REMARK minimizedAffinity -6.19660234
REMARK minimizedRMSD -1
REMARK  0 active torsions:
REMARK  status: ('A' for Active; 'I' for Inactive)
ROOT
ATOM      1  C   UNL d   1      -1.984   3.086   1.158  0.00  0.00    -0.002 A 
ATOM      2  C1  UNL d   1      -1.224   3.798   0.241  0.00  0.00     0.010 A 
ATOM      3  C2  UNL d   1      -0.240   3.158  -0.515  0.00  0.00     0.041 A 
ATOM      4  C3  UNL d   1      -0.032   1.776  -0.333  0.00  0.00    -0.075 A 
ATOM      5  S   UNL d   1       1.117   0.782  -1.149  0.00  0.00     0.015 SA
ATOM      6  C4  UNL d   1       0.625  -0.611  -0.300  0.00  0.00     0.022 A 
ATOM      7  C5  UNL d   1      -0.390  -0.343   0.588  0.00  0.00     0.026 A 
ATOM      8  C6  UNL d   1      -0.785   1.038   0.583  0.00  0.00    -0.082 A 
ATOM      9  C7  UNL d   1      -1.775   1.715   1.335  0.00  0.00     0.045 A 
ENDROOT
TORSDOF 0
ENDMDL
