MODEL 1
REMARK minimizedAffinity -3.99457216
REMARK minimizedRMSD -1
REMARK  0 active torsions:
REMARK  status: ('A' for Active; 'I' for Inactive)
ROOT
ATOM      1  C   UNL d   1      -1.877   1.142   1.803  0.00  0.00    -0.002 A 
ATOM      2  C1  UNL d   1      -1.058   0.056   2.079  0.00  0.00     0.010 A 
ATOM      3  C2  UNL d   1       0.064  -0.206   1.290  0.00  0.00     0.041 A 
ATOM      4  C3  UNL d   1       0.353   0.650   0.210  0.00  0.00    -0.075 A 
ATOM      5  S   UNL d   1       1.674   0.525  -0.891  0.00  0.00     0.015 SA
ATOM      6  C4  UNL d   1       1.184   1.911  -1.753  0.00  0.00     0.022 A 
ATOM      7  C5  UNL d   1       0.042   2.468  -1.228  0.00  0.00     0.026 A 
ATOM      8  C6  UNL d   1      -0.455   1.751  -0.087  0.00  0.00    -0.082 A 
ATOM      9  C7  UNL d   1      -1.586   1.990   0.730  0.00  0.00     0.045 A 
ENDROOT
TORSDOF 0
ENDMDL
