MODEL 1
REMARK minimizedAffinity -5.18534136
REMARK minimizedRMSD -1
REMARK  0 active torsions:
REMARK  status: ('A' for Active; 'I' for Inactive)
ROOT
ATOM      1  C   UNL d   1      -0.899   3.418  -0.109  0.00  0.00    -0.002 A 
ATOM      2  C1  UNL d   1      -1.253   3.148   1.205  0.00  0.00     0.010 A 
ATOM      3  C2  UNL d   1      -1.083   1.869   1.739  0.00  0.00     0.041 A 
ATOM      4  C3  UNL d   1      -0.543   0.857   0.922  0.00  0.00    -0.075 A 
ATOM      5  S   UNL d   1      -0.243  -0.784   1.360  0.00  0.00     0.015 SA
ATOM      6  C4  UNL d   1       0.364  -1.164  -0.186  0.00  0.00     0.022 A 
ATOM      7  C5  UNL d   1       0.345  -0.078  -1.029  0.00  0.00     0.026 A 
ATOM      8  C6  UNL d   1      -0.177   1.104  -0.405  0.00  0.00    -0.082 A 
ATOM      9  C7  UNL d   1      -0.363   2.411  -0.916  0.00  0.00     0.045 A 
ENDROOT
TORSDOF 0
ENDMDL
