MODEL 1
REMARK minimizedAffinity -6.56947565
REMARK minimizedRMSD -1
REMARK  0 active torsions:
REMARK  status: ('A' for Active; 'I' for Inactive)
ROOT
ATOM      1  C   UNL d   1      -2.031   2.568   1.094  0.00  0.00    -0.002 A 
ATOM      2  C1  UNL d   1      -1.708   3.269  -0.059  0.00  0.00     0.010 A 
ATOM      3  C2  UNL d   1      -0.715   2.800  -0.921  0.00  0.00     0.041 A 
ATOM      4  C3  UNL d   1      -0.048   1.600  -0.603  0.00  0.00    -0.075 A 
ATOM      5  S   UNL d   1       1.200   0.833  -1.512  0.00  0.00     0.015 SA
ATOM      6  C4  UNL d   1       1.333  -0.445  -0.392  0.00  0.00     0.022 A 
ATOM      7  C5  UNL d   1       0.454  -0.305   0.656  0.00  0.00     0.026 A 
ATOM      8  C6  UNL d   1      -0.357   0.875   0.551  0.00  0.00    -0.082 A 
ATOM      9  C7  UNL d   1      -1.368   1.378   1.406  0.00  0.00     0.045 A 
ENDROOT
TORSDOF 0
ENDMDL
