MODEL 1
REMARK minimizedAffinity -4.34284592
REMARK minimizedRMSD -1
REMARK  0 active torsions:
REMARK  status: ('A' for Active; 'I' for Inactive)
ROOT
ATOM      1  C   UNL d   1      -1.747   2.921   1.284  0.00  0.00    -0.002 A 
ATOM      2  C1  UNL d   1      -1.023   3.254   0.148  0.00  0.00     0.010 A 
ATOM      3  C2  UNL d   1      -0.197   2.312  -0.468  0.00  0.00     0.041 A 
ATOM      4  C3  UNL d   1      -0.111   1.018   0.081  0.00  0.00    -0.075 A 
ATOM      5  S   UNL d   1       0.836  -0.299  -0.504  0.00  0.00     0.015 SA
ATOM      6  C4  UNL d   1       0.300  -1.334   0.740  0.00  0.00     0.022 A 
ATOM      7  C5  UNL d   1      -0.579  -0.707   1.590  0.00  0.00     0.026 A 
ATOM      8  C6  UNL d   1      -0.831   0.659   1.224  0.00  0.00    -0.082 A 
ATOM      9  C7  UNL d   1      -1.660   1.636   1.826  0.00  0.00     0.045 A 
ENDROOT
TORSDOF 0
ENDMDL
