MODEL 1
REMARK minimizedAffinity -0.195139527
REMARK minimizedRMSD -1
REMARK  0 active torsions:
REMARK  status: ('A' for Active; 'I' for Inactive)
ROOT
ATOM      1  C   UNL d   1      -1.385   2.600   1.966  0.00  0.00    -0.002 A 
ATOM      2  C1  UNL d   1      -1.916   2.898   0.719  0.00  0.00     0.010 A 
ATOM      3  C2  UNL d   1      -1.646   2.081  -0.381  0.00  0.00     0.041 A 
ATOM      4  C3  UNL d   1      -0.828   0.948  -0.204  0.00  0.00    -0.075 A 
ATOM      5  S   UNL d   1      -0.363  -0.196  -1.407  0.00  0.00     0.015 SA
ATOM      6  C4  UNL d   1       0.551  -1.107  -0.293  0.00  0.00     0.022 A 
ATOM      7  C5  UNL d   1       0.513  -0.566   0.970  0.00  0.00     0.026 A 
ATOM      8  C6  UNL d   1      -0.282   0.627   1.042  0.00  0.00    -0.082 A 
ATOM      9  C7  UNL d   1      -0.574   1.476   2.138  0.00  0.00     0.045 A 
ENDROOT
TORSDOF 0
ENDMDL
