MODEL 1
REMARK minimizedAffinity -2.76311517
REMARK minimizedRMSD -1
REMARK  0 active torsions:
REMARK  status: ('A' for Active; 'I' for Inactive)
ROOT
ATOM      1  C   UNL d   1       1.156   3.022  -2.016  0.00  0.00    -0.002 A 
ATOM      2  C1  UNL d   1       0.394   3.874  -1.229  0.00  0.00     0.010 A 
ATOM      3  C2  UNL d   1      -0.195   3.414  -0.049  0.00  0.00     0.041 A 
ATOM      4  C3  UNL d   1      -0.001   2.072   0.331  0.00  0.00    -0.075 A 
ATOM      5  S   UNL d   1      -0.624   1.289   1.735  0.00  0.00     0.015 SA
ATOM      6  C4  UNL d   1       0.108  -0.194   1.324  0.00  0.00     0.022 A 
ATOM      7  C5  UNL d   1       0.814  -0.112   0.148  0.00  0.00     0.026 A 
ATOM      8  C6  UNL d   1       0.764   1.195  -0.444  0.00  0.00    -0.082 A 
ATOM      9  C7  UNL d   1       1.346   1.691  -1.635  0.00  0.00     0.045 A 
ENDROOT
TORSDOF 0
ENDMDL
