MODEL 1
REMARK minimizedAffinity -2.67982197
REMARK minimizedRMSD -1
REMARK  0 active torsions:
REMARK  status: ('A' for Active; 'I' for Inactive)
ROOT
ATOM      1  C   UNL d   1      -1.722   2.113   1.938  0.00  0.00    -0.002 A 
ATOM      2  C1  UNL d   1      -1.521   2.851   0.780  0.00  0.00     0.010 A 
ATOM      3  C2  UNL d   1      -0.742   2.341  -0.260  0.00  0.00     0.041 A 
ATOM      4  C3  UNL d   1      -0.163   1.065  -0.116  0.00  0.00    -0.075 A 
ATOM      5  S   UNL d   1       0.828   0.238  -1.259  0.00  0.00     0.015 SA
ATOM      6  C4  UNL d   1       1.007  -1.114  -0.238  0.00  0.00     0.022 A 
ATOM      7  C5  UNL d   1       0.334  -0.956   0.950  0.00  0.00     0.026 A 
ATOM      8  C6  UNL d   1      -0.352   0.302   1.040  0.00  0.00    -0.082 A 
ATOM      9  C7  UNL d   1      -1.147   0.847   2.077  0.00  0.00     0.045 A 
ENDROOT
TORSDOF 0
ENDMDL
