MODEL 1
REMARK minimizedAffinity -2.42148757
REMARK minimizedRMSD -1
REMARK  0 active torsions:
REMARK  status: ('A' for Active; 'I' for Inactive)
ROOT
ATOM      1  C   UNL d   1      -1.964   2.301   1.915  0.00  0.00    -0.002 A 
ATOM      2  C1  UNL d   1      -2.126   2.479   0.548  0.00  0.00     0.010 A 
ATOM      3  C2  UNL d   1      -1.459   1.655  -0.360  0.00  0.00     0.041 A 
ATOM      4  C3  UNL d   1      -0.620   0.637   0.133  0.00  0.00    -0.075 A 
ATOM      5  S   UNL d   1       0.297  -0.494  -0.792  0.00  0.00     0.015 SA
ATOM      6  C4  UNL d   1       0.925  -1.241   0.606  0.00  0.00     0.022 A 
ATOM      7  C5  UNL d   1       0.457  -0.655   1.758  0.00  0.00     0.026 A 
ATOM      8  C6  UNL d   1      -0.441   0.437   1.505  0.00  0.00    -0.082 A 
ATOM      9  C7  UNL d   1      -1.130   1.290   2.400  0.00  0.00     0.045 A 
ENDROOT
TORSDOF 0
ENDMDL
