MODEL 1
REMARK minimizedAffinity -1.6164422
REMARK minimizedRMSD -1
REMARK  0 active torsions:
REMARK  status: ('A' for Active; 'I' for Inactive)
ROOT
ATOM      1  C   UNL d   1      -2.045   0.952   1.905  0.00  0.00    -0.002 A 
ATOM      2  C1  UNL d   1      -2.123   2.156   1.219  0.00  0.00     0.010 A 
ATOM      3  C2  UNL d   1      -1.222   2.449   0.193  0.00  0.00     0.041 A 
ATOM      4  C3  UNL d   1      -0.234   1.501  -0.137  0.00  0.00    -0.075 A 
ATOM      5  S   UNL d   1       0.975   1.642  -1.358  0.00  0.00     0.015 SA
ATOM      6  C4  UNL d   1       1.623   0.107  -0.999  0.00  0.00     0.022 A 
ATOM      7  C5  UNL d   1       0.946  -0.512   0.025  0.00  0.00     0.026 A 
ATOM      8  C6  UNL d   1      -0.135   0.281   0.538  0.00  0.00    -0.082 A 
ATOM      9  C7  UNL d   1      -1.062   0.014   1.574  0.00  0.00     0.045 A 
ENDROOT
TORSDOF 0
ENDMDL
