MODEL 1
REMARK minimizedAffinity 0.377774209
REMARK minimizedRMSD -1
REMARK  0 active torsions:
REMARK  status: ('A' for Active; 'I' for Inactive)
ROOT
ATOM      1  C   UNL d   1      -1.006   0.484   2.348  0.00  0.00    -0.002 A 
ATOM      2  C1  UNL d   1      -0.384  -0.691   1.952  0.00  0.00     0.010 A 
ATOM      3  C2  UNL d   1       0.345  -0.744   0.763  0.00  0.00     0.041 A 
ATOM      4  C3  UNL d   1       0.441   0.417  -0.030  0.00  0.00    -0.075 A 
ATOM      5  S   UNL d   1       1.281   0.587  -1.526  0.00  0.00     0.015 SA
ATOM      6  C4  UNL d   1       0.835   2.225  -1.675  0.00  0.00     0.022 A 
ATOM      7  C5  UNL d   1       0.063   2.648  -0.619  0.00  0.00     0.026 A 
ATOM      8  C6  UNL d   1      -0.176   1.613   0.347  0.00  0.00    -0.082 A 
ATOM      9  C7  UNL d   1      -0.908   1.634   1.559  0.00  0.00     0.045 A 
ENDROOT
TORSDOF 0
ENDMDL
