MODEL 1
REMARK minimizedAffinity 0.0717286989
REMARK minimizedRMSD -1
REMARK  1 active torsions:
REMARK  status: ('A' for Active; 'I' for Inactive)
REMARK    1  A    between atoms: C3_4  and  O_7 
ROOT
ATOM      1  C   UNL d   1      -3.195  -0.008  -5.909  0.00  0.00    -0.033 A 
ATOM      2  C1  UNL d   1      -2.367   1.113  -5.998  0.00  0.00     0.039 A 
ATOM      3  C2  UNL d   1      -2.910   2.395  -5.896  0.00  0.00    -0.080 A 
ATOM      4  C3  UNL d   1      -4.281   2.542  -5.704  0.00  0.00     0.150 A 
ATOM      5  C4  UNL d   1      -5.112   1.430  -5.611  0.00  0.00    -0.007 A 
ATOM      6  C5  UNL d   1      -4.567   0.151  -5.714  0.00  0.00     0.039 A 
ENDROOT
BRANCH   4   7
ATOM      7  O   UNL d   1      -4.858   3.773  -5.603  0.00  0.00    -0.526 OA
ATOM      8  H5  UNL d   1      -4.167   4.447  -5.715  0.00  0.00     0.418 HD
ENDBRANCH   4   7
TORSDOF 1
ENDMDL
