MODEL 1
REMARK minimizedAffinity -1.53548408
REMARK minimizedRMSD -1
REMARK  1 active torsions:
REMARK  status: ('A' for Active; 'I' for Inactive)
REMARK    1  A    between atoms: C3_4  and  O_7 
ROOT
ATOM      1  C   UNL d   1      -2.487   1.611  -5.985  0.00  0.00    -0.033 A 
ATOM      2  C1  UNL d   1      -3.712   0.941  -5.995  0.00  0.00     0.039 A 
ATOM      3  C2  UNL d   1      -4.906   1.665  -5.998  0.00  0.00    -0.080 A 
ATOM      4  C3  UNL d   1      -4.861   3.057  -5.992  0.00  0.00     0.150 A 
ATOM      5  C4  UNL d   1      -3.644   3.730  -5.986  0.00  0.00    -0.007 A 
ATOM      6  C5  UNL d   1      -2.453   3.006  -5.982  0.00  0.00     0.039 A 
ENDROOT
BRANCH   4   7
ATOM      7  O   UNL d   1      -5.999   3.806  -5.989  0.00  0.00    -0.526 OA
ATOM      8  H5  UNL d   1      -6.763   3.206  -5.965  0.00  0.00     0.418 HD
ENDBRANCH   4   7
TORSDOF 1
ENDMDL
