MODEL 1
REMARK minimizedAffinity 0.0779162273
REMARK minimizedRMSD -1
REMARK  1 active torsions:
REMARK  status: ('A' for Active; 'I' for Inactive)
REMARK    1  A    between atoms: C3_4  and  O_7 
ROOT
ATOM      1  C   UNL d   1       1.620   1.148  -0.331  0.00  0.00    -0.033 A 
ATOM      2  C1  UNL d   1       0.965  -0.085  -0.356  0.00  0.00     0.039 A 
ATOM      3  C2  UNL d   1       1.652  -1.234  -0.752  0.00  0.00    -0.080 A 
ATOM      4  C3  UNL d   1       2.992  -1.137  -1.117  0.00  0.00     0.150 A 
ATOM      5  C4  UNL d   1       3.652   0.087  -1.090  0.00  0.00    -0.007 A 
ATOM      6  C5  UNL d   1       2.964   1.234  -0.696  0.00  0.00     0.039 A 
ENDROOT
BRANCH   4   7
ATOM      7  O   UNL d   1       3.703  -2.231  -1.515  0.00  0.00    -0.526 OA
ATOM      8  H5  UNL d   1       3.110  -3.001  -1.512  0.00  0.00     0.418 HD
ENDBRANCH   4   7
TORSDOF 1
ENDMDL
