MODEL 1
REMARK minimizedAffinity -3.95755076
REMARK minimizedRMSD -1
REMARK  1 active torsions:
REMARK  status: ('A' for Active; 'I' for Inactive)
REMARK    1  A    between atoms: C3_4  and  O_7 
ROOT
ATOM      1  C   UNL d   1      -3.518  -0.028  -5.994  0.00  0.00    -0.033 A 
ATOM      2  C1  UNL d   1      -4.912   0.039  -5.998  0.00  0.00     0.039 A 
ATOM      3  C2  UNL d   1      -5.554   1.279  -5.975  0.00  0.00    -0.080 A 
ATOM      4  C3  UNL d   1      -4.790   2.442  -5.949  0.00  0.00     0.150 A 
ATOM      5  C4  UNL d   1      -3.400   2.383  -5.948  0.00  0.00    -0.007 A 
ATOM      6  C5  UNL d   1      -2.762   1.144  -5.970  0.00  0.00     0.039 A 
ENDROOT
BRANCH   4   7
ATOM      7  O   UNL d   1      -5.371   3.675  -5.920  0.00  0.00    -0.526 OA
ATOM      8  H5  UNL d   1      -6.336   3.561  -5.895  0.00  0.00     0.418 HD
ENDBRANCH   4   7
TORSDOF 1
ENDMDL
