MODEL 1
REMARK minimizedAffinity -2.79195714
REMARK minimizedRMSD -1
REMARK  1 active torsions:
REMARK  status: ('A' for Active; 'I' for Inactive)
REMARK    1  A    between atoms: C3_4  and  O_7 
ROOT
ATOM      1  C   UNL d   1      -4.147  -2.136  -5.996  0.00  0.00    -0.033 A 
ATOM      2  C1  UNL d   1      -4.584  -3.462  -5.997  0.00  0.00     0.039 A 
ATOM      3  C2  UNL d   1      -3.656  -4.505  -5.967  0.00  0.00    -0.080 A 
ATOM      4  C3  UNL d   1      -2.296  -4.208  -5.935  0.00  0.00     0.150 A 
ATOM      5  C4  UNL d   1      -1.854  -2.889  -5.929  0.00  0.00    -0.007 A 
ATOM      6  C5  UNL d   1      -2.782  -1.849  -5.961  0.00  0.00     0.039 A 
ENDROOT
BRANCH   4   7
ATOM      7  O   UNL d   1      -1.353  -5.192  -5.909  0.00  0.00    -0.526 OA
ATOM      8  H5  UNL d   1      -1.804  -6.052  -5.946  0.00  0.00     0.418 HD
ENDBRANCH   4   7
TORSDOF 1
ENDMDL
