MODEL 1
REMARK minimizedAffinity -3.9766674
REMARK minimizedRMSD -1
REMARK  1 active torsions:
REMARK  status: ('A' for Active; 'I' for Inactive)
REMARK    1  A    between atoms: C3_4  and  O_7 
ROOT
ATOM      1  C   UNL d   1      -5.449   0.332  -5.999  0.00  0.00    -0.033 A 
ATOM      2  C1  UNL d   1      -4.078   0.069  -5.999  0.00  0.00     0.039 A 
ATOM      3  C2  UNL d   1      -3.163   1.123  -5.958  0.00  0.00    -0.080 A 
ATOM      4  C3  UNL d   1      -3.631   2.433  -5.916  0.00  0.00     0.150 A 
ATOM      5  C4  UNL d   1      -4.996   2.703  -5.911  0.00  0.00    -0.007 A 
ATOM      6  C5  UNL d   1      -5.908   1.649  -5.953  0.00  0.00     0.039 A 
ENDROOT
BRANCH   4   7
ATOM      7  O   UNL d   1      -2.777   3.495  -5.879  0.00  0.00    -0.526 OA
ATOM      8  H5  UNL d   1      -1.866   3.158  -5.917  0.00  0.00     0.418 HD
ENDBRANCH   4   7
TORSDOF 1
ENDMDL
