MODEL 1
REMARK minimizedAffinity -0.282223612
REMARK minimizedRMSD -1
REMARK  1 active torsions:
REMARK  status: ('A' for Active; 'I' for Inactive)
REMARK    1  A    between atoms: C3_4  and  O_7 
ROOT
ATOM      1  C   UNL d   1      -4.870   0.994  -5.999  0.00  0.00    -0.033 A 
ATOM      2  C1  UNL d   1      -3.475   1.050  -5.997  0.00  0.00     0.039 A 
ATOM      3  C2  UNL d   1      -2.824   2.285  -5.996  0.00  0.00    -0.080 A 
ATOM      4  C3  UNL d   1      -3.578   3.455  -5.996  0.00  0.00     0.150 A 
ATOM      5  C4  UNL d   1      -4.968   3.407  -5.994  0.00  0.00    -0.007 A 
ATOM      6  C5  UNL d   1      -5.617   2.173  -5.996  0.00  0.00     0.039 A 
ENDROOT
BRANCH   4   7
ATOM      7  O   UNL d   1      -2.987   4.684  -6.000  0.00  0.00    -0.526 OA
ATOM      8  H5  UNL d   1      -2.024   4.562  -6.030  0.00  0.00     0.418 HD
ENDBRANCH   4   7
TORSDOF 1
ENDMDL
