MODEL 1
REMARK minimizedAffinity -1.68785453
REMARK minimizedRMSD -1
REMARK  1 active torsions:
REMARK  status: ('A' for Active; 'I' for Inactive)
REMARK    1  A    between atoms: C3_4  and  O_7 
ROOT
ATOM      1  C   UNL d   1      -5.394   3.094  -5.988  0.00  0.00    -0.033 A 
ATOM      2  C1  UNL d   1      -4.200   3.818  -5.983  0.00  0.00     0.039 A 
ATOM      3  C2  UNL d   1      -2.975   3.148  -5.983  0.00  0.00    -0.080 A 
ATOM      4  C3  UNL d   1      -2.958   1.756  -5.990  0.00  0.00     0.150 A 
ATOM      5  C4  UNL d   1      -4.143   1.029  -5.999  0.00  0.00    -0.007 A 
ATOM      6  C5  UNL d   1      -5.366   1.699  -5.998  0.00  0.00     0.039 A 
ENDROOT
BRANCH   4   7
ATOM      7  O   UNL d   1      -1.787   1.058  -5.985  0.00  0.00    -0.526 OA
ATOM      8  H5  UNL d   1      -1.051   1.692  -5.949  0.00  0.00     0.418 HD
ENDBRANCH   4   7
TORSDOF 1
ENDMDL
