MODEL 1
REMARK minimizedAffinity -4.0010376
REMARK minimizedRMSD -1
REMARK  1 active torsions:
REMARK  status: ('A' for Active; 'I' for Inactive)
REMARK    1  A    between atoms: C3_4  and  O_7 
ROOT
ATOM      1  C   UNL d   1      -5.212   0.128  -5.932  0.00  0.00    -0.033 A 
ATOM      2  C1  UNL d   1      -5.999   1.271  -5.775  0.00  0.00     0.039 A 
ATOM      3  C2  UNL d   1      -5.396   2.525  -5.661  0.00  0.00    -0.080 A 
ATOM      4  C3  UNL d   1      -4.008   2.623  -5.705  0.00  0.00     0.150 A 
ATOM      5  C4  UNL d   1      -3.218   1.489  -5.865  0.00  0.00    -0.007 A 
ATOM      6  C5  UNL d   1      -3.822   0.237  -5.978  0.00  0.00     0.039 A 
ENDROOT
BRANCH   4   7
ATOM      7  O   UNL d   1      -3.374   3.824  -5.592  0.00  0.00    -0.526 OA
ATOM      8  H5  UNL d   1      -4.045   4.515  -5.458  0.00  0.00     0.418 HD
ENDBRANCH   4   7
TORSDOF 1
ENDMDL
