MODEL 1
REMARK minimizedAffinity -0.84793973
REMARK minimizedRMSD -1
REMARK  1 active torsions:
REMARK  status: ('A' for Active; 'I' for Inactive)
REMARK    1  A    between atoms: C3_4  and  O_7 
ROOT
ATOM      1  C   UNL d   1      -2.419   1.556  -5.999  0.00  0.00    -0.033 A 
ATOM      2  C1  UNL d   1      -2.391   2.952  -5.973  0.00  0.00     0.039 A 
ATOM      3  C2  UNL d   1      -3.585   3.675  -5.950  0.00  0.00    -0.080 A 
ATOM      4  C3  UNL d   1      -4.798   2.992  -5.952  0.00  0.00     0.150 A 
ATOM      5  C4  UNL d   1      -4.833   1.602  -5.974  0.00  0.00    -0.007 A 
ATOM      6  C5  UNL d   1      -3.640   0.881  -5.998  0.00  0.00     0.039 A 
ENDROOT
BRANCH   4   7
ATOM      7  O   UNL d   1      -5.989   3.655  -5.934  0.00  0.00    -0.526 OA
ATOM      8  H5  UNL d   1      -5.810   4.610  -5.949  0.00  0.00     0.418 HD
ENDBRANCH   4   7
TORSDOF 1
ENDMDL
