MODEL 1
REMARK minimizedAffinity -3.32058668
REMARK minimizedRMSD -1
REMARK  1 active torsions:
REMARK  status: ('A' for Active; 'I' for Inactive)
REMARK    1  A    between atoms: C3_4  and  O_7 
ROOT
ATOM      1  C   UNL d   1      -4.974  -0.272  -5.975  0.00  0.00    -0.033 A 
ATOM      2  C1  UNL d   1      -3.596  -0.048  -6.000  0.00  0.00     0.039 A 
ATOM      3  C2  UNL d   1      -3.099   1.257  -5.999  0.00  0.00    -0.080 A 
ATOM      4  C3  UNL d   1      -3.989   2.327  -5.971  0.00  0.00     0.150 A 
ATOM      5  C4  UNL d   1      -5.363   2.111  -5.942  0.00  0.00    -0.007 A 
ATOM      6  C5  UNL d   1      -5.858   0.807  -5.945  0.00  0.00     0.039 A 
ENDROOT
BRANCH   4   7
ATOM      7  O   UNL d   1      -3.551   3.618  -5.974  0.00  0.00    -0.526 OA
ATOM      8  H5  UNL d   1      -2.581   3.614  -6.025  0.00  0.00     0.418 HD
ENDBRANCH   4   7
TORSDOF 1
ENDMDL
