MODEL 1
REMARK minimizedAffinity -2.94646835
REMARK minimizedRMSD -1
REMARK  1 active torsions:
REMARK  status: ('A' for Active; 'I' for Inactive)
REMARK    1  A    between atoms: C3_4  and  O_7 
ROOT
ATOM      1  C   UNL d   1      -4.321   0.593  -5.999  0.00  0.00    -0.033 A 
ATOM      2  C1  UNL d   1      -3.005   1.059  -5.993  0.00  0.00     0.039 A 
ATOM      3  C2  UNL d   1      -2.728   2.367  -5.590  0.00  0.00    -0.080 A 
ATOM      4  C3  UNL d   1      -3.774   3.196  -5.196  0.00  0.00     0.150 A 
ATOM      5  C4  UNL d   1      -5.087   2.737  -5.196  0.00  0.00    -0.007 A 
ATOM      6  C5  UNL d   1      -5.362   1.431  -5.599  0.00  0.00     0.039 A 
ENDROOT
BRANCH   4   7
ATOM      7  O   UNL d   1      -3.554   4.482  -4.799  0.00  0.00    -0.526 OA
ATOM      8  H5  UNL d   1      -2.603   4.669  -4.877  0.00  0.00     0.418 HD
ENDBRANCH   4   7
TORSDOF 1
ENDMDL
