MODEL 1
REMARK minimizedAffinity -1.77702904
REMARK minimizedRMSD -1
REMARK  2 active torsions:
REMARK  status: ('A' for Active; 'I' for Inactive)
REMARK    1  A    between atoms: C1_2  and  C2_3 
REMARK    2  A    between atoms: C2_3  and  C3_4 
ROOT
ATOM      1  C3  UNL d   1       0.232   0.284   1.024  0.00  0.00    -0.075 A 
ATOM      2  C4  UNL d   1       1.413   0.322   1.779  0.00  0.00     0.002 A 
ATOM      3  C5  UNL d   1       2.592  -0.230   1.278  0.00  0.00     0.002 A 
ATOM      4  C6  UNL d   1       2.604  -0.834   0.023  0.00  0.00    -0.004 A 
ATOM      5  C7  UNL d   1       1.432  -0.892  -0.729  0.00  0.00     0.002 A 
ATOM      6  C8  UNL d   1       0.252  -0.337  -0.232  0.00  0.00     0.002 A 
ENDROOT
BRANCH   1   7
ATOM      7  C2  UNL d   1      -1.041   0.905   1.548  0.00  0.00     0.056 C 
BRANCH   7   8
ATOM      8  C1  UNL d   1      -1.202   0.808   3.068  0.00  0.00     0.007 C 
ATOM      9  C   UNL d   1      -0.706   2.046   3.805  0.00  0.00     0.009 C 
ENDBRANCH   7   8
ENDBRANCH   1   7
TORSDOF 2
ENDMDL
