MODEL 1
REMARK minimizedAffinity 3.71380687
REMARK minimizedRMSD -1
REMARK  2 active torsions:
REMARK  status: ('A' for Active; 'I' for Inactive)
REMARK    1  A    between atoms: C1_2  and  C2_3 
REMARK    2  A    between atoms: C2_3  and  C3_4 
ROOT
ATOM      1  C3  UNL d   1      -0.055  -0.252   0.872  0.00  0.00    -0.075 A 
ATOM      2  C4  UNL d   1      -1.418   0.076   0.869  0.00  0.00     0.002 A 
ATOM      3  C5  UNL d   1      -2.179  -0.049   2.031  0.00  0.00     0.002 A 
ATOM      4  C6  UNL d   1      -1.591  -0.511   3.206  0.00  0.00    -0.004 A 
ATOM      5  C7  UNL d   1      -0.241  -0.856   3.217  0.00  0.00     0.002 A 
ATOM      6  C8  UNL d   1       0.524  -0.728   2.056  0.00  0.00     0.002 A 
ENDROOT
BRANCH   1   7
ATOM      7  C2  UNL d   1       0.781  -0.092  -0.375  0.00  0.00     0.056 C 
BRANCH   7   8
ATOM      8  C1  UNL d   1       2.268   0.157  -0.102  0.00  0.00     0.007 C 
ATOM      9  C   UNL d   1       2.569   1.588   0.325  0.00  0.00     0.009 C 
ENDBRANCH   7   8
ENDBRANCH   1   7
TORSDOF 2
ENDMDL
