MODEL 1
REMARK minimizedAffinity -2.05180883
REMARK minimizedRMSD -1
REMARK  2 active torsions:
REMARK  status: ('A' for Active; 'I' for Inactive)
REMARK    1  A    between atoms: C1_2  and  C2_3 
REMARK    2  A    between atoms: C2_3  and  C3_4 
ROOT
ATOM      1  C3  UNL d   1       0.227   0.076  -0.072  0.00  0.00    -0.075 A 
ATOM      2  C4  UNL d   1      -0.068   0.557   1.212  0.00  0.00     0.002 A 
ATOM      3  C5  UNL d   1      -1.360   0.453   1.728  0.00  0.00     0.002 A 
ATOM      4  C6  UNL d   1      -2.374  -0.121   0.965  0.00  0.00    -0.004 A 
ATOM      5  C7  UNL d   1      -2.097  -0.588  -0.318  0.00  0.00     0.002 A 
ATOM      6  C8  UNL d   1      -0.804  -0.489  -0.835  0.00  0.00     0.002 A 
ENDROOT
BRANCH   1   7
ATOM      7  C2  UNL d   1       1.629   0.158  -0.625  0.00  0.00     0.056 C 
BRANCH   7   8
ATOM      8  C1  UNL d   1       2.649   0.759   0.347  0.00  0.00     0.007 C 
ATOM      9  C   UNL d   1       3.014   2.201   0.020  0.00  0.00     0.009 C 
ENDBRANCH   7   8
ENDBRANCH   1   7
TORSDOF 2
ENDMDL
