MODEL 1
REMARK minimizedAffinity -2.27336073
REMARK minimizedRMSD -1
REMARK  2 active torsions:
REMARK  status: ('A' for Active; 'I' for Inactive)
REMARK    1  A    between atoms: C1_2  and  C2_3 
REMARK    2  A    between atoms: C2_3  and  C3_4 
ROOT
ATOM      1  C3  UNL d   1       0.579  -0.175   0.734  0.00  0.00    -0.075 A 
ATOM      2  C4  UNL d   1       0.652  -0.630   2.058  0.00  0.00     0.002 A 
ATOM      3  C5  UNL d   1      -0.455  -0.531   2.902  0.00  0.00     0.002 A 
ATOM      4  C6  UNL d   1      -1.642   0.031   2.437  0.00  0.00    -0.004 A 
ATOM      5  C7  UNL d   1      -1.719   0.502   1.128  0.00  0.00     0.002 A 
ATOM      6  C8  UNL d   1      -0.615   0.400   0.280  0.00  0.00     0.002 A 
ENDROOT
BRANCH   1   7
ATOM      7  C2  UNL d   1       1.764  -0.305  -0.194  0.00  0.00     0.056 C 
BRANCH   7   8
ATOM      8  C1  UNL d   1       2.523   1.006  -0.424  0.00  0.00     0.007 C 
ATOM      9  C   UNL d   1       2.570   1.897   0.809  0.00  0.00     0.009 C 
ENDBRANCH   7   8
ENDBRANCH   1   7
TORSDOF 2
ENDMDL
