MODEL 1
REMARK minimizedAffinity -0.330814213
REMARK minimizedRMSD -1
REMARK  2 active torsions:
REMARK  status: ('A' for Active; 'I' for Inactive)
REMARK    1  A    between atoms: C1_2  and  C2_3 
REMARK    2  A    between atoms: C2_3  and  C3_4 
ROOT
ATOM      1  C3  UNL d   1       0.427  -0.263   1.633  0.00  0.00    -0.075 A 
ATOM      2  C4  UNL d   1       0.584  -0.888   2.878  0.00  0.00     0.002 A 
ATOM      3  C5  UNL d   1      -0.513  -1.082   3.717  0.00  0.00     0.002 A 
ATOM      4  C6  UNL d   1      -1.777  -0.645   3.327  0.00  0.00    -0.004 A 
ATOM      5  C7  UNL d   1      -1.942  -0.007   2.100  0.00  0.00     0.002 A 
ATOM      6  C8  UNL d   1      -0.846   0.184   1.256  0.00  0.00     0.002 A 
ENDROOT
BRANCH   1   7
ATOM      7  C2  UNL d   1       1.606  -0.077   0.708  0.00  0.00     0.056 C 
BRANCH   7   8
ATOM      8  C1  UNL d   1       2.344   1.253   0.897  0.00  0.00     0.007 C 
ATOM      9  C   UNL d   1       3.332   1.556  -0.222  0.00  0.00     0.009 C 
ENDBRANCH   7   8
ENDBRANCH   1   7
TORSDOF 2
ENDMDL
