MODEL 1
REMARK minimizedAffinity -0.346761614
REMARK minimizedRMSD -1
REMARK  2 active torsions:
REMARK  status: ('A' for Active; 'I' for Inactive)
REMARK    1  A    between atoms: C1_2  and  C2_3 
REMARK    2  A    between atoms: C2_3  and  C3_4 
ROOT
ATOM      1  C3  UNL d   1      -1.084  -0.333   2.675  0.00  0.00    -0.075 A 
ATOM      2  C4  UNL d   1      -2.323   0.170   2.250  0.00  0.00     0.002 A 
ATOM      3  C5  UNL d   1      -2.562   0.415   0.897  0.00  0.00     0.002 A 
ATOM      4  C6  UNL d   1      -1.565   0.171  -0.045  0.00  0.00    -0.004 A 
ATOM      5  C7  UNL d   1      -0.325  -0.313   0.368  0.00  0.00     0.002 A 
ATOM      6  C8  UNL d   1      -0.085  -0.563   1.720  0.00  0.00     0.002 A 
ENDROOT
BRANCH   1   7
ATOM      7  C2  UNL d   1      -0.829  -0.628   4.133  0.00  0.00     0.056 C 
BRANCH   7   8
ATOM      8  C1  UNL d   1      -1.069  -2.090   4.525  0.00  0.00     0.007 C 
ATOM      9  C   UNL d   1      -2.512  -2.535   4.331  0.00  0.00     0.009 C 
ENDBRANCH   7   8
ENDBRANCH   1   7
TORSDOF 2
ENDMDL
