MODEL 1
REMARK minimizedAffinity -4.83602715
REMARK minimizedRMSD -1
REMARK  2 active torsions:
REMARK  status: ('A' for Active; 'I' for Inactive)
REMARK    1  A    between atoms: C1_2  and  C2_3 
REMARK    2  A    between atoms: C2_3  and  C3_4 
ROOT
ATOM      1  C3  UNL d   1      -0.221   0.341   1.127  0.00  0.00    -0.075 A 
ATOM      2  C4  UNL d   1      -0.598   0.542   2.463  0.00  0.00     0.002 A 
ATOM      3  C5  UNL d   1      -1.834   0.089   2.925  0.00  0.00     0.002 A 
ATOM      4  C6  UNL d   1      -2.711  -0.559   2.058  0.00  0.00    -0.004 A 
ATOM      5  C7  UNL d   1      -2.354  -0.749   0.725  0.00  0.00     0.002 A 
ATOM      6  C8  UNL d   1      -1.116  -0.301   0.261  0.00  0.00     0.002 A 
ENDROOT
BRANCH   1   7
ATOM      7  C2  UNL d   1       1.127   0.803   0.627  0.00  0.00     0.056 C 
BRANCH   7   8
ATOM      8  C1  UNL d   1       2.305  -0.016   1.165  0.00  0.00     0.007 C 
ATOM      9  C   UNL d   1       1.946  -1.467   1.454  0.00  0.00     0.009 C 
ENDBRANCH   7   8
ENDBRANCH   1   7
TORSDOF 2
ENDMDL
