MODEL 1
REMARK minimizedAffinity -1.52075601
REMARK minimizedRMSD -1
REMARK  2 active torsions:
REMARK  status: ('A' for Active; 'I' for Inactive)
REMARK    1  A    between atoms: C1_2  and  C2_3 
REMARK    2  A    between atoms: C2_3  and  C3_4 
ROOT
ATOM      1  C3  UNL d   1      -0.059  -0.407   0.142  0.00  0.00    -0.075 A 
ATOM      2  C4  UNL d   1      -0.865   0.626   0.642  0.00  0.00     0.002 A 
ATOM      3  C5  UNL d   1      -2.249   0.590   0.473  0.00  0.00     0.002 A 
ATOM      4  C6  UNL d   1      -2.844  -0.472  -0.205  0.00  0.00    -0.004 A 
ATOM      5  C7  UNL d   1      -2.052  -1.495  -0.721  0.00  0.00     0.002 A 
ATOM      6  C8  UNL d   1      -0.667  -1.464  -0.550  0.00  0.00     0.002 A 
ENDROOT
BRANCH   1   7
ATOM      7  C2  UNL d   1       1.437  -0.389   0.347  0.00  0.00     0.056 C 
BRANCH   7   8
ATOM      8  C1  UNL d   1       2.050   1.016   0.343  0.00  0.00     0.007 C 
ATOM      9  C   UNL d   1       3.252   1.143  -0.582  0.00  0.00     0.009 C 
ENDBRANCH   7   8
ENDBRANCH   1   7
TORSDOF 2
ENDMDL
