MODEL 1
REMARK minimizedAffinity -2.2673924
REMARK minimizedRMSD -1
REMARK  2 active torsions:
REMARK  status: ('A' for Active; 'I' for Inactive)
REMARK    1  A    between atoms: C1_2  and  C2_3 
REMARK    2  A    between atoms: C2_3  and  C3_4 
ROOT
ATOM      1  C3  UNL d   1       0.164  -0.354   0.941  0.00  0.00    -0.075 A 
ATOM      2  C4  UNL d   1      -0.723  -0.195   2.016  0.00  0.00     0.002 A 
ATOM      3  C5  UNL d   1      -2.098  -0.332   1.826  0.00  0.00     0.002 A 
ATOM      4  C6  UNL d   1      -2.605  -0.618   0.560  0.00  0.00    -0.004 A 
ATOM      5  C7  UNL d   1      -1.734  -0.762  -0.518  0.00  0.00     0.002 A 
ATOM      6  C8  UNL d   1      -0.357  -0.630  -0.330  0.00  0.00     0.002 A 
ENDROOT
BRANCH   1   7
ATOM      7  C2  UNL d   1       1.655  -0.237   1.146  0.00  0.00     0.056 C 
BRANCH   7   8
ATOM      8  C1  UNL d   1       2.487  -1.063   0.160  0.00  0.00     0.007 C 
ATOM      9  C   UNL d   1       3.722  -0.330  -0.347  0.00  0.00     0.009 C 
ENDBRANCH   7   8
ENDBRANCH   1   7
TORSDOF 2
ENDMDL
