MODEL 1
REMARK minimizedAffinity 0.51244694
REMARK minimizedRMSD -1
REMARK  2 active torsions:
REMARK  status: ('A' for Active; 'I' for Inactive)
REMARK    1  A    between atoms: C1_2  and  C2_3 
REMARK    2  A    between atoms: C2_3  and  C3_4 
ROOT
ATOM      1  C3  UNL d   1       3.589   1.059  -2.123  0.00  0.00    -0.075 A 
ATOM      2  C4  UNL d   1       4.740   0.349  -2.494  0.00  0.00     0.002 A 
ATOM      3  C5  UNL d   1       5.487  -0.339  -1.537  0.00  0.00     0.002 A 
ATOM      4  C6  UNL d   1       5.099  -0.317  -0.199  0.00  0.00    -0.004 A 
ATOM      5  C7  UNL d   1       3.967   0.400   0.183  0.00  0.00     0.002 A 
ATOM      6  C8  UNL d   1       3.216   1.085  -0.773  0.00  0.00     0.002 A 
ENDROOT
BRANCH   1   7
ATOM      7  C2  UNL d   1       2.761   1.781  -3.159  0.00  0.00     0.056 C 
BRANCH   7   8
ATOM      8  C1  UNL d   1       2.144   0.860  -4.217  0.00  0.00     0.007 C 
ATOM      9  C   UNL d   1       0.649   0.643  -4.026  0.00  0.00     0.009 C 
ENDBRANCH   7   8
ENDBRANCH   1   7
TORSDOF 2
ENDMDL
