MODEL 1
REMARK minimizedAffinity -2.69756794
REMARK minimizedRMSD -1
REMARK  2 active torsions:
REMARK  status: ('A' for Active; 'I' for Inactive)
REMARK    1  A    between atoms: C1_2  and  C2_3 
REMARK    2  A    between atoms: C2_3  and  C3_4 
ROOT
ATOM      1  C3  UNL d   1      -1.017  -0.086   2.415  0.00  0.00    -0.075 A 
ATOM      2  C4  UNL d   1      -2.321  -0.005   1.907  0.00  0.00     0.002 A 
ATOM      3  C5  UNL d   1      -2.570  -0.236   0.554  0.00  0.00     0.002 A 
ATOM      4  C6  UNL d   1      -1.520  -0.541  -0.309  0.00  0.00    -0.004 A 
ATOM      5  C7  UNL d   1      -0.217  -0.609   0.182  0.00  0.00     0.002 A 
ATOM      6  C8  UNL d   1       0.034  -0.382   1.536  0.00  0.00     0.002 A 
ENDROOT
BRANCH   1   7
ATOM      7  C2  UNL d   1      -0.744   0.135   3.884  0.00  0.00     0.056 C 
BRANCH   7   8
ATOM      8  C1  UNL d   1       0.021  -1.010   4.555  0.00  0.00     0.007 C 
ATOM      9  C   UNL d   1       0.399  -0.714   6.000  0.00  0.00     0.009 C 
ENDBRANCH   7   8
ENDBRANCH   1   7
TORSDOF 2
ENDMDL
