MODEL 1
REMARK minimizedAffinity -1.77940059
REMARK minimizedRMSD -1
REMARK  2 active torsions:
REMARK  status: ('A' for Active; 'I' for Inactive)
REMARK    1  A    between atoms: C1_2  and  C2_3 
REMARK    2  A    between atoms: C2_3  and  C3_4 
ROOT
ATOM      1  C3  UNL d   1      -0.713  -0.323   2.637  0.00  0.00    -0.075 A 
ATOM      2  C4  UNL d   1      -1.929  -0.023   2.005  0.00  0.00     0.002 A 
ATOM      3  C5  UNL d   1      -2.009   0.031   0.613  0.00  0.00     0.002 A 
ATOM      4  C6  UNL d   1      -0.875  -0.203  -0.163  0.00  0.00    -0.004 A 
ATOM      5  C7  UNL d   1       0.341  -0.485   0.455  0.00  0.00     0.002 A 
ATOM      6  C8  UNL d   1       0.423  -0.545   1.848  0.00  0.00     0.002 A 
ENDROOT
BRANCH   1   7
ATOM      7  C2  UNL d   1      -0.627  -0.413   4.142  0.00  0.00     0.056 C 
BRANCH   7   8
ATOM      8  C1  UNL d   1       0.003  -1.712   4.654  0.00  0.00     0.007 C 
ATOM      9  C   UNL d   1       1.519  -1.636   4.778  0.00  0.00     0.009 C 
ENDBRANCH   7   8
ENDBRANCH   1   7
TORSDOF 2
ENDMDL
