MODEL 1
REMARK minimizedAffinity 13.3634596
REMARK minimizedRMSD -1
REMARK  1 active torsions:
REMARK  status: ('A' for Active; 'I' for Inactive)
REMARK    1  A    between atoms: N_2  and  C1_3 
ROOT
ATOM      1  C1  UNL d   1       0.841  -5.993  -4.117  0.00  0.00     0.143 A 
ATOM      2  C2  UNL d   1       2.223  -5.981  -3.901  0.00  0.00    -0.057 A 
ATOM      3  C3  UNL d   1       2.756  -5.981  -2.607  0.00  0.00     0.033 A 
ATOM      4  C4  UNL d   1       1.913  -5.962  -1.501  0.00  0.00    -0.042 A 
ATOM      5  C5  UNL d   1       0.535  -5.949  -1.691  0.00  0.00     0.033 A 
ATOM      6  C6  UNL d   1       0.009  -5.956  -2.987  0.00  0.00    -0.057 A 
ENDROOT
BRANCH   1   7
ATOM      7  N   UNL d   1       0.249  -5.895  -5.379  0.00  0.00    -0.732 N 
ATOM      8  C   UNL d   1      -1.187  -5.996  -5.530  0.00  0.00     0.284 C 
ATOM      9  H3  UNL d   1       0.678  -5.173  -5.953  0.00  0.00     0.395 HD
ENDBRANCH   1   7
TORSDOF 1
ENDMDL
