MODEL 1
REMARK minimizedAffinity 5.82004404
REMARK minimizedRMSD -1
REMARK  1 active torsions:
REMARK  status: ('A' for Active; 'I' for Inactive)
REMARK    1  A    between atoms: N_2  and  C1_3 
ROOT
ATOM      1  C1  UNL d   1      -0.012   3.884   1.203  0.00  0.00     0.143 A 
ATOM      2  C2  UNL d   1       0.368   3.258   0.011  0.00  0.00    -0.057 A 
ATOM      3  C3  UNL d   1       0.540   3.990  -1.171  0.00  0.00     0.033 A 
ATOM      4  C4  UNL d   1       0.306   5.361  -1.186  0.00  0.00    -0.042 A 
ATOM      5  C5  UNL d   1      -0.095   6.000  -0.019  0.00  0.00     0.033 A 
ATOM      6  C6  UNL d   1      -0.259   5.265   1.159  0.00  0.00    -0.057 A 
ENDROOT
BRANCH   1   7
ATOM      7  N   UNL d   1      -0.295   3.197   2.386  0.00  0.00    -0.732 N 
ATOM      8  C   UNL d   1       0.776   2.700   3.224  0.00  0.00     0.284 C 
ATOM      9  H3  UNL d   1      -1.067   3.612   2.901  0.00  0.00     0.395 HD
ENDBRANCH   1   7
TORSDOF 1
ENDMDL
