MODEL 1
REMARK minimizedAffinity 3.56739163
REMARK minimizedRMSD -1
REMARK  1 active torsions:
REMARK  status: ('A' for Active; 'I' for Inactive)
REMARK    1  A    between atoms: N_2  and  C1_3 
ROOT
ATOM      1  C1  UNL d   1       3.843  -1.780  -0.724  0.00  0.00     0.143 A 
ATOM      2  C2  UNL d   1       3.477  -2.742   0.224  0.00  0.00    -0.057 A 
ATOM      3  C3  UNL d   1       4.277  -3.866   0.462  0.00  0.00     0.033 A 
ATOM      4  C4  UNL d   1       5.445  -4.064  -0.266  0.00  0.00    -0.042 A 
ATOM      5  C5  UNL d   1       5.815  -3.133  -1.230  0.00  0.00     0.033 A 
ATOM      6  C6  UNL d   1       5.016  -2.009  -1.460  0.00  0.00    -0.057 A 
ENDROOT
BRANCH   1   7
ATOM      7  N   UNL d   1       3.041  -0.692  -1.077  0.00  0.00    -0.732 N 
ATOM      8  C   UNL d   1       1.598  -0.785  -1.004  0.00  0.00     0.284 C 
ATOM      9  H3  UNL d   1       3.418   0.193  -0.743  0.00  0.00     0.395 HD
ENDBRANCH   1   7
TORSDOF 1
ENDMDL
