MODEL 1
REMARK minimizedAffinity 10.0755892
REMARK minimizedRMSD -1
REMARK  1 active torsions:
REMARK  status: ('A' for Active; 'I' for Inactive)
REMARK    1  A    between atoms: N_2  and  C1_3 
ROOT
ATOM      1  C1  UNL d   1      -0.199   2.085  -0.007  0.00  0.00     0.143 A 
ATOM      2  C2  UNL d   1      -0.020   3.183  -0.855  0.00  0.00    -0.057 A 
ATOM      3  C3  UNL d   1       0.172   4.472  -0.343  0.00  0.00     0.033 A 
ATOM      4  C4  UNL d   1       0.160   4.691   1.030  0.00  0.00    -0.042 A 
ATOM      5  C5  UNL d   1      -0.042   3.618   1.892  0.00  0.00     0.033 A 
ATOM      6  C6  UNL d   1      -0.227   2.332   1.375  0.00  0.00    -0.057 A 
ENDROOT
BRANCH   1   7
ATOM      7  N   UNL d   1      -0.493   0.796  -0.456  0.00  0.00    -0.732 N 
ATOM      8  C   UNL d   1       0.440   0.078  -1.298  0.00  0.00     0.284 C 
ATOM      9  H3  UNL d   1      -0.928   0.223   0.264  0.00  0.00     0.395 HD
ENDBRANCH   1   7
TORSDOF 1
ENDMDL
