MODEL 1
REMARK minimizedAffinity 7.45743847
REMARK minimizedRMSD -1
REMARK  1 active torsions:
REMARK  status: ('A' for Active; 'I' for Inactive)
REMARK    1  A    between atoms: N_2  and  C1_3 
ROOT
ATOM      1  C1  UNL d   1       5.523  -2.402  -1.838  0.00  0.00     0.143 A 
ATOM      2  C2  UNL d   1       6.000  -1.437  -0.944  0.00  0.00    -0.057 A 
ATOM      3  C3  UNL d   1       5.516  -1.361   0.368  0.00  0.00     0.033 A 
ATOM      4  C4  UNL d   1       4.522  -2.232   0.801  0.00  0.00    -0.042 A 
ATOM      5  C5  UNL d   1       4.016  -3.183  -0.078  0.00  0.00     0.033 A 
ATOM      6  C6  UNL d   1       4.508  -3.259  -1.384  0.00  0.00    -0.057 A 
ENDROOT
BRANCH   1   7
ATOM      7  N   UNL d   1       5.893  -2.466  -3.183  0.00  0.00    -0.732 N 
ATOM      8  C   UNL d   1       5.219  -3.370  -4.091  0.00  0.00     0.284 C 
ATOM      9  H3  UNL d   1       6.084  -1.548  -3.578  0.00  0.00     0.395 HD
ENDBRANCH   1   7
TORSDOF 1
ENDMDL
