MODEL 1
REMARK minimizedAffinity 7.82429028
REMARK minimizedRMSD -1
REMARK  1 active torsions:
REMARK  status: ('A' for Active; 'I' for Inactive)
REMARK    1  A    between atoms: N_2  and  C1_3 
ROOT
ATOM      1  C1  UNL d   1      -0.018   3.184  -0.000  0.00  0.00     0.143 A 
ATOM      2  C2  UNL d   1       0.033   4.004   1.131  0.00  0.00    -0.057 A 
ATOM      3  C3  UNL d   1       0.053   5.400   1.016  0.00  0.00     0.033 A 
ATOM      4  C4  UNL d   1       0.053   6.000  -0.238  0.00  0.00    -0.042 A 
ATOM      5  C5  UNL d   1       0.028   5.203  -1.378  0.00  0.00     0.033 A 
ATOM      6  C6  UNL d   1       0.001   3.811  -1.256  0.00  0.00    -0.057 A 
ENDROOT
BRANCH   1   7
ATOM      7  N   UNL d   1       0.059   1.789   0.046  0.00  0.00    -0.732 N 
ATOM      8  C   UNL d   1      -1.101   0.977  -0.249  0.00  0.00     0.284 C 
ATOM      9  H3  UNL d   1       0.927   1.435  -0.351  0.00  0.00     0.395 HD
ENDBRANCH   1   7
TORSDOF 1
ENDMDL
