MODEL 1
REMARK minimizedAffinity 4.27817249
REMARK minimizedRMSD -1
REMARK  1 active torsions:
REMARK  status: ('A' for Active; 'I' for Inactive)
REMARK    1  A    between atoms: N_2  and  C1_3 
ROOT
ATOM      1  C1  UNL d   1       0.210   3.665   1.281  0.00  0.00     0.143 A 
ATOM      2  C2  UNL d   1      -0.377   4.845   1.752  0.00  0.00    -0.057 A 
ATOM      3  C3  UNL d   1      -0.426   5.998   0.959  0.00  0.00     0.033 A 
ATOM      4  C4  UNL d   1       0.138   6.000  -0.312  0.00  0.00    -0.042 A 
ATOM      5  C5  UNL d   1       0.749   4.846  -0.791  0.00  0.00     0.033 A 
ATOM      6  C6  UNL d   1       0.789   3.696   0.003  0.00  0.00    -0.057 A 
ENDROOT
BRANCH   1   7
ATOM      7  N   UNL d   1       0.377   2.516   2.058  0.00  0.00    -0.732 N 
ATOM      8  C   UNL d   1       1.071   2.578   3.326  0.00  0.00     0.284 C 
ATOM      9  H3  UNL d   1      -0.453   1.929   2.067  0.00  0.00     0.395 HD
ENDBRANCH   1   7
TORSDOF 1
ENDMDL
