MODEL 1
REMARK minimizedAffinity 0.975268424
REMARK minimizedRMSD -1
REMARK  0 active torsions:
REMARK  status: ('A' for Active; 'I' for Inactive)
ROOT
ATOM      1  C   UNL d   1      -2.779   0.699  -3.054  0.00  0.00     0.023 A 
ATOM      2  C1  UNL d   1      -2.519   1.431  -1.895  0.00  0.00     0.003 A 
ATOM      3  C2  UNL d   1      -1.800   0.851  -0.848  0.00  0.00     0.048 A 
ATOM      4  C3  UNL d   1      -1.343  -0.460  -0.966  0.00  0.00     0.023 A 
ATOM      5  C4  UNL d   1      -1.599  -1.196  -2.124  0.00  0.00     0.048 A 
ATOM      6  C5  UNL d   1      -2.319  -0.613  -3.168  0.00  0.00     0.003 A 
ATOM      7  I   UNL d   1      -0.272  -1.325   0.591  0.00  0.00    -0.146 I 
ENDROOT
TORSDOF 0
ENDMDL
