MODEL 1
REMARK minimizedAffinity 0.403311849
REMARK minimizedRMSD -1
REMARK  0 active torsions:
REMARK  status: ('A' for Active; 'I' for Inactive)
ROOT
ATOM      1  C   UNL d   1      -3.517   0.300  -2.908  0.00  0.00     0.023 A 
ATOM      2  C1  UNL d   1      -3.477   0.833  -1.620  0.00  0.00     0.003 A 
ATOM      3  C2  UNL d   1      -2.358   0.623  -0.811  0.00  0.00     0.048 A 
ATOM      4  C3  UNL d   1      -1.283  -0.120  -1.297  0.00  0.00     0.023 A 
ATOM      5  C4  UNL d   1      -1.319  -0.655  -2.586  0.00  0.00     0.048 A 
ATOM      6  C5  UNL d   1      -2.440  -0.443  -3.391  0.00  0.00     0.003 A 
ATOM      7  I   UNL d   1       0.383  -0.434  -0.095  0.00  0.00    -0.146 I 
ENDROOT
TORSDOF 0
ENDMDL
