MODEL 1
REMARK minimizedAffinity -4.62143612
REMARK minimizedRMSD -1
REMARK  0 active torsions:
REMARK  status: ('A' for Active; 'I' for Inactive)
ROOT
ATOM      1  C   UNL d   1       2.997   0.699   0.927  0.00  0.00     0.023 A 
ATOM      2  C1  UNL d   1       2.525  -0.609   0.810  0.00  0.00     0.003 A 
ATOM      3  C2  UNL d   1       1.234  -0.846   0.333  0.00  0.00     0.048 A 
ATOM      4  C3  UNL d   1       0.421   0.229  -0.026  0.00  0.00     0.023 A 
ATOM      5  C4  UNL d   1       0.890   1.538   0.088  0.00  0.00     0.048 A 
ATOM      6  C5  UNL d   1       2.181   1.771   0.567  0.00  0.00     0.003 A 
ATOM      7  I   UNL d   1      -1.500  -0.122  -0.737  0.00  0.00    -0.146 I 
ENDROOT
TORSDOF 0
ENDMDL
