MODEL 1
REMARK minimizedAffinity -4.0596385
REMARK minimizedRMSD -1
REMARK  0 active torsions:
REMARK  status: ('A' for Active; 'I' for Inactive)
ROOT
ATOM      1  C   UNL d   1       3.173   0.160   0.816  0.00  0.00     0.023 A 
ATOM      2  C1  UNL d   1       2.664  -1.070   0.400  0.00  0.00     0.003 A 
ATOM      3  C2  UNL d   1       1.318  -1.187   0.046  0.00  0.00     0.048 A 
ATOM      4  C3  UNL d   1       0.487  -0.069   0.110  0.00  0.00     0.023 A 
ATOM      5  C4  UNL d   1       0.992   1.165   0.525  0.00  0.00     0.048 A 
ATOM      6  C5  UNL d   1       2.338   1.276   0.879  0.00  0.00     0.003 A 
ATOM      7  I   UNL d   1      -1.516  -0.240  -0.416  0.00  0.00    -0.146 I 
ENDROOT
TORSDOF 0
ENDMDL
