MODEL 1
REMARK minimizedAffinity -3.97852683
REMARK minimizedRMSD -1
REMARK  0 active torsions:
REMARK  status: ('A' for Active; 'I' for Inactive)
ROOT
ATOM      1  C   UNL d   1       2.831   0.820   0.608  0.00  0.00     0.023 A 
ATOM      2  C1  UNL d   1       1.867   1.825   0.523  0.00  0.00     0.003 A 
ATOM      3  C2  UNL d   1       0.547   1.502   0.201  0.00  0.00     0.048 A 
ATOM      4  C3  UNL d   1       0.197   0.172  -0.034  0.00  0.00     0.023 A 
ATOM      5  C4  UNL d   1       1.158  -0.836   0.052  0.00  0.00     0.048 A 
ATOM      6  C5  UNL d   1       2.477  -0.509   0.373  0.00  0.00     0.003 A 
ATOM      7  I   UNL d   1      -1.766  -0.310  -0.513  0.00  0.00    -0.146 I 
ENDROOT
TORSDOF 0
ENDMDL
