MODEL 1
REMARK minimizedAffinity -5.26841831
REMARK minimizedRMSD -1
REMARK  0 active torsions:
REMARK  status: ('A' for Active; 'I' for Inactive)
ROOT
ATOM      1  C   UNL d   1       2.706  -0.859   1.171  0.00  0.00     0.023 A 
ATOM      2  C1  UNL d   1       1.648  -1.757   1.312  0.00  0.00     0.003 A 
ATOM      3  C2  UNL d   1       0.415  -1.484   0.717  0.00  0.00     0.048 A 
ATOM      4  C3  UNL d   1       0.247  -0.311  -0.018  0.00  0.00     0.023 A 
ATOM      5  C4  UNL d   1       1.303   0.590  -0.163  0.00  0.00     0.048 A 
ATOM      6  C5  UNL d   1       2.534   0.313   0.434  0.00  0.00     0.003 A 
ATOM      7  I   UNL d   1      -1.588   0.097  -0.905  0.00  0.00    -0.146 I 
ENDROOT
TORSDOF 0
ENDMDL
