MODEL 1
REMARK minimizedAffinity -4.4457221
REMARK minimizedRMSD -1
REMARK  0 active torsions:
REMARK  status: ('A' for Active; 'I' for Inactive)
ROOT
ATOM      1  C   UNL d   1       2.995   0.102   0.987  0.00  0.00     0.023 A 
ATOM      2  C1  UNL d   1       2.341  -1.117   0.802  0.00  0.00     0.003 A 
ATOM      3  C2  UNL d   1       1.056  -1.145   0.257  0.00  0.00     0.048 A 
ATOM      4  C3  UNL d   1       0.431   0.048  -0.102  0.00  0.00     0.023 A 
ATOM      5  C4  UNL d   1       1.081   1.270   0.081  0.00  0.00     0.048 A 
ATOM      6  C5  UNL d   1       2.366   1.293   0.627  0.00  0.00     0.003 A 
ATOM      7  I   UNL d   1      -1.482   0.008  -0.914  0.00  0.00    -0.146 I 
ENDROOT
TORSDOF 0
ENDMDL
