MODEL 1
REMARK minimizedAffinity 3.66910577
REMARK minimizedRMSD -1
REMARK  0 active torsions:
REMARK  status: ('A' for Active; 'I' for Inactive)
ROOT
ATOM      1  C   UNL d   1       3.735   1.285  -0.389  0.00  0.00     0.023 A 
ATOM      2  C1  UNL d   1       4.141  -0.050  -0.388  0.00  0.00     0.003 A 
ATOM      3  C2  UNL d   1       3.377  -1.013   0.275  0.00  0.00     0.048 A 
ATOM      4  C3  UNL d   1       2.209  -0.634   0.935  0.00  0.00     0.023 A 
ATOM      5  C4  UNL d   1       1.798   0.700   0.936  0.00  0.00     0.048 A 
ATOM      6  C5  UNL d   1       2.566   1.659   0.272  0.00  0.00     0.003 A 
ATOM      7  I   UNL d   1       1.070  -2.065   1.923  0.00  0.00    -0.146 I 
ENDROOT
TORSDOF 0
ENDMDL
