MODEL 1
REMARK minimizedAffinity -4.52824736
REMARK minimizedRMSD -1
REMARK  0 active torsions:
REMARK  status: ('A' for Active; 'I' for Inactive)
ROOT
ATOM      1  C   UNL d   1       2.982  -0.050   1.210  0.00  0.00     0.023 A 
ATOM      2  C1  UNL d   1       2.569   1.013   0.408  0.00  0.00     0.003 A 
ATOM      3  C2  UNL d   1       1.329   0.966  -0.233  0.00  0.00     0.048 A 
ATOM      4  C3  UNL d   1       0.507  -0.148  -0.065  0.00  0.00     0.023 A 
ATOM      5  C4  UNL d   1       0.915  -1.214   0.738  0.00  0.00     0.048 A 
ATOM      6  C5  UNL d   1       2.156  -1.162   1.375  0.00  0.00     0.003 A 
ATOM      7  I   UNL d   1      -1.340  -0.221  -1.018  0.00  0.00    -0.146 I 
ENDROOT
TORSDOF 0
ENDMDL
