MODEL 1
REMARK minimizedAffinity -4.45326471
REMARK minimizedRMSD -1
REMARK  0 active torsions:
REMARK  status: ('A' for Active; 'I' for Inactive)
ROOT
ATOM      1  C   UNL d   1       2.857  -0.443   1.857  0.00  0.00     0.023 A 
ATOM      2  C1  UNL d   1       1.974  -1.520   1.934  0.00  0.00     0.003 A 
ATOM      3  C2  UNL d   1       0.748  -1.468   1.268  0.00  0.00     0.048 A 
ATOM      4  C3  UNL d   1       0.411  -0.336   0.526  0.00  0.00     0.023 A 
ATOM      5  C4  UNL d   1       1.292   0.743   0.445  0.00  0.00     0.048 A 
ATOM      6  C5  UNL d   1       2.517   0.687   1.114  0.00  0.00     0.003 A 
ATOM      7  I   UNL d   1      -1.413  -0.257  -0.467  0.00  0.00    -0.146 I 
ENDROOT
TORSDOF 0
ENDMDL
