MODEL 1
REMARK minimizedAffinity -4.47609949
REMARK minimizedRMSD -1
REMARK  0 active torsions:
REMARK  status: ('A' for Active; 'I' for Inactive)
ROOT
ATOM      1  C   UNL d   1       2.989   0.333   0.984  0.00  0.00     0.023 A 
ATOM      2  C1  UNL d   1       2.248   1.512   0.905  0.00  0.00     0.003 A 
ATOM      3  C2  UNL d   1       0.949   1.489   0.393  0.00  0.00     0.048 A 
ATOM      4  C3  UNL d   1       0.397   0.284  -0.037  0.00  0.00     0.023 A 
ATOM      5  C4  UNL d   1       1.134  -0.899   0.040  0.00  0.00     0.048 A 
ATOM      6  C5  UNL d   1       2.433  -0.871   0.552  0.00  0.00     0.003 A 
ATOM      7  I   UNL d   1      -1.536   0.247  -0.799  0.00  0.00    -0.146 I 
ENDROOT
TORSDOF 0
ENDMDL
