MODEL 1
REMARK minimizedAffinity -4.37223101
REMARK minimizedRMSD -1
REMARK  0 active torsions:
REMARK  status: ('A' for Active; 'I' for Inactive)
ROOT
ATOM      1  C   UNL d   1       3.296  -0.407   1.364  0.00  0.00     0.023 A 
ATOM      2  C1  UNL d   1       2.932   0.631   0.506  0.00  0.00     0.003 A 
ATOM      3  C2  UNL d   1       1.645   0.670  -0.036  0.00  0.00     0.048 A 
ATOM      4  C3  UNL d   1       0.729  -0.330   0.284  0.00  0.00     0.023 A 
ATOM      5  C4  UNL d   1       1.089  -1.370   1.143  0.00  0.00     0.048 A 
ATOM      6  C5  UNL d   1       2.376  -1.406   1.682  0.00  0.00     0.003 A 
ATOM      7  I   UNL d   1      -1.186  -0.273  -0.522  0.00  0.00    -0.146 I 
ENDROOT
TORSDOF 0
ENDMDL
