MODEL 1
REMARK minimizedAffinity 4.36445951
REMARK minimizedRMSD -1
REMARK  0 active torsions:
REMARK  status: ('A' for Active; 'I' for Inactive)
ROOT
ATOM      1  C   UNL d   1       2.114   3.877   0.532  0.00  0.00     0.023 A 
ATOM      2  C1  UNL d   1       2.787   2.663   0.666  0.00  0.00     0.003 A 
ATOM      3  C2  UNL d   1       2.076   1.461   0.635  0.00  0.00     0.048 A 
ATOM      4  C3  UNL d   1       0.692   1.482   0.468  0.00  0.00     0.023 A 
ATOM      5  C4  UNL d   1       0.014   2.694   0.333  0.00  0.00     0.048 A 
ATOM      6  C5  UNL d   1       0.729   3.893   0.366  0.00  0.00     0.003 A 
ATOM      7  I   UNL d   1      -0.369  -0.305   0.422  0.00  0.00    -0.146 I 
ENDROOT
TORSDOF 0
ENDMDL
