MODEL 1
REMARK minimizedAffinity 9.56728458
REMARK minimizedRMSD -1
REMARK  0 active torsions:
REMARK  status: ('A' for Active; 'I' for Inactive)
ROOT
ATOM      1  C   UNL d   1       1.162  -3.391  -1.736  0.00  0.00    -0.002 A 
ATOM      2  C1  UNL d   1       1.881  -4.472  -2.225  0.00  0.00     0.010 A 
ATOM      3  C2  UNL d   1       2.414  -4.446  -3.516  0.00  0.00     0.041 A 
ATOM      4  C3  UNL d   1       2.212  -3.303  -4.313  0.00  0.00    -0.075 A 
ATOM      5  S   UNL d   1       2.772  -3.046  -5.924  0.00  0.00     0.015 SA
ATOM      6  C4  UNL d   1       2.072  -1.494  -6.000  0.00  0.00     0.022 A 
ATOM      7  C5  UNL d   1       1.422  -1.164  -4.834  0.00  0.00     0.026 A 
ATOM      8  C6  UNL d   1       1.493  -2.201  -3.843  0.00  0.00    -0.082 A 
ATOM      9  C7  UNL d   1       0.964  -2.258  -2.530  0.00  0.00     0.045 A 
ENDROOT
TORSDOF 0
ENDMDL
