MODEL 1
REMARK minimizedAffinity 27.5701504
REMARK minimizedRMSD -1
REMARK  0 active torsions:
REMARK  status: ('A' for Active; 'I' for Inactive)
ROOT
ATOM      1  C   UNL d   1       0.559   2.406  -0.083  0.00  0.00    -0.002 A 
ATOM      2  C1  UNL d   1      -0.698   1.905   0.225  0.00  0.00     0.010 A 
ATOM      3  C2  UNL d   1      -1.734   1.962  -0.709  0.00  0.00     0.041 A 
ATOM      4  C3  UNL d   1      -1.483   2.535  -1.971  0.00  0.00    -0.075 A 
ATOM      5  S   UNL d   1      -2.599   2.711  -3.273  0.00  0.00     0.015 SA
ATOM      6  C4  UNL d   1      -1.434   3.455  -4.270  0.00  0.00     0.022 A 
ATOM      7  C5  UNL d   1      -0.218   3.574  -3.641  0.00  0.00     0.026 A 
ATOM      8  C6  UNL d   1      -0.226   3.045  -2.306  0.00  0.00    -0.082 A 
ATOM      9  C7  UNL d   1       0.804   2.974  -1.337  0.00  0.00     0.045 A 
ENDROOT
TORSDOF 0
ENDMDL
