MODEL 1
REMARK minimizedAffinity 26.9957294
REMARK minimizedRMSD -1
REMARK  0 active torsions:
REMARK  status: ('A' for Active; 'I' for Inactive)
ROOT
ATOM      1  C   UNL d   1      -5.639   5.998   1.392  0.00  0.00    -0.002 A 
ATOM      2  C1  UNL d   1      -4.344   5.672   1.771  0.00  0.00     0.010 A 
ATOM      3  C2  UNL d   1      -3.386   5.338   0.812  0.00  0.00     0.041 A 
ATOM      4  C3  UNL d   1      -3.754   5.340  -0.548  0.00  0.00    -0.075 A 
ATOM      5  S   UNL d   1      -2.748   4.966  -1.897  0.00  0.00     0.015 SA
ATOM      6  C4  UNL d   1      -4.012   5.231  -3.009  0.00  0.00     0.022 A 
ATOM      7  C5  UNL d   1      -5.181   5.596  -2.383  0.00  0.00     0.026 A 
ATOM      8  C6  UNL d   1      -5.051   5.665  -0.954  0.00  0.00    -0.082 A 
ATOM      9  C7  UNL d   1      -6.000   5.998   0.042  0.00  0.00     0.045 A 
ENDROOT
TORSDOF 0
ENDMDL
