MODEL 1
REMARK minimizedAffinity 27.5869122
REMARK minimizedRMSD -1
REMARK  0 active torsions:
REMARK  status: ('A' for Active; 'I' for Inactive)
ROOT
ATOM      1  C   UNL d   1       5.988  -2.765   1.924  0.00  0.00    -0.002 A 
ATOM      2  C1  UNL d   1       5.994  -4.036   1.368  0.00  0.00     0.010 A 
ATOM      3  C2  UNL d   1       4.880  -4.513   0.674  0.00  0.00     0.041 A 
ATOM      4  C3  UNL d   1       3.750  -3.681   0.545  0.00  0.00    -0.075 A 
ATOM      5  S   UNL d   1       2.273  -4.052  -0.263  0.00  0.00     0.015 SA
ATOM      6  C4  UNL d   1       1.600  -2.531   0.111  0.00  0.00     0.022 A 
ATOM      7  C5  UNL d   1       2.467  -1.747   0.834  0.00  0.00     0.026 A 
ATOM      8  C6  UNL d   1       3.721  -2.396   1.095  0.00  0.00    -0.082 A 
ATOM      9  C7  UNL d   1       4.866  -1.943   1.794  0.00  0.00     0.045 A 
ENDROOT
TORSDOF 0
ENDMDL
