MODEL 1
REMARK minimizedAffinity 27.5379295
REMARK minimizedRMSD -1
REMARK  0 active torsions:
REMARK  status: ('A' for Active; 'I' for Inactive)
ROOT
ATOM      1  C   UNL d   1      -4.304   5.976   1.905  0.00  0.00    -0.002 A 
ATOM      2  C1  UNL d   1      -5.638   6.000   1.520  0.00  0.00     0.010 A 
ATOM      3  C2  UNL d   1      -5.996   5.800   0.186  0.00  0.00     0.041 A 
ATOM      4  C3  UNL d   1      -4.981   5.572  -0.765  0.00  0.00    -0.075 A 
ATOM      5  S   UNL d   1      -5.183   5.301  -2.456  0.00  0.00     0.015 SA
ATOM      6  C4  UNL d   1      -3.505   5.147  -2.708  0.00  0.00     0.022 A 
ATOM      7  C5  UNL d   1      -2.793   5.296  -1.541  0.00  0.00     0.026 A 
ATOM      8  C6  UNL d   1      -3.632   5.543  -0.402  0.00  0.00    -0.082 A 
ATOM      9  C7  UNL d   1      -3.301   5.750   0.959  0.00  0.00     0.045 A 
ENDROOT
TORSDOF 0
ENDMDL
