MODEL 1
REMARK minimizedAffinity 17.0849228
REMARK minimizedRMSD -1
REMARK  0 active torsions:
REMARK  status: ('A' for Active; 'I' for Inactive)
ROOT
ATOM      1  C   UNL d   1       1.830  -5.994  -2.259  0.00  0.00    -0.002 A 
ATOM      2  C1  UNL d   1       2.557  -4.984  -1.645  0.00  0.00     0.010 A 
ATOM      3  C2  UNL d   1       2.870  -3.813  -2.337  0.00  0.00     0.041 A 
ATOM      4  C3  UNL d   1       2.433  -3.671  -3.669  0.00  0.00    -0.075 A 
ATOM      5  S   UNL d   1       2.698  -2.324  -4.712  0.00  0.00     0.015 SA
ATOM      6  C4  UNL d   1       1.851  -3.056  -5.997  0.00  0.00     0.022 A 
ATOM      7  C5  UNL d   1       1.371  -4.299  -5.656  0.00  0.00     0.026 A 
ATOM      8  C6  UNL d   1       1.698  -4.673  -4.309  0.00  0.00    -0.082 A 
ATOM      9  C7  UNL d   1       1.398  -5.850  -3.581  0.00  0.00     0.045 A 
ENDROOT
TORSDOF 0
ENDMDL
