MODEL 1
REMARK minimizedAffinity 21.2609425
REMARK minimizedRMSD -1
REMARK  0 active torsions:
REMARK  status: ('A' for Active; 'I' for Inactive)
ROOT
ATOM      1  C   UNL d   1       2.900  -1.548   1.209  0.00  0.00    -0.002 A 
ATOM      2  C1  UNL d   1       1.954  -2.508   1.538  0.00  0.00     0.010 A 
ATOM      3  C2  UNL d   1       2.343  -3.817   1.831  0.00  0.00     0.041 A 
ATOM      4  C3  UNL d   1       3.712  -4.147   1.788  0.00  0.00    -0.075 A 
ATOM      5  S   UNL d   1       4.422  -5.685   2.109  0.00  0.00     0.015 SA
ATOM      6  C4  UNL d   1       5.997  -5.103   1.818  0.00  0.00     0.022 A 
ATOM      7  C5  UNL d   1       6.000  -3.770   1.482  0.00  0.00     0.026 A 
ATOM      8  C6  UNL d   1       4.683  -3.197   1.460  0.00  0.00    -0.082 A 
ATOM      9  C7  UNL d   1       4.257  -1.879   1.167  0.00  0.00     0.045 A 
ENDROOT
TORSDOF 0
ENDMDL
