MODEL 1
REMARK minimizedAffinity 29.7049694
REMARK minimizedRMSD -1
REMARK  0 active torsions:
REMARK  status: ('A' for Active; 'I' for Inactive)
ROOT
ATOM      1  C   UNL d   1      -4.853   5.029  -1.529  0.00  0.00    -0.002 A 
ATOM      2  C1  UNL d   1      -3.515   4.803  -1.236  0.00  0.00     0.010 A 
ATOM      3  C2  UNL d   1      -3.039   4.956   0.068  0.00  0.00     0.041 A 
ATOM      4  C3  UNL d   1      -3.938   5.342   1.081  0.00  0.00    -0.075 A 
ATOM      5  S   UNL d   1      -3.580   5.590   2.749  0.00  0.00     0.015 SA
ATOM      6  C4  UNL d   1      -5.194   6.000   3.112  0.00  0.00     0.022 A 
ATOM      7  C5  UNL d   1      -6.000   5.954   1.999  0.00  0.00     0.026 A 
ATOM      8  C6  UNL d   1      -5.290   5.574   0.810  0.00  0.00    -0.082 A 
ATOM      9  C7  UNL d   1      -5.742   5.411  -0.521  0.00  0.00     0.045 A 
ENDROOT
TORSDOF 0
ENDMDL
