MODEL 1
REMARK minimizedAffinity 22.8022232
REMARK minimizedRMSD -1
REMARK  0 active torsions:
REMARK  status: ('A' for Active; 'I' for Inactive)
ROOT
ATOM      1  C   UNL d   1      -2.086   4.048  -3.787  0.00  0.00    -0.002 A 
ATOM      2  C1  UNL d   1      -1.516   5.307  -3.664  0.00  0.00     0.010 A 
ATOM      3  C2  UNL d   1      -0.696   5.612  -2.575  0.00  0.00     0.041 A 
ATOM      4  C3  UNL d   1      -0.456   4.620  -1.604  0.00  0.00    -0.075 A 
ATOM      5  S   UNL d   1       0.514   4.766  -0.186  0.00  0.00     0.015 SA
ATOM      6  C4  UNL d   1       0.195   3.160   0.288  0.00  0.00     0.022 A 
ATOM      7  C5  UNL d   1      -0.630   2.514  -0.602  0.00  0.00     0.026 A 
ATOM      8  C6  UNL d   1      -1.019   3.344  -1.707  0.00  0.00    -0.082 A 
ATOM      9  C7  UNL d   1      -1.846   3.067  -2.822  0.00  0.00     0.045 A 
ENDROOT
TORSDOF 0
ENDMDL
