MODEL 1
REMARK minimizedAffinity 13.6923542
REMARK minimizedRMSD -1
REMARK  0 active torsions:
REMARK  status: ('A' for Active; 'I' for Inactive)
ROOT
ATOM      1  C   UNL d   1       0.170   4.289   0.695  0.00  0.00    -0.002 A 
ATOM      2  C1  UNL d   1      -0.005   5.617   0.332  0.00  0.00     0.010 A 
ATOM      3  C2  UNL d   1      -0.533   5.948  -0.918  0.00  0.00     0.041 A 
ATOM      4  C3  UNL d   1      -0.888   4.911  -1.804  0.00  0.00    -0.075 A 
ATOM      5  S   UNL d   1      -1.553   5.078  -3.385  0.00  0.00     0.015 SA
ATOM      6  C4  UNL d   1      -1.622   3.391  -3.615  0.00  0.00     0.022 A 
ATOM      7  C5  UNL d   1      -1.153   2.702  -2.522  0.00  0.00     0.026 A 
ATOM      8  C6  UNL d   1      -0.722   3.567  -1.460  0.00  0.00    -0.082 A 
ATOM      9  C7  UNL d   1      -0.183   3.264  -0.186  0.00  0.00     0.045 A 
ENDROOT
TORSDOF 0
ENDMDL
