MODEL 1
REMARK minimizedAffinity 0.987078786
REMARK minimizedRMSD -1
REMARK  0 active torsions:
REMARK  status: ('A' for Active; 'I' for Inactive)
ROOT
ATOM      1  C   UNL d   1      -1.090   3.721   0.150  0.00  0.00    -0.002 A 
ATOM      2  C1  UNL d   1       0.124   3.051   0.207  0.00  0.00     0.010 A 
ATOM      3  C2  UNL d   1       0.285   1.944   1.043  0.00  0.00     0.041 A 
ATOM      4  C3  UNL d   1      -0.805   1.516   1.825  0.00  0.00    -0.075 A 
ATOM      5  S   UNL d   1      -0.840   0.184   2.920  0.00  0.00     0.015 SA
ATOM      6  C4  UNL d   1      -2.468   0.472   3.335  0.00  0.00     0.022 A 
ATOM      7  C5  UNL d   1      -2.987   1.554   2.665  0.00  0.00     0.026 A 
ATOM      8  C6  UNL d   1      -2.038   2.173   1.783  0.00  0.00    -0.082 A 
ATOM      9  C7  UNL d   1      -2.170   3.293   0.927  0.00  0.00     0.045 A 
ENDROOT
TORSDOF 0
ENDMDL
