MODEL 1
REMARK minimizedAffinity 13.4776402
REMARK minimizedRMSD -1
REMARK  0 active torsions:
REMARK  status: ('A' for Active; 'I' for Inactive)
ROOT
ATOM      1  C   UNL d   1       0.164   4.148  -1.353  0.00  0.00    -0.002 A 
ATOM      2  C1  UNL d   1       0.326   3.420  -0.183  0.00  0.00     0.010 A 
ATOM      3  C2  UNL d   1      -0.503   2.332   0.097  0.00  0.00     0.041 A 
ATOM      4  C3  UNL d   1      -1.506   1.983  -0.829  0.00  0.00    -0.075 A 
ATOM      5  S   UNL d   1      -2.638   0.689  -0.697  0.00  0.00     0.015 SA
ATOM      6  C4  UNL d   1      -3.362   1.071  -2.192  0.00  0.00     0.022 A 
ATOM      7  C5  UNL d   1      -2.768   2.157  -2.790  0.00  0.00     0.026 A 
ATOM      8  C6  UNL d   1      -1.688   2.701  -2.015  0.00  0.00    -0.082 A 
ATOM      9  C7  UNL d   1      -0.832   3.799  -2.269  0.00  0.00     0.045 A 
ENDROOT
TORSDOF 0
ENDMDL
