MODEL 1
REMARK minimizedAffinity 9.45048141
REMARK minimizedRMSD -1
REMARK  0 active torsions:
REMARK  status: ('A' for Active; 'I' for Inactive)
ROOT
ATOM      1  C   UNL d   1      -0.349   5.222  -2.247  0.00  0.00    -0.002 A 
ATOM      2  C1  UNL d   1       0.467   5.867  -1.329  0.00  0.00     0.010 A 
ATOM      3  C2  UNL d   1       0.754   5.278  -0.097  0.00  0.00     0.041 A 
ATOM      4  C3  UNL d   1       0.204   4.015   0.200  0.00  0.00    -0.075 A 
ATOM      5  S   UNL d   1       0.419   3.101   1.645  0.00  0.00     0.015 SA
ATOM      6  C4  UNL d   1      -0.566   1.831   1.078  0.00  0.00     0.022 A 
ATOM      7  C5  UNL d   1      -1.056   2.082  -0.182  0.00  0.00     0.026 A 
ATOM      8  C6  UNL d   1      -0.620   3.345  -0.709  0.00  0.00    -0.082 A 
ATOM      9  C7  UNL d   1      -0.893   3.969  -1.950  0.00  0.00     0.045 A 
ENDROOT
TORSDOF 0
ENDMDL
