MODEL 1
REMARK minimizedAffinity 10.651123
REMARK minimizedRMSD -1
REMARK  0 active torsions:
REMARK  status: ('A' for Active; 'I' for Inactive)
ROOT
ATOM      1  C   UNL d   1       0.381   4.559  -1.472  0.00  0.00    -0.002 A 
ATOM      2  C1  UNL d   1      -0.044   3.399  -2.103  0.00  0.00     0.010 A 
ATOM      3  C2  UNL d   1      -0.480   2.303  -1.357  0.00  0.00     0.041 A 
ATOM      4  C3  UNL d   1      -0.483   2.393   0.049  0.00  0.00    -0.075 A 
ATOM      5  S   UNL d   1      -0.975   1.177   1.168  0.00  0.00     0.015 SA
ATOM      6  C4  UNL d   1      -0.633   2.169   2.511  0.00  0.00     0.022 A 
ATOM      7  C5  UNL d   1      -0.154   3.401   2.133  0.00  0.00     0.026 A 
ATOM      8  C6  UNL d   1      -0.060   3.551   0.708  0.00  0.00    -0.082 A 
ATOM      9  C7  UNL d   1       0.377   4.645  -0.077  0.00  0.00     0.045 A 
ENDROOT
TORSDOF 0
ENDMDL
