MODEL 1
REMARK minimizedAffinity 9.07329464
REMARK minimizedRMSD -1
REMARK  2 active torsions:
REMARK  status: ('A' for Active; 'I' for Inactive)
REMARK    1  A    between atoms: C2'_3  and  C1'_4 
REMARK    2  A    between atoms: C1'_4  and  C1_5 
ROOT
ATOM      1  C1  I4B d   1       2.703   0.120   2.529  0.00  0.00    -0.075 A 
ATOM      2  C2  I4B d   1       2.926   1.340   1.941  0.00  0.00     0.003 A 
ATOM      3  C3  I4B d   1       2.891   2.524   2.717  0.00  0.00     0.002 A 
ATOM      4  C4  I4B d   1       2.581   2.446   4.060  0.00  0.00    -0.004 A 
ATOM      5  C5  I4B d   1       2.377   1.207   4.659  0.00  0.00     0.002 A 
ATOM      6  C6  I4B d   1       2.450   0.035   3.892  0.00  0.00     0.003 A 
ENDROOT
BRANCH   1   7
ATOM      7  C1' I4B d   1       2.715  -1.106   1.673  0.00  0.00     0.060 C 
BRANCH   7   8
ATOM      8  C2' I4B d   1       4.098  -1.241   1.071  0.00  0.00    -0.013 C 
ATOM      9  C4' I4B d   1       4.520   0.029   0.381  0.00  0.00     0.013 C 
ATOM     10  C3' I4B d   1       5.050  -1.600   2.173  0.00  0.00     0.013 C 
ENDBRANCH   7   8
ENDBRANCH   1   7
TORSDOF 2
ENDMDL
