MODEL 1
REMARK minimizedAffinity 9.72001171
REMARK minimizedRMSD -1
REMARK  2 active torsions:
REMARK  status: ('A' for Active; 'I' for Inactive)
REMARK    1  A    between atoms: C2'_3  and  C1'_4 
REMARK    2  A    between atoms: C1'_4  and  C1_5 
ROOT
ATOM      1  C1  I4B d   1      -3.765   0.752  -3.473  0.00  0.00    -0.075 A 
ATOM      2  C2  I4B d   1      -3.788  -0.618  -3.556  0.00  0.00     0.003 A 
ATOM      3  C3  I4B d   1      -3.009  -1.400  -2.669  0.00  0.00     0.002 A 
ATOM      4  C4  I4B d   1      -2.188  -0.774  -1.754  0.00  0.00    -0.004 A 
ATOM      5  C5  I4B d   1      -2.183   0.615  -1.656  0.00  0.00     0.002 A 
ATOM      6  C6  I4B d   1      -2.985   1.382  -2.512  0.00  0.00     0.003 A 
ENDROOT
BRANCH   1   7
ATOM      7  C1' I4B d   1      -4.575   1.547  -4.447  0.00  0.00     0.060 C 
BRANCH   7   8
ATOM      8  C2' I4B d   1      -5.748   2.147  -3.698  0.00  0.00    -0.013 C 
ATOM      9  C4' I4B d   1      -5.480   2.199  -2.217  0.00  0.00     0.013 C 
ATOM     10  C3' I4B d   1      -5.999   3.518  -4.252  0.00  0.00     0.013 C 
ENDBRANCH   7   8
ENDBRANCH   1   7
TORSDOF 2
ENDMDL
