MODEL 1
REMARK minimizedAffinity 11.3155355
REMARK minimizedRMSD -1
REMARK  2 active torsions:
REMARK  status: ('A' for Active; 'I' for Inactive)
REMARK    1  A    between atoms: C2'_3  and  C1'_4 
REMARK    2  A    between atoms: C1'_4  and  C1_5 
ROOT
ATOM      1  C1  I4B d   1       2.117  -3.213   2.309  0.00  0.00    -0.075 A 
ATOM      2  C2  I4B d   1       2.664  -2.458   3.316  0.00  0.00     0.003 A 
ATOM      3  C3  I4B d   1       2.255  -1.115   3.502  0.00  0.00     0.002 A 
ATOM      4  C4  I4B d   1       1.340  -0.556   2.633  0.00  0.00    -0.004 A 
ATOM      5  C5  I4B d   1       0.770  -1.330   1.627  0.00  0.00     0.002 A 
ATOM      6  C6  I4B d   1       1.151  -2.671   1.471  0.00  0.00     0.003 A 
ENDROOT
BRANCH   1   7
ATOM      7  C1' I4B d   1       2.595  -4.618   2.121  0.00  0.00     0.060 C 
BRANCH   7   8
ATOM      8  C2' I4B d   1       1.924  -5.178   0.883  0.00  0.00    -0.013 C 
ATOM      9  C4' I4B d   1       2.886  -5.998   0.065  0.00  0.00     0.013 C 
ATOM     10  C3' I4B d   1       0.750  -6.000   1.325  0.00  0.00     0.013 C 
ENDBRANCH   7   8
ENDBRANCH   1   7
TORSDOF 2
ENDMDL
