MODEL 1
REMARK minimizedAffinity 9.84151554
REMARK minimizedRMSD -1
REMARK  2 active torsions:
REMARK  status: ('A' for Active; 'I' for Inactive)
REMARK    1  A    between atoms: C2'_3  and  C1'_4 
REMARK    2  A    between atoms: C1'_4  and  C1_5 
ROOT
ATOM      1  C1  I4B d   1       2.942  -3.944   2.067  0.00  0.00    -0.075 A 
ATOM      2  C2  I4B d   1       3.855  -4.956   1.906  0.00  0.00     0.003 A 
ATOM      3  C3  I4B d   1       3.632  -5.971   0.943  0.00  0.00     0.002 A 
ATOM      4  C4  I4B d   1       2.467  -5.961   0.204  0.00  0.00    -0.004 A 
ATOM      5  C5  I4B d   1       1.553  -4.922   0.352  0.00  0.00     0.002 A 
ATOM      6  C6  I4B d   1       1.798  -3.900   1.281  0.00  0.00     0.003 A 
ENDROOT
BRANCH   1   7
ATOM      7  C1' I4B d   1       3.193  -2.907   3.116  0.00  0.00     0.060 C 
BRANCH   7   8
ATOM      8  C2' I4B d   1       1.885  -2.192   3.388  0.00  0.00    -0.013 C 
ATOM      9  C4' I4B d   1       1.713  -1.912   4.858  0.00  0.00     0.013 C 
ATOM     10  C3' I4B d   1       1.877  -0.923   2.590  0.00  0.00     0.013 C 
ENDBRANCH   7   8
ENDBRANCH   1   7
TORSDOF 2
ENDMDL
