MODEL 1
REMARK minimizedAffinity 5.47602606
REMARK minimizedRMSD -1
REMARK  2 active torsions:
REMARK  status: ('A' for Active; 'I' for Inactive)
REMARK    1  A    between atoms: C2'_3  and  C1'_4 
REMARK    2  A    between atoms: C1'_4  and  C1_5 
ROOT
ATOM      1  C1  I4B d   1       3.108  -5.985  -0.553  0.00  0.00    -0.075 A 
ATOM      2  C2  I4B d   1       2.407  -5.988  -1.733  0.00  0.00     0.003 A 
ATOM      3  C3  I4B d   1       3.095  -5.992  -2.971  0.00  0.00     0.002 A 
ATOM      4  C4  I4B d   1       4.474  -5.942  -2.983  0.00  0.00    -0.004 A 
ATOM      5  C5  I4B d   1       5.184  -5.962  -1.785  0.00  0.00     0.002 A 
ATOM      6  C6  I4B d   1       4.497  -5.996  -0.563  0.00  0.00     0.003 A 
ENDROOT
BRANCH   1   7
ATOM      7  C1' I4B d   1       2.350  -5.947   0.735  0.00  0.00     0.060 C 
BRANCH   7   8
ATOM      8  C2' I4B d   1       1.030  -5.249   0.480  0.00  0.00    -0.013 C 
ATOM      9  C4' I4B d   1      -0.113  -5.993   1.118  0.00  0.00     0.013 C 
ATOM     10  C3' I4B d   1       1.134  -3.852   1.017  0.00  0.00     0.013 C 
ENDBRANCH   7   8
ENDBRANCH   1   7
TORSDOF 2
ENDMDL
