MODEL 1
REMARK minimizedAffinity 1.84621584
REMARK minimizedRMSD -1
REMARK  2 active torsions:
REMARK  status: ('A' for Active; 'I' for Inactive)
REMARK    1  A    between atoms: C2'_3  and  C1'_4 
REMARK    2  A    between atoms: C1'_4  and  C1_5 
ROOT
ATOM      1  C1  I4B d   1       2.133   1.179   1.072  0.00  0.00    -0.075 A 
ATOM      2  C2  I4B d   1       2.946   1.813   0.166  0.00  0.00     0.003 A 
ATOM      3  C3  I4B d   1       2.596   3.092  -0.331  0.00  0.00     0.002 A 
ATOM      4  C4  I4B d   1       1.408   3.673   0.063  0.00  0.00    -0.004 A 
ATOM      5  C5  I4B d   1       0.597   3.039   0.999  0.00  0.00     0.002 A 
ATOM      6  C6  I4B d   1       0.967   1.789   1.517  0.00  0.00     0.003 A 
ENDROOT
BRANCH   1   7
ATOM      7  C1' I4B d   1       2.516  -0.185   1.552  0.00  0.00     0.060 C 
BRANCH   7   8
ATOM      8  C2' I4B d   1       1.321  -0.781   2.268  0.00  0.00    -0.013 C 
ATOM      9  C4' I4B d   1       0.470  -1.592   1.326  0.00  0.00     0.013 C 
ATOM     10  C3' I4B d   1       1.831  -1.624   3.398  0.00  0.00     0.013 C 
ENDBRANCH   7   8
ENDBRANCH   1   7
TORSDOF 2
ENDMDL
