MODEL 1
REMARK minimizedAffinity 10.2846861
REMARK minimizedRMSD -1
REMARK  2 active torsions:
REMARK  status: ('A' for Active; 'I' for Inactive)
REMARK    1  A    between atoms: C2'_3  and  C1'_4 
REMARK    2  A    between atoms: C1'_4  and  C1_5 
ROOT
ATOM      1  C1  I4B d   1       2.403  -5.918   0.027  0.00  0.00    -0.075 A 
ATOM      2  C2  I4B d   1       3.773  -5.884   0.102  0.00  0.00     0.003 A 
ATOM      3  C3  I4B d   1       4.553  -5.894  -1.080  0.00  0.00     0.002 A 
ATOM      4  C4  I4B d   1       3.926  -5.989  -2.306  0.00  0.00    -0.004 A 
ATOM      5  C5  I4B d   1       2.536  -6.000  -2.381  0.00  0.00     0.002 A 
ATOM      6  C6  I4B d   1       1.769  -5.952  -1.208  0.00  0.00     0.003 A 
ENDROOT
BRANCH   1   7
ATOM      7  C1' I4B d   1       1.612  -5.940   1.297  0.00  0.00     0.060 C 
BRANCH   7   8
ATOM      8  C2' I4B d   1       2.431  -5.249   2.368  0.00  0.00    -0.013 C 
ATOM      9  C4' I4B d   1       2.119  -3.777   2.428  0.00  0.00     0.013 C 
ATOM     10  C3' I4B d   1       2.138  -5.918   3.678  0.00  0.00     0.013 C 
ENDBRANCH   7   8
ENDBRANCH   1   7
TORSDOF 2
ENDMDL
