MODEL 1
REMARK minimizedAffinity 9.44069958
REMARK minimizedRMSD -1
REMARK  2 active torsions:
REMARK  status: ('A' for Active; 'I' for Inactive)
REMARK    1  A    between atoms: C2'_3  and  C1'_4 
REMARK    2  A    between atoms: C1'_4  and  C1_5 
ROOT
ATOM      1  C1  I4B d   1       0.117   0.817  -0.220  0.00  0.00    -0.075 A 
ATOM      2  C2  I4B d   1       0.509  -0.065   0.757  0.00  0.00     0.003 A 
ATOM      3  C3  I4B d   1       1.210  -1.246   0.411  0.00  0.00     0.002 A 
ATOM      4  C4  I4B d   1       1.451  -1.529  -0.918  0.00  0.00    -0.004 A 
ATOM      5  C5  I4B d   1       1.073  -0.623  -1.905  0.00  0.00     0.002 A 
ATOM      6  C6  I4B d   1       0.412   0.564  -1.553  0.00  0.00     0.003 A 
ENDROOT
BRANCH   1   7
ATOM      7  C1' I4B d   1      -0.649   2.038   0.178  0.00  0.00     0.060 C 
BRANCH   7   8
ATOM      8  C2' I4B d   1       0.346   3.088   0.628  0.00  0.00    -0.013 C 
ATOM      9  C4' I4B d   1       0.049   4.425  -0.000  0.00  0.00     0.013 C 
ATOM     10  C3' I4B d   1       0.290   3.168   2.124  0.00  0.00     0.013 C 
ENDBRANCH   7   8
ENDBRANCH   1   7
TORSDOF 2
ENDMDL
