MODEL 1
REMARK minimizedAffinity -1.4462409
REMARK minimizedRMSD -1
REMARK  1 active torsions:
REMARK  status: ('A' for Active; 'I' for Inactive)
REMARK    1  A    between atoms: C1_2  and  C2_3 
ROOT
ATOM      1  C2  UNL d   1      -0.578  -0.104   0.624  0.00  0.00    -0.081 A 
ATOM      2  C3  UNL d   1      -1.262   1.097   0.847  0.00  0.00     0.006 A 
ATOM      3  C4  UNL d   1      -1.054   1.823   2.022  0.00  0.00     0.002 A 
ATOM      4  C5  UNL d   1      -0.153   1.365   2.989  0.00  0.00    -0.080 A 
ATOM      5  C6  UNL d   1       0.103   2.151   4.241  0.00  0.00     0.076 C 
ATOM      6  C7  UNL d   1       0.518   0.157   2.774  0.00  0.00     0.002 A 
ATOM      7  C8  UNL d   1       0.310  -0.570   1.600  0.00  0.00     0.006 A 
ENDROOT
BRANCH   1   8
ATOM      8  C1  UNL d   1      -0.751  -0.856  -0.671  0.00  0.00     0.054 C 
ATOM      9  C   UNL d   1       0.506  -1.635  -1.031  0.00  0.00     0.018 C 
ENDBRANCH   1   8
TORSDOF 1
ENDMDL
