MODEL 1
REMARK minimizedAffinity -2.34615898
REMARK minimizedRMSD -1
REMARK  1 active torsions:
REMARK  status: ('A' for Active; 'I' for Inactive)
REMARK    1  A    between atoms: C1_2  and  C2_3 
ROOT
ATOM      1  C2  UNL d   1      -0.633   1.176   0.713  0.00  0.00    -0.081 A 
ATOM      2  C3  UNL d   1      -0.974  -0.051   1.294  0.00  0.00     0.006 A 
ATOM      3  C4  UNL d   1      -0.543  -1.250   0.722  0.00  0.00     0.002 A 
ATOM      4  C5  UNL d   1       0.243  -1.242  -0.436  0.00  0.00    -0.080 A 
ATOM      5  C6  UNL d   1       0.738  -2.521  -1.043  0.00  0.00     0.076 C 
ATOM      6  C7  UNL d   1       0.569  -0.016  -1.027  0.00  0.00     0.002 A 
ATOM      7  C8  UNL d   1       0.138   1.183  -0.455  0.00  0.00     0.006 A 
ENDROOT
BRANCH   1   8
ATOM      8  C1  UNL d   1      -1.042   2.473   1.364  0.00  0.00     0.054 C 
ATOM      9  C   UNL d   1      -0.572   3.672   0.553  0.00  0.00     0.018 C 
ENDBRANCH   1   8
TORSDOF 1
ENDMDL
