MODEL 1
REMARK minimizedAffinity -3.28362346
REMARK minimizedRMSD -1
REMARK  1 active torsions:
REMARK  status: ('A' for Active; 'I' for Inactive)
REMARK    1  A    between atoms: C1_2  and  C2_3 
ROOT
ATOM      1  C2  UNL d   1       0.728  -1.695  -0.664  0.00  0.00    -0.081 A 
ATOM      2  C3  UNL d   1       1.506  -0.783   0.060  0.00  0.00     0.006 A 
ATOM      3  C4  UNL d   1       0.907   0.103   0.958  0.00  0.00     0.002 A 
ATOM      4  C5  UNL d   1      -0.478   0.087   1.154  0.00  0.00    -0.080 A 
ATOM      5  C6  UNL d   1      -1.131   1.012   2.138  0.00  0.00     0.076 C 
ATOM      6  C7  UNL d   1      -1.258  -0.812   0.418  0.00  0.00     0.002 A 
ATOM      7  C8  UNL d   1      -0.659  -1.698  -0.481  0.00  0.00     0.006 A 
ENDROOT
BRANCH   1   8
ATOM      8  C1  UNL d   1       1.378  -2.695  -1.585  0.00  0.00     0.054 C 
ATOM      9  C   UNL d   1       0.474  -3.896  -1.824  0.00  0.00     0.018 C 
ENDBRANCH   1   8
TORSDOF 1
ENDMDL
