MODEL 1
REMARK minimizedAffinity -4.11010742
REMARK minimizedRMSD -1
REMARK  1 active torsions:
REMARK  status: ('A' for Active; 'I' for Inactive)
REMARK    1  A    between atoms: C1_2  and  C2_3 
ROOT
ATOM      1  C2  UNL d   1       0.751   0.283  -0.089  0.00  0.00    -0.081 A 
ATOM      2  C3  UNL d   1       0.697   1.475  -0.821  0.00  0.00     0.006 A 
ATOM      3  C4  UNL d   1      -0.242   2.459  -0.504  0.00  0.00     0.002 A 
ATOM      4  C5  UNL d   1      -1.138   2.271   0.554  0.00  0.00    -0.080 A 
ATOM      5  C6  UNL d   1      -2.131   3.332   0.924  0.00  0.00     0.076 C 
ATOM      6  C7  UNL d   1      -1.096   1.072   1.274  0.00  0.00     0.002 A 
ATOM      7  C8  UNL d   1      -0.158   0.088   0.957  0.00  0.00     0.006 A 
ENDROOT
BRANCH   1   8
ATOM      8  C1  UNL d   1       1.805  -0.753  -0.387  0.00  0.00     0.054 C 
ATOM      9  C   UNL d   1       1.298  -1.789  -1.380  0.00  0.00     0.018 C 
ENDBRANCH   1   8
TORSDOF 1
ENDMDL
