MODEL 1
REMARK minimizedAffinity -2.60220575
REMARK minimizedRMSD -1
REMARK  1 active torsions:
REMARK  status: ('A' for Active; 'I' for Inactive)
REMARK    1  A    between atoms: C1_2  and  C2_3 
ROOT
ATOM      1  C2  UNL d   1       0.579  -1.678  -0.557  0.00  0.00    -0.081 A 
ATOM      2  C3  UNL d   1       0.058  -2.086   0.677  0.00  0.00     0.006 A 
ATOM      3  C4  UNL d   1      -0.451  -1.146   1.577  0.00  0.00     0.002 A 
ATOM      4  C5  UNL d   1      -0.454   0.215   1.255  0.00  0.00    -0.080 A 
ATOM      5  C6  UNL d   1      -1.025   1.232   2.199  0.00  0.00     0.076 C 
ATOM      6  C7  UNL d   1       0.083   0.625   0.030  0.00  0.00     0.002 A 
ATOM      7  C8  UNL d   1       0.592  -0.314  -0.870  0.00  0.00     0.006 A 
ENDROOT
BRANCH   1   8
ATOM      8  C1  UNL d   1       1.069  -2.694  -1.556  0.00  0.00     0.054 C 
ATOM      9  C   UNL d   1      -0.050  -3.138  -2.487  0.00  0.00     0.018 C 
ENDBRANCH   1   8
TORSDOF 1
ENDMDL
