MODEL 1
REMARK minimizedAffinity -1.26733351
REMARK minimizedRMSD -1
REMARK  1 active torsions:
REMARK  status: ('A' for Active; 'I' for Inactive)
REMARK    1  A    between atoms: C1_2  and  C2_3 
ROOT
ATOM      1  C2  UNL d   1       0.237   2.096  -0.175  0.00  0.00    -0.081 A 
ATOM      2  C3  UNL d   1      -0.608   2.048   0.940  0.00  0.00     0.006 A 
ATOM      3  C4  UNL d   1      -0.674   0.898   1.731  0.00  0.00     0.002 A 
ATOM      4  C5  UNL d   1       0.110  -0.219   1.424  0.00  0.00    -0.080 A 
ATOM      5  C6  UNL d   1       0.072  -1.449   2.281  0.00  0.00     0.076 C 
ATOM      6  C7  UNL d   1       0.941  -0.178   0.299  0.00  0.00     0.002 A 
ATOM      7  C8  UNL d   1       1.007   0.971  -0.492  0.00  0.00     0.006 A 
ENDROOT
BRANCH   1   8
ATOM      8  C1  UNL d   1       0.358   3.357  -0.992  0.00  0.00     0.054 C 
ATOM      9  C   UNL d   1       0.749   4.544  -0.122  0.00  0.00     0.018 C 
ENDBRANCH   1   8
TORSDOF 1
ENDMDL
