MODEL 1
REMARK minimizedAffinity -1.39719856
REMARK minimizedRMSD -1
REMARK  1 active torsions:
REMARK  status: ('A' for Active; 'I' for Inactive)
REMARK    1  A    between atoms: C1_2  and  C2_3 
ROOT
ATOM      1  C2  UNL d   1       0.682  -1.251  -0.867  0.00  0.00    -0.081 A 
ATOM      2  C3  UNL d   1      -0.710  -1.370  -0.778  0.00  0.00     0.006 A 
ATOM      3  C4  UNL d   1      -1.438  -0.547   0.085  0.00  0.00     0.002 A 
ATOM      4  C5  UNL d   1      -0.788   0.413   0.867  0.00  0.00    -0.080 A 
ATOM      5  C6  UNL d   1      -1.560   1.323   1.775  0.00  0.00     0.076 C 
ATOM      6  C7  UNL d   1       0.605   0.520   0.792  0.00  0.00     0.002 A 
ATOM      7  C8  UNL d   1       1.334  -0.303  -0.070  0.00  0.00     0.006 A 
ENDROOT
BRANCH   1   8
ATOM      8  C1  UNL d   1       1.463  -2.092  -1.844  0.00  0.00     0.054 C 
ATOM      9  C   UNL d   1       0.635  -3.265  -2.349  0.00  0.00     0.018 C 
ENDBRANCH   1   8
TORSDOF 1
ENDMDL
