MODEL 1
REMARK minimizedAffinity -5.5574069
REMARK minimizedRMSD -1
REMARK  1 active torsions:
REMARK  status: ('A' for Active; 'I' for Inactive)
REMARK    1  A    between atoms: C1_2  and  C2_3 
ROOT
ATOM      1  C2  UNL d   1       0.571  -2.046  -1.048  0.00  0.00    -0.081 A 
ATOM      2  C3  UNL d   1      -0.244  -2.476   0.007  0.00  0.00     0.006 A 
ATOM      3  C4  UNL d   1      -0.742  -1.558   0.935  0.00  0.00     0.002 A 
ATOM      4  C5  UNL d   1      -0.442  -0.197   0.819  0.00  0.00    -0.080 A 
ATOM      5  C6  UNL d   1      -0.996   0.803   1.791  0.00  0.00     0.076 C 
ATOM      6  C7  UNL d   1       0.386   0.230  -0.225  0.00  0.00     0.002 A 
ATOM      7  C8  UNL d   1       0.886  -0.687  -1.153  0.00  0.00     0.006 A 
ENDROOT
BRANCH   1   8
ATOM      8  C1  UNL d   1       1.057  -3.024  -2.087  0.00  0.00     0.054 C 
ATOM      9  C   UNL d   1       0.655  -2.588  -3.489  0.00  0.00     0.018 C 
ENDBRANCH   1   8
TORSDOF 1
ENDMDL
