MODEL 1
REMARK minimizedAffinity -3.76867509
REMARK minimizedRMSD -1
REMARK  1 active torsions:
REMARK  status: ('A' for Active; 'I' for Inactive)
REMARK    1  A    between atoms: C1_2  and  C2_3 
ROOT
ATOM      1  C2  UNL d   1       0.428  -1.614  -0.833  0.00  0.00    -0.081 A 
ATOM      2  C3  UNL d   1       1.236  -0.591  -0.322  0.00  0.00     0.006 A 
ATOM      3  C4  UNL d   1       0.706   0.359   0.555  0.00  0.00     0.002 A 
ATOM      4  C5  UNL d   1      -0.637   0.297   0.940  0.00  0.00    -0.080 A 
ATOM      5  C6  UNL d   1      -1.211   1.293   1.904  0.00  0.00     0.076 C 
ATOM      6  C7  UNL d   1      -1.449  -0.715   0.416  0.00  0.00     0.002 A 
ATOM      7  C8  UNL d   1      -0.920  -1.664  -0.461  0.00  0.00     0.006 A 
ENDROOT
BRANCH   1   8
ATOM      8  C1  UNL d   1       1.013  -2.678  -1.727  0.00  0.00     0.054 C 
ATOM      9  C   UNL d   1       0.022  -3.102  -2.802  0.00  0.00     0.018 C 
ENDBRANCH   1   8
TORSDOF 1
ENDMDL
