MODEL 1
REMARK minimizedAffinity -3.51889324
REMARK minimizedRMSD -1
REMARK  1 active torsions:
REMARK  status: ('A' for Active; 'I' for Inactive)
REMARK    1  A    between atoms: C1_2  and  C2_3 
ROOT
ATOM      1  C2  UNL d   1      -0.552   0.241   0.865  0.00  0.00    -0.081 A 
ATOM      2  C3  UNL d   1       0.763  -0.103   0.529  0.00  0.00     0.006 A 
ATOM      3  C4  UNL d   1       1.016  -1.048  -0.469  0.00  0.00     0.002 A 
ATOM      4  C5  UNL d   1      -0.042  -1.658  -1.152  0.00  0.00    -0.080 A 
ATOM      5  C6  UNL d   1       0.216  -2.652  -2.246  0.00  0.00     0.076 C 
ATOM      6  C7  UNL d   1      -1.356  -1.328  -0.805  0.00  0.00     0.002 A 
ATOM      7  C8  UNL d   1      -1.609  -0.384   0.193  0.00  0.00     0.006 A 
ENDROOT
BRANCH   1   8
ATOM      8  C1  UNL d   1      -0.826   1.306   1.895  0.00  0.00     0.054 C 
ATOM      9  C   UNL d   1      -0.858   2.691   1.264  0.00  0.00     0.018 C 
ENDBRANCH   1   8
TORSDOF 1
ENDMDL
