MODEL 1
REMARK minimizedAffinity -3.88547611
REMARK minimizedRMSD -1
REMARK  1 active torsions:
REMARK  status: ('A' for Active; 'I' for Inactive)
REMARK    1  A    between atoms: C1_2  and  C2_3 
ROOT
ATOM      1  C2  UNL d   1      -0.240   2.062   0.012  0.00  0.00    -0.081 A 
ATOM      2  C3  UNL d   1       0.808   2.000  -0.914  0.00  0.00     0.006 A 
ATOM      3  C4  UNL d   1       1.405   0.777  -1.228  0.00  0.00     0.002 A 
ATOM      4  C5  UNL d   1       0.960  -0.405  -0.627  0.00  0.00    -0.080 A 
ATOM      5  C6  UNL d   1       1.572  -1.729  -0.977  0.00  0.00     0.076 C 
ATOM      6  C7  UNL d   1      -0.076  -0.342   0.312  0.00  0.00     0.002 A 
ATOM      7  C8  UNL d   1      -0.673   0.881   0.626  0.00  0.00     0.006 A 
ENDROOT
BRANCH   1   8
ATOM      8  C1  UNL d   1      -0.930   3.370   0.304  0.00  0.00     0.054 C 
ATOM      9  C   UNL d   1      -1.097   3.585   1.801  0.00  0.00     0.018 C 
ENDBRANCH   1   8
TORSDOF 1
ENDMDL
