MODEL 1
REMARK minimizedAffinity -4.70935297
REMARK minimizedRMSD -1
REMARK  1 active torsions:
REMARK  status: ('A' for Active; 'I' for Inactive)
REMARK    1  A    between atoms: C1_2  and  C2_3 
ROOT
ATOM      1  C2  UNL d   1      -0.611   0.630   0.655  0.00  0.00    -0.081 A 
ATOM      2  C3  UNL d   1       0.741   0.430   0.351  0.00  0.00     0.006 A 
ATOM      3  C4  UNL d   1       1.132  -0.623  -0.480  0.00  0.00     0.002 A 
ATOM      4  C5  UNL d   1       0.178  -1.488  -1.026  0.00  0.00    -0.080 A 
ATOM      5  C6  UNL d   1       0.581  -2.604  -1.943  0.00  0.00     0.076 C 
ATOM      6  C7  UNL d   1      -1.171  -1.299  -0.708  0.00  0.00     0.002 A 
ATOM      7  C8  UNL d   1      -1.563  -0.247   0.123  0.00  0.00     0.006 A 
ENDROOT
BRANCH   1   8
ATOM      8  C1  UNL d   1      -1.041   1.803   1.498  0.00  0.00     0.054 C 
ATOM      9  C   UNL d   1      -1.083   3.086   0.681  0.00  0.00     0.018 C 
ENDBRANCH   1   8
TORSDOF 1
ENDMDL
