MODEL 1
REMARK minimizedAffinity 7.75386095
REMARK minimizedRMSD -1
REMARK  2 active torsions:
REMARK  status: ('A' for Active; 'I' for Inactive)
REMARK    1  A    between atoms: C2'_3  and  C1'_4 
REMARK    2  A    between atoms: C1'_4  and  C1_5 
ROOT
ATOM      1  C1  I4B d   1       1.171   0.103  -0.892  0.00  0.00    -0.075 A 
ATOM      2  C2  I4B d   1       0.749   1.398  -1.062  0.00  0.00     0.003 A 
ATOM      3  C3  I4B d   1      -0.533   1.665  -1.599  0.00  0.00     0.002 A 
ATOM      4  C4  I4B d   1      -1.336   0.615  -1.996  0.00  0.00    -0.004 A 
ATOM      5  C5  I4B d   1      -0.916  -0.697  -1.801  0.00  0.00     0.002 A 
ATOM      6  C6  I4B d   1       0.340  -0.956  -1.234  0.00  0.00     0.003 A 
ENDROOT
BRANCH   1   7
ATOM      7  C1' I4B d   1       2.545  -0.143  -0.353  0.00  0.00     0.060 C 
BRANCH   7   8
ATOM      8  C2' I4B d   1       2.619   0.468   1.032  0.00  0.00    -0.013 C 
ATOM      9  C4' I4B d   1       2.620  -0.597   2.098  0.00  0.00     0.013 C 
ATOM     10  C3' I4B d   1       3.861   1.305   1.102  0.00  0.00     0.013 C 
ENDBRANCH   7   8
ENDBRANCH   1   7
TORSDOF 2
ENDMDL
