MODEL 1
REMARK minimizedAffinity 4.53492689
REMARK minimizedRMSD -1
REMARK  2 active torsions:
REMARK  status: ('A' for Active; 'I' for Inactive)
REMARK    1  A    between atoms: C2'_3  and  C1'_4 
REMARK    2  A    between atoms: C1'_4  and  C1_5 
ROOT
ATOM      1  C1  I4B d   1       0.522   1.067   0.063  0.00  0.00    -0.075 A 
ATOM      2  C2  I4B d   1      -0.037   0.467  -1.038  0.00  0.00     0.003 A 
ATOM      3  C3  I4B d   1      -1.082   1.110  -1.746  0.00  0.00     0.002 A 
ATOM      4  C4  I4B d   1      -1.567   2.319  -1.292  0.00  0.00    -0.004 A 
ATOM      5  C5  I4B d   1      -0.983   2.936  -0.189  0.00  0.00     0.002 A 
ATOM      6  C6  I4B d   1       0.076   2.312   0.486  0.00  0.00     0.003 A 
ENDROOT
BRANCH   1   7
ATOM      7  C1' I4B d   1       1.601   0.345   0.806  0.00  0.00     0.060 C 
BRANCH   7   8
ATOM      8  C2' I4B d   1       1.827   1.068   2.119  0.00  0.00    -0.013 C 
ATOM      9  C4' I4B d   1       2.176   0.102   3.220  0.00  0.00     0.013 C 
ATOM     10  C3' I4B d   1       2.922   2.071   1.911  0.00  0.00     0.013 C 
ENDBRANCH   7   8
ENDBRANCH   1   7
TORSDOF 2
ENDMDL
