MODEL 1
REMARK minimizedAffinity 4.72315502
REMARK minimizedRMSD -1
REMARK  2 active torsions:
REMARK  status: ('A' for Active; 'I' for Inactive)
REMARK    1  A    between atoms: C2'_3  and  C1'_4 
REMARK    2  A    between atoms: C1'_4  and  C1_5 
ROOT
ATOM      1  C1  I4B d   1      -0.034   1.261  -0.500  0.00  0.00    -0.075 A 
ATOM      2  C2  I4B d   1      -1.370   0.995  -0.668  0.00  0.00     0.003 A 
ATOM      3  C3  I4B d   1      -2.341   1.950  -0.283  0.00  0.00     0.002 A 
ATOM      4  C4  I4B d   1      -1.937   3.129   0.309  0.00  0.00    -0.004 A 
ATOM      5  C5  I4B d   1      -0.582   3.407   0.458  0.00  0.00     0.002 A 
ATOM      6  C6  I4B d   1       0.377   2.473   0.040  0.00  0.00     0.003 A 
ENDROOT
BRANCH   1   7
ATOM      7  C1' I4B d   1       0.964   0.216  -0.887  0.00  0.00     0.060 C 
BRANCH   7   8
ATOM      8  C2' I4B d   1       2.349   0.772  -0.623  0.00  0.00    -0.013 C 
ATOM      9  C4' I4B d   1       3.024   0.041   0.506  0.00  0.00     0.013 C 
ATOM     10  C3' I4B d   1       3.142   0.661  -1.892  0.00  0.00     0.013 C 
ENDBRANCH   7   8
ENDBRANCH   1   7
TORSDOF 2
ENDMDL
