MODEL 1
REMARK minimizedAffinity 7.25095701
REMARK minimizedRMSD -1
REMARK  2 active torsions:
REMARK  status: ('A' for Active; 'I' for Inactive)
REMARK    1  A    between atoms: C2'_3  and  C1'_4 
REMARK    2  A    between atoms: C1'_4  and  C1_5 
ROOT
ATOM      1  C1  I4B d   1       1.205   0.915  -0.412  0.00  0.00    -0.075 A 
ATOM      2  C2  I4B d   1       0.712   2.186  -0.252  0.00  0.00     0.003 A 
ATOM      3  C3  I4B d   1      -0.480   2.576  -0.909  0.00  0.00     0.002 A 
ATOM      4  C4  I4B d   1      -1.114   1.685  -1.751  0.00  0.00    -0.004 A 
ATOM      5  C5  I4B d   1      -0.625   0.390  -1.894  0.00  0.00     0.002 A 
ATOM      6  C6  I4B d   1       0.535  -0.002  -1.211  0.00  0.00     0.003 A 
ENDROOT
BRANCH   1   7
ATOM      7  C1' I4B d   1       2.484   0.548   0.271  0.00  0.00     0.060 C 
BRANCH   7   8
ATOM      8  C2' I4B d   1       2.662   1.472   1.458  0.00  0.00    -0.013 C 
ATOM      9  C4' I4B d   1       2.500   0.729   2.758  0.00  0.00     0.013 C 
ATOM     10  C3' I4B d   1       4.022   2.098   1.358  0.00  0.00     0.013 C 
ENDBRANCH   7   8
ENDBRANCH   1   7
TORSDOF 2
ENDMDL
