MODEL 1
REMARK minimizedAffinity 11.8072252
REMARK minimizedRMSD -1
REMARK  2 active torsions:
REMARK  status: ('A' for Active; 'I' for Inactive)
REMARK    1  A    between atoms: C2'_3  and  C1'_4 
REMARK    2  A    between atoms: C1'_4  and  C1_5 
ROOT
ATOM      1  C1  I4B d   1       4.260   1.367  -0.903  0.00  0.00    -0.075 A 
ATOM      2  C2  I4B d   1       3.976   1.147   0.422  0.00  0.00     0.003 A 
ATOM      3  C3  I4B d   1       2.812   0.431   0.792  0.00  0.00     0.002 A 
ATOM      4  C4  I4B d   1       1.939  -0.000  -0.186  0.00  0.00    -0.004 A 
ATOM      5  C5  I4B d   1       2.241   0.204  -1.530  0.00  0.00     0.002 A 
ATOM      6  C6  I4B d   1       3.414   0.881  -1.891  0.00  0.00     0.003 A 
ENDROOT
BRANCH   1   7
ATOM      7  C1' I4B d   1       5.481   2.155  -1.257  0.00  0.00     0.060 C 
BRANCH   7   8
ATOM      8  C2' I4B d   1       5.274   2.739  -2.640  0.00  0.00    -0.013 C 
ATOM      9  C4' I4B d   1       5.764   4.162  -2.709  0.00  0.00     0.013 C 
ATOM     10  C3' I4B d   1       5.999   1.869  -3.623  0.00  0.00     0.013 C 
ENDBRANCH   7   8
ENDBRANCH   1   7
TORSDOF 2
ENDMDL
