MODEL 1
REMARK minimizedAffinity 8.59376431
REMARK minimizedRMSD -1
REMARK  1 active torsions:
REMARK  status: ('A' for Active; 'I' for Inactive)
REMARK    1  A    between atoms: C1_2  and  C2_3 
ROOT
ATOM      1  C2  UNL d   1      -3.542   1.942  -2.624  0.00  0.00    -0.073 A 
ATOM      2  C3  UNL d   1      -4.141   2.907  -1.807  0.00  0.00    -0.002 A 
ATOM      3  C4  UNL d   1      -4.555   4.127  -2.343  0.00  0.00     0.004 A 
ATOM      4  C5  UNL d   1      -4.380   4.392  -3.702  0.00  0.00    -0.004 A 
ATOM      5  C6  UNL d   1      -3.794   3.436  -4.537  0.00  0.00    -0.075 A 
ATOM      6  C7  UNL d   1      -3.597   3.706  -6.000  0.00  0.00     0.076 C 
ATOM      7  C8  UNL d   1      -3.379   2.214  -3.990  0.00  0.00     0.001 A 
ENDROOT
BRANCH   1   8
ATOM      8  C1  UNL d   1      -3.100   0.621  -2.051  0.00  0.00     0.053 C 
ATOM      9  C   UNL d   1      -1.925   0.777  -1.098  0.00  0.00     0.018 C 
ENDBRANCH   1   8
TORSDOF 1
ENDMDL
