MODEL 1
REMARK minimizedAffinity 5.1238718
REMARK minimizedRMSD -1
REMARK  1 active torsions:
REMARK  status: ('A' for Active; 'I' for Inactive)
REMARK    1  A    between atoms: C1_2  and  C2_3 
ROOT
ATOM      1  C2  UNL d   1       1.154  -2.616   4.365  0.00  0.00    -0.073 A 
ATOM      2  C3  UNL d   1       1.869  -3.650   3.750  0.00  0.00    -0.002 A 
ATOM      3  C4  UNL d   1       2.255  -3.542   2.414  0.00  0.00     0.004 A 
ATOM      4  C5  UNL d   1       1.938  -2.399   1.681  0.00  0.00    -0.004 A 
ATOM      5  C6  UNL d   1       1.235  -1.349   2.282  0.00  0.00    -0.075 A 
ATOM      6  C7  UNL d   1       0.885  -0.113   1.507  0.00  0.00     0.076 C 
ATOM      7  C8  UNL d   1       0.848  -1.466   3.623  0.00  0.00     0.001 A 
ENDROOT
BRANCH   1   8
ATOM      8  C1  UNL d   1       0.740  -2.725   5.810  0.00  0.00     0.053 C 
ATOM      9  C   UNL d   1      -0.424  -3.684   5.998  0.00  0.00     0.018 C 
ENDBRANCH   1   8
TORSDOF 1
ENDMDL
