MODEL 1
REMARK minimizedAffinity 14.736475
REMARK minimizedRMSD -1
REMARK  1 active torsions:
REMARK  status: ('A' for Active; 'I' for Inactive)
REMARK    1  A    between atoms: C1_2  and  C2_3 
ROOT
ATOM      1  C2  UNL d   1      -3.746   2.209  -3.251  0.00  0.00    -0.073 A 
ATOM      2  C3  UNL d   1      -3.920   1.955  -4.616  0.00  0.00    -0.002 A 
ATOM      3  C4  UNL d   1      -3.925   3.007  -5.534  0.00  0.00     0.004 A 
ATOM      4  C5  UNL d   1      -3.750   4.320  -5.097  0.00  0.00    -0.004 A 
ATOM      5  C6  UNL d   1      -3.563   4.593  -3.739  0.00  0.00    -0.075 A 
ATOM      6  C7  UNL d   1      -3.375   6.000  -3.253  0.00  0.00     0.076 C 
ATOM      7  C8  UNL d   1      -3.561   3.532  -2.823  0.00  0.00     0.001 A 
ENDROOT
BRANCH   1   8
ATOM      8  C1  UNL d   1      -3.733   1.076  -2.257  0.00  0.00     0.053 C 
ATOM      9  C   UNL d   1      -2.326   0.751  -1.782  0.00  0.00     0.018 C 
ENDBRANCH   1   8
TORSDOF 1
ENDMDL
