MODEL 1
REMARK minimizedAffinity 9.85615158
REMARK minimizedRMSD -1
REMARK  1 active torsions:
REMARK  status: ('A' for Active; 'I' for Inactive)
REMARK    1  A    between atoms: C1_2  and  C2_3 
ROOT
ATOM      1  C2  UNL d   1       1.533  -2.218   3.793  0.00  0.00    -0.073 A 
ATOM      2  C3  UNL d   1       2.271  -3.247   3.196  0.00  0.00    -0.002 A 
ATOM      3  C4  UNL d   1       2.646  -3.158   1.854  0.00  0.00     0.004 A 
ATOM      4  C5  UNL d   1       2.293  -2.040   1.099  0.00  0.00    -0.004 A 
ATOM      5  C6  UNL d   1       1.566  -0.997   1.681  0.00  0.00    -0.075 A 
ATOM      6  C7  UNL d   1       1.176   0.212   0.881  0.00  0.00     0.076 C 
ATOM      7  C8  UNL d   1       1.191  -1.094   3.028  0.00  0.00     0.001 A 
ENDROOT
BRANCH   1   8
ATOM      8  C1  UNL d   1       1.132  -2.306   5.242  0.00  0.00     0.053 C 
ATOM      9  C   UNL d   1       1.918  -3.373   5.988  0.00  0.00     0.018 C 
ENDBRANCH   1   8
TORSDOF 1
ENDMDL
