MODEL 1
REMARK minimizedAffinity 8.54290581
REMARK minimizedRMSD -1
REMARK  1 active torsions:
REMARK  status: ('A' for Active; 'I' for Inactive)
REMARK    1  A    between atoms: C1_2  and  C2_3 
ROOT
ATOM      1  C2  UNL d   1       1.832  -2.559   3.076  0.00  0.00    -0.073 A 
ATOM      2  C3  UNL d   1       1.028  -1.416   3.005  0.00  0.00    -0.002 A 
ATOM      3  C4  UNL d   1       1.066  -0.596   1.876  0.00  0.00     0.004 A 
ATOM      4  C5  UNL d   1       1.901  -0.915   0.805  0.00  0.00    -0.004 A 
ATOM      5  C6  UNL d   1       2.703  -2.060   0.852  0.00  0.00    -0.075 A 
ATOM      6  C7  UNL d   1       3.608  -2.415  -0.290  0.00  0.00     0.076 C 
ATOM      7  C8  UNL d   1       2.662  -2.876   1.991  0.00  0.00     0.001 A 
ENDROOT
BRANCH   1   8
ATOM      8  C1  UNL d   1       1.790  -3.450   4.290  0.00  0.00     0.053 C 
ATOM      9  C   UNL d   1       1.272  -2.718   5.517  0.00  0.00     0.018 C 
ENDBRANCH   1   8
TORSDOF 1
ENDMDL
