MODEL 1
REMARK minimizedAffinity 16.0805454
REMARK minimizedRMSD -1
REMARK  1 active torsions:
REMARK  status: ('A' for Active; 'I' for Inactive)
REMARK    1  A    between atoms: C1_2  and  C2_3 
ROOT
ATOM      1  C2  UNL d   1       1.054  -1.708   2.410  0.00  0.00    -0.073 A 
ATOM      2  C3  UNL d   1       1.691  -2.742   1.715  0.00  0.00    -0.002 A 
ATOM      3  C4  UNL d   1       2.222  -3.833   2.404  0.00  0.00     0.004 A 
ATOM      4  C5  UNL d   1       2.116  -3.905   3.793  0.00  0.00    -0.004 A 
ATOM      5  C6  UNL d   1       1.473  -2.888   4.505  0.00  0.00    -0.075 A 
ATOM      6  C7  UNL d   1       1.352  -2.949   5.999  0.00  0.00     0.076 C 
ATOM      7  C8  UNL d   1       0.944  -1.794   3.806  0.00  0.00     0.001 A 
ENDROOT
BRANCH   1   8
ATOM      8  C1  UNL d   1       0.473  -0.532   1.670  0.00  0.00     0.053 C 
ATOM      9  C   UNL d   1       1.554   0.351   1.065  0.00  0.00     0.018 C 
ENDBRANCH   1   8
TORSDOF 1
ENDMDL
