MODEL 1
REMARK minimizedAffinity 5.17552042
REMARK minimizedRMSD -1
REMARK  1 active torsions:
REMARK  status: ('A' for Active; 'I' for Inactive)
REMARK    1  A    between atoms: C1_2  and  C2_3 
ROOT
ATOM      1  C2  UNL d   1       1.173  -0.864   0.583  0.00  0.00    -0.077 A 
ATOM      2  C3  UNL d   1       2.340  -1.584   0.874  0.00  0.00     0.002 A 
ATOM      3  C4  UNL d   1       2.565  -2.074   2.162  0.00  0.00     0.002 A 
ATOM      4  C5  UNL d   1       1.626  -1.853   3.167  0.00  0.00    -0.004 A 
ATOM      5  C6  UNL d   1       0.463  -1.136   2.888  0.00  0.00     0.002 A 
ATOM      6  C7  UNL d   1       0.237  -0.644   1.602  0.00  0.00     0.002 A 
ENDROOT
BRANCH   1   7
ATOM      7  C1  UNL d   1       0.905  -0.377  -0.817  0.00  0.00     0.055 C 
ATOM      8  C   UNL d   1       1.557   0.976  -1.067  0.00  0.00     0.019 C 
ENDBRANCH   1   7
TORSDOF 1
ENDMDL
