MODEL 1
REMARK minimizedAffinity 6.058249
REMARK minimizedRMSD -1
REMARK  1 active torsions:
REMARK  status: ('A' for Active; 'I' for Inactive)
REMARK    1  A    between atoms: C1_2  and  C2_3 
ROOT
ATOM      1  C2  UNL d   1       1.084  -1.550   1.048  0.00  0.00    -0.077 A 
ATOM      2  C3  UNL d   1       2.397  -2.022   1.186  0.00  0.00     0.002 A 
ATOM      3  C4  UNL d   1       3.218  -2.162   0.065  0.00  0.00     0.002 A 
ATOM      4  C5  UNL d   1       2.736  -1.828  -1.199  0.00  0.00    -0.004 A 
ATOM      5  C6  UNL d   1       1.431  -1.360  -1.346  0.00  0.00     0.002 A 
ATOM      6  C7  UNL d   1       0.609  -1.221  -0.227  0.00  0.00     0.002 A 
ENDROOT
BRANCH   1   7
ATOM      7  C1  UNL d   1       0.213  -1.352   2.262  0.00  0.00     0.055 C 
ATOM      8  C   UNL d   1       0.836  -0.361   3.234  0.00  0.00     0.019 C 
ENDBRANCH   1   7
TORSDOF 1
ENDMDL
