MODEL 1
REMARK minimizedAffinity -0.399052054
REMARK minimizedRMSD -1
REMARK  1 active torsions:
REMARK  status: ('A' for Active; 'I' for Inactive)
REMARK    1  A    between atoms: C1_2  and  C2_3 
ROOT
ATOM      1  C2  UNL d   1       0.318  -0.924   1.283  0.00  0.00    -0.077 A 
ATOM      2  C3  UNL d   1      -0.876  -0.808   0.557  0.00  0.00     0.002 A 
ATOM      3  C4  UNL d   1      -0.852  -0.734  -0.837  0.00  0.00     0.002 A 
ATOM      4  C5  UNL d   1       0.363  -0.779  -1.517  0.00  0.00    -0.004 A 
ATOM      5  C6  UNL d   1       1.557  -0.893  -0.805  0.00  0.00     0.002 A 
ATOM      6  C7  UNL d   1       1.534  -0.966   0.589  0.00  0.00     0.002 A 
ENDROOT
BRANCH   1   7
ATOM      7  C1  UNL d   1       0.290  -1.054   2.783  0.00  0.00     0.055 C 
ATOM      8  C   UNL d   1      -0.978  -1.751   3.255  0.00  0.00     0.019 C 
ENDBRANCH   1   7
TORSDOF 1
ENDMDL
