MODEL 1
REMARK minimizedAffinity 8.04804134
REMARK minimizedRMSD -1
REMARK  1 active torsions:
REMARK  status: ('A' for Active; 'I' for Inactive)
REMARK    1  A    between atoms: C1_2  and  C2_3 
ROOT
ATOM      1  C2  UNL d   1       1.188  -1.874   1.789  0.00  0.00    -0.077 A 
ATOM      2  C3  UNL d   1       2.199  -2.840   1.695  0.00  0.00     0.002 A 
ATOM      3  C4  UNL d   1       3.064  -2.853   0.599  0.00  0.00     0.002 A 
ATOM      4  C5  UNL d   1       2.929  -1.900  -0.408  0.00  0.00    -0.004 A 
ATOM      5  C6  UNL d   1       1.926  -0.936  -0.325  0.00  0.00     0.002 A 
ATOM      6  C7  UNL d   1       1.059  -0.922   0.769  0.00  0.00     0.002 A 
ENDROOT
BRANCH   1   7
ATOM      7  C1  UNL d   1       0.286  -1.828   2.995  0.00  0.00     0.055 C 
ATOM      8  C   UNL d   1      -0.697  -0.669   2.907  0.00  0.00     0.019 C 
ENDBRANCH   1   7
TORSDOF 1
ENDMDL
