MODEL 1
REMARK minimizedAffinity 1.9711051
REMARK minimizedRMSD -1
REMARK  1 active torsions:
REMARK  status: ('A' for Active; 'I' for Inactive)
REMARK    1  A    between atoms: C1_2  and  C2_3 
ROOT
ATOM      1  C2  UNL d   1       2.609  -0.140  -0.928  0.00  0.00    -0.077 A 
ATOM      2  C3  UNL d   1       2.174  -0.028  -2.257  0.00  0.00     0.002 A 
ATOM      3  C4  UNL d   1       2.141   1.217  -2.886  0.00  0.00     0.002 A 
ATOM      4  C5  UNL d   1       2.544   2.359  -2.197  0.00  0.00    -0.004 A 
ATOM      5  C6  UNL d   1       2.976   2.259  -0.875  0.00  0.00     0.002 A 
ATOM      6  C7  UNL d   1       3.009   1.014  -0.244  0.00  0.00     0.002 A 
ENDROOT
BRANCH   1   7
ATOM      7  C1  UNL d   1       2.692  -1.489  -0.263  0.00  0.00     0.055 C 
ATOM      8  C   UNL d   1       1.711  -1.597   0.895  0.00  0.00     0.019 C 
ENDBRANCH   1   7
TORSDOF 1
ENDMDL
