MODEL 1
REMARK minimizedAffinity 4.3564024
REMARK minimizedRMSD -1
REMARK  1 active torsions:
REMARK  status: ('A' for Active; 'I' for Inactive)
REMARK    1  A    between atoms: C1_2  and  C2_3 
ROOT
ATOM      1  C2  UNL d   1       0.552  -1.375   2.817  0.00  0.00    -0.077 A 
ATOM      2  C3  UNL d   1       0.051  -2.651   2.524  0.00  0.00     0.002 A 
ATOM      3  C4  UNL d   1      -1.325  -2.866   2.431  0.00  0.00     0.002 A 
ATOM      4  C5  UNL d   1      -2.212  -1.809   2.625  0.00  0.00    -0.004 A 
ATOM      5  C6  UNL d   1      -1.724  -0.536   2.919  0.00  0.00     0.002 A 
ATOM      6  C7  UNL d   1      -0.349  -0.320   3.013  0.00  0.00     0.002 A 
ENDROOT
BRANCH   1   7
ATOM      7  C1  UNL d   1       2.037  -1.131   2.869  0.00  0.00     0.055 C 
ATOM      8  C   UNL d   1       2.760  -1.873   1.755  0.00  0.00     0.019 C 
ENDBRANCH   1   7
TORSDOF 1
ENDMDL
