MODEL 1
REMARK minimizedAffinity 2.75967407
REMARK minimizedRMSD -1
REMARK  1 active torsions:
REMARK  status: ('A' for Active; 'I' for Inactive)
REMARK    1  A    between atoms: C1_2  and  C2_3 
ROOT
ATOM      1  C2  UNL d   1       2.011  -0.502   0.545  0.00  0.00    -0.077 A 
ATOM      2  C3  UNL d   1       1.333  -0.916  -0.610  0.00  0.00     0.002 A 
ATOM      3  C4  UNL d   1       0.983   0.011  -1.593  0.00  0.00     0.002 A 
ATOM      4  C5  UNL d   1       1.310   1.356  -1.434  0.00  0.00    -0.004 A 
ATOM      5  C6  UNL d   1       1.983   1.778  -0.287  0.00  0.00     0.002 A 
ATOM      6  C7  UNL d   1       2.332   0.853   0.697  0.00  0.00     0.002 A 
ENDROOT
BRANCH   1   7
ATOM      7  C1  UNL d   1       2.434  -1.508   1.584  0.00  0.00     0.055 C 
ATOM      8  C   UNL d   1       2.852  -2.823   0.943  0.00  0.00     0.019 C 
ENDBRANCH   1   7
TORSDOF 1
ENDMDL
