MODEL 1
REMARK minimizedAffinity 7.0076251
REMARK minimizedRMSD -1
REMARK  1 active torsions:
REMARK  status: ('A' for Active; 'I' for Inactive)
REMARK    1  A    between atoms: C1_2  and  C2_3 
ROOT
ATOM      1  C2  UNL d   1      -0.434  -2.075  -0.593  0.00  0.00    -0.076 A 
ATOM      2  C3  UNL d   1       0.556  -1.204  -1.078  0.00  0.00     0.004 A 
ATOM      3  C4  UNL d   1       1.497  -1.635  -2.012  0.00  0.00    -0.003 A 
ATOM      4  C5  UNL d   1       1.462  -2.945  -2.477  0.00  0.00     0.000 A 
ATOM      5  C6  UNL d   1       0.475  -3.818  -2.020  0.00  0.00     0.000 A 
ATOM      6  C7  UNL d   1      -0.490  -3.395  -1.091  0.00  0.00    -0.073 A 
ATOM      7  C8  UNL d   1      -1.528  -4.381  -0.628  0.00  0.00     0.078 C 
ENDROOT
BRANCH   1   8
ATOM      8  C1  UNL d   1      -1.411  -1.559   0.439  0.00  0.00     0.053 C 
ATOM      9  C   UNL d   1      -1.113  -0.128   0.858  0.00  0.00     0.018 C 
ENDBRANCH   1   8
TORSDOF 1
ENDMDL
