MODEL 1
REMARK minimizedAffinity 4.67122841
REMARK minimizedRMSD -1
REMARK  1 active torsions:
REMARK  status: ('A' for Active; 'I' for Inactive)
REMARK    1  A    between atoms: C1_2  and  C2_3 
ROOT
ATOM      1  C2  UNL d   1      -4.046   2.194  -3.367  0.00  0.00    -0.076 A 
ATOM      2  C3  UNL d   1      -3.486   0.913  -3.220  0.00  0.00     0.004 A 
ATOM      3  C4  UNL d   1      -3.511  -0.005  -4.269  0.00  0.00    -0.003 A 
ATOM      4  C5  UNL d   1      -4.096   0.343  -5.481  0.00  0.00     0.000 A 
ATOM      5  C6  UNL d   1      -4.641   1.615  -5.650  0.00  0.00     0.000 A 
ATOM      6  C7  UNL d   1      -4.610   2.558  -4.608  0.00  0.00    -0.073 A 
ATOM      7  C8  UNL d   1      -5.218   3.914  -4.844  0.00  0.00     0.078 C 
ENDROOT
BRANCH   1   8
ATOM      8  C1  UNL d   1      -4.014   3.138  -2.186  0.00  0.00     0.053 C 
ATOM      9  C   UNL d   1      -2.597   3.481  -1.753  0.00  0.00     0.018 C 
ENDBRANCH   1   8
TORSDOF 1
ENDMDL
