MODEL 1
REMARK minimizedAffinity 6.13872671
REMARK minimizedRMSD -1
REMARK  1 active torsions:
REMARK  status: ('A' for Active; 'I' for Inactive)
REMARK    1  A    between atoms: C1_2  and  C2_3 
ROOT
ATOM      1  C2  UNL d   1       1.951  -0.013   1.671  0.00  0.00    -0.076 A 
ATOM      2  C3  UNL d   1       1.084   0.962   1.146  0.00  0.00     0.004 A 
ATOM      3  C4  UNL d   1       1.582   2.096   0.507  0.00  0.00    -0.003 A 
ATOM      4  C5  UNL d   1       2.955   2.273   0.381  0.00  0.00     0.000 A 
ATOM      5  C6  UNL d   1       3.829   1.308   0.880  0.00  0.00     0.000 A 
ATOM      6  C7  UNL d   1       3.343   0.152   1.513  0.00  0.00    -0.073 A 
ATOM      7  C8  UNL d   1       4.332  -0.853   2.038  0.00  0.00     0.078 C 
ENDROOT
BRANCH   1   8
ATOM      8  C1  UNL d   1       1.353  -1.208   2.379  0.00  0.00     0.053 C 
ATOM      9  C   UNL d   1       1.929  -1.408   3.772  0.00  0.00     0.018 C 
ENDBRANCH   1   8
TORSDOF 1
ENDMDL
