MODEL 1
REMARK minimizedAffinity 11.7824268
REMARK minimizedRMSD -1
REMARK  1 active torsions:
REMARK  status: ('A' for Active; 'I' for Inactive)
REMARK    1  A    between atoms: C1_2  and  C2_3 
ROOT
ATOM      1  C2  UNL d   1       2.036  -4.060   3.293  0.00  0.00    -0.076 A 
ATOM      2  C3  UNL d   1       2.458  -2.935   2.562  0.00  0.00     0.004 A 
ATOM      3  C4  UNL d   1       1.903  -1.678   2.797  0.00  0.00    -0.003 A 
ATOM      4  C5  UNL d   1       0.918  -1.526   3.767  0.00  0.00     0.000 A 
ATOM      5  C6  UNL d   1       0.500  -2.627   4.513  0.00  0.00     0.000 A 
ATOM      6  C7  UNL d   1       1.061  -3.898   4.300  0.00  0.00    -0.073 A 
ATOM      7  C8  UNL d   1       0.569  -5.053   5.129  0.00  0.00     0.078 C 
ENDROOT
BRANCH   1   8
ATOM      8  C1  UNL d   1       2.655  -5.403   2.975  0.00  0.00     0.053 C 
ATOM      9  C   UNL d   1       2.548  -5.760   1.501  0.00  0.00     0.018 C 
ENDBRANCH   1   8
TORSDOF 1
ENDMDL
