MODEL 1
REMARK minimizedAffinity 6.42189741
REMARK minimizedRMSD -1
REMARK  0 active torsions:
REMARK  status: ('A' for Active; 'I' for Inactive)
ROOT
ATOM      1  C1  DEN d   1       2.856  -0.652  -3.060  0.00  0.00     0.130 A 
ATOM      2  C2  DEN d   1       3.364  -1.893  -2.481  0.00  0.00    -0.031 A 
ATOM      3  C3  DEN d   1       4.689  -2.165  -3.074  0.00  0.00     0.027 A 
ATOM      4  C4  DEN d   1       5.999  -0.790  -4.819  0.00  0.00     0.027 A 
ATOM      5  C5  DEN d   1       5.970   0.334  -5.614  0.00  0.00    -0.003 A 
ATOM      6  C6  DEN d   1       4.895   1.184  -5.639  0.00  0.00     0.001 A 
ATOM      7  C7  DEN d   1       3.823   0.946  -4.820  0.00  0.00     0.017 A 
ATOM      8  C8  DEN d   1       3.842  -0.190  -4.021  0.00  0.00    -0.094 A 
ATOM      9  C9  DEN d   1       4.943  -1.029  -4.001  0.00  0.00    -0.072 A 
ENDROOT
TORSDOF 0
ENDMDL
