MODEL 1
REMARK minimizedAffinity 2.48834991
REMARK minimizedRMSD -1
REMARK  0 active torsions:
REMARK  status: ('A' for Active; 'I' for Inactive)
ROOT
ATOM      1  C1  DEN d   1       2.076  -1.828  -3.686  0.00  0.00     0.130 A 
ATOM      2  C2  DEN d   1       2.282  -2.901  -2.717  0.00  0.00    -0.031 A 
ATOM      3  C3  DEN d   1       3.737  -3.103  -2.563  0.00  0.00     0.027 A 
ATOM      4  C4  DEN d   1       5.679  -1.862  -3.720  0.00  0.00     0.027 A 
ATOM      5  C5  DEN d   1       5.999  -0.880  -4.631  0.00  0.00    -0.003 A 
ATOM      6  C6  DEN d   1       5.042  -0.174  -5.311  0.00  0.00     0.001 A 
ATOM      7  C7  DEN d   1       3.717  -0.409  -5.056  0.00  0.00     0.017 A 
ATOM      8  C8  DEN d   1       3.386  -1.403  -4.144  0.00  0.00    -0.094 A 
ATOM      9  C9  DEN d   1       4.369  -2.097  -3.458  0.00  0.00    -0.072 A 
ENDROOT
TORSDOF 0
ENDMDL
