MODEL 1
REMARK minimizedAffinity 2.95035791
REMARK minimizedRMSD -1
REMARK  0 active torsions:
REMARK  status: ('A' for Active; 'I' for Inactive)
ROOT
ATOM      1  C1  DEN d   1      -4.869  -3.662  -2.295  0.00  0.00     0.130 A 
ATOM      2  C2  DEN d   1      -4.927  -4.867  -1.472  0.00  0.00    -0.031 A 
ATOM      3  C3  DEN d   1      -5.310  -5.996  -2.343  0.00  0.00     0.027 A 
ATOM      4  C4  DEN d   1      -5.813  -5.996  -4.873  0.00  0.00     0.027 A 
ATOM      5  C5  DEN d   1      -5.905  -5.208  -5.999  0.00  0.00    -0.003 A 
ATOM      6  C6  DEN d   1      -5.693  -3.856  -5.963  0.00  0.00     0.001 A 
ATOM      7  C7  DEN d   1      -5.334  -3.256  -4.785  0.00  0.00     0.017 A 
ATOM      8  C8  DEN d   1      -5.247  -4.042  -3.644  0.00  0.00    -0.094 A 
ATOM      9  C9  DEN d   1      -5.453  -5.410  -3.703  0.00  0.00    -0.072 A 
ENDROOT
TORSDOF 0
ENDMDL
