MODEL 1
REMARK minimizedAffinity 0.98519522
REMARK minimizedRMSD -1
REMARK  0 active torsions:
REMARK  status: ('A' for Active; 'I' for Inactive)
ROOT
ATOM      1  C1  DEN d   1      -5.722  -3.376  -5.080  0.00  0.00     0.130 A 
ATOM      2  C2  DEN d   1      -5.290  -4.424  -6.000  0.00  0.00    -0.031 A 
ATOM      3  C3  DEN d   1      -5.011  -5.640  -5.209  0.00  0.00     0.027 A 
ATOM      4  C4  DEN d   1      -5.211  -5.999  -2.662  0.00  0.00     0.027 A 
ATOM      5  C5  DEN d   1      -5.528  -5.397  -1.465  0.00  0.00    -0.003 A 
ATOM      6  C6  DEN d   1      -5.896  -4.080  -1.385  0.00  0.00     0.001 A 
ATOM      7  C7  DEN d   1      -6.000  -3.334  -2.529  0.00  0.00     0.017 A 
ATOM      8  C8  DEN d   1      -5.675  -3.932  -3.740  0.00  0.00    -0.094 A 
ATOM      9  C9  DEN d   1      -5.317  -5.268  -3.801  0.00  0.00    -0.072 A 
ENDROOT
TORSDOF 0
ENDMDL
