MODEL 1
REMARK minimizedAffinity 1.50278938
REMARK minimizedRMSD -1
REMARK  0 active torsions:
REMARK  status: ('A' for Active; 'I' for Inactive)
ROOT
ATOM      1  C1  DEN d   1       2.966  -1.164   0.753  0.00  0.00     0.130 A 
ATOM      2  C2  DEN d   1       1.973  -1.470   1.780  0.00  0.00    -0.031 A 
ATOM      3  C3  DEN d   1       1.172  -2.619   1.312  0.00  0.00     0.027 A 
ATOM      4  C4  DEN d   1       1.375  -3.951  -0.887  0.00  0.00     0.027 A 
ATOM      5  C5  DEN d   1       2.061  -4.056  -2.076  0.00  0.00    -0.003 A 
ATOM      6  C6  DEN d   1       3.067  -3.191  -2.418  0.00  0.00     0.001 A 
ATOM      7  C7  DEN d   1       3.445  -2.209  -1.541  0.00  0.00     0.017 A 
ATOM      8  C8  DEN d   1       2.752  -2.092  -0.343  0.00  0.00    -0.094 A 
ATOM      9  C9  DEN d   1       1.747  -2.984  -0.010  0.00  0.00    -0.072 A 
ENDROOT
TORSDOF 0
ENDMDL
