MODEL 1
REMARK minimizedAffinity -4.00530005
REMARK minimizedRMSD -1
REMARK  0 active torsions:
REMARK  status: ('A' for Active; 'I' for Inactive)
ROOT
ATOM      1  C   UNL d   1       0.526  -0.254  -1.080  0.00  0.00     0.172 C 
ATOM      2  N   UNL d   1       0.120   0.444   0.117  0.00  0.00    -0.070 N 
ATOM      3  C1  UNL d   1       0.576   0.190   1.383  0.00  0.00    -0.004 A 
ATOM      4  C2  UNL d   1      -0.051   1.068   2.241  0.00  0.00    -0.047 A 
ATOM      5  C3  UNL d   1      -0.914   1.876   1.464  0.00  0.00    -0.047 A 
ATOM      6  C4  UNL d   1      -0.789   1.469   0.153  0.00  0.00    -0.004 A 
ENDROOT
TORSDOF 0
ENDMDL
