MODEL 1
REMARK minimizedAffinity -2.60225129
REMARK minimizedRMSD -1
REMARK  0 active torsions:
REMARK  status: ('A' for Active; 'I' for Inactive)
ROOT
ATOM      1  C   UNL d   1      -0.221   1.341   2.180  0.00  0.00     0.172 C 
ATOM      2  N   UNL d   1      -0.194   0.122   1.406  0.00  0.00    -0.070 N 
ATOM      3  C1  UNL d   1       0.244   0.006   0.114  0.00  0.00    -0.004 A 
ATOM      4  C2  UNL d   1       0.109  -1.313  -0.261  0.00  0.00    -0.047 A 
ATOM      5  C3  UNL d   1      -0.430  -2.014   0.844  0.00  0.00    -0.047 A 
ATOM      6  C4  UNL d   1      -0.608  -1.102   1.862  0.00  0.00    -0.004 A 
ENDROOT
TORSDOF 0
ENDMDL
