MODEL 1
REMARK minimizedAffinity -2.98499012
REMARK minimizedRMSD -1
REMARK  0 active torsions:
REMARK  status: ('A' for Active; 'I' for Inactive)
ROOT
ATOM      1  C   UNL d   1      -0.863  -2.607  -1.635  0.00  0.00     0.172 C 
ATOM      2  N   UNL d   1      -0.307  -1.638  -0.722  0.00  0.00    -0.070 N 
ATOM      3  C1  UNL d   1      -0.994  -0.986   0.267  0.00  0.00    -0.004 A 
ATOM      4  C2  UNL d   1      -0.111  -0.149   0.914  0.00  0.00    -0.047 A 
ATOM      5  C3  UNL d   1       1.151  -0.302   0.292  0.00  0.00    -0.047 A 
ATOM      6  C4  UNL d   1       1.001  -1.230  -0.718  0.00  0.00    -0.004 A 
ENDROOT
TORSDOF 0
ENDMDL
