MODEL 1
REMARK minimizedAffinity -0.652522385
REMARK minimizedRMSD -1
REMARK  0 active torsions:
REMARK  status: ('A' for Active; 'I' for Inactive)
ROOT
ATOM      1  C   UNL d   1      -0.005   1.645   1.926  0.00  0.00     0.172 C 
ATOM      2  N   UNL d   1      -0.069   0.536   1.003  0.00  0.00    -0.070 N 
ATOM      3  C1  UNL d   1       0.918   0.169   0.127  0.00  0.00    -0.004 A 
ATOM      4  C2  UNL d   1       0.473  -0.931  -0.573  0.00  0.00    -0.047 A 
ATOM      5  C3  UNL d   1      -0.827  -1.236  -0.102  0.00  0.00    -0.047 A 
ATOM      6  C4  UNL d   1      -1.137  -0.311   0.873  0.00  0.00    -0.004 A 
ENDROOT
TORSDOF 0
ENDMDL
