MODEL 1
REMARK minimizedAffinity 2.3750751
REMARK minimizedRMSD -1
REMARK  0 active torsions:
REMARK  status: ('A' for Active; 'I' for Inactive)
ROOT
ATOM      1  C   UNL d   1       0.372   3.014   1.769  0.00  0.00     0.172 C 
ATOM      2  N   UNL d   1       0.593   1.587   1.783  0.00  0.00    -0.070 N 
ATOM      3  C1  UNL d   1       1.051   0.840   0.731  0.00  0.00    -0.004 A 
ATOM      4  C2  UNL d   1       1.125  -0.472   1.147  0.00  0.00    -0.047 A 
ATOM      5  C3  UNL d   1       0.696  -0.515   2.494  0.00  0.00    -0.047 A 
ATOM      6  C4  UNL d   1       0.372   0.774   2.863  0.00  0.00    -0.004 A 
ENDROOT
TORSDOF 0
ENDMDL
