MODEL 1
REMARK minimizedAffinity 1.539029
REMARK minimizedRMSD -1
REMARK  0 active torsions:
REMARK  status: ('A' for Active; 'I' for Inactive)
ROOT
ATOM      1  C   UNL d   1      -0.123   0.697  -0.660  0.00  0.00     0.172 C 
ATOM      2  N   UNL d   1       0.251   0.342   0.689  0.00  0.00    -0.070 N 
ATOM      3  C1  UNL d   1      -0.103   1.026   1.821  0.00  0.00    -0.004 A 
ATOM      4  C2  UNL d   1       0.449   0.369   2.900  0.00  0.00    -0.047 A 
ATOM      5  C3  UNL d   1       1.160  -0.746   2.399  0.00  0.00    -0.047 A 
ATOM      6  C4  UNL d   1       1.021  -0.739   1.027  0.00  0.00    -0.004 A 
ENDROOT
TORSDOF 0
ENDMDL
