MODEL 1
REMARK minimizedAffinity -3.85121179
REMARK minimizedRMSD -1
REMARK  0 active torsions:
REMARK  status: ('A' for Active; 'I' for Inactive)
ROOT
ATOM      1  C   UNL d   1       0.001   1.523  -1.633  0.00  0.00     0.172 C 
ATOM      2  N   UNL d   1      -0.578   1.262  -0.336  0.00  0.00    -0.070 N 
ATOM      3  C1  UNL d   1      -0.897   2.208   0.601  0.00  0.00    -0.004 A 
ATOM      4  C2  UNL d   1      -1.423   1.557   1.696  0.00  0.00    -0.047 A 
ATOM      5  C3  UNL d   1      -1.420   0.172   1.407  0.00  0.00    -0.047 A 
ATOM      6  C4  UNL d   1      -0.892   0.017   0.143  0.00  0.00    -0.004 A 
ENDROOT
TORSDOF 0
ENDMDL
