MODEL 1
REMARK minimizedAffinity 1.32420456
REMARK minimizedRMSD -1
REMARK  0 active torsions:
REMARK  status: ('A' for Active; 'I' for Inactive)
ROOT
ATOM      1  C   UNL d   1       0.322  -5.047  -1.473  0.00  0.00     0.172 C 
ATOM      2  N   UNL d   1      -0.467  -3.952  -1.987  0.00  0.00    -0.070 N 
ATOM      3  C1  UNL d   1      -0.401  -2.652  -1.561  0.00  0.00    -0.004 A 
ATOM      4  C2  UNL d   1      -1.307  -1.920  -2.298  0.00  0.00    -0.047 A 
ATOM      5  C3  UNL d   1      -1.941  -2.812  -3.196  0.00  0.00    -0.047 A 
ATOM      6  C4  UNL d   1      -1.401  -4.063  -2.982  0.00  0.00    -0.004 A 
ENDROOT
TORSDOF 0
ENDMDL
