MODEL 1
REMARK minimizedAffinity 1.62747264
REMARK minimizedRMSD -1
REMARK  0 active torsions:
REMARK  status: ('A' for Active; 'I' for Inactive)
ROOT
ATOM      1  O1  BZF d   1      -1.336  -1.170  -0.890  0.00  0.00    -0.204 OA
ATOM      2  C2  BZF d   1      -1.905  -2.095  -0.036  0.00  0.00     0.174 A 
ATOM      3  C3  BZF d   1      -0.954  -2.757   0.654  0.00  0.00    -0.012 A 
ATOM      4  C3A BZF d   1       0.282  -2.148   0.270  0.00  0.00    -0.107 A 
ATOM      5  C4  BZF d   1       1.583  -2.359   0.627  0.00  0.00     0.055 A 
ATOM      6  C5  BZF d   1       2.561  -1.643   0.013  0.00  0.00    -0.016 A 
ATOM      7  C6  BZF d   1       2.275  -0.713  -0.965  0.00  0.00     0.022 A 
ATOM      8  C7  BZF d   1       0.999  -0.465  -1.350  0.00  0.00     0.029 A 
ATOM      9  C7A BZF d   1       0.006  -1.164  -0.707  0.00  0.00     0.058 A 
ENDROOT
TORSDOF 0
ENDMDL
