MODEL 1
REMARK minimizedAffinity 5.27141666
REMARK minimizedRMSD -1
REMARK  0 active torsions:
REMARK  status: ('A' for Active; 'I' for Inactive)
ROOT
ATOM      1  O1  BZF d   1       0.929  -2.029  -0.413  0.00  0.00    -0.204 OA
ATOM      2  C2  BZF d   1       1.008  -0.938   0.430  0.00  0.00     0.174 A 
ATOM      3  C3  BZF d   1       1.242   0.191  -0.270  0.00  0.00    -0.012 A 
ATOM      4  C3A BZF d   1       1.220  -0.207  -1.644  0.00  0.00    -0.107 A 
ATOM      5  C4  BZF d   1       1.374   0.470  -2.820  0.00  0.00     0.055 A 
ATOM      6  C5  BZF d   1       1.371  -0.226  -3.988  0.00  0.00    -0.016 A 
ATOM      7  C6  BZF d   1       1.223  -1.597  -4.016  0.00  0.00     0.022 A 
ATOM      8  C7  BZF d   1       1.063  -2.311  -2.875  0.00  0.00     0.029 A 
ATOM      9  C7A BZF d   1       1.032  -1.608  -1.696  0.00  0.00     0.058 A 
ENDROOT
TORSDOF 0
ENDMDL
