MODEL 1
REMARK minimizedAffinity -2.61234331
REMARK minimizedRMSD -1
REMARK  0 active torsions:
REMARK  status: ('A' for Active; 'I' for Inactive)
ROOT
ATOM      1  O1  BZF d   1      -2.375   0.490   4.523  0.00  0.00    -0.204 OA
ATOM      2  C2  BZF d   1      -1.679  -0.700   4.430  0.00  0.00     0.174 A 
ATOM      3  C3  BZF d   1      -2.416  -1.638   3.800  0.00  0.00    -0.012 A 
ATOM      4  C3A BZF d   1      -3.615  -0.967   3.399  0.00  0.00    -0.107 A 
ATOM      5  C4  BZF d   1      -4.730  -1.365   2.718  0.00  0.00     0.055 A 
ATOM      6  C5  BZF d   1      -5.752  -0.485   2.555  0.00  0.00    -0.016 A 
ATOM      7  C6  BZF d   1      -5.695   0.797   3.061  0.00  0.00     0.022 A 
ATOM      8  C7  BZF d   1      -4.608   1.239   3.739  0.00  0.00     0.029 A 
ATOM      9  C7A BZF d   1      -3.559   0.362   3.877  0.00  0.00     0.058 A 
ENDROOT
TORSDOF 0
ENDMDL
