MODEL 1
REMARK minimizedAffinity 0.672051013
REMARK minimizedRMSD -1
REMARK  0 active torsions:
REMARK  status: ('A' for Active; 'I' for Inactive)
ROOT
ATOM      1  O1  BZF d   1       2.869  -1.175  -0.681  0.00  0.00    -0.204 OA
ATOM      2  C2  BZF d   1       2.579  -0.096  -1.494  0.00  0.00     0.174 A 
ATOM      3  C3  BZF d   1       1.246   0.057  -1.628  0.00  0.00    -0.012 A 
ATOM      4  C3A BZF d   1       0.666  -0.935  -0.776  0.00  0.00    -0.107 A 
ATOM      5  C4  BZF d   1      -0.622  -1.273  -0.469  0.00  0.00     0.055 A 
ATOM      6  C5  BZF d   1      -0.849  -2.339   0.342  0.00  0.00    -0.016 A 
ATOM      7  C6  BZF d   1       0.184  -3.092   0.858  0.00  0.00     0.022 A 
ATOM      8  C7  BZF d   1       1.478  -2.793   0.586  0.00  0.00     0.029 A 
ATOM      9  C7A BZF d   1       1.712  -1.696  -0.206  0.00  0.00     0.058 A 
ENDROOT
TORSDOF 0
ENDMDL
