MODEL 1
REMARK minimizedAffinity 7.96500111
REMARK minimizedRMSD -1
REMARK  0 active torsions:
REMARK  status: ('A' for Active; 'I' for Inactive)
ROOT
ATOM      1  O1  BZF d   1       1.098  -1.910  -1.150  0.00  0.00    -0.204 OA
ATOM      2  C2  BZF d   1       1.422  -0.895  -0.271  0.00  0.00     0.174 A 
ATOM      3  C3  BZF d   1       1.268   0.311  -0.855  0.00  0.00    -0.012 A 
ATOM      4  C3A BZF d   1       0.730   0.035  -2.152  0.00  0.00    -0.107 A 
ATOM      5  C4  BZF d   1       0.347   0.825  -3.197  0.00  0.00     0.055 A 
ATOM      6  C5  BZF d   1      -0.068   0.239  -4.351  0.00  0.00    -0.016 A 
ATOM      7  C6  BZF d   1      -0.108  -1.132  -4.496  0.00  0.00     0.022 A 
ATOM      8  C7  BZF d   1       0.257  -1.957  -3.485  0.00  0.00     0.029 A 
ATOM      9  C7A BZF d   1       0.646  -1.368  -2.306  0.00  0.00     0.058 A 
ENDROOT
TORSDOF 0
ENDMDL
