MODEL 1
REMARK minimizedAffinity -0.358412951
REMARK minimizedRMSD -1
REMARK  0 active torsions:
REMARK  status: ('A' for Active; 'I' for Inactive)
ROOT
ATOM      1  O1  BZF d   1      -0.694  -3.759   0.736  0.00  0.00    -0.204 OA
ATOM      2  C2  BZF d   1       0.291  -4.560   1.280  0.00  0.00     0.174 A 
ATOM      3  C3  BZF d   1       1.516  -4.085   0.978  0.00  0.00    -0.012 A 
ATOM      4  C3A BZF d   1       1.282  -2.861   0.274  0.00  0.00    -0.107 A 
ATOM      5  C4  BZF d   1       2.107  -1.920  -0.272  0.00  0.00     0.055 A 
ATOM      6  C5  BZF d   1       1.561  -0.880  -0.955  0.00  0.00    -0.016 A 
ATOM      7  C6  BZF d   1       0.196  -0.753  -1.116  0.00  0.00     0.022 A 
ATOM      8  C7  BZF d   1      -0.662  -1.659  -0.587  0.00  0.00     0.029 A 
ATOM      9  C7A BZF d   1      -0.115  -2.693   0.131  0.00  0.00     0.058 A 
ENDROOT
TORSDOF 0
ENDMDL
