MODEL 1
REMARK minimizedAffinity -0.667224884
REMARK minimizedRMSD -1
REMARK  0 active torsions:
REMARK  status: ('A' for Active; 'I' for Inactive)
ROOT
ATOM      1  O1  BZF d   1       0.769   2.445  -4.053  0.00  0.00    -0.204 OA
ATOM      2  C2  BZF d   1       1.580   1.897  -5.028  0.00  0.00     0.174 A 
ATOM      3  C3  BZF d   1       2.220   0.806  -4.561  0.00  0.00    -0.012 A 
ATOM      4  C3A BZF d   1       1.712   0.609  -3.238  0.00  0.00    -0.107 A 
ATOM      5  C4  BZF d   1       1.951  -0.323  -2.270  0.00  0.00     0.055 A 
ATOM      6  C5  BZF d   1       1.345  -0.191  -1.061  0.00  0.00    -0.016 A 
ATOM      7  C6  BZF d   1       0.499   0.863  -0.785  0.00  0.00     0.022 A 
ATOM      8  C7  BZF d   1       0.226   1.810  -1.716  0.00  0.00     0.029 A 
ATOM      9  C7A BZF d   1       0.812   1.660  -2.949  0.00  0.00     0.058 A 
ENDROOT
TORSDOF 0
ENDMDL
