MODEL 1
REMARK minimizedAffinity 10.5558348
REMARK minimizedRMSD -1
REMARK  0 active torsions:
REMARK  status: ('A' for Active; 'I' for Inactive)
ROOT
ATOM      1  O1  BZF d   1       1.493  -1.608  -1.521  0.00  0.00    -0.204 OA
ATOM      2  C2  BZF d   1       0.851  -1.503  -0.303  0.00  0.00     0.174 A 
ATOM      3  C3  BZF d   1       0.324  -0.272  -0.144  0.00  0.00    -0.012 A 
ATOM      4  C3A BZF d   1       0.578   0.408  -1.377  0.00  0.00    -0.107 A 
ATOM      5  C4  BZF d   1       0.283   1.659  -1.838  0.00  0.00     0.055 A 
ATOM      6  C5  BZF d   1       0.737   2.037  -3.061  0.00  0.00    -0.016 A 
ATOM      7  C6  BZF d   1       1.493   1.192  -3.848  0.00  0.00     0.022 A 
ATOM      8  C7  BZF d   1       1.807  -0.060  -3.436  0.00  0.00     0.029 A 
ATOM      9  C7A BZF d   1       1.322  -0.456  -2.213  0.00  0.00     0.058 A 
ENDROOT
TORSDOF 0
ENDMDL
