MODEL 1
REMARK minimizedAffinity 2.30475068
REMARK minimizedRMSD -1
REMARK  0 active torsions:
REMARK  status: ('A' for Active; 'I' for Inactive)
ROOT
ATOM      1  O1  BZF d   1       1.011   0.358  -3.898  0.00  0.00    -0.204 OA
ATOM      2  C2  BZF d   1       1.529  -0.804  -4.437  0.00  0.00     0.174 A 
ATOM      3  C3  BZF d   1       1.715  -1.734  -3.479  0.00  0.00    -0.012 A 
ATOM      4  C3A BZF d   1       1.201  -1.148  -2.280  0.00  0.00    -0.107 A 
ATOM      5  C4  BZF d   1       1.089  -1.589  -0.992  0.00  0.00     0.055 A 
ATOM      6  C5  BZF d   1       0.607  -0.743  -0.044  0.00  0.00    -0.016 A 
ATOM      7  C6  BZF d   1       0.234   0.550  -0.347  0.00  0.00     0.022 A 
ATOM      8  C7  BZF d   1       0.321   1.031  -1.611  0.00  0.00     0.029 A 
ATOM      9  C7A BZF d   1       0.777   0.168  -2.577  0.00  0.00     0.058 A 
ENDROOT
TORSDOF 0
ENDMDL
