MODEL 1
REMARK minimizedAffinity 6.16462183
REMARK minimizedRMSD -1
REMARK  0 active torsions:
REMARK  status: ('A' for Active; 'I' for Inactive)
ROOT
ATOM      1  O1  BZF d   1       1.479  -1.670  -1.844  0.00  0.00    -0.204 OA
ATOM      2  C2  BZF d   1       1.221  -1.482  -0.500  0.00  0.00     0.174 A 
ATOM      3  C3  BZF d   1       0.917  -0.192  -0.248  0.00  0.00    -0.012 A 
ATOM      4  C3A BZF d   1       0.899   0.448  -1.527  0.00  0.00    -0.107 A 
ATOM      5  C4  BZF d   1       0.645   1.726  -1.934  0.00  0.00     0.055 A 
ATOM      6  C5  BZF d   1       0.783   2.041  -3.249  0.00  0.00    -0.016 A 
ATOM      7  C6  BZF d   1       1.179   1.104  -4.182  0.00  0.00     0.022 A 
ATOM      8  C7  BZF d   1       1.437  -0.178  -3.827  0.00  0.00     0.029 A 
ATOM      9  C7A BZF d   1       1.267  -0.507  -2.504  0.00  0.00     0.058 A 
ENDROOT
TORSDOF 0
ENDMDL
