MODEL 1
REMARK minimizedAffinity 9.0165205
REMARK minimizedRMSD -1
REMARK  0 active torsions:
REMARK  status: ('A' for Active; 'I' for Inactive)
ROOT
ATOM      1  O1  BZF d   1       2.272   1.423  -2.983  0.00  0.00    -0.204 OA
ATOM      2  C2  BZF d   1       1.159   1.824  -3.697  0.00  0.00     0.174 A 
ATOM      3  C3  BZF d   1       1.510   2.258  -4.925  0.00  0.00    -0.012 A 
ATOM      4  C3A BZF d   1       2.920   2.034  -5.015  0.00  0.00    -0.107 A 
ATOM      5  C4  BZF d   1       3.844   2.248  -5.998  0.00  0.00     0.055 A 
ATOM      6  C5  BZF d   1       5.153   1.989  -5.742  0.00  0.00    -0.016 A 
ATOM      7  C6  BZF d   1       5.574   1.521  -4.514  0.00  0.00     0.022 A 
ATOM      8  C7  BZF d   1       4.694   1.289  -3.510  0.00  0.00     0.029 A 
ATOM      9  C7A BZF d   1       3.366   1.519  -3.776  0.00  0.00     0.058 A 
ENDROOT
TORSDOF 0
ENDMDL
