MODEL 1
REMARK minimizedAffinity 9.83246899
REMARK minimizedRMSD -1
REMARK  0 active torsions:
REMARK  status: ('A' for Active; 'I' for Inactive)
ROOT
ATOM      1  O1  BZF d   1      -4.794   5.374   2.025  0.00  0.00    -0.204 OA
ATOM      2  C2  BZF d   1      -3.459   5.249   1.692  0.00  0.00     0.174 A 
ATOM      3  C3  BZF d   1      -2.676   5.434   2.774  0.00  0.00    -0.012 A 
ATOM      4  C3A BZF d   1      -3.581   5.599   3.870  0.00  0.00    -0.107 A 
ATOM      5  C4  BZF d   1      -3.407   5.803   5.209  0.00  0.00     0.055 A 
ATOM      6  C5  BZF d   1      -4.499   5.997   5.995  0.00  0.00    -0.016 A 
ATOM      7  C6  BZF d   1      -5.777   5.999   5.475  0.00  0.00     0.022 A 
ATOM      8  C7  BZF d   1      -6.000   5.796   4.154  0.00  0.00     0.029 A 
ATOM      9  C7A BZF d   1      -4.901   5.567   3.362  0.00  0.00     0.058 A 
ENDROOT
TORSDOF 0
ENDMDL
