MODEL 1
REMARK minimizedAffinity 4.11043453
REMARK minimizedRMSD -1
REMARK  0 active torsions:
REMARK  status: ('A' for Active; 'I' for Inactive)
ROOT
ATOM      1  O1  BZF d   1       0.542   0.466  -3.645  0.00  0.00    -0.204 OA
ATOM      2  C2  BZF d   1       0.713   1.730  -3.114  0.00  0.00     0.174 A 
ATOM      3  C3  BZF d   1       0.810   1.675  -1.770  0.00  0.00    -0.012 A 
ATOM      4  C3A BZF d   1       0.784   0.281  -1.447  0.00  0.00    -0.107 A 
ATOM      5  C4  BZF d   1       0.860  -0.413  -0.273  0.00  0.00     0.055 A 
ATOM      6  C5  BZF d   1       0.730  -1.765  -0.296  0.00  0.00    -0.016 A 
ATOM      7  C6  BZF d   1       0.519  -2.455  -1.471  0.00  0.00     0.022 A 
ATOM      8  C7  BZF d   1       0.441  -1.811  -2.661  0.00  0.00     0.029 A 
ATOM      9  C7A BZF d   1       0.605  -0.447  -2.646  0.00  0.00     0.058 A 
ENDROOT
TORSDOF 0
ENDMDL
