MODEL 1
REMARK minimizedAffinity 14.6942778
REMARK minimizedRMSD -1
REMARK  0 active torsions:
REMARK  status: ('A' for Active; 'I' for Inactive)
ROOT
ATOM      1  O1  BZF d   1       0.349  -1.806  -0.919  0.00  0.00    -0.204 OA
ATOM      2  C2  BZF d   1       0.542  -2.731  -1.927  0.00  0.00     0.174 A 
ATOM      3  C3  BZF d   1       0.871  -2.119  -3.082  0.00  0.00    -0.012 A 
ATOM      4  C3A BZF d   1       0.974  -0.730  -2.756  0.00  0.00    -0.107 A 
ATOM      5  C4  BZF d   1       1.287   0.384  -3.481  0.00  0.00     0.055 A 
ATOM      6  C5  BZF d   1       1.227   1.602  -2.880  0.00  0.00    -0.016 A 
ATOM      7  C6  BZF d   1       0.853   1.742  -1.560  0.00  0.00     0.022 A 
ATOM      8  C7  BZF d   1       0.539   0.666  -0.799  0.00  0.00     0.029 A 
ATOM      9  C7A BZF d   1       0.630  -0.569  -1.394  0.00  0.00     0.058 A 
ENDROOT
TORSDOF 0
ENDMDL
