MODEL 1
REMARK minimizedAffinity 3.72689176
REMARK minimizedRMSD -1
REMARK  0 active torsions:
REMARK  status: ('A' for Active; 'I' for Inactive)
ROOT
ATOM      1  O1  BZF d   1       1.338  -2.435  -1.748  0.00  0.00    -0.204 OA
ATOM      2  C2  BZF d   1       1.522  -2.752  -3.080  0.00  0.00     0.174 A 
ATOM      3  C3  BZF d   1       1.418  -1.652  -3.852  0.00  0.00    -0.012 A 
ATOM      4  C3A BZF d   1       1.244  -0.565  -2.938  0.00  0.00    -0.107 A 
ATOM      5  C4  BZF d   1       1.099   0.783  -3.099  0.00  0.00     0.055 A 
ATOM      6  C5  BZF d   1       0.876   1.559  -2.006  0.00  0.00    -0.016 A 
ATOM      7  C6  BZF d   1       0.788   1.020  -0.739  0.00  0.00     0.022 A 
ATOM      8  C7  BZF d   1       0.931  -0.311  -0.529  0.00  0.00     0.029 A 
ATOM      9  C7A BZF d   1       1.189  -1.093  -1.628  0.00  0.00     0.058 A 
ENDROOT
TORSDOF 0
ENDMDL
