MODEL 1
REMARK minimizedAffinity 3.0395267
REMARK minimizedRMSD -1
REMARK  0 active torsions:
REMARK  status: ('A' for Active; 'I' for Inactive)
ROOT
ATOM      1  O1  BZF d   1       1.426  -1.837  -1.071  0.00  0.00    -0.204 OA
ATOM      2  C2  BZF d   1       0.869  -1.618   0.174  0.00  0.00     0.174 A 
ATOM      3  C3  BZF d   1       0.385  -0.363   0.268  0.00  0.00    -0.012 A 
ATOM      4  C3A BZF d   1       0.574   0.210  -1.029  0.00  0.00    -0.107 A 
ATOM      5  C4  BZF d   1       0.279   1.430  -1.569  0.00  0.00     0.055 A 
ATOM      6  C5  BZF d   1       0.661   1.697  -2.845  0.00  0.00    -0.016 A 
ATOM      7  C6  BZF d   1       1.342   0.772  -3.608  0.00  0.00     0.022 A 
ATOM      8  C7  BZF d   1       1.652  -0.453  -3.119  0.00  0.00     0.029 A 
ATOM      9  C7A BZF d   1       1.238  -0.738  -1.840  0.00  0.00     0.058 A 
ENDROOT
TORSDOF 0
ENDMDL
