MODEL 1
REMARK minimizedAffinity 1.94936526
REMARK minimizedRMSD -1
REMARK  0 active torsions:
REMARK  status: ('A' for Active; 'I' for Inactive)
ROOT
ATOM      1  O1  BZF d   1       0.716   1.429  -3.021  0.00  0.00    -0.204 OA
ATOM      2  C2  BZF d   1       0.651   1.681  -1.664  0.00  0.00     0.174 A 
ATOM      3  C3  BZF d   1       0.794   0.541  -0.959  0.00  0.00    -0.012 A 
ATOM      4  C3A BZF d   1       1.051  -0.475  -1.933  0.00  0.00    -0.107 A 
ATOM      5  C4  BZF d   1       1.294  -1.816  -1.850  0.00  0.00     0.055 A 
ATOM      6  C5  BZF d   1       1.431  -2.535  -2.995  0.00  0.00    -0.016 A 
ATOM      7  C6  BZF d   1       1.326  -1.947  -4.238  0.00  0.00     0.022 A 
ATOM      8  C7  BZF d   1       1.091  -0.619  -4.372  0.00  0.00     0.029 A 
ATOM      9  C7A BZF d   1       0.984   0.116  -3.216  0.00  0.00     0.058 A 
ENDROOT
TORSDOF 0
ENDMDL
