MODEL 1
REMARK minimizedAffinity 11.2912588
REMARK minimizedRMSD -1
REMARK  0 active torsions:
REMARK  status: ('A' for Active; 'I' for Inactive)
ROOT
ATOM      1  O1  BZF d   1       2.206  -5.996   1.472  0.00  0.00    -0.204 OA
ATOM      2  C2  BZF d   1       0.846  -5.978   1.714  0.00  0.00     0.174 A 
ATOM      3  C3  BZF d   1       0.596  -6.000   3.039  0.00  0.00    -0.012 A 
ATOM      4  C3A BZF d   1       1.881  -5.941   3.666  0.00  0.00    -0.107 A 
ATOM      5  C4  BZF d   1       2.290  -5.916   4.968  0.00  0.00     0.055 A 
ATOM      6  C5  BZF d   1       3.621  -5.932   5.243  0.00  0.00    -0.016 A 
ATOM      7  C6  BZF d   1       4.568  -5.979   4.242  0.00  0.00     0.022 A 
ATOM      8  C7  BZF d   1       4.211  -6.000   2.935  0.00  0.00     0.029 A 
ATOM      9  C7A BZF d   1       2.868  -5.950   2.653  0.00  0.00     0.058 A 
ENDROOT
TORSDOF 0
ENDMDL
