MODEL 1
REMARK minimizedAffinity 1.57469356
REMARK minimizedRMSD -1
REMARK  0 active torsions:
REMARK  status: ('A' for Active; 'I' for Inactive)
ROOT
ATOM      1  O1  BZF d   1      -4.227   4.859   2.928  0.00  0.00    -0.204 OA
ATOM      2  C2  BZF d   1      -3.893   5.999   3.633  0.00  0.00     0.174 A 
ATOM      3  C3  BZF d   1      -3.594   5.699   4.914  0.00  0.00    -0.012 A 
ATOM      4  C3A BZF d   1      -3.661   4.272   4.991  0.00  0.00    -0.107 A 
ATOM      5  C4  BZF d   1      -3.449   3.375   5.999  0.00  0.00     0.055 A 
ATOM      6  C5  BZF d   1      -3.669   2.055   5.766  0.00  0.00    -0.016 A 
ATOM      7  C6  BZF d   1      -4.104   1.597   4.539  0.00  0.00     0.022 A 
ATOM      8  C7  BZF d   1      -4.323   2.448   3.507  0.00  0.00     0.029 A 
ATOM      9  C7A BZF d   1      -4.070   3.779   3.730  0.00  0.00     0.058 A 
ENDROOT
TORSDOF 0
ENDMDL
