MODEL 1
REMARK minimizedAffinity 5.40124178
REMARK minimizedRMSD -1
REMARK  0 active torsions:
REMARK  status: ('A' for Active; 'I' for Inactive)
ROOT
ATOM      1  O1  BZF d   1       1.133   0.918  -2.970  0.00  0.00    -0.204 OA
ATOM      2  C2  BZF d   1       0.651   1.046  -1.682  0.00  0.00     0.174 A 
ATOM      3  C3  BZF d   1       0.374  -0.163  -1.152  0.00  0.00    -0.012 A 
ATOM      4  C3A BZF d   1       0.790  -1.111  -2.140  0.00  0.00    -0.107 A 
ATOM      5  C4  BZF d   1       0.787  -2.476  -2.192  0.00  0.00     0.055 A 
ATOM      6  C5  BZF d   1       1.195  -3.094  -3.331  0.00  0.00    -0.016 A 
ATOM      7  C6  BZF d   1       1.607  -2.380  -4.437  0.00  0.00     0.022 A 
ATOM      8  C7  BZF d   1       1.632  -1.025  -4.432  0.00  0.00     0.029 A 
ATOM      9  C7A BZF d   1       1.252  -0.398  -3.270  0.00  0.00     0.058 A 
ENDROOT
TORSDOF 0
ENDMDL
