MODEL 1
REMARK minimizedAffinity -5.51070166
REMARK minimizedRMSD -1
REMARK  0 active torsions:
REMARK  status: ('A' for Active; 'I' for Inactive)
ROOT
ATOM      1  C1  BNZ d   1       2.522   0.583   0.529  0.00  0.00     0.000 A 
ATOM      2  C2  BNZ d   1       1.161   0.739   0.550  0.00  0.00     0.000 A 
ATOM      3  C3  BNZ d   1       0.347  -0.281   0.957  0.00  0.00     0.000 A 
ATOM      4  C4  BNZ d   1       0.890  -1.466   1.302  0.00  0.00     0.000 A 
ATOM      5  C5  BNZ d   1       2.259  -1.641   1.277  0.00  0.00     0.000 A 
ATOM      6  C6  BNZ d   1       3.078  -0.601   0.905  0.00  0.00     0.000 A 
ENDROOT
TORSDOF 0
ENDMDL
