MODEL 1
REMARK minimizedAffinity -2.93936515
REMARK minimizedRMSD -1
REMARK  0 active torsions:
REMARK  status: ('A' for Active; 'I' for Inactive)
ROOT
ATOM      1  C1  BNZ d   1       2.083  -1.029   0.754  0.00  0.00     0.000 A 
ATOM      2  C2  BNZ d   1       0.906  -0.818   0.088  0.00  0.00     0.000 A 
ATOM      3  C3  BNZ d   1       0.321   0.417   0.073  0.00  0.00     0.000 A 
ATOM      4  C4  BNZ d   1       0.893   1.429   0.757  0.00  0.00     0.000 A 
ATOM      5  C5  BNZ d   1       2.075   1.231   1.441  0.00  0.00     0.000 A 
ATOM      6  C6  BNZ d   1       2.681  -0.004   1.421  0.00  0.00     0.000 A 
ENDROOT
TORSDOF 0
ENDMDL
