MODEL 1
REMARK minimizedAffinity -4.46465731
REMARK minimizedRMSD -1
REMARK  0 active torsions:
REMARK  status: ('A' for Active; 'I' for Inactive)
ROOT
ATOM      1  C1  BNZ d   1       1.774  -0.960   0.895  0.00  0.00     0.000 A 
ATOM      2  C2  BNZ d   1       0.551  -0.590   0.401  0.00  0.00     0.000 A 
ATOM      3  C3  BNZ d   1       0.302   0.707   0.049  0.00  0.00     0.000 A 
ATOM      4  C4  BNZ d   1       1.260   1.638   0.229  0.00  0.00     0.000 A 
ATOM      5  C5  BNZ d   1       2.495   1.283   0.735  0.00  0.00     0.000 A 
ATOM      6  C6  BNZ d   1       2.755  -0.031   1.051  0.00  0.00     0.000 A 
ENDROOT
TORSDOF 0
ENDMDL
