MODEL 1
REMARK minimizedAffinity -3.63660336
REMARK minimizedRMSD -1
REMARK  0 active torsions:
REMARK  status: ('A' for Active; 'I' for Inactive)
ROOT
ATOM      1  C1  BNZ d   1       1.561  -0.706   0.007  0.00  0.00     0.000 A 
ATOM      2  C2  BNZ d   1       0.399   0.011  -0.097  0.00  0.00     0.000 A 
ATOM      3  C3  BNZ d   1      -0.695  -0.316   0.655  0.00  0.00     0.000 A 
ATOM      4  C4  BNZ d   1      -0.638  -1.383   1.478  0.00  0.00     0.000 A 
ATOM      5  C5  BNZ d   1       0.523  -2.121   1.587  0.00  0.00     0.000 A 
ATOM      6  C6  BNZ d   1       1.634  -1.765   0.857  0.00  0.00     0.000 A 
ENDROOT
TORSDOF 0
ENDMDL
