MODEL 1
REMARK minimizedAffinity -2.27635026
REMARK minimizedRMSD -1
REMARK  0 active torsions:
REMARK  status: ('A' for Active; 'I' for Inactive)
ROOT
ATOM      1  C1  BNZ d   1       1.834  -1.102   1.128  0.00  0.00     0.000 A 
ATOM      2  C2  BNZ d   1       0.635  -1.007   0.473  0.00  0.00     0.000 A 
ATOM      3  C3  BNZ d   1       0.224   0.182  -0.062  0.00  0.00     0.000 A 
ATOM      4  C4  BNZ d   1       0.991   1.280   0.092  0.00  0.00     0.000 A 
ATOM      5  C5  BNZ d   1       2.198   1.201   0.758  0.00  0.00     0.000 A 
ATOM      6  C6  BNZ d   1       2.627  -0.005   1.262  0.00  0.00     0.000 A 
ENDROOT
TORSDOF 0
ENDMDL
