MODEL 1
REMARK minimizedAffinity -4.12743664
REMARK minimizedRMSD -1
REMARK  0 active torsions:
REMARK  status: ('A' for Active; 'I' for Inactive)
ROOT
ATOM      1  C1  BNZ d   1       1.258  -0.995   0.589  0.00  0.00     0.000 A 
ATOM      2  C2  BNZ d   1      -0.064  -0.651   0.485  0.00  0.00     0.000 A 
ATOM      3  C3  BNZ d   1      -0.436   0.654   0.323  0.00  0.00     0.000 A 
ATOM      4  C4  BNZ d   1       0.509   1.616   0.306  0.00  0.00     0.000 A 
ATOM      5  C5  BNZ d   1       1.845   1.286   0.419  0.00  0.00     0.000 A 
ATOM      6  C6  BNZ d   1       2.218  -0.033   0.543  0.00  0.00     0.000 A 
ENDROOT
TORSDOF 0
ENDMDL
