MODEL 1
REMARK minimizedAffinity -2.68806338
REMARK minimizedRMSD -1
REMARK  0 active torsions:
REMARK  status: ('A' for Active; 'I' for Inactive)
ROOT
ATOM      1  C1  BNZ d   1      -0.803   0.711  -0.828  0.00  0.00     0.000 A 
ATOM      2  C2  BNZ d   1      -1.511  -0.426  -0.544  0.00  0.00     0.000 A 
ATOM      3  C3  BNZ d   1      -1.103  -1.275   0.447  0.00  0.00     0.000 A 
ATOM      4  C4  BNZ d   1       0.032  -1.007   1.124  0.00  0.00     0.000 A 
ATOM      5  C5  BNZ d   1       0.761   0.131   0.844  0.00  0.00     0.000 A 
ATOM      6  C6  BNZ d   1       0.326   1.004  -0.127  0.00  0.00     0.000 A 
ENDROOT
TORSDOF 0
ENDMDL
