MODEL 1
REMARK minimizedAffinity -3.9779458
REMARK minimizedRMSD -1
REMARK  0 active torsions:
REMARK  status: ('A' for Active; 'I' for Inactive)
ROOT
ATOM      1  C1  BNZ d   1       0.025  -0.035   0.322  0.00  0.00     0.000 A 
ATOM      2  C2  BNZ d   1       1.057   0.774   0.718  0.00  0.00     0.000 A 
ATOM      3  C3  BNZ d   1       2.333   0.291   0.800  0.00  0.00     0.000 A 
ATOM      4  C4  BNZ d   1       2.570  -1.007   0.524  0.00  0.00     0.000 A 
ATOM      5  C5  BNZ d   1       1.539  -1.838   0.132  0.00  0.00     0.000 A 
ATOM      6  C6  BNZ d   1       0.262  -1.340   0.014  0.00  0.00     0.000 A 
ENDROOT
TORSDOF 0
ENDMDL
