MODEL 1
REMARK minimizedAffinity -3.8752203
REMARK minimizedRMSD -1
REMARK  0 active torsions:
REMARK  status: ('A' for Active; 'I' for Inactive)
ROOT
ATOM      1  C1  BNZ d   1       0.111  -0.185   0.182  0.00  0.00     0.000 A 
ATOM      2  C2  BNZ d   1       1.305  -0.709   0.602  0.00  0.00     0.000 A 
ATOM      3  C3  BNZ d   1       2.412   0.083   0.724  0.00  0.00     0.000 A 
ATOM      4  C4  BNZ d   1       2.335   1.388   0.390  0.00  0.00     0.000 A 
ATOM      5  C5  BNZ d   1       1.141   1.928  -0.044  0.00  0.00     0.000 A 
ATOM      6  C6  BNZ d   1       0.019   1.136  -0.129  0.00  0.00     0.000 A 
ENDROOT
TORSDOF 0
ENDMDL
