MODEL 1
REMARK minimizedAffinity -3.50108695
REMARK minimizedRMSD -1
REMARK  2 active torsions:
REMARK  status: ('A' for Active; 'I' for Inactive)
REMARK    1  A    between atoms: C1_2  and  C2_3 
REMARK    2  A    between atoms: C2_3  and  C3_4 
ROOT
ATOM      1  C3  UNL d   1       0.485   0.725  -0.925  0.00  0.00    -0.075 A 
ATOM      2  C4  UNL d   1       0.813  -0.115   0.148  0.00  0.00     0.002 A 
ATOM      3  C5  UNL d   1      -0.000  -1.201   0.473  0.00  0.00     0.002 A 
ATOM      4  C6  UNL d   1      -1.155  -1.454  -0.264  0.00  0.00    -0.004 A 
ATOM      5  C7  UNL d   1      -1.500  -0.616  -1.322  0.00  0.00     0.002 A 
ATOM      6  C8  UNL d   1      -0.686   0.468  -1.652  0.00  0.00     0.002 A 
ENDROOT
BRANCH   1   7
ATOM      7  C2  UNL d   1       1.377   1.885  -1.300  0.00  0.00     0.056 C 
BRANCH   7   8
ATOM      8  C1  UNL d   1       2.251   2.396  -0.150  0.00  0.00     0.007 C 
ATOM      9  C   UNL d   1       2.558   3.885  -0.246  0.00  0.00     0.009 C 
ENDBRANCH   7   8
ENDBRANCH   1   7
TORSDOF 2
ENDMDL
