MODEL 1
REMARK minimizedAffinity -0.0596162677
REMARK minimizedRMSD -1
REMARK  2 active torsions:
REMARK  status: ('A' for Active; 'I' for Inactive)
REMARK    1  A    between atoms: C1_2  and  C2_3 
REMARK    2  A    between atoms: C2_3  and  C3_4 
ROOT
ATOM      1  C3  UNL d   1       0.905   0.754  -0.118  0.00  0.00    -0.075 A 
ATOM      2  C4  UNL d   1       0.409   1.588   0.895  0.00  0.00     0.002 A 
ATOM      3  C5  UNL d   1       1.167   2.661   1.364  0.00  0.00     0.002 A 
ATOM      4  C6  UNL d   1       2.433   2.907   0.837  0.00  0.00    -0.004 A 
ATOM      5  C7  UNL d   1       2.943   2.075  -0.158  0.00  0.00     0.002 A 
ATOM      6  C8  UNL d   1       2.185   1.004  -0.633  0.00  0.00     0.002 A 
ENDROOT
BRANCH   1   7
ATOM      7  C2  UNL d   1       0.077  -0.390  -0.651  0.00  0.00     0.056 C 
BRANCH   7   8
ATOM      8  C1  UNL d   1      -1.269   0.037  -1.244  0.00  0.00     0.007 C 
ATOM      9  C   UNL d   1      -2.350  -1.028  -1.109  0.00  0.00     0.009 C 
ENDBRANCH   7   8
ENDBRANCH   1   7
TORSDOF 2
ENDMDL
