MODEL 1
REMARK minimizedAffinity -4.79362297
REMARK minimizedRMSD -1
REMARK  2 active torsions:
REMARK  status: ('A' for Active; 'I' for Inactive)
REMARK    1  A    between atoms: C1_2  and  C2_3 
REMARK    2  A    between atoms: C2_3  and  C3_4 
ROOT
ATOM      1  C3  UNL d   1       0.222   0.018   0.032  0.00  0.00    -0.075 A 
ATOM      2  C4  UNL d   1      -0.307   0.273  -1.241  0.00  0.00     0.002 A 
ATOM      3  C5  UNL d   1      -1.515  -0.303  -1.635  0.00  0.00     0.002 A 
ATOM      4  C6  UNL d   1      -2.203  -1.149  -0.767  0.00  0.00    -0.004 A 
ATOM      5  C7  UNL d   1      -1.678  -1.423   0.494  0.00  0.00     0.002 A 
ATOM      6  C8  UNL d   1      -0.472  -0.844   0.893  0.00  0.00     0.002 A 
ENDROOT
BRANCH   1   7
ATOM      7  C2  UNL d   1       1.514   0.662   0.476  0.00  0.00     0.056 C 
BRANCH   7   8
ATOM      8  C1  UNL d   1       1.350   1.662   1.625  0.00  0.00     0.007 C 
ATOM      9  C   UNL d   1       2.323   2.830   1.548  0.00  0.00     0.009 C 
ENDBRANCH   7   8
ENDBRANCH   1   7
TORSDOF 2
ENDMDL
