MODEL 1
REMARK minimizedAffinity -5.77757931
REMARK minimizedRMSD -1
REMARK  2 active torsions:
REMARK  status: ('A' for Active; 'I' for Inactive)
REMARK    1  A    between atoms: C1_2  and  C2_3 
REMARK    2  A    between atoms: C2_3  and  C3_4 
ROOT
ATOM      1  C3  UNL d   1      -1.060   0.191   0.002  0.00  0.00    -0.075 A 
ATOM      2  C4  UNL d   1      -0.482  -0.287   1.187  0.00  0.00     0.002 A 
ATOM      3  C5  UNL d   1       0.900  -0.243   1.370  0.00  0.00     0.002 A 
ATOM      4  C6  UNL d   1       1.722   0.269   0.368  0.00  0.00    -0.004 A 
ATOM      5  C7  UNL d   1       1.161   0.732  -0.820  0.00  0.00     0.002 A 
ATOM      6  C8  UNL d   1      -0.223   0.693  -1.003  0.00  0.00     0.002 A 
ENDROOT
BRANCH   1   7
ATOM      7  C2  UNL d   1      -2.557   0.174  -0.189  0.00  0.00     0.056 C 
BRANCH   7   8
ATOM      8  C1  UNL d   1      -3.166  -1.232  -0.218  0.00  0.00     0.007 C 
ATOM      9  C   UNL d   1      -2.630  -2.096  -1.352  0.00  0.00     0.009 C 
ENDBRANCH   7   8
ENDBRANCH   1   7
TORSDOF 2
ENDMDL
