MODEL 1
REMARK minimizedAffinity -5.676723
REMARK minimizedRMSD -1
REMARK  2 active torsions:
REMARK  status: ('A' for Active; 'I' for Inactive)
REMARK    1  A    between atoms: C1_2  and  C2_3 
REMARK    2  A    between atoms: C2_3  and  C3_4 
ROOT
ATOM      1  C3  UNL d   1      -0.472  -0.330   0.365  0.00  0.00    -0.075 A 
ATOM      2  C4  UNL d   1      -1.247  -1.027   1.303  0.00  0.00     0.002 A 
ATOM      3  C5  UNL d   1      -2.561  -1.391   1.007  0.00  0.00     0.002 A 
ATOM      4  C6  UNL d   1      -3.119  -1.054  -0.224  0.00  0.00    -0.004 A 
ATOM      5  C7  UNL d   1      -2.364  -0.347  -1.157  0.00  0.00     0.002 A 
ATOM      6  C8  UNL d   1      -1.048   0.014  -0.866  0.00  0.00     0.002 A 
ENDROOT
BRANCH   1   7
ATOM      7  C2  UNL d   1       0.960   0.040   0.668  0.00  0.00     0.056 C 
BRANCH   7   8
ATOM      8  C1  UNL d   1       1.535   1.116  -0.259  0.00  0.00     0.007 C 
ATOM      9  C   UNL d   1       2.069   2.330   0.490  0.00  0.00     0.009 C 
ENDBRANCH   7   8
ENDBRANCH   1   7
TORSDOF 2
ENDMDL
