MODEL 1
REMARK minimizedAffinity -5.32736731
REMARK minimizedRMSD -1
REMARK  2 active torsions:
REMARK  status: ('A' for Active; 'I' for Inactive)
REMARK    1  A    between atoms: C1_2  and  C2_3 
REMARK    2  A    between atoms: C2_3  and  C3_4 
ROOT
ATOM      1  C3  UNL d   1       0.366   0.155   0.227  0.00  0.00    -0.075 A 
ATOM      2  C4  UNL d   1      -0.460   0.288  -0.898  0.00  0.00     0.002 A 
ATOM      3  C5  UNL d   1      -1.775  -0.176  -0.870  0.00  0.00     0.002 A 
ATOM      4  C6  UNL d   1      -2.277  -0.787   0.277  0.00  0.00    -0.004 A 
ATOM      5  C7  UNL d   1      -1.460  -0.939   1.395  0.00  0.00     0.002 A 
ATOM      6  C8  UNL d   1      -0.145  -0.472   1.371  0.00  0.00     0.002 A 
ENDROOT
BRANCH   1   7
ATOM      7  C2  UNL d   1       1.781   0.682   0.213  0.00  0.00     0.056 C 
BRANCH   7   8
ATOM      8  C1  UNL d   1       2.085   1.684   1.332  0.00  0.00     0.007 C 
ATOM      9  C   UNL d   1       2.928   2.864   0.868  0.00  0.00     0.009 C 
ENDBRANCH   7   8
ENDBRANCH   1   7
TORSDOF 2
ENDMDL
