MODEL 1
REMARK minimizedAffinity -4.10153532
REMARK minimizedRMSD -1
REMARK  2 active torsions:
REMARK  status: ('A' for Active; 'I' for Inactive)
REMARK    1  A    between atoms: C1_2  and  C2_3 
REMARK    2  A    between atoms: C2_3  and  C3_4 
ROOT
ATOM      1  C3  UNL d   1       0.794   0.391   0.373  0.00  0.00    -0.075 A 
ATOM      2  C4  UNL d   1       0.149   0.725  -0.826  0.00  0.00     0.002 A 
ATOM      3  C5  UNL d   1      -1.025   0.072  -1.205  0.00  0.00     0.002 A 
ATOM      4  C6  UNL d   1      -1.562  -0.927  -0.396  0.00  0.00    -0.004 A 
ATOM      5  C7  UNL d   1      -0.921  -1.278   0.790  0.00  0.00     0.002 A 
ATOM      6  C8  UNL d   1       0.252  -0.624   1.173  0.00  0.00     0.002 A 
ENDROOT
BRANCH   1   7
ATOM      7  C2  UNL d   1       2.048   1.113   0.803  0.00  0.00     0.056 C 
BRANCH   7   8
ATOM      8  C1  UNL d   1       1.853   2.039   2.008  0.00  0.00     0.007 C 
ATOM      9  C   UNL d   1       1.945   3.517   1.652  0.00  0.00     0.009 C 
ENDBRANCH   7   8
ENDBRANCH   1   7
TORSDOF 2
ENDMDL
