MODEL 1
REMARK minimizedAffinity -5.81973934
REMARK minimizedRMSD -1
REMARK  2 active torsions:
REMARK  status: ('A' for Active; 'I' for Inactive)
REMARK    1  A    between atoms: C1_2  and  C2_3 
REMARK    2  A    between atoms: C2_3  and  C3_4 
ROOT
ATOM      1  C3  UNL d   1       0.209  -0.464   0.323  0.00  0.00    -0.075 A 
ATOM      2  C4  UNL d   1       0.007  -1.550   1.187  0.00  0.00     0.002 A 
ATOM      3  C5  UNL d   1      -1.123  -2.358   1.057  0.00  0.00     0.002 A 
ATOM      4  C6  UNL d   1      -2.067  -2.087   0.070  0.00  0.00    -0.004 A 
ATOM      5  C7  UNL d   1      -1.885  -1.001  -0.784  0.00  0.00     0.002 A 
ATOM      6  C8  UNL d   1      -0.753  -0.193  -0.659  0.00  0.00     0.002 A 
ENDROOT
BRANCH   1   7
ATOM      7  C2  UNL d   1       1.444   0.397   0.439  0.00  0.00     0.056 C 
BRANCH   7   8
ATOM      8  C1  UNL d   1       1.468   1.288   1.686  0.00  0.00     0.007 C 
ATOM      9  C   UNL d   1       2.243   2.583   1.483  0.00  0.00     0.009 C 
ENDBRANCH   7   8
ENDBRANCH   1   7
TORSDOF 2
ENDMDL
