MODEL 1
REMARK minimizedAffinity -3.50828981
REMARK minimizedRMSD -1
REMARK  2 active torsions:
REMARK  status: ('A' for Active; 'I' for Inactive)
REMARK    1  A    between atoms: C1_2  and  C2_3 
REMARK    2  A    between atoms: C2_3  and  C3_4 
ROOT
ATOM      1  C3  UNL d   1       0.868   0.348   0.473  0.00  0.00    -0.075 A 
ATOM      2  C4  UNL d   1       0.809   0.613   1.849  0.00  0.00     0.002 A 
ATOM      3  C5  UNL d   1       1.676   1.539   2.431  0.00  0.00     0.002 A 
ATOM      4  C6  UNL d   1       2.618   2.203   1.648  0.00  0.00    -0.004 A 
ATOM      5  C7  UNL d   1       2.696   1.936   0.283  0.00  0.00     0.002 A 
ATOM      6  C8  UNL d   1       1.827   1.013  -0.302  0.00  0.00     0.002 A 
ENDROOT
BRANCH   1   7
ATOM      7  C2  UNL d   1      -0.087  -0.631  -0.167  0.00  0.00     0.056 C 
BRANCH   7   8
ATOM      8  C1  UNL d   1      -0.979  -0.014  -1.249  0.00  0.00     0.007 C 
ATOM      9  C   UNL d   1      -2.239  -0.825  -1.522  0.00  0.00     0.009 C 
ENDBRANCH   7   8
ENDBRANCH   1   7
TORSDOF 2
ENDMDL
