MODEL 1
REMARK minimizedAffinity -5.02335119
REMARK minimizedRMSD -1
REMARK  2 active torsions:
REMARK  status: ('A' for Active; 'I' for Inactive)
REMARK    1  A    between atoms: C1_2  and  C2_3 
REMARK    2  A    between atoms: C2_3  and  C3_4 
ROOT
ATOM      1  C3  UNL d   1      -0.760  -0.159  -0.130  0.00  0.00    -0.075 A 
ATOM      2  C4  UNL d   1       0.567   0.115  -0.492  0.00  0.00     0.002 A 
ATOM      3  C5  UNL d   1       1.605  -0.082   0.420  0.00  0.00     0.002 A 
ATOM      4  C6  UNL d   1       1.329  -0.544   1.705  0.00  0.00    -0.004 A 
ATOM      5  C7  UNL d   1       0.013  -0.803   2.080  0.00  0.00     0.002 A 
ATOM      6  C8  UNL d   1      -1.027  -0.612   1.169  0.00  0.00     0.002 A 
ENDROOT
BRANCH   1   7
ATOM      7  C2  UNL d   1      -1.885   0.023  -1.121  0.00  0.00     0.056 C 
BRANCH   7   8
ATOM      8  C1  UNL d   1      -2.883  -1.139  -1.153  0.00  0.00     0.007 C 
ATOM      9  C   UNL d   1      -4.069  -0.937  -0.220  0.00  0.00     0.009 C 
ENDBRANCH   7   8
ENDBRANCH   1   7
TORSDOF 2
ENDMDL
