MODEL 1
REMARK minimizedAffinity 21.0328312
REMARK minimizedRMSD -1
REMARK  0 active torsions:
REMARK  status: ('A' for Active; 'I' for Inactive)
ROOT
ATOM      1  N1  IND d   1      -4.235  -1.807   4.107  0.00  0.00    -0.196 N 
ATOM      2  C2  IND d   1      -2.900  -1.985   3.870  0.00  0.00     0.054 A 
ATOM      3  C3  IND d   1      -2.196  -0.922   4.319  0.00  0.00    -0.031 A 
ATOM      4  C4  IND d   1      -3.019   1.176   5.564  0.00  0.00     0.051 A 
ATOM      5  C5  IND d   1      -4.160   1.805   5.978  0.00  0.00    -0.031 A 
ATOM      6  C6  IND d   1      -5.409   1.250   5.787  0.00  0.00     0.015 A 
ATOM      7  C7  IND d   1      -5.563   0.034   5.184  0.00  0.00    -0.016 A 
ATOM      8  C8  IND d   1      -4.408  -0.604   4.756  0.00  0.00    -0.047 A 
ATOM      9  C9  IND d   1      -3.141  -0.026   4.908  0.00  0.00    -0.096 A 
ATOM     10  HN1 IND d   1      -4.861  -2.354   3.887  0.00  0.00     0.298 HD
ENDROOT
TORSDOF 0
ENDMDL
