MODEL 1
REMARK minimizedAffinity 1.96917903
REMARK minimizedRMSD -1
REMARK  0 active torsions:
REMARK  status: ('A' for Active; 'I' for Inactive)
ROOT
ATOM      1  N1  IND d   1      -0.428  -4.555   0.403  0.00  0.00    -0.196 N 
ATOM      2  C2  IND d   1      -0.747  -3.257   0.119  0.00  0.00     0.054 A 
ATOM      3  C3  IND d   1      -1.348  -2.677   1.182  0.00  0.00    -0.031 A 
ATOM      4  C4  IND d   1      -1.818  -3.641   3.522  0.00  0.00     0.051 A 
ATOM      5  C5  IND d   1      -1.740  -4.797   4.246  0.00  0.00    -0.031 A 
ATOM      6  C6  IND d   1      -1.208  -5.955   3.717  0.00  0.00     0.015 A 
ATOM      7  C7  IND d   1      -0.721  -5.996   2.441  0.00  0.00    -0.016 A 
ATOM      8  C8  IND d   1      -0.804  -4.825   1.700  0.00  0.00    -0.047 A 
ATOM      9  C9  IND d   1      -1.383  -3.659   2.218  0.00  0.00    -0.096 A 
ATOM     10  HN1 IND d   1      -0.054  -5.110  -0.138  0.00  0.00     0.298 HD
ENDROOT
TORSDOF 0
ENDMDL
