MODEL 1
REMARK minimizedAffinity 21.3154373
REMARK minimizedRMSD -1
REMARK  0 active torsions:
REMARK  status: ('A' for Active; 'I' for Inactive)
ROOT
ATOM      1  N1  IND d   1      -0.370  -3.181  -3.000  0.00  0.00    -0.196 N 
ATOM      2  C2  IND d   1      -0.454  -1.824  -2.858  0.00  0.00     0.054 A 
ATOM      3  C3  IND d   1      -0.586  -1.495  -1.554  0.00  0.00    -0.031 A 
ATOM      4  C4  IND d   1      -0.586  -3.013   0.525  0.00  0.00     0.051 A 
ATOM      5  C5  IND d   1      -0.572  -4.328   0.899  0.00  0.00    -0.031 A 
ATOM      6  C6  IND d   1      -0.485  -5.348  -0.027  0.00  0.00     0.015 A 
ATOM      7  C7  IND d   1      -0.397  -5.090  -1.365  0.00  0.00    -0.016 A 
ATOM      8  C8  IND d   1      -0.419  -3.756  -1.749  0.00  0.00    -0.047 A 
ATOM      9  C9  IND d   1      -0.550  -2.718  -0.818  0.00  0.00    -0.096 A 
ATOM     10  HN1 IND d   1      -0.298  -3.605  -3.745  0.00  0.00     0.298 HD
ENDROOT
TORSDOF 0
ENDMDL
