MODEL 1
REMARK minimizedAffinity 12.3896093
REMARK minimizedRMSD -1
REMARK  0 active torsions:
REMARK  status: ('A' for Active; 'I' for Inactive)
ROOT
ATOM      1  N1  IND d   1       0.602  -0.308  -3.484  0.00  0.00    -0.196 N 
ATOM      2  C2  IND d   1       0.037  -1.354  -2.810  0.00  0.00     0.054 A 
ATOM      3  C3  IND d   1      -1.274  -1.115  -2.584  0.00  0.00    -0.031 A 
ATOM      4  C4  IND d   1      -2.723   0.882  -3.321  0.00  0.00     0.051 A 
ATOM      5  C5  IND d   1      -2.645   2.103  -3.929  0.00  0.00    -0.031 A 
ATOM      6  C6  IND d   1      -1.457   2.592  -4.433  0.00  0.00     0.015 A 
ATOM      7  C7  IND d   1      -0.300   1.869  -4.357  0.00  0.00    -0.016 A 
ATOM      8  C8  IND d   1      -0.374   0.632  -3.733  0.00  0.00    -0.047 A 
ATOM      9  C9  IND d   1      -1.568   0.149  -3.182  0.00  0.00    -0.096 A 
ATOM     10  HN1 IND d   1       1.429  -0.247  -3.714  0.00  0.00     0.298 HD
ENDROOT
TORSDOF 0
ENDMDL
