MODEL 1
REMARK minimizedAffinity 13.9886045
REMARK minimizedRMSD -1
REMARK  0 active torsions:
REMARK  status: ('A' for Active; 'I' for Inactive)
ROOT
ATOM      1  N1  IND d   1      -0.452  -5.844  -1.505  0.00  0.00    -0.196 N 
ATOM      2  C2  IND d   1       0.016  -6.000  -0.230  0.00  0.00     0.054 A 
ATOM      3  C3  IND d   1       0.036  -4.810   0.413  0.00  0.00    -0.031 A 
ATOM      4  C4  IND d   1      -0.751  -2.498  -0.401  0.00  0.00     0.051 A 
ATOM      5  C5  IND d   1      -1.222  -1.849  -1.507  0.00  0.00    -0.031 A 
ATOM      6  C6  IND d   1      -1.468  -2.512  -2.693  0.00  0.00     0.015 A 
ATOM      7  C7  IND d   1      -1.262  -3.857  -2.812  0.00  0.00    -0.016 A 
ATOM      8  C8  IND d   1      -0.777  -4.518  -1.693  0.00  0.00    -0.047 A 
ATOM      9  C9  IND d   1      -0.485  -3.844  -0.501  0.00  0.00    -0.096 A 
ATOM     10  HN1 IND d   1      -0.531  -6.468  -2.090  0.00  0.00     0.298 HD
ENDROOT
TORSDOF 0
ENDMDL
