MODEL 1
REMARK minimizedAffinity 19.1179485
REMARK minimizedRMSD -1
REMARK  0 active torsions:
REMARK  status: ('A' for Active; 'I' for Inactive)
ROOT
ATOM      1  N1  IND d   1       0.054  -4.373  -0.040  0.00  0.00    -0.196 N 
ATOM      2  C2  IND d   1       0.085  -3.513   1.023  0.00  0.00     0.054 A 
ATOM      3  C3  IND d   1      -0.437  -2.316   0.674  0.00  0.00    -0.031 A 
ATOM      4  C4  IND d   1      -1.493  -1.578  -1.554  0.00  0.00     0.051 A 
ATOM      5  C5  IND d   1      -1.717  -2.004  -2.834  0.00  0.00    -0.031 A 
ATOM      6  C6  IND d   1      -1.357  -3.268  -3.255  0.00  0.00     0.015 A 
ATOM      7  C7  IND d   1      -0.768  -4.161  -2.405  0.00  0.00    -0.016 A 
ATOM      8  C8  IND d   1      -0.533  -3.729  -1.108  0.00  0.00    -0.047 A 
ATOM      9  C9  IND d   1      -0.857  -2.433  -0.686  0.00  0.00    -0.096 A 
ATOM     10  HN1 IND d   1       0.350  -5.180  -0.041  0.00  0.00     0.298 HD
ENDROOT
TORSDOF 0
ENDMDL
