MODEL 1
REMARK minimizedAffinity 12.8090439
REMARK minimizedRMSD -1
REMARK  0 active torsions:
REMARK  status: ('A' for Active; 'I' for Inactive)
ROOT
ATOM      1  N1  IND d   1      -0.470  -4.033   0.080  0.00  0.00    -0.196 N 
ATOM      2  C2  IND d   1      -0.925  -4.490   1.286  0.00  0.00     0.054 A 
ATOM      3  C3  IND d   1      -2.012  -3.787   1.676  0.00  0.00    -0.031 A 
ATOM      4  C4  IND d   1      -3.275  -1.911   0.445  0.00  0.00     0.051 A 
ATOM      5  C5  IND d   1      -3.216  -1.126  -0.672  0.00  0.00    -0.031 A 
ATOM      6  C6  IND d   1      -2.220  -1.274  -1.616  0.00  0.00     0.015 A 
ATOM      7  C7  IND d   1      -1.248  -2.225  -1.482  0.00  0.00    -0.016 A 
ATOM      8  C8  IND d   1      -1.301  -3.020  -0.346  0.00  0.00    -0.047 A 
ATOM      9  C9  IND d   1      -2.285  -2.846   0.636  0.00  0.00    -0.096 A 
ATOM     10  HN1 IND d   1       0.219  -4.328  -0.341  0.00  0.00     0.298 HD
ENDROOT
TORSDOF 0
ENDMDL
