MODEL 1
REMARK minimizedAffinity 13.7361135
REMARK minimizedRMSD -1
REMARK  0 active torsions:
REMARK  status: ('A' for Active; 'I' for Inactive)
ROOT
ATOM      1  N1  IND d   1       1.590  -2.645   1.870  0.00  0.00    -0.196 N 
ATOM      2  C2  IND d   1       0.492  -2.976   1.126  0.00  0.00     0.054 A 
ATOM      3  C3  IND d   1      -0.628  -2.900   1.881  0.00  0.00    -0.031 A 
ATOM      4  C4  IND d   1      -0.902  -2.155   4.330  0.00  0.00     0.051 A 
ATOM      5  C5  IND d   1      -0.181  -1.793   5.433  0.00  0.00    -0.031 A 
ATOM      6  C6  IND d   1       1.195  -1.691   5.403  0.00  0.00     0.015 A 
ATOM      7  C7  IND d   1       1.903  -1.938   4.261  0.00  0.00    -0.016 A 
ATOM      8  C8  IND d   1       1.175  -2.313   3.141  0.00  0.00    -0.047 A 
ATOM      9  C9  IND d   1      -0.218  -2.459   3.176  0.00  0.00    -0.096 A 
ATOM     10  HN1 IND d   1       2.403  -2.644   1.591  0.00  0.00     0.298 HD
ENDROOT
TORSDOF 0
ENDMDL
