MODEL 1
REMARK minimizedAffinity 19.7384987
REMARK minimizedRMSD -1
REMARK  0 active torsions:
REMARK  status: ('A' for Active; 'I' for Inactive)
ROOT
ATOM      1  N1  IND d   1      -0.353   3.916  -5.163  0.00  0.00    -0.196 N 
ATOM      2  C2  IND d   1       0.440   2.903  -5.626  0.00  0.00     0.054 A 
ATOM      3  C3  IND d   1      -0.317   1.842  -5.987  0.00  0.00    -0.031 A 
ATOM      4  C4  IND d   1      -2.878   1.588  -5.999  0.00  0.00     0.051 A 
ATOM      5  C5  IND d   1      -4.026   2.232  -5.631  0.00  0.00    -0.031 A 
ATOM      6  C6  IND d   1      -4.008   3.497  -5.079  0.00  0.00     0.015 A 
ATOM      7  C7  IND d   1      -2.837   4.172  -4.885  0.00  0.00    -0.016 A 
ATOM      8  C8  IND d   1      -1.669   3.519  -5.251  0.00  0.00    -0.047 A 
ATOM      9  C9  IND d   1      -1.678   2.219  -5.772  0.00  0.00    -0.096 A 
ATOM     10  HN1 IND d   1      -0.076   4.675  -4.867  0.00  0.00     0.298 HD
ENDROOT
TORSDOF 0
ENDMDL
