MODEL 1
REMARK minimizedAffinity 16.3838558
REMARK minimizedRMSD -1
REMARK  0 active torsions:
REMARK  status: ('A' for Active; 'I' for Inactive)
ROOT
ATOM      1  N1  IND d   1      -0.119  -4.252  -0.072  0.00  0.00    -0.196 N 
ATOM      2  C2  IND d   1      -0.470  -4.700   1.171  0.00  0.00     0.054 A 
ATOM      3  C3  IND d   1      -1.314  -3.827   1.765  0.00  0.00    -0.031 A 
ATOM      4  C4  IND d   1      -2.331  -1.650   0.841  0.00  0.00     0.051 A 
ATOM      5  C5  IND d   1      -2.280  -0.809  -0.235  0.00  0.00    -0.031 A 
ATOM      6  C6  IND d   1      -1.493  -1.079  -1.335  0.00  0.00     0.015 A 
ATOM      7  C7  IND d   1      -0.732  -2.212  -1.405  0.00  0.00    -0.016 A 
ATOM      8  C8  IND d   1      -0.775  -3.065  -0.311  0.00  0.00    -0.047 A 
ATOM      9  C9  IND d   1      -1.540  -2.774   0.826  0.00  0.00    -0.096 A 
ATOM     10  HN1 IND d   1       0.422  -4.645  -0.613  0.00  0.00     0.298 HD
ENDROOT
TORSDOF 0
ENDMDL
