MODEL 1
REMARK minimizedAffinity 12.594451
REMARK minimizedRMSD -1
REMARK  0 active torsions:
REMARK  status: ('A' for Active; 'I' for Inactive)
ROOT
ATOM      1  N1  IND d   1      -3.073   4.338  -1.028  0.00  0.00    -0.196 N 
ATOM      2  C2  IND d   1      -3.330   5.243  -2.020  0.00  0.00     0.054 A 
ATOM      3  C3  IND d   1      -4.403   6.000  -1.700  0.00  0.00    -0.031 A 
ATOM      4  C4  IND d   1      -5.827   5.995   0.444  0.00  0.00     0.051 A 
ATOM      5  C5  IND d   1      -6.000   5.322   1.621  0.00  0.00    -0.031 A 
ATOM      6  C6  IND d   1      -5.188   4.266   1.983  0.00  0.00     0.015 A 
ATOM      7  C7  IND d   1      -4.161   3.851   1.184  0.00  0.00    -0.016 A 
ATOM      8  C8  IND d   1      -3.987   4.527  -0.015  0.00  0.00    -0.047 A 
ATOM      9  C9  IND d   1      -4.834   5.572  -0.407  0.00  0.00    -0.096 A 
ATOM     10  HN1 IND d   1      -2.446   3.749  -1.036  0.00  0.00     0.298 HD
ENDROOT
TORSDOF 0
ENDMDL
