MODEL 1
REMARK minimizedAffinity 17.2609997
REMARK minimizedRMSD -1
REMARK  0 active torsions:
REMARK  status: ('A' for Active; 'I' for Inactive)
ROOT
ATOM      1  N1  IND d   1      -4.175   2.283   6.000  0.00  0.00    -0.196 N 
ATOM      2  C2  IND d   1      -5.542   2.267   6.000  0.00  0.00     0.054 A 
ATOM      3  C3  IND d   1      -6.000   1.209   5.294  0.00  0.00    -0.031 A 
ATOM      4  C4  IND d   1      -4.685  -0.681   4.141  0.00  0.00     0.051 A 
ATOM      5  C5  IND d   1      -3.413  -1.078   3.838  0.00  0.00    -0.031 A 
ATOM      6  C6  IND d   1      -2.307  -0.363   4.251  0.00  0.00     0.015 A 
ATOM      7  C7  IND d   1      -2.433   0.776   4.995  0.00  0.00    -0.016 A 
ATOM      8  C8  IND d   1      -3.724   1.187   5.299  0.00  0.00    -0.047 A 
ATOM      9  C9  IND d   1      -4.850   0.488   4.847  0.00  0.00    -0.096 A 
ATOM     10  HN1 IND d   1      -3.680   2.878   6.375  0.00  0.00     0.298 HD
ENDROOT
TORSDOF 0
ENDMDL
