MODEL 1
REMARK minimizedAffinity 20.6942387
REMARK minimizedRMSD -1
REMARK  0 active torsions:
REMARK  status: ('A' for Active; 'I' for Inactive)
ROOT
ATOM      1  N1  IND d   1      -0.121  -4.734  -0.845  0.00  0.00    -0.196 N 
ATOM      2  C2  IND d   1      -0.028  -4.782   0.518  0.00  0.00     0.054 A 
ATOM      3  C3  IND d   1      -0.500  -3.639   1.062  0.00  0.00    -0.031 A 
ATOM      4  C4  IND d   1      -1.569  -1.599  -0.089  0.00  0.00     0.051 A 
ATOM      5  C5  IND d   1      -1.839  -1.077  -1.323  0.00  0.00    -0.031 A 
ATOM      6  C6  IND d   1      -1.547  -1.763  -2.484  0.00  0.00     0.015 A 
ATOM      7  C7  IND d   1      -0.982  -3.007  -2.454  0.00  0.00    -0.016 A 
ATOM      8  C8  IND d   1      -0.700  -3.536  -1.203  0.00  0.00    -0.047 A 
ATOM      9  C9  IND d   1      -0.954  -2.827  -0.022  0.00  0.00    -0.096 A 
ATOM     10  HN1 IND d   1       0.138  -5.349  -1.388  0.00  0.00     0.298 HD
ENDROOT
TORSDOF 0
ENDMDL
