MODEL 1
REMARK minimizedAffinity 18.5207386
REMARK minimizedRMSD -1
REMARK  0 active torsions:
REMARK  status: ('A' for Active; 'I' for Inactive)
ROOT
ATOM      1  N1  IND d   1      -0.441  -4.491  -1.239  0.00  0.00    -0.196 N 
ATOM      2  C2  IND d   1      -0.335  -4.538   0.123  0.00  0.00     0.054 A 
ATOM      3  C3  IND d   1      -0.806  -3.395   0.671  0.00  0.00    -0.031 A 
ATOM      4  C4  IND d   1      -1.891  -1.359  -0.471  0.00  0.00     0.051 A 
ATOM      5  C5  IND d   1      -2.174  -0.839  -1.703  0.00  0.00    -0.031 A 
ATOM      6  C6  IND d   1      -1.891  -1.525  -2.867  0.00  0.00     0.015 A 
ATOM      7  C7  IND d   1      -1.322  -2.766  -2.841  0.00  0.00    -0.016 A 
ATOM      8  C8  IND d   1      -1.026  -3.295  -1.592  0.00  0.00    -0.047 A 
ATOM      9  C9  IND d   1      -1.273  -2.586  -0.410  0.00  0.00    -0.096 A 
ATOM     10  HN1 IND d   1      -0.185  -5.105  -1.784  0.00  0.00     0.298 HD
ENDROOT
TORSDOF 0
ENDMDL
