MODEL 1
REMARK minimizedAffinity 16.861496
REMARK minimizedRMSD -1
REMARK  0 active torsions:
REMARK  status: ('A' for Active; 'I' for Inactive)
ROOT
ATOM      1  N1  IND d   1      -0.276  -4.855  -1.270  0.00  0.00    -0.196 N 
ATOM      2  C2  IND d   1      -0.176  -4.657   0.079  0.00  0.00     0.054 A 
ATOM      3  C3  IND d   1      -0.589  -3.411   0.404  0.00  0.00    -0.031 A 
ATOM      4  C4  IND d   1      -1.566  -1.568  -1.105  0.00  0.00     0.051 A 
ATOM      5  C5  IND d   1      -1.819  -1.269  -2.414  0.00  0.00    -0.031 A 
ATOM      6  C6  IND d   1      -1.568  -2.170  -3.429  0.00  0.00     0.015 A 
ATOM      7  C7  IND d   1      -1.063  -3.413  -3.170  0.00  0.00    -0.016 A 
ATOM      8  C8  IND d   1      -0.798  -3.717  -1.842  0.00  0.00    -0.047 A 
ATOM      9  C9  IND d   1      -1.011  -2.791  -0.812  0.00  0.00    -0.096 A 
ATOM     10  HN1 IND d   1      -0.050  -5.571  -1.689  0.00  0.00     0.298 HD
ENDROOT
TORSDOF 0
ENDMDL
