MODEL 1
REMARK minimizedAffinity 23.368166
REMARK minimizedRMSD -1
REMARK  0 active torsions:
REMARK  status: ('A' for Active; 'I' for Inactive)
ROOT
ATOM      1  N1  IND d   1       2.671  -1.013  -2.888  0.00  0.00    -0.196 N 
ATOM      2  C2  IND d   1       1.993   0.024  -2.309  0.00  0.00     0.054 A 
ATOM      3  C3  IND d   1       2.711   1.165  -2.400  0.00  0.00    -0.031 A 
ATOM      4  C4  IND d   1       4.978   1.584  -3.547  0.00  0.00     0.051 A 
ATOM      5  C5  IND d   1       6.000   0.936  -4.181  0.00  0.00    -0.031 A 
ATOM      6  C6  IND d   1       5.963  -0.422  -4.425  0.00  0.00     0.015 A 
ATOM      7  C7  IND d   1       4.892  -1.184  -4.051  0.00  0.00    -0.016 A 
ATOM      8  C8  IND d   1       3.855  -0.530  -3.400  0.00  0.00    -0.047 A 
ATOM      9  C9  IND d   1       3.906   0.840  -3.112  0.00  0.00    -0.096 A 
ATOM     10  HN1 IND d   1       2.402  -1.829  -2.926  0.00  0.00     0.298 HD
ENDROOT
TORSDOF 0
ENDMDL
