MODEL 1
REMARK minimizedAffinity 20.3481522
REMARK minimizedRMSD -1
REMARK  0 active torsions:
REMARK  status: ('A' for Active; 'I' for Inactive)
ROOT
ATOM      1  N1  IND d   1      -2.701   1.217   6.000  0.00  0.00    -0.196 N 
ATOM      2  C2  IND d   1      -3.820   1.467   5.255  0.00  0.00     0.054 A 
ATOM      3  C3  IND d   1      -3.968   0.524   4.298  0.00  0.00    -0.031 A 
ATOM      4  C4  IND d   1      -2.550  -1.575   3.836  0.00  0.00     0.051 A 
ATOM      5  C5  IND d   1      -1.406  -2.209   4.230  0.00  0.00    -0.031 A 
ATOM      6  C6  IND d   1      -0.620  -1.726   5.256  0.00  0.00     0.015 A 
ATOM      7  C7  IND d   1      -0.957  -0.591   5.937  0.00  0.00    -0.016 A 
ATOM      8  C8  IND d   1      -2.115   0.060   5.536  0.00  0.00    -0.047 A 
ATOM      9  C9  IND d   1      -2.894  -0.403   4.467  0.00  0.00    -0.096 A 
ATOM     10  HN1 IND d   1      -2.412   1.701   6.649  0.00  0.00     0.298 HD
ENDROOT
TORSDOF 0
ENDMDL
