MODEL 1
REMARK minimizedAffinity 14.5732927
REMARK minimizedRMSD -1
REMARK  0 active torsions:
REMARK  status: ('A' for Active; 'I' for Inactive)
ROOT
ATOM      1  N1  IND d   1       2.718   2.937   2.852  0.00  0.00    -0.196 N 
ATOM      2  C2  IND d   1       2.950   2.244   1.697  0.00  0.00     0.054 A 
ATOM      3  C3  IND d   1       4.120   1.571   1.778  0.00  0.00    -0.031 A 
ATOM      4  C4  IND d   1       5.764   1.382   3.750  0.00  0.00     0.051 A 
ATOM      5  C5  IND d   1       5.999   1.866   5.006  0.00  0.00    -0.031 A 
ATOM      6  C6  IND d   1       5.135   2.747   5.622  0.00  0.00     0.015 A 
ATOM      7  C7  IND d   1       3.991   3.171   5.006  0.00  0.00    -0.016 A 
ATOM      8  C8  IND d   1       3.752   2.687   3.728  0.00  0.00    -0.047 A 
ATOM      9  C9  IND d   1       4.647   1.825   3.081  0.00  0.00    -0.096 A 
ATOM     10  HN1 IND d   1       2.041   3.444   3.006  0.00  0.00     0.298 HD
ENDROOT
TORSDOF 0
ENDMDL
