MODEL 1
REMARK minimizedAffinity -1.07224321
REMARK minimizedRMSD -1
REMARK  0 active torsions:
REMARK  status: ('A' for Active; 'I' for Inactive)
ROOT
ATOM      1  C   UNL d   1      -2.874   2.086  -3.047  0.00  0.00    -0.002 A 
ATOM      2  C1  UNL d   1      -1.976   3.143  -2.999  0.00  0.00     0.010 A 
ATOM      3  C2  UNL d   1      -0.904   3.124  -2.104  0.00  0.00     0.041 A 
ATOM      4  C3  UNL d   1      -0.749   2.013  -1.251  0.00  0.00    -0.075 A 
ATOM      5  S   UNL d   1       0.488   1.771  -0.075  0.00  0.00     0.015 SA
ATOM      6  C4  UNL d   1      -0.146   0.259   0.391  0.00  0.00     0.022 A 
ATOM      7  C5  UNL d   1      -1.275  -0.068  -0.323  0.00  0.00     0.026 A 
ATOM      8  C6  UNL d   1      -1.640   0.937  -1.281  0.00  0.00    -0.082 A 
ATOM      9  C7  UNL d   1      -2.717   0.987  -2.199  0.00  0.00     0.045 A 
ENDROOT
TORSDOF 0
ENDMDL
