MODEL 1
REMARK minimizedAffinity -1.68033433
REMARK minimizedRMSD -1
REMARK  0 active torsions:
REMARK  status: ('A' for Active; 'I' for Inactive)
ROOT
ATOM      1  C   UNL d   1       2.812   3.108  -0.151  0.00  0.00    -0.002 A 
ATOM      2  C1  UNL d   1       1.667   3.842   0.125  0.00  0.00     0.010 A 
ATOM      3  C2  UNL d   1       0.424   3.212   0.216  0.00  0.00     0.041 A 
ATOM      4  C3  UNL d   1       0.351   1.818   0.025  0.00  0.00    -0.075 A 
ATOM      5  S   UNL d   1      -1.063   0.833   0.091  0.00  0.00     0.015 SA
ATOM      6  C4  UNL d   1      -0.180  -0.586  -0.245  0.00  0.00     0.022 A 
ATOM      7  C5  UNL d   1       1.162  -0.332  -0.406  0.00  0.00     0.026 A 
ATOM      8  C6  UNL d   1       1.490   1.057  -0.252  0.00  0.00    -0.082 A 
ATOM      9  C7  UNL d   1       2.735   1.725  -0.339  0.00  0.00     0.045 A 
ENDROOT
TORSDOF 0
ENDMDL
