MODEL 1
REMARK minimizedAffinity -0.952698231
REMARK minimizedRMSD -1
REMARK  0 active torsions:
REMARK  status: ('A' for Active; 'I' for Inactive)
ROOT
ATOM      1  C   UNL d   1      -0.619   3.465  -4.385  0.00  0.00    -0.002 A 
ATOM      2  C1  UNL d   1      -1.473   2.429  -4.038  0.00  0.00     0.010 A 
ATOM      3  C2  UNL d   1      -1.517   1.953  -2.725  0.00  0.00     0.041 A 
ATOM      4  C3  UNL d   1      -0.681   2.544  -1.758  0.00  0.00    -0.075 A 
ATOM      5  S   UNL d   1      -0.565   2.127  -0.089  0.00  0.00     0.015 SA
ATOM      6  C4  UNL d   1       0.621   3.316   0.202  0.00  0.00     0.022 A 
ATOM      7  C5  UNL d   1       0.934   4.023  -0.935  0.00  0.00     0.026 A 
ATOM      8  C6  UNL d   1       0.188   3.590  -2.083  0.00  0.00    -0.082 A 
ATOM      9  C7  UNL d   1       0.210   4.049  -3.422  0.00  0.00     0.045 A 
ENDROOT
TORSDOF 0
ENDMDL
