MODEL 1
REMARK minimizedAffinity -3.14396358
REMARK minimizedRMSD -1
REMARK  0 active torsions:
REMARK  status: ('A' for Active; 'I' for Inactive)
ROOT
ATOM      1  C   UNL d   1       0.576  -2.499   1.179  0.00  0.00    -0.002 A 
ATOM      2  C1  UNL d   1      -0.639  -1.833   1.248  0.00  0.00     0.010 A 
ATOM      3  C2  UNL d   1      -0.730  -0.482   0.905  0.00  0.00     0.041 A 
ATOM      4  C3  UNL d   1       0.433   0.194   0.484  0.00  0.00    -0.075 A 
ATOM      5  S   UNL d   1       0.561   1.847   0.014  0.00  0.00     0.015 SA
ATOM      6  C4  UNL d   1       2.232   1.708  -0.291  0.00  0.00     0.022 A 
ATOM      7  C5  UNL d   1       2.697   0.438  -0.045  0.00  0.00     0.026 A 
ATOM      8  C6  UNL d   1       1.668  -0.456   0.405  0.00  0.00    -0.082 A 
ATOM      9  C7  UNL d   1       1.727  -1.825   0.761  0.00  0.00     0.045 A 
ENDROOT
TORSDOF 0
ENDMDL
