MODEL 1
REMARK minimizedAffinity -1.86483097
REMARK minimizedRMSD -1
REMARK  0 active torsions:
REMARK  status: ('A' for Active; 'I' for Inactive)
ROOT
ATOM      1  C   UNL d   1       2.523   2.781  -0.301  0.00  0.00    -0.002 A 
ATOM      2  C1  UNL d   1       1.514   3.726  -0.180  0.00  0.00     0.010 A 
ATOM      3  C2  UNL d   1       0.183   3.330  -0.035  0.00  0.00     0.041 A 
ATOM      4  C3  UNL d   1      -0.119   1.954  -0.011  0.00  0.00    -0.075 A 
ATOM      5  S   UNL d   1      -1.677   1.235   0.158  0.00  0.00     0.015 SA
ATOM      6  C4  UNL d   1      -1.040  -0.343   0.074  0.00  0.00     0.022 A 
ATOM      7  C5  UNL d   1       0.326  -0.341  -0.079  0.00  0.00     0.026 A 
ATOM      8  C6  UNL d   1       0.879   0.983  -0.130  0.00  0.00    -0.082 A 
ATOM      9  C7  UNL d   1       2.219   1.417  -0.277  0.00  0.00     0.045 A 
ENDROOT
TORSDOF 0
ENDMDL
