MODEL 1
REMARK minimizedAffinity -3.40683055
REMARK minimizedRMSD -1
REMARK  0 active torsions:
REMARK  status: ('A' for Active; 'I' for Inactive)
ROOT
ATOM      1  C   UNL d   1       1.512  -2.853   0.415  0.00  0.00    -0.002 A 
ATOM      2  C1  UNL d   1       1.847  -1.927   1.393  0.00  0.00     0.010 A 
ATOM      3  C2  UNL d   1       1.286  -0.648   1.383  0.00  0.00     0.041 A 
ATOM      4  C3  UNL d   1       0.372  -0.313   0.364  0.00  0.00    -0.075 A 
ATOM      5  S   UNL d   1      -0.442   1.192   0.152  0.00  0.00     0.015 SA
ATOM      6  C4  UNL d   1      -1.253   0.641  -1.242  0.00  0.00     0.022 A 
ATOM      7  C5  UNL d   1      -0.923  -0.657  -1.552  0.00  0.00     0.026 A 
ATOM      8  C6  UNL d   1       0.018  -1.229  -0.631  0.00  0.00    -0.082 A 
ATOM      9  C7  UNL d   1       0.605  -2.517  -0.593  0.00  0.00     0.045 A 
ENDROOT
TORSDOF 0
ENDMDL
