MODEL 1
REMARK minimizedAffinity -0.891832113
REMARK minimizedRMSD -1
REMARK  0 active torsions:
REMARK  status: ('A' for Active; 'I' for Inactive)
ROOT
ATOM      1  C   UNL d   1      -2.201   1.575  -3.554  0.00  0.00    -0.002 A 
ATOM      2  C1  UNL d   1      -3.284   1.871  -2.738  0.00  0.00     0.010 A 
ATOM      3  C2  UNL d   1      -3.274   1.520  -1.387  0.00  0.00     0.041 A 
ATOM      4  C3  UNL d   1      -2.144   0.861  -0.863  0.00  0.00    -0.075 A 
ATOM      5  S   UNL d   1      -1.908   0.335   0.762  0.00  0.00     0.015 SA
ATOM      6  C4  UNL d   1      -0.363  -0.295   0.412  0.00  0.00     0.022 A 
ATOM      7  C5  UNL d   1      -0.020  -0.117  -0.907  0.00  0.00     0.026 A 
ATOM      8  C6  UNL d   1      -1.041   0.552  -1.664  0.00  0.00    -0.082 A 
ATOM      9  C7  UNL d   1      -1.083   0.920  -3.030  0.00  0.00     0.045 A 
ENDROOT
TORSDOF 0
ENDMDL
