MODEL 1
REMARK minimizedAffinity -3.65790606
REMARK minimizedRMSD -1
REMARK  0 active torsions:
REMARK  status: ('A' for Active; 'I' for Inactive)
ROOT
ATOM      1  C   UNL d   1      -2.185   1.846  -3.782  0.00  0.00    -0.002 A 
ATOM      2  C1  UNL d   1      -1.274   2.884  -3.916  0.00  0.00     0.010 A 
ATOM      3  C2  UNL d   1      -0.741   3.511  -2.788  0.00  0.00     0.041 A 
ATOM      4  C3  UNL d   1      -1.141   3.072  -1.511  0.00  0.00    -0.075 A 
ATOM      5  S   UNL d   1      -0.620   3.690   0.011  0.00  0.00     0.015 SA
ATOM      6  C4  UNL d   1      -1.593   2.590   0.876  0.00  0.00     0.022 A 
ATOM      7  C5  UNL d   1      -2.306   1.764   0.039  0.00  0.00     0.026 A 
ATOM      8  C6  UNL d   1      -2.056   2.027  -1.351  0.00  0.00    -0.082 A 
ATOM      9  C7  UNL d   1      -2.579   1.412  -2.514  0.00  0.00     0.045 A 
ENDROOT
TORSDOF 0
ENDMDL
