MODEL 1
REMARK minimizedAffinity -2.74142909
REMARK minimizedRMSD -1
REMARK  0 active torsions:
REMARK  status: ('A' for Active; 'I' for Inactive)
ROOT
ATOM      1  C   UNL d   1       3.903   3.008  -0.507  0.00  0.00    -0.002 A 
ATOM      2  C1  UNL d   1       3.668   1.660  -0.736  0.00  0.00     0.010 A 
ATOM      3  C2  UNL d   1       2.373   1.143  -0.668  0.00  0.00     0.041 A 
ATOM      4  C3  UNL d   1       1.307   2.013  -0.367  0.00  0.00    -0.075 A 
ATOM      5  S   UNL d   1      -0.363   1.604  -0.232  0.00  0.00     0.015 SA
ATOM      6  C4  UNL d   1      -0.804   3.210   0.130  0.00  0.00     0.022 A 
ATOM      7  C5  UNL d   1       0.283   4.051   0.153  0.00  0.00     0.026 A 
ATOM      8  C6  UNL d   1       1.518   3.375  -0.134  0.00  0.00    -0.082 A 
ATOM      9  C7  UNL d   1       2.843   3.868  -0.209  0.00  0.00     0.045 A 
ENDROOT
TORSDOF 0
ENDMDL
