MODEL 1
REMARK minimizedAffinity -4.38676596
REMARK minimizedRMSD -1
REMARK  0 active torsions:
REMARK  status: ('A' for Active; 'I' for Inactive)
ROOT
ATOM      1  C   UNL d   1       3.278  -3.151   0.486  0.00  0.00     0.078 C 
ATOM      2  C1  UNL d   1       2.198  -2.431   1.235  0.00  0.00    -0.077 A 
ATOM      3  C2  UNL d   1       1.602  -1.277   0.711  0.00  0.00    -0.001 A 
ATOM      4  C3  UNL d   1       0.604  -0.611   1.424  0.00  0.00     0.003 A 
ATOM      5  C4  UNL d   1       0.194  -1.090   2.667  0.00  0.00    -0.005 A 
ATOM      6  C5  UNL d   1       0.783  -2.236   3.198  0.00  0.00     0.003 A 
ATOM      7  C6  UNL d   1       1.781  -2.904   2.486  0.00  0.00    -0.001 A 
ENDROOT
TORSDOF 0
ENDMDL
