MODEL 1
REMARK minimizedAffinity 6.40956783
REMARK minimizedRMSD -1
REMARK  0 active torsions:
REMARK  status: ('A' for Active; 'I' for Inactive)
ROOT
ATOM      1  C   UNL d   1       4.820  -3.698  -0.229  0.00  0.00     0.078 C 
ATOM      2  C1  UNL d   1       4.814  -2.210  -0.044  0.00  0.00    -0.077 A 
ATOM      3  C2  UNL d   1       3.650  -1.462  -0.255  0.00  0.00    -0.001 A 
ATOM      4  C3  UNL d   1       3.661  -0.076  -0.088  0.00  0.00     0.003 A 
ATOM      5  C4  UNL d   1       4.835   0.574   0.290  0.00  0.00    -0.005 A 
ATOM      6  C5  UNL d   1       5.999  -0.162   0.500  0.00  0.00     0.003 A 
ATOM      7  C6  UNL d   1       5.989  -1.548   0.334  0.00  0.00    -0.001 A 
ENDROOT
TORSDOF 0
ENDMDL
