MODEL 1
REMARK minimizedAffinity 2.34978533
REMARK minimizedRMSD -1
REMARK  0 active torsions:
REMARK  status: ('A' for Active; 'I' for Inactive)
ROOT
ATOM      1  C   UNL d   1       4.140   6.000   2.798  0.00  0.00     0.078 C 
ATOM      2  C1  UNL d   1       2.965   5.278   3.388  0.00  0.00    -0.077 A 
ATOM      3  C2  UNL d   1       2.848   3.887   3.284  0.00  0.00    -0.001 A 
ATOM      4  C3  UNL d   1       1.744   3.229   3.829  0.00  0.00     0.003 A 
ATOM      5  C4  UNL d   1       0.749   3.955   4.481  0.00  0.00    -0.005 A 
ATOM      6  C5  UNL d   1       0.856   5.340   4.588  0.00  0.00     0.003 A 
ATOM      7  C6  UNL d   1       1.959   5.999   4.043  0.00  0.00    -0.001 A 
ENDROOT
TORSDOF 0
ENDMDL
