MODEL 1
REMARK minimizedAffinity 1.04142702
REMARK minimizedRMSD -1
REMARK  0 active torsions:
REMARK  status: ('A' for Active; 'I' for Inactive)
ROOT
ATOM      1  C   UNL d   1       1.923   5.984   5.996  0.00  0.00     0.078 C 
ATOM      2  C1  UNL d   1       2.546   5.982   4.632  0.00  0.00    -0.077 A 
ATOM      3  C2  UNL d   1       3.937   5.992   4.475  0.00  0.00    -0.001 A 
ATOM      4  C3  UNL d   1       4.503   6.000   3.199  0.00  0.00     0.003 A 
ATOM      5  C4  UNL d   1       3.685   6.000   2.071  0.00  0.00    -0.005 A 
ATOM      6  C5  UNL d   1       2.300   5.993   2.217  0.00  0.00     0.003 A 
ATOM      7  C6  UNL d   1       1.732   5.984   3.492  0.00  0.00    -0.001 A 
ENDROOT
TORSDOF 0
ENDMDL
