MODEL 1
REMARK minimizedAffinity -0.695355356
REMARK minimizedRMSD -1
REMARK  0 active torsions:
REMARK  status: ('A' for Active; 'I' for Inactive)
ROOT
ATOM      1  C   UNL d   1       2.000  -2.164   0.709  0.00  0.00     0.078 C 
ATOM      2  C1  UNL d   1       2.379  -0.985  -0.137  0.00  0.00    -0.077 A 
ATOM      3  C2  UNL d   1       1.635  -0.643  -1.273  0.00  0.00    -0.001 A 
ATOM      4  C3  UNL d   1       2.005   0.450  -2.057  0.00  0.00     0.003 A 
ATOM      5  C4  UNL d   1       3.122   1.211  -1.714  0.00  0.00    -0.005 A 
ATOM      6  C5  UNL d   1       3.870   0.877  -0.587  0.00  0.00     0.003 A 
ATOM      7  C6  UNL d   1       3.501  -0.217   0.198  0.00  0.00    -0.001 A 
ENDROOT
TORSDOF 0
ENDMDL
