MODEL 1
REMARK minimizedAffinity -1.53215253
REMARK minimizedRMSD -1
REMARK  0 active torsions:
REMARK  status: ('A' for Active; 'I' for Inactive)
ROOT
ATOM      1  C   UNL d   1      -2.060   0.517  -2.652  0.00  0.00     0.078 C 
ATOM      2  C1  UNL d   1      -1.527   0.106  -1.312  0.00  0.00    -0.077 A 
ATOM      3  C2  UNL d   1      -2.356   0.076  -0.185  0.00  0.00    -0.001 A 
ATOM      4  C3  UNL d   1      -1.844  -0.300   1.058  0.00  0.00     0.003 A 
ATOM      5  C4  UNL d   1      -0.501  -0.648   1.186  0.00  0.00    -0.005 A 
ATOM      6  C5  UNL d   1       0.333  -0.619   0.069  0.00  0.00     0.003 A 
ATOM      7  C6  UNL d   1      -0.177  -0.243  -1.174  0.00  0.00    -0.001 A 
ENDROOT
TORSDOF 0
ENDMDL
