MODEL 1
REMARK minimizedAffinity -4.1203084
REMARK minimizedRMSD -1
REMARK  0 active torsions:
REMARK  status: ('A' for Active; 'I' for Inactive)
ROOT
ATOM      1  C   UNL d   1      -0.692   0.918   0.322  0.00  0.00     0.078 C 
ATOM      2  C1  UNL d   1      -0.006  -0.330   0.792  0.00  0.00    -0.077 A 
ATOM      3  C2  UNL d   1      -0.330  -0.910   2.025  0.00  0.00    -0.001 A 
ATOM      4  C3  UNL d   1       0.324  -2.066   2.454  0.00  0.00     0.003 A 
ATOM      5  C4  UNL d   1       1.307  -2.651   1.659  0.00  0.00    -0.005 A 
ATOM      6  C5  UNL d   1       1.638  -2.079   0.432  0.00  0.00     0.003 A 
ATOM      7  C6  UNL d   1       0.985  -0.923   0.000  0.00  0.00    -0.001 A 
ENDROOT
TORSDOF 0
ENDMDL
