MODEL 1
REMARK minimizedAffinity -4.9053688
REMARK minimizedRMSD -1
REMARK  0 active torsions:
REMARK  status: ('A' for Active; 'I' for Inactive)
ROOT
ATOM      1  C1  BNZ d   1       0.334   1.449  -0.727  0.00  0.00     0.000 A 
ATOM      2  C2  BNZ d   1       0.331   2.818  -0.708  0.00  0.00     0.000 A 
ATOM      3  C3  BNZ d   1      -0.431   3.504   0.196  0.00  0.00     0.000 A 
ATOM      4  C4  BNZ d   1      -1.218   2.822   1.052  0.00  0.00     0.000 A 
ATOM      5  C5  BNZ d   1      -1.234   1.441   1.039  0.00  0.00     0.000 A 
ATOM      6  C6  BNZ d   1      -0.436   0.753   0.153  0.00  0.00     0.000 A 
ENDROOT
TORSDOF 0
ENDMDL
