MODEL 1
REMARK minimizedAffinity -1.16415238
REMARK minimizedRMSD -1
REMARK  0 active torsions:
REMARK  status: ('A' for Active; 'I' for Inactive)
ROOT
ATOM      1  C1  BNZ d   1      -0.750  -0.838   0.319  0.00  0.00     0.000 A 
ATOM      2  C2  BNZ d   1      -1.509   0.012   1.078  0.00  0.00     0.000 A 
ATOM      3  C3  BNZ d   1      -1.208   1.343   1.153  0.00  0.00     0.000 A 
ATOM      4  C4  BNZ d   1      -0.126   1.815   0.501  0.00  0.00     0.000 A 
ATOM      5  C5  BNZ d   1       0.655   0.970  -0.262  0.00  0.00     0.000 A 
ATOM      6  C6  BNZ d   1       0.326  -0.362  -0.366  0.00  0.00     0.000 A 
ENDROOT
TORSDOF 0
ENDMDL
