MODEL 1
REMARK minimizedAffinity -3.24261856
REMARK minimizedRMSD -1
REMARK  0 active torsions:
REMARK  status: ('A' for Active; 'I' for Inactive)
ROOT
ATOM      1  C1  BNZ d   1       0.461   2.157  -0.615  0.00  0.00     0.000 A 
ATOM      2  C2  BNZ d   1      -0.421   2.998   0.009  0.00  0.00     0.000 A 
ATOM      3  C3  BNZ d   1      -1.366   2.510   0.867  0.00  0.00     0.000 A 
ATOM      4  C4  BNZ d   1      -1.454   1.179   1.070  0.00  0.00     0.000 A 
ATOM      5  C5  BNZ d   1      -0.578   0.317   0.441  0.00  0.00     0.000 A 
ATOM      6  C6  BNZ d   1       0.397   0.816  -0.392  0.00  0.00     0.000 A 
ENDROOT
TORSDOF 0
ENDMDL
