MODEL 1
REMARK minimizedAffinity -3.62923717
REMARK minimizedRMSD -1
REMARK  0 active torsions:
REMARK  status: ('A' for Active; 'I' for Inactive)
ROOT
ATOM      1  C1  BNZ d   1       2.270  -0.485  -0.061  0.00  0.00     0.000 A 
ATOM      2  C2  BNZ d   1       1.302  -1.432   0.142  0.00  0.00     0.000 A 
ATOM      3  C3  BNZ d   1      -0.023  -1.108   0.056  0.00  0.00     0.000 A 
ATOM      4  C4  BNZ d   1      -0.379   0.169  -0.194  0.00  0.00     0.000 A 
ATOM      5  C5  BNZ d   1       0.585   1.137  -0.392  0.00  0.00     0.000 A 
ATOM      6  C6  BNZ d   1       1.918   0.799  -0.343  0.00  0.00     0.000 A 
ENDROOT
TORSDOF 0
ENDMDL
