MODEL 1
REMARK minimizedAffinity -3.0066781
REMARK minimizedRMSD -1
REMARK  0 active torsions:
REMARK  status: ('A' for Active; 'I' for Inactive)
ROOT
ATOM      1  C1  BNZ d   1       0.767   2.776  -0.593  0.00  0.00     0.000 A 
ATOM      2  C2  BNZ d   1       0.004   3.439   0.331  0.00  0.00     0.000 A 
ATOM      3  C3  BNZ d   1      -0.847   2.758   1.155  0.00  0.00     0.000 A 
ATOM      4  C4  BNZ d   1      -0.963   1.420   1.029  0.00  0.00     0.000 A 
ATOM      5  C5  BNZ d   1      -0.207   0.738   0.096  0.00  0.00     0.000 A 
ATOM      6  C6  BNZ d   1       0.677   1.423  -0.705  0.00  0.00     0.000 A 
ENDROOT
TORSDOF 0
ENDMDL
