MODEL 1
REMARK minimizedAffinity -1.18836939
REMARK minimizedRMSD -1
REMARK  0 active torsions:
REMARK  status: ('A' for Active; 'I' for Inactive)
ROOT
ATOM      1  C1  BNZ d   1       3.313   2.877  -5.051  0.00  0.00     0.000 A 
ATOM      2  C2  BNZ d   1       4.125   2.314  -6.000  0.00  0.00     0.000 A 
ATOM      3  C3  BNZ d   1       5.472   2.545  -5.995  0.00  0.00     0.000 A 
ATOM      4  C4  BNZ d   1       6.000   3.370  -5.068  0.00  0.00     0.000 A 
ATOM      5  C5  BNZ d   1       5.194   3.954  -4.111  0.00  0.00     0.000 A 
ATOM      6  C6  BNZ d   1       3.844   3.688  -4.095  0.00  0.00     0.000 A 
ENDROOT
TORSDOF 0
ENDMDL
