MODEL 1
REMARK minimizedAffinity 3.90467906
REMARK minimizedRMSD -1
REMARK  0 active torsions:
REMARK  status: ('A' for Active; 'I' for Inactive)
ROOT
ATOM      1  C1  BNZ d   1       3.361   2.625  -3.745  0.00  0.00     0.000 A 
ATOM      2  C2  BNZ d   1       4.368   3.552  -3.767  0.00  0.00     0.000 A 
ATOM      3  C3  BNZ d   1       5.111   3.751  -4.897  0.00  0.00     0.000 A 
ATOM      4  C4  BNZ d   1       4.873   2.996  -5.989  0.00  0.00     0.000 A 
ATOM      5  C5  BNZ d   1       3.867   2.051  -5.979  0.00  0.00     0.000 A 
ATOM      6  C6  BNZ d   1       3.095   1.880  -4.852  0.00  0.00     0.000 A 
ENDROOT
TORSDOF 0
ENDMDL
