MODEL 1
REMARK minimizedAffinity -3.27056289
REMARK minimizedRMSD -1
REMARK  0 active torsions:
REMARK  status: ('A' for Active; 'I' for Inactive)
ROOT
ATOM      1  C1  BNZ d   1       1.023   1.345  -0.419  0.00  0.00     0.000 A 
ATOM      2  C2  BNZ d   1       1.021  -0.023  -0.477  0.00  0.00     0.000 A 
ATOM      3  C3  BNZ d   1      -0.090  -0.737  -0.122  0.00  0.00     0.000 A 
ATOM      4  C4  BNZ d   1      -1.181  -0.085   0.328  0.00  0.00     0.000 A 
ATOM      5  C5  BNZ d   1      -1.191   1.294   0.402  0.00  0.00     0.000 A 
ATOM      6  C6  BNZ d   1      -0.085   2.011   0.007  0.00  0.00     0.000 A 
ENDROOT
TORSDOF 0
ENDMDL
