MODEL 1
REMARK minimizedAffinity -4.26117039
REMARK minimizedRMSD -1
REMARK  0 active torsions:
REMARK  status: ('A' for Active; 'I' for Inactive)
ROOT
ATOM      1  C1  BNZ d   1       0.322  -1.877  -1.032  0.00  0.00     0.000 A 
ATOM      2  C2  BNZ d   1       0.129  -2.338  -2.307  0.00  0.00     0.000 A 
ATOM      3  C3  BNZ d   1      -0.910  -3.177  -2.598  0.00  0.00     0.000 A 
ATOM      4  C4  BNZ d   1      -1.730  -3.586  -1.608  0.00  0.00     0.000 A 
ATOM      5  C5  BNZ d   1      -1.542  -3.137  -0.315  0.00  0.00     0.000 A 
ATOM      6  C6  BNZ d   1      -0.518  -2.262  -0.033  0.00  0.00     0.000 A 
ENDROOT
TORSDOF 0
ENDMDL
