MODEL 1
REMARK minimizedAffinity -3.39938736
REMARK minimizedRMSD -1
REMARK  0 active torsions:
REMARK  status: ('A' for Active; 'I' for Inactive)
ROOT
ATOM      1  C1  BNZ d   1      -0.960  -0.274   0.307  0.00  0.00     0.000 A 
ATOM      2  C2  BNZ d   1      -1.077   1.085   0.188  0.00  0.00     0.000 A 
ATOM      3  C3  BNZ d   1      -0.023   1.845  -0.238  0.00  0.00     0.000 A 
ATOM      4  C4  BNZ d   1       1.157   1.250  -0.504  0.00  0.00     0.000 A 
ATOM      5  C5  BNZ d   1       1.295  -0.118  -0.380  0.00  0.00     0.000 A 
ATOM      6  C6  BNZ d   1       0.220  -0.884   0.011  0.00  0.00     0.000 A 
ENDROOT
TORSDOF 0
ENDMDL
