MODEL 1
REMARK minimizedAffinity -2.89741564
REMARK minimizedRMSD -1
REMARK  0 active torsions:
REMARK  status: ('A' for Active; 'I' for Inactive)
ROOT
ATOM      1  C1  BNZ d   1      -1.946   0.234   0.763  0.00  0.00     0.000 A 
ATOM      2  C2  BNZ d   1      -2.955   1.158   0.816  0.00  0.00     0.000 A 
ATOM      3  C3  BNZ d   1      -2.678   2.489   0.958  0.00  0.00     0.000 A 
ATOM      4  C4  BNZ d   1      -1.397   2.889   1.087  0.00  0.00     0.000 A 
ATOM      5  C5  BNZ d   1      -0.369   1.968   1.045  0.00  0.00     0.000 A 
ATOM      6  C6  BNZ d   1      -0.650   0.634   0.863  0.00  0.00     0.000 A 
ENDROOT
TORSDOF 0
ENDMDL
