MODEL 1
REMARK minimizedAffinity -3.42734551
REMARK minimizedRMSD -1
REMARK  0 active torsions:
REMARK  status: ('A' for Active; 'I' for Inactive)
ROOT
ATOM      1  C1  BNZ d   1      -0.828   0.088  -0.066  0.00  0.00     0.000 A 
ATOM      2  C2  BNZ d   1      -1.564   1.209   0.212  0.00  0.00     0.000 A 
ATOM      3  C3  BNZ d   1      -0.952   2.412   0.427  0.00  0.00     0.000 A 
ATOM      4  C4  BNZ d   1       0.394   2.485   0.403  0.00  0.00     0.000 A 
ATOM      5  C5  BNZ d   1       1.150   1.361   0.134  0.00  0.00     0.000 A 
ATOM      6  C6  BNZ d   1       0.530   0.160  -0.121  0.00  0.00     0.000 A 
ENDROOT
TORSDOF 0
ENDMDL
