MODEL 1
REMARK minimizedAffinity -3.84042811
REMARK minimizedRMSD -1
REMARK  0 active torsions:
REMARK  status: ('A' for Active; 'I' for Inactive)
ROOT
ATOM      1  C1  BNZ d   1       1.631   1.140  -0.166  0.00  0.00     0.000 A 
ATOM      2  C2  BNZ d   1       2.021  -0.169  -0.074  0.00  0.00     0.000 A 
ATOM      3  C3  BNZ d   1       1.099  -1.164   0.098  0.00  0.00     0.000 A 
ATOM      4  C4  BNZ d   1      -0.206  -0.845   0.217  0.00  0.00     0.000 A 
ATOM      5  C5  BNZ d   1      -0.614   0.472   0.136  0.00  0.00     0.000 A 
ATOM      6  C6  BNZ d   1       0.313   1.467  -0.076  0.00  0.00     0.000 A 
ENDROOT
TORSDOF 0
ENDMDL
