MODEL 1
REMARK minimizedAffinity -4.77650261
REMARK minimizedRMSD -1
REMARK  0 active torsions:
REMARK  status: ('A' for Active; 'I' for Inactive)
ROOT
ATOM      1  C1  BNZ d   1       0.414   1.097  -1.135  0.00  0.00     0.000 A 
ATOM      2  C2  BNZ d   1       0.678   2.422  -0.915  0.00  0.00     0.000 A 
ATOM      3  C3  BNZ d   1       0.118   3.081   0.144  0.00  0.00     0.000 A 
ATOM      4  C4  BNZ d   1      -0.735   2.424   0.957  0.00  0.00     0.000 A 
ATOM      5  C5  BNZ d   1      -1.018   1.090   0.743  0.00  0.00     0.000 A 
ATOM      6  C6  BNZ d   1      -0.422   0.420  -0.301  0.00  0.00     0.000 A 
ENDROOT
TORSDOF 0
ENDMDL
