MODEL 1
REMARK minimizedAffinity -0.590400755
REMARK minimizedRMSD -1
REMARK  1 active torsions:
REMARK  status: ('A' for Active; 'I' for Inactive)
REMARK    1  A    between atoms: N_2  and  C1_3 
ROOT
ATOM      1  C1  UNL d   1       1.001  -1.118  -0.382  0.00  0.00     0.143 A 
ATOM      2  C2  UNL d   1       0.869   0.001   0.447  0.00  0.00    -0.057 A 
ATOM      3  C3  UNL d   1      -0.319   0.741   0.485  0.00  0.00     0.033 A 
ATOM      4  C4  UNL d   1      -1.390   0.390  -0.330  0.00  0.00    -0.042 A 
ATOM      5  C5  UNL d   1      -1.273  -0.703  -1.180  0.00  0.00     0.033 A 
ATOM      6  C6  UNL d   1      -0.087  -1.443  -1.209  0.00  0.00    -0.057 A 
ENDROOT
BRANCH   1   7
ATOM      7  N   UNL d   1       2.189  -1.836  -0.538  0.00  0.00    -0.732 N 
ATOM      8  C   UNL d   1       2.707  -2.128  -1.857  0.00  0.00     0.284 C 
ATOM      9  H3  UNL d   1       2.900  -1.561   0.136  0.00  0.00     0.395 HD
ENDBRANCH   1   7
TORSDOF 1
ENDMDL
