MODEL 1
REMARK minimizedAffinity -4.38615751
REMARK minimizedRMSD -1
REMARK  1 active torsions:
REMARK  status: ('A' for Active; 'I' for Inactive)
REMARK    1  A    between atoms: N_2  and  C1_3 
ROOT
ATOM      1  C1  UNL d   1       0.229   0.337   0.080  0.00  0.00     0.143 A 
ATOM      2  C2  UNL d   1       0.450  -1.011  -0.221  0.00  0.00    -0.057 A 
ATOM      3  C3  UNL d   1       1.705  -1.602  -0.030  0.00  0.00     0.033 A 
ATOM      4  C4  UNL d   1       2.773  -0.844   0.439  0.00  0.00    -0.042 A 
ATOM      5  C5  UNL d   1       2.583   0.504   0.722  0.00  0.00     0.033 A 
ATOM      6  C6  UNL d   1       1.325   1.087   0.535  0.00  0.00    -0.057 A 
ENDROOT
BRANCH   1   7
ATOM      7  N   UNL d   1      -0.969   1.007  -0.181  0.00  0.00    -0.732 N 
ATOM      8  C   UNL d   1      -2.215   0.535   0.385  0.00  0.00     0.284 C 
ATOM      9  H3  UNL d   1      -0.861   2.018  -0.162  0.00  0.00     0.395 HD
ENDBRANCH   1   7
TORSDOF 1
ENDMDL
