MODEL 1
REMARK minimizedAffinity -5.12123775
REMARK minimizedRMSD -1
REMARK  1 active torsions:
REMARK  status: ('A' for Active; 'I' for Inactive)
REMARK    1  A    between atoms: N_2  and  C1_3 
ROOT
ATOM      1  C1  UNL d   1       0.042   0.052   0.057  0.00  0.00     0.143 A 
ATOM      2  C2  UNL d   1       0.365  -1.308  -0.002  0.00  0.00    -0.057 A 
ATOM      3  C3  UNL d   1       1.667  -1.756   0.252  0.00  0.00     0.033 A 
ATOM      4  C4  UNL d   1       2.678  -0.846   0.543  0.00  0.00    -0.042 A 
ATOM      5  C5  UNL d   1       2.385   0.512   0.583  0.00  0.00     0.033 A 
ATOM      6  C6  UNL d   1       1.082   0.953   0.335  0.00  0.00    -0.057 A 
ENDROOT
BRANCH   1   7
ATOM      7  N   UNL d   1      -1.211   0.569  -0.282  0.00  0.00    -0.732 N 
ATOM      8  C   UNL d   1      -2.236   0.738   0.726  0.00  0.00     0.284 C 
ATOM      9  H3  UNL d   1      -1.147   1.340  -0.943  0.00  0.00     0.395 HD
ENDBRANCH   1   7
TORSDOF 1
ENDMDL
