MODEL 1
REMARK minimizedAffinity -5.29476881
REMARK minimizedRMSD -1
REMARK  1 active torsions:
REMARK  status: ('A' for Active; 'I' for Inactive)
REMARK    1  A    between atoms: N_2  and  C1_3 
ROOT
ATOM      1  C1  UNL d   1       1.327   0.533   0.036  0.00  0.00     0.143 A 
ATOM      2  C2  UNL d   1       1.543  -0.755   0.538  0.00  0.00    -0.057 A 
ATOM      3  C3  UNL d   1       2.802  -1.152   1.004  0.00  0.00     0.033 A 
ATOM      4  C4  UNL d   1       3.879  -0.274   0.948  0.00  0.00    -0.042 A 
ATOM      5  C5  UNL d   1       3.694   1.003   0.430  0.00  0.00     0.033 A 
ATOM      6  C6  UNL d   1       2.433   1.396  -0.027  0.00  0.00    -0.057 A 
ENDROOT
BRANCH   1   7
ATOM      7  N   UNL d   1       0.123   0.955  -0.532  0.00  0.00    -0.732 N 
ATOM      8  C   UNL d   1      -1.143   0.541   0.032  0.00  0.00     0.284 C 
ATOM      9  H3  UNL d   1       0.151   1.930  -0.821  0.00  0.00     0.395 HD
ENDBRANCH   1   7
TORSDOF 1
ENDMDL
