MODEL 1
REMARK minimizedAffinity 14.1068621
REMARK minimizedRMSD -1
REMARK  0 active torsions:
REMARK  status: ('A' for Active; 'I' for Inactive)
ROOT
ATOM      1  C   UNL d   1       1.087  -1.930  -3.046  0.00  0.00     0.124 A 
ATOM      2  C1  UNL d   1       0.983  -1.263  -4.258  0.00  0.00     0.062 A 
ATOM      3  C2  UNL d   1       2.104  -0.664  -4.826  0.00  0.00     0.162 A 
ATOM      4  C3  UNL d   1       3.340  -0.731  -4.183  0.00  0.00    -0.034 A 
ATOM      5  C4  UNL d   1       3.436  -1.403  -2.963  0.00  0.00     0.162 A 
ATOM      6  C5  UNL d   1       2.313  -2.000  -2.399  0.00  0.00     0.062 A 
ATOM      7  F   UNL d   1       2.416  -2.644  -1.228  0.00  0.00    -0.097 F 
ATOM      8  F1  UNL d   1       4.609  -1.486  -2.318  0.00  0.00    -0.096 F 
ATOM      9  I   UNL d   1       5.018   0.164  -5.029  0.00  0.00    -0.060 I 
ATOM     10  F2  UNL d   1       1.974  -0.025  -5.998  0.00  0.00    -0.096 F 
ATOM     11  F3  UNL d   1      -0.201  -1.193  -4.884  0.00  0.00    -0.097 F 
ATOM     12  F4  UNL d   1       0.007  -2.505  -2.501  0.00  0.00    -0.092 F 
ENDROOT
TORSDOF 0
ENDMDL
