MODEL 1
REMARK minimizedAffinity 8.46153641
REMARK minimizedRMSD -1
REMARK  0 active torsions:
REMARK  status: ('A' for Active; 'I' for Inactive)
ROOT
ATOM      1  C   UNL d   1      -0.325  -1.622  -3.787  0.00  0.00     0.124 A 
ATOM      2  C1  UNL d   1       0.750  -2.428  -3.441  0.00  0.00     0.062 A 
ATOM      3  C2  UNL d   1       2.016  -2.167  -3.958  0.00  0.00     0.162 A 
ATOM      4  C3  UNL d   1       2.214  -1.093  -4.825  0.00  0.00    -0.034 A 
ATOM      5  C4  UNL d   1       1.127  -0.286  -5.169  0.00  0.00     0.162 A 
ATOM      6  C5  UNL d   1      -0.136  -0.552  -4.650  0.00  0.00     0.062 A 
ATOM      7  F   UNL d   1      -1.173   0.229  -4.985  0.00  0.00    -0.097 F 
ATOM      8  F1  UNL d   1       1.282   0.755  -6.000  0.00  0.00    -0.096 F 
ATOM      9  I   UNL d   1       4.105  -0.698  -5.599  0.00  0.00    -0.060 I 
ATOM     10  F2  UNL d   1       3.037  -2.963  -3.607  0.00  0.00    -0.096 F 
ATOM     11  F3  UNL d   1       0.569  -3.463  -2.608  0.00  0.00    -0.097 F 
ATOM     12  F4  UNL d   1      -1.542  -1.876  -3.289  0.00  0.00    -0.092 F 
ENDROOT
TORSDOF 0
ENDMDL
