MODEL 1
REMARK minimizedAffinity 17.6036682
REMARK minimizedRMSD -1
REMARK  0 active torsions:
REMARK  status: ('A' for Active; 'I' for Inactive)
ROOT
ATOM      1  C   UNL d   1       2.764  -1.961  -3.279  0.00  0.00     0.124 A 
ATOM      2  C1  UNL d   1       2.736  -1.110  -4.375  0.00  0.00     0.062 A 
ATOM      3  C2  UNL d   1       1.521  -0.737  -4.942  0.00  0.00     0.162 A 
ATOM      4  C3  UNL d   1       0.322  -1.215  -4.413  0.00  0.00    -0.034 A 
ATOM      5  C4  UNL d   1       0.357  -2.072  -3.311  0.00  0.00     0.162 A 
ATOM      6  C5  UNL d   1       1.575  -2.442  -2.749  0.00  0.00     0.062 A 
ATOM      7  F   UNL d   1       1.599  -3.264  -1.690  0.00  0.00    -0.097 F 
ATOM      8  F1  UNL d   1      -0.777  -2.550  -2.778  0.00  0.00    -0.096 F 
ATOM      9  I   UNL d   1      -1.498  -0.660  -5.257  0.00  0.00    -0.060 I 
ATOM     10  F2  UNL d   1       1.524   0.087  -6.000  0.00  0.00    -0.096 F 
ATOM     11  F3  UNL d   1       3.883  -0.645  -4.890  0.00  0.00    -0.097 F 
ATOM     12  F4  UNL d   1       3.935  -2.319  -2.737  0.00  0.00    -0.092 F 
ENDROOT
TORSDOF 0
ENDMDL
