MODEL 1
REMARK minimizedAffinity 27.3602409
REMARK minimizedRMSD -1
REMARK  0 active torsions:
REMARK  status: ('A' for Active; 'I' for Inactive)
ROOT
ATOM      1  C   UNL d   1       0.258  -1.694   2.754  0.00  0.00     0.124 A 
ATOM      2  C1  UNL d   1       1.558  -2.181   2.719  0.00  0.00     0.062 A 
ATOM      3  C2  UNL d   1       2.497  -1.736   3.645  0.00  0.00     0.162 A 
ATOM      4  C3  UNL d   1       2.140  -0.798   4.614  0.00  0.00    -0.034 A 
ATOM      5  C4  UNL d   1       0.832  -0.312   4.641  0.00  0.00     0.162 A 
ATOM      6  C5  UNL d   1      -0.103  -0.760   3.714  0.00  0.00     0.062 A 
ATOM      7  F   UNL d   1      -1.358  -0.288   3.749  0.00  0.00    -0.097 F 
ATOM      8  F1  UNL d   1       0.455   0.591   5.560  0.00  0.00    -0.096 F 
ATOM      9  I   UNL d   1       3.542  -0.130   6.000  0.00  0.00    -0.060 I 
ATOM     10  F2  UNL d   1       3.745  -2.224   3.588  0.00  0.00    -0.096 F 
ATOM     11  F3  UNL d   1       1.910  -3.083   1.792  0.00  0.00    -0.097 F 
ATOM     12  F4  UNL d   1      -0.643  -2.123   1.861  0.00  0.00    -0.092 F 
ENDROOT
TORSDOF 0
ENDMDL
