MODEL 1
REMARK minimizedAffinity 24.7561245
REMARK minimizedRMSD -1
REMARK  0 active torsions:
REMARK  status: ('A' for Active; 'I' for Inactive)
ROOT
ATOM      1  C   UNL d   1      -1.695  -0.744   2.246  0.00  0.00     0.124 A 
ATOM      2  C1  UNL d   1      -1.552  -2.084   2.580  0.00  0.00     0.062 A 
ATOM      3  C2  UNL d   1      -0.356  -2.545   3.123  0.00  0.00     0.162 A 
ATOM      4  C3  UNL d   1       0.705  -1.666   3.337  0.00  0.00    -0.034 A 
ATOM      5  C4  UNL d   1       0.554  -0.321   2.998  0.00  0.00     0.162 A 
ATOM      6  C5  UNL d   1      -0.643   0.136   2.455  0.00  0.00     0.062 A 
ATOM      7  F   UNL d   1      -0.780   1.431   2.133  0.00  0.00    -0.097 F 
ATOM      8  F1  UNL d   1       1.554   0.552   3.191  0.00  0.00    -0.096 F 
ATOM      9  I   UNL d   1       2.494  -2.353   4.149  0.00  0.00    -0.060 I 
ATOM     10  F2  UNL d   1      -0.246  -3.845   3.436  0.00  0.00    -0.096 F 
ATOM     11  F3  UNL d   1      -2.567  -2.936   2.378  0.00  0.00    -0.097 F 
ATOM     12  F4  UNL d   1      -2.846  -0.303   1.723  0.00  0.00    -0.092 F 
ENDROOT
TORSDOF 0
ENDMDL
