MODEL 1
REMARK minimizedAffinity 21.8441582
REMARK minimizedRMSD -1
REMARK  0 active torsions:
REMARK  status: ('A' for Active; 'I' for Inactive)
ROOT
ATOM      1  C   UNL d   1       4.623  -0.839  -2.803  0.00  0.00     0.124 A 
ATOM      2  C1  UNL d   1       4.811  -0.109  -3.969  0.00  0.00     0.062 A 
ATOM      3  C2  UNL d   1       3.770   0.032  -4.882  0.00  0.00     0.162 A 
ATOM      4  C3  UNL d   1       2.531  -0.558  -4.633  0.00  0.00    -0.034 A 
ATOM      5  C4  UNL d   1       2.349  -1.291  -3.459  0.00  0.00     0.162 A 
ATOM      6  C5  UNL d   1       3.393  -1.429  -2.549  0.00  0.00     0.062 A 
ATOM      7  F   UNL d   1       3.209  -2.135  -1.424  0.00  0.00    -0.097 F 
ATOM      8  F1  UNL d   1       1.171  -1.871  -3.189  0.00  0.00    -0.096 F 
ATOM      9  I   UNL d   1       0.972  -0.349  -5.996  0.00  0.00    -0.060 I 
ATOM     10  F2  UNL d   1       3.980   0.742  -6.000  0.00  0.00    -0.096 F 
ATOM     11  F3  UNL d   1       5.999   0.461  -4.216  0.00  0.00    -0.097 F 
ATOM     12  F4  UNL d   1       5.626  -0.974  -1.926  0.00  0.00    -0.092 F 
ENDROOT
TORSDOF 0
ENDMDL
