MODEL 1
REMARK minimizedAffinity 10.1097803
REMARK minimizedRMSD -1
REMARK  0 active torsions:
REMARK  status: ('A' for Active; 'I' for Inactive)
ROOT
ATOM      1  C4' PXY d   1      -1.603  -0.157  -1.150  0.00  0.00     0.077 C 
ATOM      2  C1' PXY d   1       3.280  -2.599  -3.051  0.00  0.00     0.077 C 
ATOM      3  C1  PXY d   1       2.004  -1.957  -2.540  0.00  0.00    -0.082 A 
ATOM      4  C2  PXY d   1       0.868  -2.156  -3.188  0.00  0.00     0.003 A 
ATOM      5  C3  PXY d   1      -0.289  -1.558  -2.759  0.00  0.00     0.003 A 
ATOM      6  C4  PXY d   1      -0.293  -0.792  -1.624  0.00  0.00    -0.082 A 
ATOM      7  C5  PXY d   1       0.861  -0.593  -0.951  0.00  0.00     0.003 A 
ATOM      8  C6  PXY d   1       2.032  -1.176  -1.427  0.00  0.00     0.003 A 
ENDROOT
TORSDOF 0
ENDMDL
