MODEL 1
REMARK minimizedAffinity 11.0511379
REMARK minimizedRMSD -1
REMARK  0 active torsions:
REMARK  status: ('A' for Active; 'I' for Inactive)
ROOT
ATOM      1  C4' PXY d   1       2.111  -0.437  -1.375  0.00  0.00     0.077 C 
ATOM      2  C1' PXY d   1       1.433   2.284   3.680  0.00  0.00     0.077 C 
ATOM      3  C1  PXY d   1       1.604   1.580   2.348  0.00  0.00    -0.082 A 
ATOM      4  C2  PXY d   1       1.766   0.267   2.318  0.00  0.00     0.003 A 
ATOM      5  C3  PXY d   1       1.955  -0.381   1.125  0.00  0.00     0.003 A 
ATOM      6  C4  PXY d   1       1.925   0.315  -0.054  0.00  0.00    -0.082 A 
ATOM      7  C5  PXY d   1       1.750   1.653  -0.033  0.00  0.00     0.003 A 
ATOM      8  C6  PXY d   1       1.601   2.298   1.192  0.00  0.00     0.003 A 
ENDROOT
TORSDOF 0
ENDMDL
