MODEL 1
REMARK minimizedAffinity 2.38956237
REMARK minimizedRMSD -1
REMARK  0 active torsions:
REMARK  status: ('A' for Active; 'I' for Inactive)
ROOT
ATOM      1  C4' PXY d   1       5.999   5.989   5.995  0.00  0.00     0.077 C 
ATOM      2  C1' PXY d   1       2.579   2.778   2.618  0.00  0.00     0.077 C 
ATOM      3  C1  PXY d   1       3.469   3.617   3.514  0.00  0.00    -0.082 A 
ATOM      4  C2  PXY d   1       4.153   4.624   2.998  0.00  0.00     0.003 A 
ATOM      5  C3  PXY d   1       4.988   5.373   3.788  0.00  0.00     0.003 A 
ATOM      6  C4  PXY d   1       5.081   5.121   5.130  0.00  0.00    -0.082 A 
ATOM      7  C5  PXY d   1       4.377   4.101   5.666  0.00  0.00     0.003 A 
ATOM      8  C6  PXY d   1       3.568   3.328   4.840  0.00  0.00     0.003 A 
ENDROOT
TORSDOF 0
ENDMDL
