MODEL 1
REMARK minimizedAffinity 20.4500408
REMARK minimizedRMSD -1
REMARK  0 active torsions:
REMARK  status: ('A' for Active; 'I' for Inactive)
ROOT
ATOM      1  C4' PXY d   1      -0.103  -0.513  -2.798  0.00  0.00     0.077 C 
ATOM      2  C1' PXY d   1       4.595  -3.858  -3.208  0.00  0.00     0.077 C 
ATOM      3  C1  PXY d   1       3.360  -2.983  -3.113  0.00  0.00    -0.082 A 
ATOM      4  C2  PXY d   1       3.278  -2.069  -2.160  0.00  0.00     0.003 A 
ATOM      5  C3  PXY d   1       2.156  -1.291  -2.040  0.00  0.00     0.003 A 
ATOM      6  C4  PXY d   1       1.129  -1.413  -2.937  0.00  0.00    -0.082 A 
ATOM      7  C5  PXY d   1       1.209  -2.336  -3.919  0.00  0.00     0.003 A 
ATOM      8  C6  PXY d   1       2.340  -3.144  -3.999  0.00  0.00     0.003 A 
ENDROOT
TORSDOF 0
ENDMDL
