MODEL 1
REMARK minimizedAffinity 4.57770205
REMARK minimizedRMSD -1
REMARK  0 active torsions:
REMARK  status: ('A' for Active; 'I' for Inactive)
ROOT
ATOM      1  C4' PXY d   1      -5.983   3.502   5.989  0.00  0.00     0.077 C 
ATOM      2  C1' PXY d   1      -1.864   6.000   2.793  0.00  0.00     0.077 C 
ATOM      3  C1  PXY d   1      -2.951   5.342   3.620  0.00  0.00    -0.082 A 
ATOM      4  C2  PXY d   1      -3.108   5.687   4.888  0.00  0.00     0.003 A 
ATOM      5  C3  PXY d   1      -4.065   5.079   5.659  0.00  0.00     0.003 A 
ATOM      6  C4  PXY d   1      -4.905   4.147   5.113  0.00  0.00    -0.082 A 
ATOM      7  C5  PXY d   1      -4.759   3.797   3.818  0.00  0.00     0.003 A 
ATOM      8  C6  PXY d   1      -3.754   4.396   3.063  0.00  0.00     0.003 A 
ENDROOT
TORSDOF 0
ENDMDL
