MODEL 1
REMARK minimizedAffinity 9.0900259
REMARK minimizedRMSD -1
REMARK  0 active torsions:
REMARK  status: ('A' for Active; 'I' for Inactive)
ROOT
ATOM      1  C4' PXY d   1       2.785  -1.916  -0.273  0.00  0.00     0.077 C 
ATOM      2  C1' PXY d   1       4.482   3.550   0.538  0.00  0.00     0.077 C 
ATOM      3  C1  PXY d   1       4.028   2.117   0.335  0.00  0.00    -0.082 A 
ATOM      4  C2  PXY d   1       4.845   1.248  -0.237  0.00  0.00     0.003 A 
ATOM      5  C3  PXY d   1       4.439  -0.043  -0.457  0.00  0.00     0.003 A 
ATOM      6  C4  PXY d   1       3.204  -0.462  -0.039  0.00  0.00    -0.082 A 
ATOM      7  C5  PXY d   1       2.369   0.417   0.555  0.00  0.00     0.003 A 
ATOM      8  C6  PXY d   1       2.785   1.733   0.732  0.00  0.00     0.003 A 
ENDROOT
TORSDOF 0
ENDMDL
