MODEL 1
REMARK minimizedAffinity 14.7537327
REMARK minimizedRMSD -1
REMARK  0 active torsions:
REMARK  status: ('A' for Active; 'I' for Inactive)
ROOT
ATOM      1  C4' PXY d   1       0.548  -4.437  -0.460  0.00  0.00     0.077 C 
ATOM      2  C1' PXY d   1       4.076   0.142  -0.472  0.00  0.00     0.077 C 
ATOM      3  C1  PXY d   1       3.147  -1.056  -0.481  0.00  0.00    -0.082 A 
ATOM      4  C2  PXY d   1       2.723  -1.564   0.665  0.00  0.00     0.003 A 
ATOM      5  C3  PXY d   1       1.908  -2.666   0.676  0.00  0.00     0.003 A 
ATOM      6  C4  PXY d   1       1.480  -3.223  -0.500  0.00  0.00    -0.082 A 
ATOM      7  C5  PXY d   1       1.899  -2.704  -1.673  0.00  0.00     0.003 A 
ATOM      8  C6  PXY d   1       2.759  -1.610  -1.662  0.00  0.00     0.003 A 
ENDROOT
TORSDOF 0
ENDMDL
