MODEL 1
REMARK minimizedAffinity 1.17974257
REMARK minimizedRMSD -1
REMARK  0 active torsions:
REMARK  status: ('A' for Active; 'I' for Inactive)
ROOT
ATOM      1  C4' PXY d   1       3.055   0.195  -0.508  0.00  0.00     0.077 C 
ATOM      2  C1' PXY d   1      -0.810  -4.055  -1.146  0.00  0.00     0.077 C 
ATOM      3  C1  PXY d   1       0.208  -2.946  -0.968  0.00  0.00    -0.082 A 
ATOM      4  C2  PXY d   1      -0.003  -1.768  -1.532  0.00  0.00     0.003 A 
ATOM      5  C3  PXY d   1       0.923  -0.764  -1.408  0.00  0.00     0.003 A 
ATOM      6  C4  PXY d   1       2.050  -0.951  -0.654  0.00  0.00    -0.082 A 
ATOM      7  C5  PXY d   1       2.267  -2.146  -0.066  0.00  0.00     0.003 A 
ATOM      8  C6  PXY d   1       1.335  -3.166  -0.238  0.00  0.00     0.003 A 
ENDROOT
TORSDOF 0
ENDMDL
