MODEL 1
REMARK minimizedAffinity 7.35186863
REMARK minimizedRMSD -1
REMARK  0 active torsions:
REMARK  status: ('A' for Active; 'I' for Inactive)
ROOT
ATOM      1  C4' PXY d   1       4.459   2.786   0.012  0.00  0.00     0.077 C 
ATOM      2  C1' PXY d   1       2.363  -2.594  -0.279  0.00  0.00     0.077 C 
ATOM      3  C1  PXY d   1       2.901  -1.178  -0.206  0.00  0.00    -0.082 A 
ATOM      4  C2  PXY d   1       4.196  -0.962  -0.364  0.00  0.00     0.003 A 
ATOM      5  C3  PXY d   1       4.704   0.308  -0.269  0.00  0.00     0.003 A 
ATOM      6  C4  PXY d   1       3.870   1.374  -0.063  0.00  0.00    -0.082 A 
ATOM      7  C5  PXY d   1       2.546   1.163   0.088  0.00  0.00     0.003 A 
ATOM      8  C6  PXY d   1       2.055  -0.138   0.029  0.00  0.00     0.003 A 
ENDROOT
TORSDOF 0
ENDMDL
