MODEL 1
REMARK minimizedAffinity 14.6637974
REMARK minimizedRMSD -1
REMARK  0 active torsions:
REMARK  status: ('A' for Active; 'I' for Inactive)
ROOT
ATOM      1  C4' PXY d   1       2.171   3.178   2.922  0.00  0.00     0.077 C 
ATOM      2  C1' PXY d   1       1.843  -0.717  -1.337  0.00  0.00     0.077 C 
ATOM      3  C1  PXY d   1       1.934   0.313  -0.228  0.00  0.00    -0.082 A 
ATOM      4  C2  PXY d   1       1.947  -0.084   1.034  0.00  0.00     0.003 A 
ATOM      5  C3  PXY d   1       1.997   0.835   2.050  0.00  0.00     0.003 A 
ATOM      6  C4  PXY d   1       2.089   2.173   1.770  0.00  0.00    -0.082 A 
ATOM      7  C5  PXY d   1       2.087   2.585   0.485  0.00  0.00     0.003 A 
ATOM      8  C6  PXY d   1       1.994   1.638  -0.531  0.00  0.00     0.003 A 
ENDROOT
TORSDOF 0
ENDMDL
