MODEL 1
REMARK minimizedAffinity 18.7927818
REMARK minimizedRMSD -1
REMARK  0 active torsions:
REMARK  status: ('A' for Active; 'I' for Inactive)
ROOT
ATOM      1  C4' PXY d   1      -0.075  -1.139   3.541  0.00  0.00     0.077 C 
ATOM      2  C1' PXY d   1       2.777   3.858   2.982  0.00  0.00     0.077 C 
ATOM      3  C1  PXY d   1       2.028   2.546   3.116  0.00  0.00    -0.082 A 
ATOM      4  C2  PXY d   1       1.357   2.286   4.226  0.00  0.00     0.003 A 
ATOM      5  C3  PXY d   1       0.701   1.092   4.376  0.00  0.00     0.003 A 
ATOM      6  C4  PXY d   1       0.687   0.176   3.358  0.00  0.00    -0.082 A 
ATOM      7  C5  PXY d   1       1.360   0.439   2.218  0.00  0.00     0.003 A 
ATOM      8  C6  PXY d   1       2.054   1.640   2.102  0.00  0.00     0.003 A 
ENDROOT
TORSDOF 0
ENDMDL
