MODEL 1
REMARK minimizedAffinity 12.5120993
REMARK minimizedRMSD -1
REMARK  0 active torsions:
REMARK  status: ('A' for Active; 'I' for Inactive)
ROOT
ATOM      1  C4' PXY d   1       2.454  -1.235  -1.784  0.00  0.00     0.077 C 
ATOM      2  C1' PXY d   1       2.384   1.720   3.184  0.00  0.00     0.077 C 
ATOM      3  C1  PXY d   1       2.393   0.953   1.876  0.00  0.00    -0.082 A 
ATOM      4  C2  PXY d   1       2.784  -0.311   1.862  0.00  0.00     0.003 A 
ATOM      5  C3  PXY d   1       2.829  -1.010   0.683  0.00  0.00     0.003 A 
ATOM      6  C4  PXY d   1       2.419  -0.425  -0.485  0.00  0.00    -0.082 A 
ATOM      7  C5  PXY d   1       2.009   0.861  -0.477  0.00  0.00     0.003 A 
ATOM      8  C6  PXY d   1       2.010   1.566   0.723  0.00  0.00     0.003 A 
ENDROOT
TORSDOF 0
ENDMDL
