MODEL 1
REMARK minimizedAffinity 6.36044121
REMARK minimizedRMSD -1
REMARK  0 active torsions:
REMARK  status: ('A' for Active; 'I' for Inactive)
ROOT
ATOM      1  C4' PXY d   1       2.002  -0.828   1.914  0.00  0.00     0.077 C 
ATOM      2  C1' PXY d   1       1.633  -5.384   5.453  0.00  0.00     0.077 C 
ATOM      3  C1  PXY d   1       1.732  -4.181   4.535  0.00  0.00    -0.082 A 
ATOM      4  C2  PXY d   1       1.174  -4.226   3.336  0.00  0.00     0.003 A 
ATOM      5  C3  PXY d   1       1.280  -3.159   2.481  0.00  0.00     0.003 A 
ATOM      6  C4  PXY d   1       1.920  -2.015   2.878  0.00  0.00    -0.082 A 
ATOM      7  C5  PXY d   1       2.483  -1.958   4.103  0.00  0.00     0.003 A 
ATOM      8  C6  PXY d   1       2.399  -3.067   4.940  0.00  0.00     0.003 A 
ENDROOT
TORSDOF 0
ENDMDL
