MODEL 1
REMARK minimizedAffinity 7.96120024
REMARK minimizedRMSD -1
REMARK  0 active torsions:
REMARK  status: ('A' for Active; 'I' for Inactive)
ROOT
ATOM      1  C4' PXY d   1      -3.094  -2.019  -3.324  0.00  0.00     0.077 C 
ATOM      2  C1' PXY d   1      -2.272   2.512   0.170  0.00  0.00     0.077 C 
ATOM      3  C1  PXY d   1      -2.496   1.331  -0.753  0.00  0.00    -0.082 A 
ATOM      4  C2  PXY d   1      -2.259   0.105  -0.316  0.00  0.00     0.003 A 
ATOM      5  C3  PXY d   1      -2.426  -0.972  -1.148  0.00  0.00     0.003 A 
ATOM      6  C4  PXY d   1      -2.891  -0.797  -2.424  0.00  0.00    -0.082 A 
ATOM      7  C5  PXY d   1      -3.145   0.450  -2.874  0.00  0.00     0.003 A 
ATOM      8  C6  PXY d   1      -2.930   1.533  -2.027  0.00  0.00     0.003 A 
ENDROOT
TORSDOF 0
ENDMDL
