MODEL 1
REMARK minimizedAffinity 0.19438602
REMARK minimizedRMSD -1
REMARK  0 active torsions:
REMARK  status: ('A' for Active; 'I' for Inactive)
ROOT
ATOM      1  C4' PXY d   1       1.275  -4.889   6.000  0.00  0.00     0.077 C 
ATOM      2  C1' PXY d   1       2.058  -1.250   1.577  0.00  0.00     0.077 C 
ATOM      3  C1  PXY d   1       1.851  -2.214   2.729  0.00  0.00    -0.082 A 
ATOM      4  C2  PXY d   1       1.475  -1.751   3.910  0.00  0.00     0.003 A 
ATOM      5  C3  PXY d   1       1.314  -2.605   4.970  0.00  0.00     0.003 A 
ATOM      6  C4  PXY d   1       1.488  -3.953   4.807  0.00  0.00    -0.082 A 
ATOM      7  C5  PXY d   1       1.861  -4.435   3.602  0.00  0.00     0.003 A 
ATOM      8  C6  PXY d   1       2.059  -3.546   2.549  0.00  0.00     0.003 A 
ENDROOT
TORSDOF 0
ENDMDL
