MODEL 1
REMARK minimizedAffinity 4.75446987
REMARK minimizedRMSD -1
REMARK  0 active torsions:
REMARK  status: ('A' for Active; 'I' for Inactive)
ROOT
ATOM      1  C4' PXY d   1       0.285  -3.276   3.001  0.00  0.00     0.077 C 
ATOM      2  C1' PXY d   1       5.994  -2.753   3.747  0.00  0.00     0.077 C 
ATOM      3  C1  PXY d   1       4.496  -2.878   3.548  0.00  0.00    -0.082 A 
ATOM      4  C2  PXY d   1       3.829  -3.830   4.180  0.00  0.00     0.003 A 
ATOM      5  C3  PXY d   1       2.480  -3.977   3.987  0.00  0.00     0.003 A 
ATOM      6  C4  PXY d   1       1.797  -3.107   3.179  0.00  0.00    -0.082 A 
ATOM      7  C5  PXY d   1       2.468  -2.127   2.539  0.00  0.00     0.003 A 
ATOM      8  C6  PXY d   1       3.845  -2.020   2.717  0.00  0.00     0.003 A 
ENDROOT
TORSDOF 0
ENDMDL
