MODEL 1
REMARK minimizedAffinity 13.4483147
REMARK minimizedRMSD -1
REMARK  0 active torsions:
REMARK  status: ('A' for Active; 'I' for Inactive)
ROOT
ATOM      1  C4' PXY d   1       2.267  -5.938   5.441  0.00  0.00     0.077 C 
ATOM      2  C1' PXY d   1       2.224  -1.167   2.178  0.00  0.00     0.077 C 
ATOM      3  C1  PXY d   1       2.248  -2.418   3.033  0.00  0.00    -0.082 A 
ATOM      4  C2  PXY d   1       1.187  -3.208   3.068  0.00  0.00     0.003 A 
ATOM      5  C3  PXY d   1       1.180  -4.326   3.861  0.00  0.00     0.003 A 
ATOM      6  C4  PXY d   1       2.290  -4.669   4.585  0.00  0.00    -0.082 A 
ATOM      7  C5  PXY d   1       3.381  -3.875   4.547  0.00  0.00     0.003 A 
ATOM      8  C6  PXY d   1       3.353  -2.721   3.768  0.00  0.00     0.003 A 
ENDROOT
TORSDOF 0
ENDMDL
