MODEL 1
REMARK minimizedAffinity 4.45272017
REMARK minimizedRMSD -1
REMARK  0 active torsions:
REMARK  status: ('A' for Active; 'I' for Inactive)
ROOT
ATOM      1  C4' PXY d   1      -2.827  -0.279  -3.935  0.00  0.00     0.077 C 
ATOM      2  C1' PXY d   1      -2.468   2.964   0.837  0.00  0.00     0.077 C 
ATOM      3  C1  PXY d   1      -2.573   2.120  -0.417  0.00  0.00    -0.082 A 
ATOM      4  C2  PXY d   1      -1.959   0.949  -0.471  0.00  0.00     0.003 A 
ATOM      5  C3  PXY d   1      -2.017   0.187  -1.610  0.00  0.00     0.003 A 
ATOM      6  C4  PXY d   1      -2.756   0.603  -2.685  0.00  0.00    -0.082 A 
ATOM      7  C5  PXY d   1      -3.394   1.792  -2.634  0.00  0.00     0.003 A 
ATOM      8  C6  PXY d   1      -3.288   2.569  -1.484  0.00  0.00     0.003 A 
ENDROOT
TORSDOF 0
ENDMDL
