MODEL 1
REMARK minimizedAffinity 4.48011732
REMARK minimizedRMSD -1
REMARK  0 active torsions:
REMARK  status: ('A' for Active; 'I' for Inactive)
ROOT
ATOM      1  C4' PXY d   1      -4.196   2.607  -4.417  0.00  0.00     0.077 C 
ATOM      2  C1' PXY d   1      -1.521   0.624   0.309  0.00  0.00     0.077 C 
ATOM      3  C1  PXY d   1      -2.229   1.153  -0.923  0.00  0.00    -0.082 A 
ATOM      4  C2  PXY d   1      -2.396   0.363  -1.971  0.00  0.00     0.003 A 
ATOM      5  C3  PXY d   1      -3.006   0.835  -3.105  0.00  0.00     0.003 A 
ATOM      6  C4  PXY d   1      -3.496   2.112  -3.148  0.00  0.00    -0.082 A 
ATOM      7  C5  PXY d   1      -3.339   2.921  -2.079  0.00  0.00     0.003 A 
ATOM      8  C6  PXY d   1      -2.681   2.436  -0.952  0.00  0.00     0.003 A 
ENDROOT
TORSDOF 0
ENDMDL
