MODEL 1
REMARK minimizedAffinity 19.048605
REMARK minimizedRMSD -1
REMARK  0 active torsions:
REMARK  status: ('A' for Active; 'I' for Inactive)
ROOT
ATOM      1  C4' PXY d   1       1.085  -3.729   3.026  0.00  0.00     0.077 C 
ATOM      2  C1' PXY d   1       2.720   1.685   1.834  0.00  0.00     0.077 C 
ATOM      3  C1  PXY d   1       2.299   0.265   2.157  0.00  0.00    -0.082 A 
ATOM      4  C2  PXY d   1       1.849  -0.519   1.191  0.00  0.00     0.003 A 
ATOM      5  C3  PXY d   1       1.434  -1.796   1.471  0.00  0.00     0.003 A 
ATOM      6  C4  PXY d   1       1.530  -2.292   2.744  0.00  0.00    -0.082 A 
ATOM      7  C5  PXY d   1       1.997  -1.501   3.733  0.00  0.00     0.003 A 
ATOM      8  C6  PXY d   1       2.375  -0.195   3.435  0.00  0.00     0.003 A 
ENDROOT
TORSDOF 0
ENDMDL
