MODEL 1
REMARK minimizedAffinity 11.4165821
REMARK minimizedRMSD -1
REMARK  0 active torsions:
REMARK  status: ('A' for Active; 'I' for Inactive)
ROOT
ATOM      1  C4' PXY d   1      -3.061   1.891  -2.648  0.00  0.00     0.077 C 
ATOM      2  C1' PXY d   1      -3.144  -3.835  -1.856  0.00  0.00     0.077 C 
ATOM      3  C1  PXY d   1      -3.120  -2.331  -2.051  0.00  0.00    -0.082 A 
ATOM      4  C2  PXY d   1      -3.747  -1.796  -3.086  0.00  0.00     0.003 A 
ATOM      5  C3  PXY d   1      -3.709  -0.441  -3.295  0.00  0.00     0.003 A 
ATOM      6  C4  PXY d   1      -3.067   0.379  -2.407  0.00  0.00    -0.082 A 
ATOM      7  C5  PXY d   1      -2.434  -0.159  -1.342  0.00  0.00     0.003 A 
ATOM      8  C6  PXY d   1      -2.450  -1.540  -1.171  0.00  0.00     0.003 A 
ENDROOT
TORSDOF 0
ENDMDL
