MODEL 1
REMARK minimizedAffinity -4.36264181
REMARK minimizedRMSD -1
REMARK  2 active torsions:
REMARK  status: ('A' for Active; 'I' for Inactive)
REMARK    1  A    between atoms: C2'_3  and  C1'_4 
REMARK    2  A    between atoms: C1'_4  and  C1_5 
ROOT
ATOM      1  C1  I4B d   1      -0.249   0.148   0.062  0.00  0.00    -0.075 A 
ATOM      2  C2  I4B d   1      -0.285  -0.972  -0.730  0.00  0.00     0.003 A 
ATOM      3  C3  I4B d   1       0.784  -1.900  -0.702  0.00  0.00     0.002 A 
ATOM      4  C4  I4B d   1       1.885  -1.645   0.090  0.00  0.00    -0.004 A 
ATOM      5  C5  I4B d   1       1.910  -0.520   0.910  0.00  0.00     0.002 A 
ATOM      6  C6  I4B d   1       0.831   0.376   0.905  0.00  0.00     0.003 A 
ENDROOT
BRANCH   1   7
ATOM      7  C1' I4B d   1      -1.380   1.124  -0.017  0.00  0.00     0.060 C 
BRANCH   7   8
ATOM      8  C2' I4B d   1      -2.546   0.551   0.762  0.00  0.00    -0.013 C 
ATOM      9  C4' I4B d   1      -2.665   1.196   2.118  0.00  0.00     0.013 C 
ATOM     10  C3' I4B d   1      -3.791   0.759  -0.048  0.00  0.00     0.013 C 
ENDBRANCH   7   8
ENDBRANCH   1   7
TORSDOF 2
ENDMDL
