MODEL 1
REMARK minimizedAffinity -6.00400686
REMARK minimizedRMSD -1
REMARK  2 active torsions:
REMARK  status: ('A' for Active; 'I' for Inactive)
REMARK    1  A    between atoms: C2'_3  and  C1'_4 
REMARK    2  A    between atoms: C1'_4  and  C1_5 
ROOT
ATOM      1  C1  I4B d   1      -0.240  -0.150  -0.058  0.00  0.00    -0.075 A 
ATOM      2  C2  I4B d   1      -0.422  -1.403  -0.589  0.00  0.00     0.003 A 
ATOM      3  C3  I4B d   1       0.591  -2.384  -0.464  0.00  0.00     0.002 A 
ATOM      4  C4  I4B d   1       1.782  -2.058   0.152  0.00  0.00    -0.004 A 
ATOM      5  C5  I4B d   1       1.956  -0.795   0.710  0.00  0.00     0.002 A 
ATOM      6  C6  I4B d   1       0.934   0.162   0.616  0.00  0.00     0.003 A 
ENDROOT
BRANCH   1   7
ATOM      7  C1' I4B d   1      -1.317   0.872  -0.237  0.00  0.00     0.060 C 
BRANCH   7   8
ATOM      8  C2' I4B d   1      -2.588   0.324   0.379  0.00  0.00    -0.013 C 
ATOM      9  C4' I4B d   1      -2.770   0.824   1.788  0.00  0.00     0.013 C 
ATOM     10  C3' I4B d   1      -3.738   0.731  -0.493  0.00  0.00     0.013 C 
ENDBRANCH   7   8
ENDBRANCH   1   7
TORSDOF 2
ENDMDL
