MODEL 1
REMARK minimizedAffinity -4.55069876
REMARK minimizedRMSD -1
REMARK  2 active torsions:
REMARK  status: ('A' for Active; 'I' for Inactive)
REMARK    1  A    between atoms: C2'_3  and  C1'_4 
REMARK    2  A    between atoms: C1'_4  and  C1_5 
ROOT
ATOM      1  C1  I4B d   1      -0.817   0.254  -0.551  0.00  0.00    -0.075 A 
ATOM      2  C2  I4B d   1       0.213   0.524   0.316  0.00  0.00     0.003 A 
ATOM      3  C3  I4B d   1       1.245  -0.425   0.515  0.00  0.00     0.002 A 
ATOM      4  C4  I4B d   1       1.182  -1.643  -0.130  0.00  0.00    -0.004 A 
ATOM      5  C5  I4B d   1       0.149  -1.906  -1.026  0.00  0.00     0.002 A 
ATOM      6  C6  I4B d   1      -0.850  -0.948  -1.247  0.00  0.00     0.003 A 
ENDROOT
BRANCH   1   7
ATOM      7  C1' I4B d   1      -1.907   1.264  -0.712  0.00  0.00     0.060 C 
BRANCH   7   8
ATOM      8  C2' I4B d   1      -3.048   0.870   0.204  0.00  0.00    -0.013 C 
ATOM      9  C4' I4B d   1      -3.512   2.040   1.032  0.00  0.00     0.013 C 
ATOM     10  C3' I4B d   1      -4.161   0.334  -0.647  0.00  0.00     0.013 C 
ENDBRANCH   7   8
ENDBRANCH   1   7
TORSDOF 2
ENDMDL
