MODEL 1
REMARK minimizedAffinity -2.7711637
REMARK minimizedRMSD -1
REMARK  2 active torsions:
REMARK  status: ('A' for Active; 'I' for Inactive)
REMARK    1  A    between atoms: C2'_3  and  C1'_4 
REMARK    2  A    between atoms: C1'_4  and  C1_5 
ROOT
ATOM      1  C1  I4B d   1       0.516  -0.540   0.084  0.00  0.00    -0.075 A 
ATOM      2  C2  I4B d   1       1.715  -1.102   0.444  0.00  0.00     0.003 A 
ATOM      3  C3  I4B d   1       2.748  -0.294   0.979  0.00  0.00     0.002 A 
ATOM      4  C4  I4B d   1       2.558   1.068   1.090  0.00  0.00    -0.004 A 
ATOM      5  C5  I4B d   1       1.332   1.632   0.746  0.00  0.00     0.002 A 
ATOM      6  C6  I4B d   1       0.300   0.822   0.251  0.00  0.00     0.003 A 
ENDROOT
BRANCH   1   7
ATOM      7  C1' I4B d   1      -0.541  -1.417  -0.509  0.00  0.00     0.060 C 
BRANCH   7   8
ATOM      8  C2' I4B d   1       0.123  -2.332  -1.517  0.00  0.00    -0.013 C 
ATOM      9  C4' I4B d   1      -0.139  -3.780  -1.195  0.00  0.00     0.013 C 
ATOM     10  C3' I4B d   1      -0.398  -1.978  -2.878  0.00  0.00     0.013 C 
ENDBRANCH   7   8
ENDBRANCH   1   7
TORSDOF 2
ENDMDL
