MODEL 1
REMARK minimizedAffinity -5.42118406
REMARK minimizedRMSD -1
REMARK  2 active torsions:
REMARK  status: ('A' for Active; 'I' for Inactive)
REMARK    1  A    between atoms: C2'_3  and  C1'_4 
REMARK    2  A    between atoms: C1'_4  and  C1_5 
ROOT
ATOM      1  C1  I4B d   1      -0.788   1.221  -0.307  0.00  0.00    -0.075 A 
ATOM      2  C2  I4B d   1       0.408   1.835  -0.035  0.00  0.00     0.003 A 
ATOM      3  C3  I4B d   1       1.539   1.065   0.328  0.00  0.00     0.002 A 
ATOM      4  C4  I4B d   1       1.417  -0.304   0.455  0.00  0.00    -0.004 A 
ATOM      5  C5  I4B d   1       0.209  -0.928   0.157  0.00  0.00     0.002 A 
ATOM      6  C6  I4B d   1      -0.898  -0.162  -0.239  0.00  0.00     0.003 A 
ENDROOT
BRANCH   1   7
ATOM      7  C1' I4B d   1      -1.971   2.068  -0.656  0.00  0.00     0.060 C 
BRANCH   7   8
ATOM      8  C2' I4B d   1      -3.213   1.368  -0.144  0.00  0.00    -0.013 C 
ATOM      9  C4' I4B d   1      -3.747   2.040   1.093  0.00  0.00     0.013 C 
ATOM     10  C3' I4B d   1      -4.233   1.371  -1.244  0.00  0.00     0.013 C 
ENDBRANCH   7   8
ENDBRANCH   1   7
TORSDOF 2
ENDMDL
