MODEL 1
REMARK minimizedAffinity 1.20431066
REMARK minimizedRMSD -1
REMARK  1 active torsions:
REMARK  status: ('A' for Active; 'I' for Inactive)
REMARK    1  A    between atoms: C1_2  and  C2_3 
ROOT
ATOM      1  C2  UNL d   1      -0.101  -0.550   1.414  0.00  0.00    -0.081 A 
ATOM      2  C3  UNL d   1      -1.209  -0.874   0.621  0.00  0.00     0.006 A 
ATOM      3  C4  UNL d   1      -2.222  -1.694   1.122  0.00  0.00     0.002 A 
ATOM      4  C5  UNL d   1      -2.149  -2.198   2.425  0.00  0.00    -0.080 A 
ATOM      5  C6  UNL d   1      -3.245  -3.056   2.985  0.00  0.00     0.076 C 
ATOM      6  C7  UNL d   1      -1.034  -1.890   3.211  0.00  0.00     0.002 A 
ATOM      7  C8  UNL d   1      -0.019  -1.070   2.711  0.00  0.00     0.006 A 
ENDROOT
BRANCH   1   8
ATOM      8  C1  UNL d   1       0.962   0.387   0.900  0.00  0.00     0.054 C 
ATOM      9  C   UNL d   1       2.328  -0.284   0.880  0.00  0.00     0.018 C 
ENDBRANCH   1   8
TORSDOF 1
ENDMDL
