MODEL 1
REMARK minimizedAffinity -2.86763954
REMARK minimizedRMSD -1
REMARK  1 active torsions:
REMARK  status: ('A' for Active; 'I' for Inactive)
REMARK    1  A    between atoms: C1_2  and  C2_3 
ROOT
ATOM      1  C2  UNL d   1      -4.648  -3.997  -5.126  0.00  0.00    -0.081 A 
ATOM      2  C3  UNL d   1      -4.627  -5.309  -5.616  0.00  0.00     0.006 A 
ATOM      3  C4  UNL d   1      -3.413  -5.956  -5.856  0.00  0.00     0.002 A 
ATOM      4  C5  UNL d   1      -2.200  -5.306  -5.605  0.00  0.00    -0.080 A 
ATOM      5  C6  UNL d   1      -0.890  -6.000  -5.830  0.00  0.00     0.076 C 
ATOM      6  C7  UNL d   1      -2.220  -3.989  -5.132  0.00  0.00     0.002 A 
ATOM      7  C8  UNL d   1      -3.434  -3.341  -4.892  0.00  0.00     0.006 A 
ENDROOT
BRANCH   1   8
ATOM      8  C1  UNL d   1      -5.955  -3.319  -4.804  0.00  0.00     0.054 C 
ATOM      9  C   UNL d   1      -5.980  -2.820  -3.366  0.00  0.00     0.018 C 
ENDBRANCH   1   8
TORSDOF 1
ENDMDL
