MODEL 1
REMARK minimizedAffinity -4.49946213
REMARK minimizedRMSD -1
REMARK  1 active torsions:
REMARK  status: ('A' for Active; 'I' for Inactive)
REMARK    1  A    between atoms: C1_2  and  C2_3 
ROOT
ATOM      1  C2  UNL d   1      -4.803  -3.757  -3.939  0.00  0.00    -0.081 A 
ATOM      2  C3  UNL d   1      -3.516  -3.207  -3.879  0.00  0.00     0.006 A 
ATOM      3  C4  UNL d   1      -2.429  -3.889  -4.432  0.00  0.00     0.002 A 
ATOM      4  C5  UNL d   1      -2.611  -5.126  -5.060  0.00  0.00    -0.080 A 
ATOM      5  C6  UNL d   1      -1.457  -5.853  -5.684  0.00  0.00     0.076 C 
ATOM      6  C7  UNL d   1      -3.893  -5.683  -5.104  0.00  0.00     0.002 A 
ATOM      7  C8  UNL d   1      -4.981  -5.002  -4.551  0.00  0.00     0.006 A 
ENDROOT
BRANCH   1   8
ATOM      8  C1  UNL d   1      -5.987  -2.995  -3.401  0.00  0.00     0.054 C 
ATOM      9  C   UNL d   1      -6.000  -1.561  -3.911  0.00  0.00     0.018 C 
ENDBRANCH   1   8
TORSDOF 1
ENDMDL
