MODEL 1
REMARK minimizedAffinity 2.61317801
REMARK minimizedRMSD -1
REMARK  1 active torsions:
REMARK  status: ('A' for Active; 'I' for Inactive)
REMARK    1  A    between atoms: C1_2  and  C2_3 
ROOT
ATOM      1  C2  UNL d   1      -4.052  -4.657  -4.238  0.00  0.00    -0.081 A 
ATOM      2  C3  UNL d   1      -5.381  -4.281  -4.009  0.00  0.00     0.006 A 
ATOM      3  C4  UNL d   1      -5.881  -3.089  -4.539  0.00  0.00     0.002 A 
ATOM      4  C5  UNL d   1      -5.064  -2.258  -5.312  0.00  0.00    -0.080 A 
ATOM      5  C6  UNL d   1      -5.596  -0.991  -5.911  0.00  0.00     0.076 C 
ATOM      6  C7  UNL d   1      -3.731  -2.625  -5.526  0.00  0.00     0.002 A 
ATOM      7  C8  UNL d   1      -3.230  -3.817  -4.997  0.00  0.00     0.006 A 
ENDROOT
BRANCH   1   8
ATOM      8  C1  UNL d   1      -3.529  -5.974  -3.723  0.00  0.00     0.054 C 
ATOM      9  C   UNL d   1      -2.806  -5.800  -2.395  0.00  0.00     0.018 C 
ENDBRANCH   1   8
TORSDOF 1
ENDMDL
