MODEL 1
REMARK minimizedAffinity -3.56386995
REMARK minimizedRMSD -1
REMARK  1 active torsions:
REMARK  status: ('A' for Active; 'I' for Inactive)
REMARK    1  A    between atoms: C1_2  and  C2_3 
ROOT
ATOM      1  C2  UNL d   1      -3.767  -4.664  -4.915  0.00  0.00    -0.081 A 
ATOM      2  C3  UNL d   1      -5.118  -4.651  -4.546  0.00  0.00     0.006 A 
ATOM      3  C4  UNL d   1      -5.841  -3.456  -4.544  0.00  0.00     0.002 A 
ATOM      4  C5  UNL d   1      -5.228  -2.255  -4.918  0.00  0.00    -0.080 A 
ATOM      5  C6  UNL d   1      -6.000  -0.970  -4.949  0.00  0.00     0.076 C 
ATOM      6  C7  UNL d   1      -3.874  -2.265  -5.270  0.00  0.00     0.002 A 
ATOM      7  C8  UNL d   1      -3.150  -3.459  -5.272  0.00  0.00     0.006 A 
ENDROOT
BRANCH   1   8
ATOM      8  C1  UNL d   1      -3.003  -5.961  -4.981  0.00  0.00     0.054 C 
ATOM      9  C   UNL d   1      -1.869  -5.884  -5.993  0.00  0.00     0.018 C 
ENDBRANCH   1   8
TORSDOF 1
ENDMDL
