MODEL 1
REMARK minimizedAffinity -2.91960835
REMARK minimizedRMSD -1
REMARK  1 active torsions:
REMARK  status: ('A' for Active; 'I' for Inactive)
REMARK    1  A    between atoms: C1_2  and  C2_3 
ROOT
ATOM      1  C2  UNL d   1      -4.763  -4.180  -4.300  0.00  0.00    -0.081 A 
ATOM      2  C3  UNL d   1      -4.358  -5.495  -4.044  0.00  0.00     0.006 A 
ATOM      3  C4  UNL d   1      -3.179  -5.995  -4.602  0.00  0.00     0.002 A 
ATOM      4  C5  UNL d   1      -2.382  -5.186  -5.419  0.00  0.00    -0.080 A 
ATOM      5  C6  UNL d   1      -1.099  -5.701  -6.000  0.00  0.00     0.076 C 
ATOM      6  C7  UNL d   1      -2.796  -3.877  -5.690  0.00  0.00     0.002 A 
ATOM      7  C8  UNL d   1      -3.975  -3.377  -5.132  0.00  0.00     0.006 A 
ENDROOT
BRANCH   1   8
ATOM      8  C1  UNL d   1      -6.000  -3.617  -3.648  0.00  0.00     0.054 C 
ATOM      9  C   UNL d   1      -5.939  -2.099  -3.562  0.00  0.00     0.018 C 
ENDBRANCH   1   8
TORSDOF 1
ENDMDL
