MODEL 1
REMARK minimizedAffinity -3.36030102
REMARK minimizedRMSD -1
REMARK  1 active torsions:
REMARK  status: ('A' for Active; 'I' for Inactive)
REMARK    1  A    between atoms: C1_2  and  C2_3 
ROOT
ATOM      1  C2  UNL d   1      -3.185  -5.131  -5.273  0.00  0.00    -0.081 A 
ATOM      2  C3  UNL d   1      -2.866  -3.821  -4.894  0.00  0.00     0.006 A 
ATOM      3  C4  UNL d   1      -3.778  -3.051  -4.169  0.00  0.00     0.002 A 
ATOM      4  C5  UNL d   1      -5.021  -3.580  -3.804  0.00  0.00    -0.080 A 
ATOM      5  C6  UNL d   1      -5.997  -2.774  -2.999  0.00  0.00     0.076 C 
ATOM      6  C7  UNL d   1      -5.347  -4.882  -4.197  0.00  0.00     0.002 A 
ATOM      7  C8  UNL d   1      -4.436  -5.652  -4.923  0.00  0.00     0.006 A 
ENDROOT
BRANCH   1   8
ATOM      8  C1  UNL d   1      -2.178  -5.986  -5.998  0.00  0.00     0.054 C 
ATOM      9  C   UNL d   1      -0.839  -5.997  -5.276  0.00  0.00     0.018 C 
ENDBRANCH   1   8
TORSDOF 1
ENDMDL
