MODEL 1
REMARK minimizedAffinity 2.25169826
REMARK minimizedRMSD -1
REMARK  1 active torsions:
REMARK  status: ('A' for Active; 'I' for Inactive)
REMARK    1  A    between atoms: C1_2  and  C2_3 
ROOT
ATOM      1  C2  UNL d   1      -4.333  -4.322  -4.614  0.00  0.00    -0.081 A 
ATOM      2  C3  UNL d   1      -3.800  -3.263  -5.359  0.00  0.00     0.006 A 
ATOM      3  C4  UNL d   1      -4.344  -1.980  -5.256  0.00  0.00     0.002 A 
ATOM      4  C5  UNL d   1      -5.425  -1.734  -4.403  0.00  0.00    -0.080 A 
ATOM      5  C6  UNL d   1      -5.999  -0.356  -4.261  0.00  0.00     0.076 C 
ATOM      6  C7  UNL d   1      -5.968  -2.796  -3.671  0.00  0.00     0.002 A 
ATOM      7  C8  UNL d   1      -5.425  -4.078  -3.774  0.00  0.00     0.006 A 
ENDROOT
BRANCH   1   8
ATOM      8  C1  UNL d   1      -3.706  -5.692  -4.673  0.00  0.00     0.054 C 
ATOM      9  C   UNL d   1      -2.489  -5.705  -5.586  0.00  0.00     0.018 C 
ENDBRANCH   1   8
TORSDOF 1
ENDMDL
