MODEL 1
REMARK minimizedAffinity -2.79420948
REMARK minimizedRMSD -1
REMARK  1 active torsions:
REMARK  status: ('A' for Active; 'I' for Inactive)
REMARK    1  A    between atoms: C1_2  and  C2_3 
ROOT
ATOM      1  C2  UNL d   1      -4.864  -3.444  -4.756  0.00  0.00    -0.081 A 
ATOM      2  C3  UNL d   1      -4.778  -4.793  -4.389  0.00  0.00     0.006 A 
ATOM      3  C4  UNL d   1      -3.693  -5.571  -4.800  0.00  0.00     0.002 A 
ATOM      4  C5  UNL d   1      -2.673  -5.012  -5.577  0.00  0.00    -0.080 A 
ATOM      5  C6  UNL d   1      -1.488  -5.828  -5.999  0.00  0.00     0.076 C 
ATOM      6  C7  UNL d   1      -2.768  -3.669  -5.959  0.00  0.00     0.002 A 
ATOM      7  C8  UNL d   1      -3.852  -2.891  -5.549  0.00  0.00     0.006 A 
ENDROOT
BRANCH   1   8
ATOM      8  C1  UNL d   1      -6.000  -2.586  -4.261  0.00  0.00     0.054 C 
ATOM      9  C   UNL d   1      -5.975  -1.208  -4.906  0.00  0.00     0.018 C 
ENDBRANCH   1   8
TORSDOF 1
ENDMDL
