MODEL 1
REMARK minimizedAffinity 0.223653033
REMARK minimizedRMSD -1
REMARK  1 active torsions:
REMARK  status: ('A' for Active; 'I' for Inactive)
REMARK    1  A    between atoms: C1_2  and  C2_3 
ROOT
ATOM      1  C2  UNL d   1      -4.659  -3.707  -5.514  0.00  0.00    -0.081 A 
ATOM      2  C3  UNL d   1      -4.660  -5.065  -5.174  0.00  0.00     0.006 A 
ATOM      3  C4  UNL d   1      -3.482  -5.813  -5.240  0.00  0.00     0.002 A 
ATOM      4  C5  UNL d   1      -2.282  -5.214  -5.639  0.00  0.00    -0.080 A 
ATOM      5  C6  UNL d   1      -1.005  -5.998  -5.685  0.00  0.00     0.076 C 
ATOM      6  C7  UNL d   1      -2.284  -3.861  -5.996  0.00  0.00     0.002 A 
ATOM      7  C8  UNL d   1      -3.462  -3.113  -5.931  0.00  0.00     0.006 A 
ENDROOT
BRANCH   1   8
ATOM      8  C1  UNL d   1      -5.914  -2.883  -5.382  0.00  0.00     0.054 C 
ATOM      9  C   UNL d   1      -5.992  -2.209  -4.019  0.00  0.00     0.018 C 
ENDBRANCH   1   8
TORSDOF 1
ENDMDL
