MODEL 1
REMARK minimizedAffinity 1.7140702
REMARK minimizedRMSD -1
REMARK  1 active torsions:
REMARK  status: ('A' for Active; 'I' for Inactive)
REMARK    1  A    between atoms: C1_2  and  C2_3 
ROOT
ATOM      1  C2  UNL d   1      -2.655   1.124  -3.405  0.00  0.00    -0.076 A 
ATOM      2  C3  UNL d   1      -2.459   1.760  -2.167  0.00  0.00     0.004 A 
ATOM      3  C4  UNL d   1      -2.370   3.148  -2.080  0.00  0.00    -0.003 A 
ATOM      4  C5  UNL d   1      -2.476   3.923  -3.229  0.00  0.00     0.000 A 
ATOM      5  C6  UNL d   1      -2.689   3.310  -4.464  0.00  0.00     0.000 A 
ATOM      6  C7  UNL d   1      -2.797   1.913  -4.567  0.00  0.00    -0.073 A 
ATOM      7  C8  UNL d   1      -3.020   1.304  -5.924  0.00  0.00     0.078 C 
ENDROOT
BRANCH   1   8
ATOM      8  C1  UNL d   1      -2.717  -0.386  -3.442  0.00  0.00     0.053 C 
ATOM      9  C   UNL d   1      -1.372  -1.016  -3.770  0.00  0.00     0.018 C 
ENDBRANCH   1   8
TORSDOF 1
ENDMDL
