MODEL 1
REMARK minimizedAffinity -2.41950631
REMARK minimizedRMSD -1
REMARK  1 active torsions:
REMARK  status: ('A' for Active; 'I' for Inactive)
REMARK    1  A    between atoms: C1_2  and  C2_3 
ROOT
ATOM      1  C2  UNL d   1      -1.933  -0.812   1.903  0.00  0.00    -0.076 A 
ATOM      2  C3  UNL d   1      -1.259  -0.219   0.822  0.00  0.00     0.004 A 
ATOM      3  C4  UNL d   1       0.042  -0.597   0.494  0.00  0.00    -0.003 A 
ATOM      4  C5  UNL d   1       0.690  -1.575   1.241  0.00  0.00     0.000 A 
ATOM      5  C6  UNL d   1       0.029  -2.187   2.306  0.00  0.00     0.000 A 
ATOM      6  C7  UNL d   1      -1.288  -1.829   2.640  0.00  0.00    -0.073 A 
ATOM      7  C8  UNL d   1      -1.951  -2.517   3.803  0.00  0.00     0.078 C 
ENDROOT
BRANCH   1   8
ATOM      8  C1  UNL d   1      -3.333  -0.343   2.229  0.00  0.00     0.053 C 
ATOM      9  C   UNL d   1      -4.361  -0.832   1.221  0.00  0.00     0.018 C 
ENDBRANCH   1   8
TORSDOF 1
ENDMDL
