MODEL 1
REMARK minimizedAffinity 1.70221698
REMARK minimizedRMSD -1
REMARK  1 active torsions:
REMARK  status: ('A' for Active; 'I' for Inactive)
REMARK    1  A    between atoms: C1_2  and  C2_3 
ROOT
ATOM      1  C2  UNL d   1      -0.456  -1.419   1.082  0.00  0.00    -0.076 A 
ATOM      2  C3  UNL d   1       0.572  -1.597   0.139  0.00  0.00     0.004 A 
ATOM      3  C4  UNL d   1       1.554  -2.569   0.324  0.00  0.00    -0.003 A 
ATOM      4  C5  UNL d   1       1.525  -3.378   1.455  0.00  0.00     0.000 A 
ATOM      5  C6  UNL d   1       0.503  -3.226   2.391  0.00  0.00     0.000 A 
ATOM      6  C7  UNL d   1      -0.505  -2.263   2.212  0.00  0.00    -0.073 A 
ATOM      7  C8  UNL d   1      -1.579  -2.138   3.257  0.00  0.00     0.078 C 
ENDROOT
BRANCH   1   8
ATOM      8  C1  UNL d   1      -1.478  -0.331   0.841  0.00  0.00     0.053 C 
ATOM      9  C   UNL d   1      -2.714  -0.843   0.118  0.00  0.00     0.018 C 
ENDBRANCH   1   8
TORSDOF 1
ENDMDL
