MODEL 1
REMARK minimizedAffinity -3.62485313
REMARK minimizedRMSD -1
REMARK  1 active torsions:
REMARK  status: ('A' for Active; 'I' for Inactive)
REMARK    1  A    between atoms: C1_2  and  C2_3 
ROOT
ATOM      1  C2  UNL d   1      -0.027  -1.683   1.816  0.00  0.00    -0.076 A 
ATOM      2  C3  UNL d   1       0.861  -1.400   0.763  0.00  0.00     0.004 A 
ATOM      3  C4  UNL d   1       1.739  -2.370   0.285  0.00  0.00    -0.003 A 
ATOM      4  C5  UNL d   1       1.744  -3.640   0.851  0.00  0.00     0.000 A 
ATOM      5  C6  UNL d   1       0.858  -3.944   1.884  0.00  0.00     0.000 A 
ATOM      6  C7  UNL d   1      -0.045  -2.982   2.367  0.00  0.00    -0.073 A 
ATOM      7  C8  UNL d   1      -0.974  -3.363   3.488  0.00  0.00     0.078 C 
ENDROOT
BRANCH   1   8
ATOM      8  C1  UNL d   1      -0.937  -0.583   2.312  0.00  0.00     0.053 C 
ATOM      9  C   UNL d   1      -1.743   0.056   1.191  0.00  0.00     0.018 C 
ENDBRANCH   1   8
TORSDOF 1
ENDMDL
