MODEL 1
REMARK minimizedAffinity -1.22180533
REMARK minimizedRMSD -1
REMARK  1 active torsions:
REMARK  status: ('A' for Active; 'I' for Inactive)
REMARK    1  A    between atoms: C1_2  and  C2_3 
ROOT
ATOM      1  C2  UNL d   1       0.636  -1.898   1.188  0.00  0.00    -0.076 A 
ATOM      2  C3  UNL d   1       0.004  -1.949   2.443  0.00  0.00     0.004 A 
ATOM      3  C4  UNL d   1      -1.102  -1.149   2.722  0.00  0.00    -0.003 A 
ATOM      4  C5  UNL d   1      -1.595  -0.284   1.750  0.00  0.00     0.000 A 
ATOM      5  C6  UNL d   1      -0.991  -0.233   0.494  0.00  0.00     0.000 A 
ATOM      6  C7  UNL d   1       0.115  -1.046   0.192  0.00  0.00    -0.073 A 
ATOM      7  C8  UNL d   1       0.731  -0.946  -1.177  0.00  0.00     0.078 C 
ENDROOT
BRANCH   1   8
ATOM      8  C1  UNL d   1       1.849  -2.770   0.952  0.00  0.00     0.053 C 
ATOM      9  C   UNL d   1       1.652  -4.191   1.457  0.00  0.00     0.018 C 
ENDBRANCH   1   8
TORSDOF 1
ENDMDL
