MODEL 1
REMARK minimizedAffinity 5.06649876
REMARK minimizedRMSD -1
REMARK  1 active torsions:
REMARK  status: ('A' for Active; 'I' for Inactive)
REMARK    1  A    between atoms: C1_2  and  C2_3 
ROOT
ATOM      1  C2  UNL d   1      -3.516  -1.329   1.042  0.00  0.00    -0.076 A 
ATOM      2  C3  UNL d   1      -2.887  -1.481  -0.206  0.00  0.00     0.004 A 
ATOM      3  C4  UNL d   1      -1.664  -0.868  -0.472  0.00  0.00    -0.003 A 
ATOM      4  C5  UNL d   1      -1.050  -0.093   0.505  0.00  0.00     0.000 A 
ATOM      5  C6  UNL d   1      -1.651   0.054   1.755  0.00  0.00     0.000 A 
ATOM      6  C7  UNL d   1      -2.876  -0.571   2.046  0.00  0.00    -0.073 A 
ATOM      7  C8  UNL d   1      -3.482  -0.373   3.408  0.00  0.00     0.078 C 
ENDROOT
BRANCH   1   8
ATOM      8  C1  UNL d   1      -4.855  -1.996   1.265  0.00  0.00     0.053 C 
ATOM      9  C   UNL d   1      -5.998  -0.996   1.341  0.00  0.00     0.018 C 
ENDBRANCH   1   8
TORSDOF 1
ENDMDL
