MODEL 1
REMARK minimizedAffinity -3.95610952
REMARK minimizedRMSD -1
REMARK  1 active torsions:
REMARK  status: ('A' for Active; 'I' for Inactive)
REMARK    1  A    between atoms: C1_2  and  C2_3 
ROOT
ATOM      1  C2  UNL d   1       0.597  -1.412   0.477  0.00  0.00    -0.076 A 
ATOM      2  C3  UNL d   1      -0.353  -0.382   0.580  0.00  0.00     0.004 A 
ATOM      3  C4  UNL d   1      -1.205  -0.298   1.680  0.00  0.00    -0.003 A 
ATOM      4  C5  UNL d   1      -1.120  -1.244   2.696  0.00  0.00     0.000 A 
ATOM      5  C6  UNL d   1      -0.171  -2.263   2.619  0.00  0.00     0.000 A 
ATOM      6  C7  UNL d   1       0.706  -2.352   1.524  0.00  0.00    -0.073 A 
ATOM      7  C8  UNL d   1       1.706  -3.475   1.490  0.00  0.00     0.078 C 
ENDROOT
BRANCH   1   8
ATOM      8  C1  UNL d   1       1.475  -1.467  -0.752  0.00  0.00     0.053 C 
ATOM      9  C   UNL d   1       0.719  -1.118  -2.025  0.00  0.00     0.018 C 
ENDBRANCH   1   8
TORSDOF 1
ENDMDL
