MODEL 1
REMARK minimizedAffinity 4.0745616
REMARK minimizedRMSD -1
REMARK  1 active torsions:
REMARK  status: ('A' for Active; 'I' for Inactive)
REMARK    1  A    between atoms: C1_2  and  C2_3 
ROOT
ATOM      1  C2  UNL d   1       0.813   5.484   4.616  0.00  0.00    -0.076 A 
ATOM      2  C3  UNL d   1       0.038   4.994   3.551  0.00  0.00     0.004 A 
ATOM      3  C4  UNL d   1       0.636   4.551   2.372  0.00  0.00    -0.003 A 
ATOM      4  C5  UNL d   1       2.020   4.589   2.241  0.00  0.00     0.000 A 
ATOM      5  C6  UNL d   1       2.806   5.055   3.295  0.00  0.00     0.000 A 
ATOM      6  C7  UNL d   1       2.220   5.490   4.495  0.00  0.00    -0.073 A 
ATOM      7  C8  UNL d   1       3.115   5.988   5.597  0.00  0.00     0.078 C 
ENDROOT
BRANCH   1   8
ATOM      8  C1  UNL d   1       0.107   5.976   5.859  0.00  0.00     0.053 C 
ATOM      9  C   UNL d   1      -1.405   5.994   5.702  0.00  0.00     0.018 C 
ENDBRANCH   1   8
TORSDOF 1
ENDMDL
