MODEL 1
REMARK minimizedAffinity -4.08956242
REMARK minimizedRMSD -1
REMARK  1 active torsions:
REMARK  status: ('A' for Active; 'I' for Inactive)
REMARK    1  A    between atoms: C1_2  and  C2_3 
ROOT
ATOM      1  C2  UNL d   1      -0.626  -0.881   0.288  0.00  0.00    -0.076 A 
ATOM      2  C3  UNL d   1      -0.254  -1.510   1.489  0.00  0.00     0.004 A 
ATOM      3  C4  UNL d   1      -1.189  -1.744   2.496  0.00  0.00    -0.003 A 
ATOM      4  C5  UNL d   1      -2.512  -1.354   2.318  0.00  0.00     0.000 A 
ATOM      5  C6  UNL d   1      -2.902  -0.744   1.126  0.00  0.00     0.000 A 
ATOM      6  C7  UNL d   1      -1.975  -0.516   0.094  0.00  0.00    -0.073 A 
ATOM      7  C8  UNL d   1      -2.450   0.151  -1.168  0.00  0.00     0.078 C 
ENDROOT
BRANCH   1   8
ATOM      8  C1  UNL d   1       0.437  -0.629  -0.756  0.00  0.00     0.053 C 
ATOM      9  C   UNL d   1       1.397  -1.799  -0.906  0.00  0.00     0.018 C 
ENDBRANCH   1   8
TORSDOF 1
ENDMDL
