MODEL 1
REMARK minimizedAffinity 1.32473767
REMARK minimizedRMSD -1
REMARK  1 active torsions:
REMARK  status: ('A' for Active; 'I' for Inactive)
REMARK    1  A    between atoms: C1_2  and  C2_3 
ROOT
ATOM      1  C2  UNL d   1      -0.067  -0.794   0.536  0.00  0.00    -0.076 A 
ATOM      2  C3  UNL d   1      -0.071  -1.480   1.763  0.00  0.00     0.004 A 
ATOM      3  C4  UNL d   1      -1.049  -1.226   2.723  0.00  0.00    -0.003 A 
ATOM      4  C5  UNL d   1      -2.038  -0.281   2.472  0.00  0.00     0.000 A 
ATOM      5  C6  UNL d   1      -2.059   0.397   1.254  0.00  0.00     0.000 A 
ATOM      6  C7  UNL d   1      -1.090   0.140   0.268  0.00  0.00    -0.073 A 
ATOM      7  C8  UNL d   1      -1.157   0.904  -1.026  0.00  0.00     0.078 C 
ENDROOT
BRANCH   1   8
ATOM      8  C1  UNL d   1       1.035  -1.092  -0.457  0.00  0.00     0.053 C 
ATOM      9  C   UNL d   1       2.221  -0.153  -0.310  0.00  0.00     0.018 C 
ENDBRANCH   1   8
TORSDOF 1
ENDMDL
