MODEL 1
REMARK minimizedAffinity -2.24778485
REMARK minimizedRMSD -1
REMARK  0 active torsions:
REMARK  status: ('A' for Active; 'I' for Inactive)
ROOT
ATOM      1  C   UNL d   1       5.986   5.668   3.789  0.00  0.00     0.172 C 
ATOM      2  N   UNL d   1       5.273   5.278   2.596  0.00  0.00    -0.070 N 
ATOM      3  C1  UNL d   1       5.498   4.141   1.867  0.00  0.00    -0.004 A 
ATOM      4  C2  UNL d   1       4.615   4.135   0.809  0.00  0.00    -0.047 A 
ATOM      5  C3  UNL d   1       3.833   5.311   0.905  0.00  0.00    -0.047 A 
ATOM      6  C4  UNL d   1       4.261   6.000   2.020  0.00  0.00    -0.004 A 
ENDROOT
TORSDOF 0
ENDMDL
