MODEL 1
REMARK minimizedAffinity 4.7487483
REMARK minimizedRMSD -1
REMARK  0 active torsions:
REMARK  status: ('A' for Active; 'I' for Inactive)
ROOT
ATOM      1  C   UNL d   1       2.235  -3.034  -1.392  0.00  0.00     0.172 C 
ATOM      2  N   UNL d   1       1.013  -3.673  -0.964  0.00  0.00    -0.070 N 
ATOM      3  C1  UNL d   1       0.631  -3.875   0.336  0.00  0.00    -0.004 A 
ATOM      4  C2  UNL d   1      -0.591  -4.513   0.322  0.00  0.00    -0.047 A 
ATOM      5  C3  UNL d   1      -0.955  -4.702  -1.032  0.00  0.00    -0.047 A 
ATOM      6  C4  UNL d   1       0.056  -4.173  -1.807  0.00  0.00    -0.004 A 
ENDROOT
TORSDOF 0
ENDMDL
