MODEL 1
REMARK minimizedAffinity -0.292086393
REMARK minimizedRMSD -1
REMARK  0 active torsions:
REMARK  status: ('A' for Active; 'I' for Inactive)
ROOT
ATOM      1  C   UNL d   1       3.291   1.234  -3.971  0.00  0.00     0.172 C 
ATOM      2  N   UNL d   1       2.714   2.539  -4.192  0.00  0.00    -0.070 N 
ATOM      3  C1  UNL d   1       3.376   3.631  -4.688  0.00  0.00    -0.004 A 
ATOM      4  C2  UNL d   1       2.480   4.676  -4.748  0.00  0.00    -0.047 A 
ATOM      5  C3  UNL d   1       1.237   4.197  -4.270  0.00  0.00    -0.047 A 
ATOM      6  C4  UNL d   1       1.411   2.871  -3.933  0.00  0.00    -0.004 A 
ENDROOT
TORSDOF 0
ENDMDL
