MODEL 1
REMARK minimizedAffinity -2.89534307
REMARK minimizedRMSD -1
REMARK  0 active torsions:
REMARK  status: ('A' for Active; 'I' for Inactive)
ROOT
ATOM      1  C   UNL d   1      -2.303   2.414   2.209  0.00  0.00     0.172 C 
ATOM      2  N   UNL d   1      -1.265   1.616   1.602  0.00  0.00    -0.070 N 
ATOM      3  C1  UNL d   1      -0.294   2.079   0.755  0.00  0.00    -0.004 A 
ATOM      4  C2  UNL d   1       0.500   1.010   0.397  0.00  0.00    -0.047 A 
ATOM      5  C3  UNL d   1      -0.013  -0.135   1.051  0.00  0.00    -0.047 A 
ATOM      6  C4  UNL d   1      -1.105   0.268   1.790  0.00  0.00    -0.004 A 
ENDROOT
TORSDOF 0
ENDMDL
