MODEL 1
REMARK minimizedAffinity -1.7658813
REMARK minimizedRMSD -1
REMARK  0 active torsions:
REMARK  status: ('A' for Active; 'I' for Inactive)
ROOT
ATOM      1  C   UNL d   1      -4.101  -2.857  -1.686  0.00  0.00     0.172 C 
ATOM      2  N   UNL d   1      -4.117  -4.135  -1.013  0.00  0.00    -0.070 N 
ATOM      3  C1  UNL d   1      -3.014  -4.838  -0.608  0.00  0.00    -0.004 A 
ATOM      4  C2  UNL d   1      -3.451  -6.000  -0.009  0.00  0.00    -0.047 A 
ATOM      5  C3  UNL d   1      -4.865  -5.995  -0.057  0.00  0.00    -0.047 A 
ATOM      6  C4  UNL d   1      -5.251  -4.829  -0.684  0.00  0.00    -0.004 A 
ENDROOT
TORSDOF 0
ENDMDL
