MODEL 1
REMARK minimizedAffinity -0.780808508
REMARK minimizedRMSD -1
REMARK  0 active torsions:
REMARK  status: ('A' for Active; 'I' for Inactive)
ROOT
ATOM      1  C   UNL d   1       2.555   0.171  -0.057  0.00  0.00     0.172 C 
ATOM      2  N   UNL d   1       1.307   0.497   0.593  0.00  0.00    -0.070 N 
ATOM      3  C1  UNL d   1       0.667  -0.274   1.526  0.00  0.00    -0.004 A 
ATOM      4  C2  UNL d   1      -0.485   0.384   1.899  0.00  0.00    -0.047 A 
ATOM      5  C3  UNL d   1      -0.540   1.591   1.164  0.00  0.00    -0.047 A 
ATOM      6  C4  UNL d   1       0.582   1.636   0.363  0.00  0.00    -0.004 A 
ENDROOT
TORSDOF 0
ENDMDL
