MODEL 1
REMARK minimizedAffinity 3.31516147
REMARK minimizedRMSD -1
REMARK  0 active torsions:
REMARK  status: ('A' for Active; 'I' for Inactive)
ROOT
ATOM      1  C   UNL d   1      -6.000   5.908   5.304  0.00  0.00     0.172 C 
ATOM      2  N   UNL d   1      -5.637   4.525   5.106  0.00  0.00    -0.070 N 
ATOM      3  C1  UNL d   1      -5.948   3.767   4.009  0.00  0.00    -0.004 A 
ATOM      4  C2  UNL d   1      -5.423   2.507   4.203  0.00  0.00    -0.047 A 
ATOM      5  C3  UNL d   1      -4.774   2.508   5.461  0.00  0.00    -0.047 A 
ATOM      6  C4  UNL d   1      -4.922   3.769   5.998  0.00  0.00    -0.004 A 
ENDROOT
TORSDOF 0
ENDMDL
