MODEL 1
REMARK minimizedAffinity 1.83369172
REMARK minimizedRMSD -1
REMARK  0 active torsions:
REMARK  status: ('A' for Active; 'I' for Inactive)
ROOT
ATOM      1  C   UNL d   1       3.057   1.755  -2.538  0.00  0.00     0.172 C 
ATOM      2  N   UNL d   1       2.801   1.031  -1.315  0.00  0.00    -0.070 N 
ATOM      3  C1  UNL d   1       3.316  -0.197  -0.992  0.00  0.00    -0.004 A 
ATOM      4  C2  UNL d   1       2.835  -0.541   0.253  0.00  0.00    -0.047 A 
ATOM      5  C3  UNL d   1       2.002   0.515   0.692  0.00  0.00    -0.047 A 
ATOM      6  C4  UNL d   1       1.999   1.475  -0.298  0.00  0.00    -0.004 A 
ENDROOT
TORSDOF 0
ENDMDL
