MODEL 1
REMARK minimizedAffinity -1.56505334
REMARK minimizedRMSD -1
REMARK  0 active torsions:
REMARK  status: ('A' for Active; 'I' for Inactive)
ROOT
ATOM      1  C   UNL d   1      -0.811   2.267   1.752  0.00  0.00     0.172 C 
ATOM      2  N   UNL d   1       0.353   1.528   1.322  0.00  0.00    -0.070 N 
ATOM      3  C1  UNL d   1       1.261   1.943   0.385  0.00  0.00    -0.004 A 
ATOM      4  C2  UNL d   1       2.219   0.960   0.260  0.00  0.00    -0.047 A 
ATOM      5  C3  UNL d   1       1.874  -0.082   1.153  0.00  0.00    -0.047 A 
ATOM      6  C4  UNL d   1       0.715   0.295   1.798  0.00  0.00    -0.004 A 
ENDROOT
TORSDOF 0
ENDMDL
