MODEL 1
REMARK minimizedAffinity 1.67334116
REMARK minimizedRMSD -1
REMARK  0 active torsions:
REMARK  status: ('A' for Active; 'I' for Inactive)
ROOT
ATOM      1  C   UNL d   1      -3.447   2.288   3.381  0.00  0.00     0.172 C 
ATOM      2  N   UNL d   1      -2.311   1.874   2.592  0.00  0.00    -0.070 N 
ATOM      3  C1  UNL d   1      -2.101   0.615   2.094  0.00  0.00    -0.004 A 
ATOM      4  C2  UNL d   1      -0.911   0.629   1.400  0.00  0.00    -0.047 A 
ATOM      5  C3  UNL d   1      -0.386   1.941   1.484  0.00  0.00    -0.047 A 
ATOM      6  C4  UNL d   1      -1.273   2.691   2.227  0.00  0.00    -0.004 A 
ENDROOT
TORSDOF 0
ENDMDL
