MODEL 1
REMARK minimizedAffinity -2.41206741
REMARK minimizedRMSD -1
REMARK  0 active torsions:
REMARK  status: ('A' for Active; 'I' for Inactive)
ROOT
ATOM      1  C   UNL d   1      -1.390  -1.380   1.441  0.00  0.00     0.172 C 
ATOM      2  N   UNL d   1      -0.740  -0.109   1.224  0.00  0.00    -0.070 N 
ATOM      3  C1  UNL d   1      -1.272   1.119   1.516  0.00  0.00    -0.004 A 
ATOM      4  C2  UNL d   1      -0.344   2.075   1.164  0.00  0.00    -0.047 A 
ATOM      5  C3  UNL d   1       0.785   1.399   0.643  0.00  0.00    -0.047 A 
ATOM      6  C4  UNL d   1       0.512   0.048   0.692  0.00  0.00    -0.004 A 
ENDROOT
TORSDOF 0
ENDMDL
