MODEL 1
REMARK minimizedAffinity 0.21723263
REMARK minimizedRMSD -1
REMARK  0 active torsions:
REMARK  status: ('A' for Active; 'I' for Inactive)
ROOT
ATOM      1  C   UNL d   1      -0.909  -0.912   1.536  0.00  0.00     0.172 C 
ATOM      2  N   UNL d   1       0.201  -0.135   1.035  0.00  0.00    -0.070 N 
ATOM      3  C1  UNL d   1       0.125   1.139   0.540  0.00  0.00    -0.004 A 
ATOM      4  C2  UNL d   1       1.395   1.524   0.167  0.00  0.00    -0.047 A 
ATOM      5  C3  UNL d   1       2.264   0.443   0.447  0.00  0.00    -0.047 A 
ATOM      6  C4  UNL d   1       1.499  -0.571   0.984  0.00  0.00    -0.004 A 
ENDROOT
TORSDOF 0
ENDMDL
