MODEL 1
REMARK minimizedAffinity -0.691603184
REMARK minimizedRMSD -1
REMARK  0 active torsions:
REMARK  status: ('A' for Active; 'I' for Inactive)
ROOT
ATOM      1  C   UNL d   1      -3.726   2.237   3.008  0.00  0.00     0.172 C 
ATOM      2  N   UNL d   1      -2.643   1.739   2.193  0.00  0.00    -0.070 N 
ATOM      3  C1  UNL d   1      -2.260   0.428   2.089  0.00  0.00    -0.004 A 
ATOM      4  C2  UNL d   1      -1.195   0.368   1.216  0.00  0.00    -0.047 A 
ATOM      5  C3  UNL d   1      -0.928   1.688   0.782  0.00  0.00    -0.047 A 
ATOM      6  C4  UNL d   1      -1.840   2.517   1.401  0.00  0.00    -0.004 A 
ENDROOT
TORSDOF 0
ENDMDL
