MODEL 1
REMARK minimizedAffinity -0.30620715
REMARK minimizedRMSD -1
REMARK  0 active torsions:
REMARK  status: ('A' for Active; 'I' for Inactive)
ROOT
ATOM      1  C   UNL d   1      -2.501   2.245   2.430  0.00  0.00     0.172 C 
ATOM      2  N   UNL d   1      -1.472   1.415   1.851  0.00  0.00    -0.070 N 
ATOM      3  C1  UNL d   1      -0.428   1.857   1.082  0.00  0.00    -0.004 A 
ATOM      4  C2  UNL d   1       0.327   0.760   0.726  0.00  0.00    -0.047 A 
ATOM      5  C3  UNL d   1      -0.284  -0.380   1.299  0.00  0.00    -0.047 A 
ATOM      6  C4  UNL d   1      -1.396   0.054   1.990  0.00  0.00    -0.004 A 
ENDROOT
TORSDOF 0
ENDMDL
