MODEL 1
REMARK minimizedAffinity -0.329467624
REMARK minimizedRMSD -1
REMARK  0 active torsions:
REMARK  status: ('A' for Active; 'I' for Inactive)
ROOT
ATOM      1  C   UNL d   1       1.451   0.384   0.604  0.00  0.00     0.172 C 
ATOM      2  N   UNL d   1       0.089   0.474   1.076  0.00  0.00    -0.070 N 
ATOM      3  C1  UNL d   1      -0.675  -0.575   1.513  0.00  0.00    -0.004 A 
ATOM      4  C2  UNL d   1      -1.908  -0.077   1.875  0.00  0.00    -0.047 A 
ATOM      5  C3  UNL d   1      -1.884   1.320   1.648  0.00  0.00    -0.047 A 
ATOM      6  C4  UNL d   1      -0.636   1.634   1.153  0.00  0.00    -0.004 A 
ENDROOT
TORSDOF 0
ENDMDL
