MODEL 1
REMARK minimizedAffinity -0.712804317
REMARK minimizedRMSD -1
REMARK  0 active torsions:
REMARK  status: ('A' for Active; 'I' for Inactive)
ROOT
ATOM      1  C   UNL d   1      -3.001   1.512   3.179  0.00  0.00     0.172 C 
ATOM      2  N   UNL d   1      -1.676   1.329   2.636  0.00  0.00    -0.070 N 
ATOM      3  C1  UNL d   1      -1.222   0.206   1.998  0.00  0.00    -0.004 A 
ATOM      4  C2  UNL d   1       0.088   0.428   1.633  0.00  0.00    -0.047 A 
ATOM      5  C3  UNL d   1       0.435   1.729   2.068  0.00  0.00    -0.047 A 
ATOM      6  C4  UNL d   1      -0.676   2.265   2.686  0.00  0.00    -0.004 A 
ENDROOT
TORSDOF 0
ENDMDL
