MODEL 1
REMARK minimizedAffinity -2.22886443
REMARK minimizedRMSD -1
REMARK  0 active torsions:
REMARK  status: ('A' for Active; 'I' for Inactive)
ROOT
ATOM      1  C   UNL d   1      -0.756  -1.922   2.486  0.00  0.00    -0.002 A 
ATOM      2  C1  UNL d   1      -1.787  -1.041   2.192  0.00  0.00     0.010 A 
ATOM      3  C2  UNL d   1      -1.607  -0.024   1.253  0.00  0.00     0.041 A 
ATOM      4  C3  UNL d   1      -0.361   0.093   0.606  0.00  0.00    -0.075 A 
ATOM      5  S   UNL d   1       0.089   1.260  -0.581  0.00  0.00     0.015 SA
ATOM      6  C4  UNL d   1       1.660   0.617  -0.726  0.00  0.00     0.022 A 
ATOM      7  C5  UNL d   1       1.854  -0.462   0.103  0.00  0.00     0.026 A 
ATOM      8  C6  UNL d   1       0.693  -0.783   0.884  0.00  0.00    -0.082 A 
ATOM      9  C7  UNL d   1       0.479  -1.803   1.842  0.00  0.00     0.045 A 
ENDROOT
TORSDOF 0
ENDMDL
