MODEL 1
REMARK minimizedAffinity -1.28436136
REMARK minimizedRMSD -1
REMARK  0 active torsions:
REMARK  status: ('A' for Active; 'I' for Inactive)
ROOT
ATOM      1  C   UNL d   1       2.867   3.378   1.103  0.00  0.00    -0.002 A 
ATOM      2  C1  UNL d   1       2.791   3.536  -0.273  0.00  0.00     0.010 A 
ATOM      3  C2  UNL d   1       2.070   2.630  -1.053  0.00  0.00     0.041 A 
ATOM      4  C3  UNL d   1       1.418   1.553  -0.420  0.00  0.00    -0.075 A 
ATOM      5  S   UNL d   1       0.476   0.321  -1.173  0.00  0.00     0.015 SA
ATOM      6  C4  UNL d   1       0.151  -0.444   0.315  0.00  0.00     0.022 A 
ATOM      7  C5  UNL d   1       0.740   0.211   1.371  0.00  0.00     0.026 A 
ATOM      8  C6  UNL d   1       1.479   1.374   0.964  0.00  0.00    -0.082 A 
ATOM      9  C7  UNL d   1       2.219   2.308   1.728  0.00  0.00     0.045 A 
ENDROOT
TORSDOF 0
ENDMDL
