MODEL 1
REMARK minimizedAffinity -1.26764572
REMARK minimizedRMSD -1
REMARK  0 active torsions:
REMARK  status: ('A' for Active; 'I' for Inactive)
ROOT
ATOM      1  C   UNL d   1      -1.850  -1.001  -1.151  0.00  0.00    -0.002 A 
ATOM      2  C1  UNL d   1      -1.206  -0.360  -2.201  0.00  0.00     0.010 A 
ATOM      3  C2  UNL d   1       0.023   0.272  -2.000  0.00  0.00     0.041 A 
ATOM      4  C3  UNL d   1       0.600   0.246  -0.716  0.00  0.00    -0.075 A 
ATOM      5  S   UNL d   1       2.099   0.952  -0.236  0.00  0.00     0.015 SA
ATOM      6  C4  UNL d   1       1.920   0.418   1.373  0.00  0.00     0.022 A 
ATOM      7  C5  UNL d   1       0.752  -0.283   1.557  0.00  0.00     0.026 A 
ATOM      8  C6  UNL d   1      -0.028  -0.394   0.356  0.00  0.00    -0.082 A 
ATOM      9  C7  UNL d   1      -1.274  -1.024   0.121  0.00  0.00     0.045 A 
ENDROOT
TORSDOF 0
ENDMDL
