MODEL 1
REMARK minimizedAffinity 2.63247466
REMARK minimizedRMSD -1
REMARK  0 active torsions:
REMARK  status: ('A' for Active; 'I' for Inactive)
ROOT
ATOM      1  C   UNL d   1       3.412   2.717   0.480  0.00  0.00    -0.002 A 
ATOM      2  C1  UNL d   1       2.885   2.597   1.758  0.00  0.00     0.010 A 
ATOM      3  C2  UNL d   1       1.761   1.801   1.991  0.00  0.00     0.041 A 
ATOM      4  C3  UNL d   1       1.172   1.121   0.907  0.00  0.00    -0.075 A 
ATOM      5  S   UNL d   1      -0.209   0.090   0.954  0.00  0.00     0.015 SA
ATOM      6  C4  UNL d   1      -0.131  -0.215  -0.720  0.00  0.00     0.022 A 
ATOM      7  C5  UNL d   1       0.916   0.445  -1.317  0.00  0.00     0.026 A 
ATOM      8  C6  UNL d   1       1.685   1.226  -0.389  0.00  0.00    -0.082 A 
ATOM      9  C7  UNL d   1       2.825   2.041  -0.592  0.00  0.00     0.045 A 
ENDROOT
TORSDOF 0
ENDMDL
