MODEL 1
REMARK minimizedAffinity -1.19728792
REMARK minimizedRMSD -1
REMARK  0 active torsions:
REMARK  status: ('A' for Active; 'I' for Inactive)
ROOT
ATOM      1  C   UNL d   1       3.316   2.892   1.009  0.00  0.00    -0.002 A 
ATOM      2  C1  UNL d   1       2.106   3.549   1.179  0.00  0.00     0.010 A 
ATOM      3  C2  UNL d   1       0.899   2.888   0.937  0.00  0.00     0.041 A 
ATOM      4  C3  UNL d   1       0.931   1.542   0.521  0.00  0.00    -0.075 A 
ATOM      5  S   UNL d   1      -0.420   0.532   0.167  0.00  0.00     0.015 SA
ATOM      6  C4  UNL d   1       0.578  -0.796  -0.216  0.00  0.00     0.022 A 
ATOM      7  C5  UNL d   1       1.912  -0.492  -0.084  0.00  0.00     0.026 A 
ATOM      8  C6  UNL d   1       2.138   0.860   0.344  0.00  0.00    -0.082 A 
ATOM      9  C7  UNL d   1       3.344   1.558   0.595  0.00  0.00     0.045 A 
ENDROOT
TORSDOF 0
ENDMDL
