MODEL 1
REMARK minimizedAffinity -3.77032852
REMARK minimizedRMSD -1
REMARK  0 active torsions:
REMARK  status: ('A' for Active; 'I' for Inactive)
ROOT
ATOM      1  C   UNL d   1      -1.951  -0.100  -1.861  0.00  0.00    -0.002 A 
ATOM      2  C1  UNL d   1      -2.183  -0.982  -0.815  0.00  0.00     0.010 A 
ATOM      3  C2  UNL d   1      -1.272  -1.091   0.237  0.00  0.00     0.041 A 
ATOM      4  C3  UNL d   1      -0.113  -0.291   0.221  0.00  0.00    -0.075 A 
ATOM      5  S   UNL d   1       1.142  -0.255   1.403  0.00  0.00     0.015 SA
ATOM      6  C4  UNL d   1       2.016   0.932   0.547  0.00  0.00     0.022 A 
ATOM      7  C5  UNL d   1       1.380   1.303  -0.614  0.00  0.00     0.026 A 
ATOM      8  C6  UNL d   1       0.143   0.605  -0.821  0.00  0.00    -0.082 A 
ATOM      9  C7  UNL d   1      -0.800   0.692  -1.874  0.00  0.00     0.045 A 
ENDROOT
TORSDOF 0
ENDMDL
