MODEL 1
REMARK minimizedAffinity -1.86727905
REMARK minimizedRMSD -1
REMARK  0 active torsions:
REMARK  status: ('A' for Active; 'I' for Inactive)
ROOT
ATOM      1  C   UNL d   1      -2.615  -0.502  -1.128  0.00  0.00    -0.002 A 
ATOM      2  C1  UNL d   1      -1.843   0.156  -2.074  0.00  0.00     0.010 A 
ATOM      3  C2  UNL d   1      -0.476   0.350  -1.865  0.00  0.00     0.041 A 
ATOM      4  C3  UNL d   1       0.107  -0.135  -0.678  0.00  0.00    -0.075 A 
ATOM      5  S   UNL d   1       1.762  -0.013  -0.207  0.00  0.00     0.015 SA
ATOM      6  C4  UNL d   1       1.482  -0.833   1.261  0.00  0.00     0.022 A 
ATOM      7  C5  UNL d   1       0.164  -1.197   1.405  0.00  0.00     0.026 A 
ATOM      8  C6  UNL d   1      -0.650  -0.802   0.290  0.00  0.00    -0.082 A 
ATOM      9  C7  UNL d   1      -2.033  -0.982   0.049  0.00  0.00     0.045 A 
ENDROOT
TORSDOF 0
ENDMDL
