MODEL 1
REMARK minimizedAffinity -1.70149279
REMARK minimizedRMSD -1
REMARK  0 active torsions:
REMARK  status: ('A' for Active; 'I' for Inactive)
ROOT
ATOM      1  C   UNL d   1      -0.462  -0.039  -0.782  0.00  0.00    -0.002 A 
ATOM      2  C1  UNL d   1      -1.171   0.955  -0.122  0.00  0.00     0.010 A 
ATOM      3  C2  UNL d   1      -0.502   1.927   0.625  0.00  0.00     0.041 A 
ATOM      4  C3  UNL d   1       0.904   1.884   0.697  0.00  0.00    -0.075 A 
ATOM      5  S   UNL d   1       1.935   2.970   1.552  0.00  0.00     0.015 SA
ATOM      6  C4  UNL d   1       3.340   2.140   1.061  0.00  0.00     0.022 A 
ATOM      7  C5  UNL d   1       3.048   1.058   0.265  0.00  0.00     0.026 A 
ATOM      8  C6  UNL d   1       1.640   0.893   0.041  0.00  0.00    -0.082 A 
ATOM      9  C7  UNL d   1       0.933  -0.079  -0.707  0.00  0.00     0.045 A 
ENDROOT
TORSDOF 0
ENDMDL
