MODEL 1
REMARK minimizedAffinity -1.06621265
REMARK minimizedRMSD -1
REMARK  0 active torsions:
REMARK  status: ('A' for Active; 'I' for Inactive)
ROOT
ATOM      1  C   UNL d   1      -2.383  -0.036  -0.970  0.00  0.00    -0.002 A 
ATOM      2  C1  UNL d   1      -2.201  -1.204  -0.242  0.00  0.00     0.010 A 
ATOM      3  C2  UNL d   1      -0.950  -1.521   0.290  0.00  0.00     0.041 A 
ATOM      4  C3  UNL d   1       0.125  -0.636   0.078  0.00  0.00    -0.075 A 
ATOM      5  S   UNL d   1       1.746  -0.817   0.636  0.00  0.00     0.015 SA
ATOM      6  C4  UNL d   1       2.235   0.652  -0.078  0.00  0.00     0.022 A 
ATOM      7  C5  UNL d   1       1.200   1.278  -0.730  0.00  0.00     0.026 A 
ATOM      8  C6  UNL d   1      -0.034   0.547  -0.651  0.00  0.00    -0.082 A 
ATOM      9  C7  UNL d   1      -1.314   0.839  -1.178  0.00  0.00     0.045 A 
ENDROOT
TORSDOF 0
ENDMDL
