MODEL 1
REMARK minimizedAffinity -3.92938566
REMARK minimizedRMSD -1
REMARK  0 active torsions:
REMARK  status: ('A' for Active; 'I' for Inactive)
ROOT
ATOM      1  C   UNL d   1      -2.746  -2.731  -0.028  0.00  0.00    -0.002 A 
ATOM      2  C1  UNL d   1      -1.844  -2.952   1.004  0.00  0.00     0.010 A 
ATOM      3  C2  UNL d   1      -0.691  -2.173   1.117  0.00  0.00     0.041 A 
ATOM      4  C3  UNL d   1      -0.457  -1.158   0.169  0.00  0.00    -0.075 A 
ATOM      5  S   UNL d   1       0.887  -0.080   0.109  0.00  0.00     0.015 SA
ATOM      6  C4  UNL d   1       0.296   0.699  -1.287  0.00  0.00     0.022 A 
ATOM      7  C5  UNL d   1      -0.897   0.162  -1.711  0.00  0.00     0.026 A 
ATOM      8  C6  UNL d   1      -1.351  -0.917  -0.879  0.00  0.00    -0.082 A 
ATOM      9  C7  UNL d   1      -2.511  -1.724  -0.967  0.00  0.00     0.045 A 
ENDROOT
TORSDOF 0
ENDMDL
