MODEL 1
REMARK minimizedAffinity -2.6981523
REMARK minimizedRMSD -1
REMARK  0 active torsions:
REMARK  status: ('A' for Active; 'I' for Inactive)
ROOT
ATOM      1  C   UNL d   1       1.805   2.657   2.793  0.00  0.00    -0.002 A 
ATOM      2  C1  UNL d   1       2.221   3.071   1.535  0.00  0.00     0.010 A 
ATOM      3  C2  UNL d   1       2.001   2.268   0.414  0.00  0.00     0.041 A 
ATOM      4  C3  UNL d   1       1.347   1.031   0.579  0.00  0.00    -0.075 A 
ATOM      5  S   UNL d   1       0.969  -0.117  -0.650  0.00  0.00     0.015 SA
ATOM      6  C4  UNL d   1       0.245  -1.184   0.465  0.00  0.00     0.022 A 
ATOM      7  C5  UNL d   1       0.283  -0.692   1.748  0.00  0.00     0.026 A 
ATOM      8  C6  UNL d   1       0.918   0.593   1.835  0.00  0.00    -0.082 A 
ATOM      9  C7  UNL d   1       1.157   1.429   2.952  0.00  0.00     0.045 A 
ENDROOT
TORSDOF 0
ENDMDL
