MODEL 1
REMARK minimizedAffinity -3.07116318
REMARK minimizedRMSD -1
REMARK  0 active torsions:
REMARK  status: ('A' for Active; 'I' for Inactive)
ROOT
ATOM      1  C1  DEN d   1      -1.132   1.333  -0.924  0.00  0.00     0.130 A 
ATOM      2  C2  DEN d   1      -1.328   0.370   0.156  0.00  0.00    -0.031 A 
ATOM      3  C3  DEN d   1      -0.362  -0.730  -0.032  0.00  0.00     0.027 A 
ATOM      4  C4  DEN d   1       1.414  -1.033  -1.878  0.00  0.00     0.027 A 
ATOM      5  C5  DEN d   1       1.950  -0.483  -3.021  0.00  0.00    -0.003 A 
ATOM      6  C6  DEN d   1       1.477   0.684  -3.560  0.00  0.00     0.001 A 
ATOM      7  C7  DEN d   1       0.467   1.363  -2.930  0.00  0.00     0.017 A 
ATOM      8  C8  DEN d   1      -0.083   0.811  -1.781  0.00  0.00    -0.094 A 
ATOM      9  C9  DEN d   1       0.417  -0.364  -1.245  0.00  0.00    -0.072 A 
ENDROOT
TORSDOF 0
ENDMDL
