MODEL 1
REMARK minimizedAffinity 0.717972219
REMARK minimizedRMSD -1
REMARK  0 active torsions:
REMARK  status: ('A' for Active; 'I' for Inactive)
ROOT
ATOM      1  C1  DEN d   1       0.167   1.177   0.649  0.00  0.00     0.130 A 
ATOM      2  C2  DEN d   1       1.139   0.301   0.001  0.00  0.00    -0.031 A 
ATOM      3  C3  DEN d   1       1.602  -0.684   0.999  0.00  0.00     0.027 A 
ATOM      4  C4  DEN d   1       0.908  -0.939   3.470  0.00  0.00     0.027 A 
ATOM      5  C5  DEN d   1       0.121  -0.420   4.474  0.00  0.00    -0.003 A 
ATOM      6  C6  DEN d   1      -0.673   0.679   4.285  0.00  0.00     0.001 A 
ATOM      7  C7  DEN d   1      -0.733   1.269   3.050  0.00  0.00     0.017 A 
ATOM      8  C8  DEN d   1       0.063   0.756   2.035  0.00  0.00    -0.094 A 
ATOM      9  C9  DEN d   1       0.850  -0.364   2.242  0.00  0.00    -0.072 A 
ENDROOT
TORSDOF 0
ENDMDL
