MODEL 1
REMARK minimizedAffinity -4.9211998
REMARK minimizedRMSD -1
REMARK  0 active torsions:
REMARK  status: ('A' for Active; 'I' for Inactive)
ROOT
ATOM      1  C1  DEN d   1      -1.379  -0.848  -0.052  0.00  0.00     0.130 A 
ATOM      2  C2  DEN d   1      -0.259  -0.999  -0.977  0.00  0.00    -0.031 A 
ATOM      3  C3  DEN d   1       0.865  -0.187  -0.469  0.00  0.00     0.027 A 
ATOM      4  C4  DEN d   1       0.981   1.276   1.652  0.00  0.00     0.027 A 
ATOM      5  C5  DEN d   1       0.274   1.727   2.745  0.00  0.00    -0.003 A 
ATOM      6  C6  DEN d   1      -1.033   1.380   2.963  0.00  0.00     0.001 A 
ATOM      7  C7  DEN d   1      -1.661   0.523   2.098  0.00  0.00     0.017 A 
ATOM      8  C8  DEN d   1      -0.957   0.071   0.989  0.00  0.00    -0.094 A 
ATOM      9  C9  DEN d   1       0.368   0.423   0.794  0.00  0.00    -0.072 A 
ENDROOT
TORSDOF 0
ENDMDL
