MODEL 1
REMARK minimizedAffinity -0.0448098369
REMARK minimizedRMSD -1
REMARK  0 active torsions:
REMARK  status: ('A' for Active; 'I' for Inactive)
ROOT
ATOM      1  C1  DEN d   1       0.670   2.358   1.897  0.00  0.00     0.130 A 
ATOM      2  C2  DEN d   1       1.352   3.171   2.901  0.00  0.00    -0.031 A 
ATOM      3  C3  DEN d   1       1.225   2.486   4.204  0.00  0.00     0.027 A 
ATOM      4  C4  DEN d   1       0.052   0.258   4.759  0.00  0.00     0.027 A 
ATOM      5  C5  DEN d   1      -0.677  -0.788   4.236  0.00  0.00    -0.003 A 
ATOM      6  C6  DEN d   1      -1.035  -0.840   2.915  0.00  0.00     0.001 A 
ATOM      7  C7  DEN d   1      -0.624   0.149   2.061  0.00  0.00     0.017 A 
ATOM      8  C8  DEN d   1       0.105   1.210   2.582  0.00  0.00    -0.094 A 
ATOM      9  C9  DEN d   1       0.466   1.239   3.918  0.00  0.00    -0.072 A 
ENDROOT
TORSDOF 0
ENDMDL
