MODEL 1
REMARK minimizedAffinity -3.19836688
REMARK minimizedRMSD -1
REMARK  0 active torsions:
REMARK  status: ('A' for Active; 'I' for Inactive)
ROOT
ATOM      1  C1  DEN d   1       0.290   0.809  -1.465  0.00  0.00     0.130 A 
ATOM      2  C2  DEN d   1      -0.091  -0.593  -1.606  0.00  0.00    -0.031 A 
ATOM      3  C3  DEN d   1      -0.668  -1.041  -0.322  0.00  0.00     0.027 A 
ATOM      4  C4  DEN d   1      -1.010   0.296   1.857  0.00  0.00     0.027 A 
ATOM      5  C5  DEN d   1      -0.831   1.520   2.463  0.00  0.00    -0.003 A 
ATOM      6  C6  DEN d   1      -0.239   2.574   1.818  0.00  0.00     0.001 A 
ATOM      7  C7  DEN d   1       0.154   2.438   0.513  0.00  0.00     0.017 A 
ATOM      8  C8  DEN d   1      -0.017   1.204  -0.102  0.00  0.00    -0.094 A 
ATOM      9  C9  DEN d   1      -0.629   0.155   0.562  0.00  0.00    -0.072 A 
ENDROOT
TORSDOF 0
ENDMDL
