MODEL 1
REMARK minimizedAffinity -2.60413384
REMARK minimizedRMSD -1
REMARK  0 active torsions:
REMARK  status: ('A' for Active; 'I' for Inactive)
ROOT
ATOM      1  C1  DEN d   1      -1.527  -0.895  -0.084  0.00  0.00     0.130 A 
ATOM      2  C2  DEN d   1      -0.411  -0.990  -1.022  0.00  0.00    -0.031 A 
ATOM      3  C3  DEN d   1       0.645  -0.061  -0.571  0.00  0.00     0.027 A 
ATOM      4  C4  DEN d   1       0.662   1.504   1.479  0.00  0.00     0.027 A 
ATOM      5  C5  DEN d   1      -0.066   1.941   2.564  0.00  0.00    -0.003 A 
ATOM      6  C6  DEN d   1      -1.334   1.493   2.821  0.00  0.00     0.001 A 
ATOM      7  C7  DEN d   1      -1.897   0.546   2.007  0.00  0.00     0.017 A 
ATOM      8  C8  DEN d   1      -1.172   0.105   0.907  0.00  0.00    -0.094 A 
ATOM      9  C9  DEN d   1       0.114   0.561   0.672  0.00  0.00    -0.072 A 
ENDROOT
TORSDOF 0
ENDMDL
