MODEL 1
REMARK minimizedAffinity 0.621931911
REMARK minimizedRMSD -1
REMARK  1 active torsions:
REMARK  status: ('A' for Active; 'I' for Inactive)
REMARK    1  A    between atoms: C1_2  and  C2_3 
ROOT
ATOM      1  C2  UNL d   1       2.017  -0.062  -0.979  0.00  0.00    -0.081 A 
ATOM      2  C3  UNL d   1       0.888  -0.878  -1.122  0.00  0.00     0.006 A 
ATOM      3  C4  UNL d   1       0.070  -1.154  -0.024  0.00  0.00     0.002 A 
ATOM      4  C5  UNL d   1       0.362  -0.614   1.233  0.00  0.00    -0.080 A 
ATOM      5  C6  UNL d   1      -0.524  -0.878   2.413  0.00  0.00     0.076 C 
ATOM      6  C7  UNL d   1       1.500   0.187   1.380  0.00  0.00     0.002 A 
ATOM      7  C8  UNL d   1       2.319   0.463   0.282  0.00  0.00     0.006 A 
ENDROOT
BRANCH   1   8
ATOM      8  C1  UNL d   1       2.865   0.290  -2.175  0.00  0.00     0.054 C 
ATOM      9  C   UNL d   1       2.195  -0.138  -3.473  0.00  0.00     0.018 C 
ENDBRANCH   1   8
TORSDOF 1
ENDMDL
