MODEL 1
REMARK minimizedAffinity 0.612486303
REMARK minimizedRMSD -1
REMARK  1 active torsions:
REMARK  status: ('A' for Active; 'I' for Inactive)
REMARK    1  A    between atoms: C1_2  and  C2_3 
ROOT
ATOM      1  C2  UNL d   1       2.875  -3.006  -0.126  0.00  0.00    -0.081 A 
ATOM      2  C3  UNL d   1       2.967  -1.611  -0.040  0.00  0.00     0.006 A 
ATOM      3  C4  UNL d   1       1.842  -0.845   0.275  0.00  0.00     0.002 A 
ATOM      4  C5  UNL d   1       0.609  -1.460   0.517  0.00  0.00    -0.080 A 
ATOM      5  C6  UNL d   1      -0.599  -0.652   0.885  0.00  0.00     0.076 C 
ATOM      6  C7  UNL d   1       0.513  -2.852   0.414  0.00  0.00     0.002 A 
ATOM      7  C8  UNL d   1       1.637  -3.619   0.099  0.00  0.00     0.006 A 
ENDROOT
BRANCH   1   8
ATOM      8  C1  UNL d   1       4.100  -3.839  -0.401  0.00  0.00     0.054 C 
ATOM      9  C   UNL d   1       3.833  -5.316  -0.148  0.00  0.00     0.018 C 
ENDBRANCH   1   8
TORSDOF 1
ENDMDL
