MODEL 1
REMARK minimizedAffinity -1.49465406
REMARK minimizedRMSD -1
REMARK  1 active torsions:
REMARK  status: ('A' for Active; 'I' for Inactive)
REMARK    1  A    between atoms: C1_2  and  C2_3 
ROOT
ATOM      1  C2  UNL d   1       2.742  -3.169   0.077  0.00  0.00    -0.081 A 
ATOM      2  C3  UNL d   1       2.801  -1.794   0.335  0.00  0.00     0.006 A 
ATOM      3  C4  UNL d   1       1.627  -1.053   0.497  0.00  0.00     0.002 A 
ATOM      4  C5  UNL d   1       0.377  -1.675   0.412  0.00  0.00    -0.080 A 
ATOM      5  C6  UNL d   1      -0.889  -0.897   0.614  0.00  0.00     0.076 C 
ATOM      6  C7  UNL d   1       0.318  -3.046   0.137  0.00  0.00     0.002 A 
ATOM      7  C8  UNL d   1       1.491  -3.787  -0.025  0.00  0.00     0.006 A 
ENDROOT
BRANCH   1   8
ATOM      8  C1  UNL d   1       4.006  -3.982  -0.033  0.00  0.00     0.054 C 
ATOM      9  C   UNL d   1       3.756  -5.443   0.313  0.00  0.00     0.018 C 
ENDBRANCH   1   8
TORSDOF 1
ENDMDL
