MODEL 1
REMARK minimizedAffinity 2.42070746
REMARK minimizedRMSD -1
REMARK  1 active torsions:
REMARK  status: ('A' for Active; 'I' for Inactive)
REMARK    1  A    between atoms: C1_2  and  C2_3 
ROOT
ATOM      1  C2  UNL d   1       2.586  -3.672   0.176  0.00  0.00    -0.081 A 
ATOM      2  C3  UNL d   1       1.666  -4.317  -0.659  0.00  0.00     0.006 A 
ATOM      3  C4  UNL d   1       0.370  -3.816  -0.807  0.00  0.00     0.002 A 
ATOM      4  C5  UNL d   1      -0.025  -2.658  -0.128  0.00  0.00    -0.080 A 
ATOM      5  C6  UNL d   1      -1.403  -2.093  -0.300  0.00  0.00     0.076 C 
ATOM      6  C7  UNL d   1       0.889  -2.024   0.721  0.00  0.00     0.002 A 
ATOM      7  C8  UNL d   1       2.184  -2.524   0.869  0.00  0.00     0.006 A 
ENDROOT
BRANCH   1   8
ATOM      8  C1  UNL d   1       4.003  -4.172   0.287  0.00  0.00     0.054 C 
ATOM      9  C   UNL d   1       4.046  -5.689   0.412  0.00  0.00     0.018 C 
ENDBRANCH   1   8
TORSDOF 1
ENDMDL
