MODEL 1
REMARK minimizedAffinity 3.31317973
REMARK minimizedRMSD -1
REMARK  1 active torsions:
REMARK  status: ('A' for Active; 'I' for Inactive)
REMARK    1  A    between atoms: C1_2  and  C2_3 
ROOT
ATOM      1  C2  UNL d   1       4.022  -4.236  -0.159  0.00  0.00    -0.081 A 
ATOM      2  C3  UNL d   1       2.991  -5.028   0.362  0.00  0.00     0.006 A 
ATOM      3  C4  UNL d   1       1.741  -4.469   0.640  0.00  0.00     0.002 A 
ATOM      4  C5  UNL d   1       1.499  -3.114   0.394  0.00  0.00    -0.080 A 
ATOM      5  C6  UNL d   1       0.152  -2.508   0.659  0.00  0.00     0.076 C 
ATOM      6  C7  UNL d   1       2.534  -2.319  -0.110  0.00  0.00     0.002 A 
ATOM      7  C8  UNL d   1       3.784  -2.876  -0.388  0.00  0.00     0.006 A 
ENDROOT
BRANCH   1   8
ATOM      8  C1  UNL d   1       5.351  -4.849  -0.521  0.00  0.00     0.054 C 
ATOM      9  C   UNL d   1       5.702  -5.999   0.413  0.00  0.00     0.018 C 
ENDBRANCH   1   8
TORSDOF 1
ENDMDL
