MODEL 1
REMARK minimizedAffinity -2.21682668
REMARK minimizedRMSD -1
REMARK  1 active torsions:
REMARK  status: ('A' for Active; 'I' for Inactive)
REMARK    1  A    between atoms: C1_2  and  C2_3 
ROOT
ATOM      1  C2  UNL d   1       2.620  -3.158   0.107  0.00  0.00    -0.081 A 
ATOM      2  C3  UNL d   1       1.362  -3.728  -0.121  0.00  0.00     0.006 A 
ATOM      3  C4  UNL d   1       0.198  -2.995   0.120  0.00  0.00     0.002 A 
ATOM      4  C5  UNL d   1       0.273  -1.678   0.586  0.00  0.00    -0.080 A 
ATOM      5  C6  UNL d   1      -0.968  -0.869   0.821  0.00  0.00     0.076 C 
ATOM      6  C7  UNL d   1       1.530  -1.114   0.831  0.00  0.00     0.002 A 
ATOM      7  C8  UNL d   1       2.694  -1.847   0.590  0.00  0.00     0.006 A 
ENDROOT
BRANCH   1   8
ATOM      8  C1  UNL d   1       3.878  -3.925  -0.214  0.00  0.00     0.054 C 
ATOM      9  C   UNL d   1       3.913  -5.261   0.514  0.00  0.00     0.018 C 
ENDBRANCH   1   8
TORSDOF 1
ENDMDL
