MODEL 1
REMARK minimizedAffinity 0.537077606
REMARK minimizedRMSD -1
REMARK  1 active torsions:
REMARK  status: ('A' for Active; 'I' for Inactive)
REMARK    1  A    between atoms: C1_2  and  C2_3 
ROOT
ATOM      1  C2  UNL d   1       3.449  -3.778  -0.140  0.00  0.00    -0.081 A 
ATOM      2  C3  UNL d   1       3.451  -2.397   0.089  0.00  0.00     0.006 A 
ATOM      3  C4  UNL d   1       2.250  -1.708   0.276  0.00  0.00     0.002 A 
ATOM      4  C5  UNL d   1       1.029  -2.390   0.245  0.00  0.00    -0.080 A 
ATOM      5  C6  UNL d   1      -0.265  -1.667   0.474  0.00  0.00     0.076 C 
ATOM      6  C7  UNL d   1       1.025  -3.767  -0.002  0.00  0.00     0.002 A 
ATOM      7  C8  UNL d   1       2.225  -4.456  -0.189  0.00  0.00     0.006 A 
ENDROOT
BRANCH   1   8
ATOM      8  C1  UNL d   1       4.745  -4.535  -0.278  0.00  0.00     0.054 C 
ATOM      9  C   UNL d   1       4.606  -5.966   0.219  0.00  0.00     0.018 C 
ENDBRANCH   1   8
TORSDOF 1
ENDMDL
