MODEL 1
REMARK minimizedAffinity 6.9943924
REMARK minimizedRMSD -1
REMARK  1 active torsions:
REMARK  status: ('A' for Active; 'I' for Inactive)
REMARK    1  A    between atoms: C1_2  and  C2_3 
ROOT
ATOM      1  C2  UNL d   1      -1.976   3.252   1.193  0.00  0.00    -0.081 A 
ATOM      2  C3  UNL d   1      -1.524   2.209   2.012  0.00  0.00     0.006 A 
ATOM      3  C4  UNL d   1      -1.986   0.905   1.817  0.00  0.00     0.002 A 
ATOM      4  C5  UNL d   1      -2.900   0.621   0.796  0.00  0.00    -0.080 A 
ATOM      5  C6  UNL d   1      -3.380  -0.780   0.557  0.00  0.00     0.076 C 
ATOM      6  C7  UNL d   1      -3.364   1.665  -0.011  0.00  0.00     0.002 A 
ATOM      7  C8  UNL d   1      -2.903   2.969   0.184  0.00  0.00     0.006 A 
ENDROOT
BRANCH   1   8
ATOM      8  C1  UNL d   1      -1.430   4.647   1.359  0.00  0.00     0.054 C 
ATOM      9  C   UNL d   1      -1.226   5.325   0.011  0.00  0.00     0.018 C 
ENDBRANCH   1   8
TORSDOF 1
ENDMDL
