MODEL 1
REMARK minimizedAffinity -2.19897127
REMARK minimizedRMSD -1
REMARK  1 active torsions:
REMARK  status: ('A' for Active; 'I' for Inactive)
REMARK    1  A    between atoms: C1_2  and  C2_3 
ROOT
ATOM      1  C2  UNL d   1       0.385  -1.882   0.491  0.00  0.00    -0.081 A 
ATOM      2  C3  UNL d   1       0.131  -3.258   0.444  0.00  0.00     0.006 A 
ATOM      3  C4  UNL d   1       1.150  -4.155   0.117  0.00  0.00     0.002 A 
ATOM      4  C5  UNL d   1       2.441  -3.693  -0.161  0.00  0.00    -0.080 A 
ATOM      5  C6  UNL d   1       3.552  -4.648  -0.483  0.00  0.00     0.076 C 
ATOM      6  C7  UNL d   1       2.691  -2.316  -0.130  0.00  0.00     0.002 A 
ATOM      7  C8  UNL d   1       1.672  -1.419   0.196  0.00  0.00     0.006 A 
ENDROOT
BRANCH   1   8
ATOM      8  C1  UNL d   1      -0.696  -0.917   0.906  0.00  0.00     0.054 C 
ATOM      9  C   UNL d   1      -0.224  -0.009   2.033  0.00  0.00     0.018 C 
ENDBRANCH   1   8
TORSDOF 1
ENDMDL
