MODEL 1
REMARK minimizedAffinity 4.48155594
REMARK minimizedRMSD -1
REMARK  2 active torsions:
REMARK  status: ('A' for Active; 'I' for Inactive)
REMARK    1  A    between atoms: C1_2  and  C2_3 
REMARK    2  A    between atoms: C2_3  and  C3_4 
ROOT
ATOM      1  C3  UNL d   1       0.796   1.343   0.280  0.00  0.00    -0.075 A 
ATOM      2  C4  UNL d   1      -0.556   1.448  -0.079  0.00  0.00     0.002 A 
ATOM      3  C5  UNL d   1      -1.169   2.698  -0.172  0.00  0.00     0.002 A 
ATOM      4  C6  UNL d   1      -0.444   3.855   0.103  0.00  0.00    -0.004 A 
ATOM      5  C7  UNL d   1       0.895   3.761   0.476  0.00  0.00     0.002 A 
ATOM      6  C8  UNL d   1       1.513   2.513   0.566  0.00  0.00     0.002 A 
ENDROOT
BRANCH   1   7
ATOM      7  C2  UNL d   1       1.474  -0.005   0.353  0.00  0.00     0.056 C 
BRANCH   7   8
ATOM      8  C1  UNL d   1       1.410  -0.660   1.737  0.00  0.00     0.007 C 
ATOM      9  C   UNL d   1       0.784  -2.049   1.715  0.00  0.00     0.009 C 
ENDBRANCH   7   8
ENDBRANCH   1   7
TORSDOF 2
ENDMDL
