MODEL 1
REMARK minimizedAffinity 2.89750433
REMARK minimizedRMSD -1
REMARK  2 active torsions:
REMARK  status: ('A' for Active; 'I' for Inactive)
REMARK    1  A    between atoms: C1_2  and  C2_3 
REMARK    2  A    between atoms: C2_3  and  C3_4 
ROOT
ATOM      1  C3  UNL d   1       3.561  -2.299   5.972  0.00  0.00    -0.075 A 
ATOM      2  C4  UNL d   1       4.920  -1.957   5.923  0.00  0.00     0.002 A 
ATOM      3  C5  UNL d   1       5.899  -2.950   5.872  0.00  0.00     0.002 A 
ATOM      4  C6  UNL d   1       5.533  -4.294   5.880  0.00  0.00    -0.004 A 
ATOM      5  C7  UNL d   1       4.186  -4.645   5.945  0.00  0.00     0.002 A 
ATOM      6  C8  UNL d   1       3.205  -3.654   5.992  0.00  0.00     0.002 A 
ENDROOT
BRANCH   1   7
ATOM      7  C2  UNL d   1       2.496  -1.229   5.998  0.00  0.00     0.056 C 
BRANCH   7   8
ATOM      8  C1  UNL d   1       1.156  -1.668   5.397  0.00  0.00     0.007 C 
ATOM      9  C   UNL d   1       1.227  -1.933   3.899  0.00  0.00     0.009 C 
ENDBRANCH   7   8
ENDBRANCH   1   7
TORSDOF 2
ENDMDL
