MODEL 1
REMARK minimizedAffinity -0.233296558
REMARK minimizedRMSD -1
REMARK  2 active torsions:
REMARK  status: ('A' for Active; 'I' for Inactive)
REMARK    1  A    between atoms: C1_2  and  C2_3 
REMARK    2  A    between atoms: C2_3  and  C3_4 
ROOT
ATOM      1  C3  UNL d   1       0.673   2.096  -0.400  0.00  0.00    -0.075 A 
ATOM      2  C4  UNL d   1      -0.680   2.356  -0.138  0.00  0.00     0.002 A 
ATOM      3  C5  UNL d   1      -1.192   3.647  -0.270  0.00  0.00     0.002 A 
ATOM      4  C6  UNL d   1      -0.358   4.694  -0.654  0.00  0.00    -0.004 A 
ATOM      5  C7  UNL d   1       0.992   4.451  -0.901  0.00  0.00     0.002 A 
ATOM      6  C8  UNL d   1       1.506   3.159  -0.774  0.00  0.00     0.002 A 
ENDROOT
BRANCH   1   7
ATOM      7  C2  UNL d   1       1.227   0.696  -0.287  0.00  0.00     0.056 C 
BRANCH   7   8
ATOM      8  C1  UNL d   1       1.522   0.255   1.151  0.00  0.00     0.007 C 
ATOM      9  C   UNL d   1       1.150  -1.196   1.422  0.00  0.00     0.009 C 
ENDBRANCH   7   8
ENDBRANCH   1   7
TORSDOF 2
ENDMDL
