MODEL 1
REMARK minimizedAffinity 3.81354165
REMARK minimizedRMSD -1
REMARK  2 active torsions:
REMARK  status: ('A' for Active; 'I' for Inactive)
REMARK    1  A    between atoms: C1_2  and  C2_3 
REMARK    2  A    between atoms: C2_3  and  C3_4 
ROOT
ATOM      1  C3  UNL d   1       0.482   2.812  -0.432  0.00  0.00    -0.075 A 
ATOM      2  C4  UNL d   1       0.755   2.386   0.876  0.00  0.00     0.002 A 
ATOM      3  C5  UNL d   1       1.016   1.042   1.144  0.00  0.00     0.002 A 
ATOM      4  C6  UNL d   1       0.997   0.107   0.111  0.00  0.00    -0.004 A 
ATOM      5  C7  UNL d   1       0.711   0.516  -1.189  0.00  0.00     0.002 A 
ATOM      6  C8  UNL d   1       0.454   1.861  -1.461  0.00  0.00     0.002 A 
ENDROOT
BRANCH   1   7
ATOM      7  C2  UNL d   1       0.228   4.270  -0.733  0.00  0.00     0.056 C 
BRANCH   7   8
ATOM      8  C1  UNL d   1       1.493   5.067  -1.066  0.00  0.00     0.007 C 
ATOM      9  C   UNL d   1       1.321   5.994  -2.263  0.00  0.00     0.009 C 
ENDBRANCH   7   8
ENDBRANCH   1   7
TORSDOF 2
ENDMDL
