MODEL 1
REMARK minimizedAffinity -4.32862663
REMARK minimizedRMSD -1
REMARK  2 active torsions:
REMARK  status: ('A' for Active; 'I' for Inactive)
REMARK    1  A    between atoms: C1_2  and  C2_3 
REMARK    2  A    between atoms: C2_3  and  C3_4 
ROOT
ATOM      1  C3  UNL d   1      -4.216   2.809  -4.189  0.00  0.00    -0.075 A 
ATOM      2  C4  UNL d   1      -3.495   2.413  -3.054  0.00  0.00     0.002 A 
ATOM      3  C5  UNL d   1      -3.770   1.196  -2.429  0.00  0.00     0.002 A 
ATOM      4  C6  UNL d   1      -4.775   0.367  -2.924  0.00  0.00    -0.004 A 
ATOM      5  C7  UNL d   1      -5.509   0.759  -4.041  0.00  0.00     0.002 A 
ATOM      6  C8  UNL d   1      -5.232   1.973  -4.671  0.00  0.00     0.002 A 
ENDROOT
BRANCH   1   7
ATOM      7  C2  UNL d   1      -3.903   4.111  -4.888  0.00  0.00     0.056 C 
BRANCH   7   8
ATOM      8  C1  UNL d   1      -4.982   5.186  -4.717  0.00  0.00     0.007 C 
ATOM      9  C   UNL d   1      -5.759   5.464  -5.996  0.00  0.00     0.009 C 
ENDBRANCH   7   8
ENDBRANCH   1   7
TORSDOF 2
ENDMDL
