MODEL 1
REMARK minimizedAffinity 1.32960427
REMARK minimizedRMSD -1
REMARK  2 active torsions:
REMARK  status: ('A' for Active; 'I' for Inactive)
REMARK    1  A    between atoms: C1_2  and  C2_3 
REMARK    2  A    between atoms: C2_3  and  C3_4 
ROOT
ATOM      1  C3  UNL d   1      -4.160   2.960  -4.422  0.00  0.00    -0.075 A 
ATOM      2  C4  UNL d   1      -5.119   2.532  -5.351  0.00  0.00     0.002 A 
ATOM      3  C5  UNL d   1      -5.939   3.456  -5.999  0.00  0.00     0.002 A 
ATOM      4  C6  UNL d   1      -5.818   4.815  -5.720  0.00  0.00    -0.004 A 
ATOM      5  C7  UNL d   1      -4.880   5.251  -4.787  0.00  0.00     0.002 A 
ATOM      6  C8  UNL d   1      -4.055   4.329  -4.140  0.00  0.00     0.002 A 
ENDROOT
BRANCH   1   7
ATOM      7  C2  UNL d   1      -3.249   1.968  -3.738  0.00  0.00     0.056 C 
BRANCH   7   8
ATOM      8  C1  UNL d   1      -3.746   1.510  -2.363  0.00  0.00     0.007 C 
ATOM      9  C   UNL d   1      -3.758  -0.004  -2.202  0.00  0.00     0.009 C 
ENDBRANCH   7   8
ENDBRANCH   1   7
TORSDOF 2
ENDMDL
