MODEL 1
REMARK minimizedAffinity 2.07671857
REMARK minimizedRMSD -1
REMARK  2 active torsions:
REMARK  status: ('A' for Active; 'I' for Inactive)
REMARK    1  A    between atoms: C1_2  and  C2_3 
REMARK    2  A    between atoms: C2_3  and  C3_4 
ROOT
ATOM      1  C3  UNL d   1       1.537  -5.148  -2.602  0.00  0.00    -0.075 A 
ATOM      2  C4  UNL d   1       0.373  -5.662  -3.192  0.00  0.00     0.002 A 
ATOM      3  C5  UNL d   1      -0.760  -4.861  -3.338  0.00  0.00     0.002 A 
ATOM      4  C6  UNL d   1      -0.747  -3.542  -2.888  0.00  0.00    -0.004 A 
ATOM      5  C7  UNL d   1       0.398  -3.026  -2.285  0.00  0.00     0.002 A 
ATOM      6  C8  UNL d   1       1.535  -3.824  -2.142  0.00  0.00     0.002 A 
ENDROOT
BRANCH   1   7
ATOM      7  C2  UNL d   1       2.776  -6.000  -2.468  0.00  0.00     0.056 C 
BRANCH   7   8
ATOM      8  C1  UNL d   1       3.675  -5.994  -3.709  0.00  0.00     0.007 C 
ATOM      9  C   UNL d   1       5.129  -5.666  -3.396  0.00  0.00     0.009 C 
ENDBRANCH   7   8
ENDBRANCH   1   7
TORSDOF 2
ENDMDL
