MODEL 1
REMARK minimizedAffinity 10.3316755
REMARK minimizedRMSD -1
REMARK  2 active torsions:
REMARK  status: ('A' for Active; 'I' for Inactive)
REMARK    1  A    between atoms: C1_2  and  C2_3 
REMARK    2  A    between atoms: C2_3  and  C3_4 
ROOT
ATOM      1  C3  UNL d   1      -1.163   4.190  -0.071  0.00  0.00    -0.075 A 
ATOM      2  C4  UNL d   1       0.117   3.684   0.196  0.00  0.00     0.002 A 
ATOM      3  C5  UNL d   1       1.227   4.163  -0.500  0.00  0.00     0.002 A 
ATOM      4  C6  UNL d   1       1.071   5.144  -1.477  0.00  0.00    -0.004 A 
ATOM      5  C7  UNL d   1      -0.199   5.642  -1.762  0.00  0.00     0.002 A 
ATOM      6  C8  UNL d   1      -1.311   5.168  -1.063  0.00  0.00     0.002 A 
ENDROOT
BRANCH   1   7
ATOM      7  C2  UNL d   1      -2.365   3.697   0.700  0.00  0.00     0.056 C 
BRANCH   7   8
ATOM      8  C1  UNL d   1      -2.676   4.514   1.959  0.00  0.00     0.007 C 
ATOM      9  C   UNL d   1      -3.348   5.847   1.659  0.00  0.00     0.009 C 
ENDBRANCH   7   8
ENDBRANCH   1   7
TORSDOF 2
ENDMDL
