MODEL 1
REMARK minimizedAffinity 12.6899309
REMARK minimizedRMSD -1
REMARK  2 active torsions:
REMARK  status: ('A' for Active; 'I' for Inactive)
REMARK    1  A    between atoms: C1_2  and  C2_3 
REMARK    2  A    between atoms: C2_3  and  C3_4 
ROOT
ATOM      1  C3  UNL d   1      -3.618   4.589  -3.981  0.00  0.00    -0.075 A 
ATOM      2  C4  UNL d   1      -4.677   5.295  -3.391  0.00  0.00     0.002 A 
ATOM      3  C5  UNL d   1      -5.862   5.513  -4.095  0.00  0.00     0.002 A 
ATOM      4  C6  UNL d   1      -5.999   5.039  -5.398  0.00  0.00    -0.004 A 
ATOM      5  C7  UNL d   1      -4.947   4.351  -5.999  0.00  0.00     0.002 A 
ATOM      6  C8  UNL d   1      -3.762   4.127  -5.296  0.00  0.00     0.002 A 
ENDROOT
BRANCH   1   7
ATOM      7  C2  UNL d   1      -2.345   4.324  -3.213  0.00  0.00     0.056 C 
BRANCH   7   8
ATOM      8  C1  UNL d   1      -1.922   5.472  -2.290  0.00  0.00     0.007 C 
ATOM      9  C   UNL d   1      -0.748   5.116  -1.389  0.00  0.00     0.009 C 
ENDBRANCH   7   8
ENDBRANCH   1   7
TORSDOF 2
ENDMDL
