MODEL 1
REMARK minimizedAffinity -0.970681071
REMARK minimizedRMSD -1
REMARK  0 active torsions:
REMARK  status: ('A' for Active; 'I' for Inactive)
ROOT
ATOM      1  C2' OXE d   1      -5.829   5.998   5.465  0.00  0.00     0.078 C 
ATOM      2  C1' OXE d   1      -5.999   3.196   5.413  0.00  0.00     0.078 C 
ATOM      3  C1  OXE d   1      -5.822   3.914   4.099  0.00  0.00    -0.078 A 
ATOM      4  C2  OXE d   1      -5.787   5.288   4.129  0.00  0.00    -0.078 A 
ATOM      5  C3  OXE d   1      -5.570   5.998   2.951  0.00  0.00     0.003 A 
ATOM      6  C4  OXE d   1      -5.541   5.334   1.719  0.00  0.00    -0.002 A 
ATOM      7  C5  OXE d   1      -5.615   3.938   1.662  0.00  0.00    -0.002 A 
ATOM      8  C6  OXE d   1      -5.713   3.212   2.844  0.00  0.00     0.003 A 
ENDROOT
TORSDOF 0
ENDMDL
