MODEL 1
REMARK minimizedAffinity -0.134371385
REMARK minimizedRMSD -1
REMARK  0 active torsions:
REMARK  status: ('A' for Active; 'I' for Inactive)
ROOT
ATOM      1  C2' OXE d   1      -4.576  -0.258   0.927  0.00  0.00     0.078 C 
ATOM      2  C1' OXE d   1      -2.903  -0.708   3.136  0.00  0.00     0.078 C 
ATOM      3  C1  OXE d   1      -3.439   0.686   2.932  0.00  0.00    -0.078 A 
ATOM      4  C2  OXE d   1      -4.219   0.908   1.823  0.00  0.00    -0.078 A 
ATOM      5  C3  OXE d   1      -4.784   2.164   1.618  0.00  0.00     0.003 A 
ATOM      6  C4  OXE d   1      -4.441   3.240   2.445  0.00  0.00    -0.002 A 
ATOM      7  C5  OXE d   1      -3.616   3.044   3.558  0.00  0.00    -0.002 A 
ATOM      8  C6  OXE d   1      -3.143   1.768   3.839  0.00  0.00     0.003 A 
ENDROOT
TORSDOF 0
ENDMDL
