MODEL 1
REMARK minimizedAffinity 11.3804007
REMARK minimizedRMSD -1
REMARK  0 active torsions:
REMARK  status: ('A' for Active; 'I' for Inactive)
ROOT
ATOM      1  C2' OXE d   1       4.691   0.738   2.963  0.00  0.00     0.078 C 
ATOM      2  C1' OXE d   1       4.148   3.100   4.378  0.00  0.00     0.078 C 
ATOM      3  C1  OXE d   1       3.028   2.103   4.218  0.00  0.00    -0.078 A 
ATOM      4  C2  OXE d   1       3.289   0.971   3.484  0.00  0.00    -0.078 A 
ATOM      5  C3  OXE d   1       2.307  -0.007   3.352  0.00  0.00     0.003 A 
ATOM      6  C4  OXE d   1       1.011   0.222   3.828  0.00  0.00    -0.002 A 
ATOM      7  C5  OXE d   1       0.712   1.386   4.544  0.00  0.00    -0.002 A 
ATOM      8  C6  OXE d   1       1.718   2.315   4.784  0.00  0.00     0.003 A 
ENDROOT
TORSDOF 0
ENDMDL
