MODEL 1
REMARK minimizedAffinity 8.42943287
REMARK minimizedRMSD -1
REMARK  0 active torsions:
REMARK  status: ('A' for Active; 'I' for Inactive)
ROOT
ATOM      1  C2' OXE d   1       1.329  -1.505   4.934  0.00  0.00     0.078 C 
ATOM      2  C1' OXE d   1       2.303  -1.319   2.307  0.00  0.00     0.078 C 
ATOM      3  C1  OXE d   1       2.362  -0.082   3.169  0.00  0.00    -0.078 A 
ATOM      4  C2  OXE d   1       1.841  -0.170   4.437  0.00  0.00    -0.078 A 
ATOM      5  C3  OXE d   1       1.920   0.925   5.293  0.00  0.00     0.003 A 
ATOM      6  C4  OXE d   1       2.385   2.159   4.823  0.00  0.00    -0.002 A 
ATOM      7  C5  OXE d   1       2.884   2.281   3.522  0.00  0.00    -0.002 A 
ATOM      8  C6  OXE d   1       2.919   1.162   2.698  0.00  0.00     0.003 A 
ENDROOT
TORSDOF 0
ENDMDL
