MODEL 1
REMARK minimizedAffinity 5.44084263
REMARK minimizedRMSD -1
REMARK  0 active torsions:
REMARK  status: ('A' for Active; 'I' for Inactive)
ROOT
ATOM      1  C2' OXE d   1       3.201  -0.820  -2.676  0.00  0.00     0.078 C 
ATOM      2  C1' OXE d   1       0.602  -0.124  -1.876  0.00  0.00     0.078 C 
ATOM      3  C1  OXE d   1       0.954   0.030  -3.335  0.00  0.00    -0.078 A 
ATOM      4  C2  OXE d   1       2.242  -0.269  -3.709  0.00  0.00    -0.078 A 
ATOM      5  C3  OXE d   1       2.604  -0.197  -5.051  0.00  0.00     0.003 A 
ATOM      6  C4  OXE d   1       1.713   0.323  -5.999  0.00  0.00    -0.002 A 
ATOM      7  C5  OXE d   1       0.409   0.671  -5.631  0.00  0.00    -0.002 A 
ATOM      8  C6  OXE d   1       0.001   0.491  -4.314  0.00  0.00     0.003 A 
ENDROOT
TORSDOF 0
ENDMDL
