MODEL 1
REMARK minimizedAffinity -2.86056662
REMARK minimizedRMSD -1
REMARK  0 active torsions:
REMARK  status: ('A' for Active; 'I' for Inactive)
ROOT
ATOM      1  C2' OXE d   1      -6.000   2.763   5.458  0.00  0.00     0.078 C 
ATOM      2  C1' OXE d   1      -6.000   5.523   5.968  0.00  0.00     0.078 C 
ATOM      3  C1  OXE d   1      -5.755   5.070   4.551  0.00  0.00    -0.078 A 
ATOM      4  C2  OXE d   1      -5.710   3.716   4.319  0.00  0.00    -0.078 A 
ATOM      5  C3  OXE d   1      -5.542   3.245   3.020  0.00  0.00     0.003 A 
ATOM      6  C4  OXE d   1      -5.265   4.133   1.973  0.00  0.00    -0.002 A 
ATOM      7  C5  OXE d   1      -5.267   5.514   2.196  0.00  0.00    -0.002 A 
ATOM      8  C6  OXE d   1      -5.551   6.000   3.467  0.00  0.00     0.003 A 
ENDROOT
TORSDOF 0
ENDMDL
