MODEL 1
REMARK minimizedAffinity 3.49499822
REMARK minimizedRMSD -1
REMARK  0 active torsions:
REMARK  status: ('A' for Active; 'I' for Inactive)
ROOT
ATOM      1  C2' OXE d   1      -4.273   2.629   4.056  0.00  0.00     0.078 C 
ATOM      2  C1' OXE d   1      -5.998   4.595   5.075  0.00  0.00     0.078 C 
ATOM      3  C1  OXE d   1      -5.552   4.726   3.641  0.00  0.00    -0.078 A 
ATOM      4  C2  OXE d   1      -4.670   3.785   3.164  0.00  0.00    -0.078 A 
ATOM      5  C3  OXE d   1      -4.269   3.828   1.832  0.00  0.00     0.003 A 
ATOM      6  C4  OXE d   1      -4.634   4.906   1.017  0.00  0.00    -0.002 A 
ATOM      7  C5  OXE d   1      -5.499   5.897   1.494  0.00  0.00    -0.002 A 
ATOM      8  C6  OXE d   1      -6.000   5.798   2.787  0.00  0.00     0.003 A 
ENDROOT
TORSDOF 0
ENDMDL
