MODEL 1
REMARK minimizedAffinity -2.78012967
REMARK minimizedRMSD -1
REMARK  0 active torsions:
REMARK  status: ('A' for Active; 'I' for Inactive)
ROOT
ATOM      1  C2' OXE d   1      -5.825   5.885   5.999  0.00  0.00     0.078 C 
ATOM      2  C1' OXE d   1      -5.251   3.137   5.949  0.00  0.00     0.078 C 
ATOM      3  C1  OXE d   1      -5.145   3.902   4.653  0.00  0.00    -0.078 A 
ATOM      4  C2  OXE d   1      -5.473   5.236   4.678  0.00  0.00    -0.078 A 
ATOM      5  C3  OXE d   1      -5.339   6.000   3.522  0.00  0.00     0.003 A 
ATOM      6  C4  OXE d   1      -5.022   5.390   2.302  0.00  0.00    -0.002 A 
ATOM      7  C5  OXE d   1      -4.723   4.025   2.247  0.00  0.00    -0.002 A 
ATOM      8  C6  OXE d   1      -4.738   3.277   3.419  0.00  0.00     0.003 A 
ENDROOT
TORSDOF 0
ENDMDL
