MODEL 1
REMARK minimizedAffinity -1.36000085
REMARK minimizedRMSD -1
REMARK  0 active torsions:
REMARK  status: ('A' for Active; 'I' for Inactive)
ROOT
ATOM      1  C2' OXE d   1      -5.980   5.993   5.440  0.00  0.00     0.078 C 
ATOM      2  C1' OXE d   1      -5.947   3.189   5.582  0.00  0.00     0.078 C 
ATOM      3  C1  OXE d   1      -5.936   3.825   4.214  0.00  0.00    -0.078 A 
ATOM      4  C2  OXE d   1      -6.000   5.196   4.154  0.00  0.00    -0.078 A 
ATOM      5  C3  OXE d   1      -5.937   5.835   2.919  0.00  0.00     0.003 A 
ATOM      6  C4  OXE d   1      -5.966   5.091   1.733  0.00  0.00    -0.002 A 
ATOM      7  C5  OXE d   1      -5.942   3.693   1.772  0.00  0.00    -0.002 A 
ATOM      8  C6  OXE d   1      -5.884   3.046   3.002  0.00  0.00     0.003 A 
ENDROOT
TORSDOF 0
ENDMDL
