MODEL 1
REMARK minimizedAffinity 0.843367636
REMARK minimizedRMSD -1
REMARK  0 active torsions:
REMARK  status: ('A' for Active; 'I' for Inactive)
ROOT
ATOM      1  C2' OXE d   1      -5.714   3.015   4.652  0.00  0.00     0.078 C 
ATOM      2  C1' OXE d   1      -4.793   1.853   2.269  0.00  0.00     0.078 C 
ATOM      3  C1  OXE d   1      -5.183   3.310   2.236  0.00  0.00    -0.078 A 
ATOM      4  C2  OXE d   1      -5.677   3.858   3.396  0.00  0.00    -0.078 A 
ATOM      5  C3  OXE d   1      -6.000   5.211   3.435  0.00  0.00     0.003 A 
ATOM      6  C4  OXE d   1      -5.972   5.981   2.266  0.00  0.00    -0.002 A 
ATOM      7  C5  OXE d   1      -5.510   5.432   1.065  0.00  0.00    -0.002 A 
ATOM      8  C6  OXE d   1      -5.073   4.112   1.043  0.00  0.00     0.003 A 
ENDROOT
TORSDOF 0
ENDMDL
