MODEL 1
REMARK minimizedAffinity -3.48989654
REMARK minimizedRMSD -1
REMARK  0 active torsions:
REMARK  status: ('A' for Active; 'I' for Inactive)
ROOT
ATOM      1  C2' OXE d   1      -5.066   2.887   5.564  0.00  0.00     0.078 C 
ATOM      2  C1' OXE d   1      -6.000   5.500   5.989  0.00  0.00     0.078 C 
ATOM      3  C1  OXE d   1      -5.659   5.096   4.577  0.00  0.00    -0.078 A 
ATOM      4  C2  OXE d   1      -5.159   3.831   4.384  0.00  0.00    -0.078 A 
ATOM      5  C3  OXE d   1      -4.881   3.389   3.094  0.00  0.00     0.003 A 
ATOM      6  C4  OXE d   1      -4.960   4.271   2.009  0.00  0.00    -0.002 A 
ATOM      7  C5  OXE d   1      -5.430   5.577   2.189  0.00  0.00    -0.002 A 
ATOM      8  C6  OXE d   1      -5.823   5.991   3.457  0.00  0.00     0.003 A 
ENDROOT
TORSDOF 0
ENDMDL
