MODEL 1
REMARK minimizedAffinity -2.97894025
REMARK minimizedRMSD -1
REMARK  0 active torsions:
REMARK  status: ('A' for Active; 'I' for Inactive)
ROOT
ATOM      1  C2' OXE d   1      -5.567   5.014   5.990  0.00  0.00     0.078 C 
ATOM      2  C1' OXE d   1      -5.999   2.320   5.329  0.00  0.00     0.078 C 
ATOM      3  C1  OXE d   1      -5.903   3.315   4.200  0.00  0.00    -0.078 A 
ATOM      4  C2  OXE d   1      -5.738   4.638   4.534  0.00  0.00    -0.078 A 
ATOM      5  C3  OXE d   1      -5.588   5.589   3.530  0.00  0.00     0.003 A 
ATOM      6  C4  OXE d   1      -5.758   5.234   2.186  0.00  0.00    -0.002 A 
ATOM      7  C5  OXE d   1      -5.966   3.899   1.825  0.00  0.00    -0.002 A 
ATOM      8  C6  OXE d   1      -5.999   2.923   2.815  0.00  0.00     0.003 A 
ENDROOT
TORSDOF 0
ENDMDL
