MODEL 1
REMARK minimizedAffinity -3.41445661
REMARK minimizedRMSD -1
REMARK  0 active torsions:
REMARK  status: ('A' for Active; 'I' for Inactive)
ROOT
ATOM      1  C2' OXE d   1      -5.934   4.614   5.936  0.00  0.00     0.078 C 
ATOM      2  C1' OXE d   1      -5.197   2.280   4.562  0.00  0.00     0.078 C 
ATOM      3  C1  OXE d   1      -5.237   3.571   3.784  0.00  0.00    -0.078 A 
ATOM      4  C2  OXE d   1      -5.645   4.700   4.453  0.00  0.00    -0.078 A 
ATOM      5  C3  OXE d   1      -5.648   5.927   3.796  0.00  0.00     0.003 A 
ATOM      6  C4  OXE d   1      -5.388   5.997   2.422  0.00  0.00    -0.002 A 
ATOM      7  C5  OXE d   1      -5.010   4.852   1.712  0.00  0.00    -0.002 A 
ATOM      8  C6  OXE d   1      -4.889   3.642   2.386  0.00  0.00     0.003 A 
ENDROOT
TORSDOF 0
ENDMDL
