MODEL 1
REMARK minimizedAffinity -3.0387125
REMARK minimizedRMSD -1
REMARK  0 active torsions:
REMARK  status: ('A' for Active; 'I' for Inactive)
ROOT
ATOM      1  C2' OXE d   1      -3.484   4.521   2.284  0.00  0.00     0.078 C 
ATOM      2  C1' OXE d   1      -5.999   5.594   2.918  0.00  0.00     0.078 C 
ATOM      3  C1  OXE d   1      -5.367   4.648   3.909  0.00  0.00    -0.078 A 
ATOM      4  C2  OXE d   1      -4.157   4.092   3.569  0.00  0.00    -0.078 A 
ATOM      5  C3  OXE d   1      -3.505   3.255   4.471  0.00  0.00     0.003 A 
ATOM      6  C4  OXE d   1      -4.140   2.855   5.653  0.00  0.00    -0.002 A 
ATOM      7  C5  OXE d   1      -5.390   3.379   6.000  0.00  0.00    -0.002 A 
ATOM      8  C6  OXE d   1      -5.996   4.307   5.161  0.00  0.00     0.003 A 
ENDROOT
TORSDOF 0
ENDMDL
