MODEL 1
REMARK minimizedAffinity -2.99291158
REMARK minimizedRMSD -1
REMARK  0 active torsions:
REMARK  status: ('A' for Active; 'I' for Inactive)
ROOT
ATOM      1  C   UNL d   1       0.219  -0.517   0.629  0.00  0.00     0.172 C 
ATOM      2  N   UNL d   1       0.339  -1.434  -0.481  0.00  0.00    -0.070 N 
ATOM      3  C1  UNL d   1       1.487  -1.692  -1.183  0.00  0.00    -0.004 A 
ATOM      4  C2  UNL d   1       1.186  -2.619  -2.157  0.00  0.00    -0.047 A 
ATOM      5  C3  UNL d   1      -0.190  -2.928  -2.038  0.00  0.00    -0.047 A 
ATOM      6  C4  UNL d   1      -0.689  -2.180  -0.992  0.00  0.00    -0.004 A 
ENDROOT
TORSDOF 0
ENDMDL
