MODEL 1
REMARK minimizedAffinity -1.49541831
REMARK minimizedRMSD -1
REMARK  0 active torsions:
REMARK  status: ('A' for Active; 'I' for Inactive)
ROOT
ATOM      1  C   UNL d   1       1.307  -0.726  -0.242  0.00  0.00     0.172 C 
ATOM      2  N   UNL d   1       1.135  -1.895  -1.073  0.00  0.00    -0.070 N 
ATOM      3  C1  UNL d   1       1.975  -2.976  -1.114  0.00  0.00    -0.004 A 
ATOM      4  C2  UNL d   1       1.465  -3.873  -2.027  0.00  0.00    -0.047 A 
ATOM      5  C3  UNL d   1       0.277  -3.311  -2.553  0.00  0.00    -0.047 A 
ATOM      6  C4  UNL d   1       0.097  -2.087  -1.945  0.00  0.00    -0.004 A 
ENDROOT
TORSDOF 0
ENDMDL
