MODEL 1
REMARK minimizedAffinity -2.0938046
REMARK minimizedRMSD -1
REMARK  0 active torsions:
REMARK  status: ('A' for Active; 'I' for Inactive)
ROOT
ATOM      1  C   UNL d   1      -0.091  -0.619   0.414  0.00  0.00     0.172 C 
ATOM      2  N   UNL d   1       0.316  -1.461  -0.686  0.00  0.00    -0.070 N 
ATOM      3  C1  UNL d   1       1.260  -1.147  -1.627  0.00  0.00    -0.004 A 
ATOM      4  C2  UNL d   1       1.357  -2.208  -2.500  0.00  0.00    -0.047 A 
ATOM      5  C3  UNL d   1       0.438  -3.195  -2.070  0.00  0.00    -0.047 A 
ATOM      6  C4  UNL d   1      -0.193  -2.706  -0.946  0.00  0.00    -0.004 A 
ENDROOT
TORSDOF 0
ENDMDL
