MODEL 1
REMARK minimizedAffinity -2.51105595
REMARK minimizedRMSD -1
REMARK  0 active torsions:
REMARK  status: ('A' for Active; 'I' for Inactive)
ROOT
ATOM      1  C   UNL d   1      -0.004  -0.126   0.204  0.00  0.00     0.172 C 
ATOM      2  N   UNL d   1       0.542  -1.203  -0.588  0.00  0.00    -0.070 N 
ATOM      3  C1  UNL d   1       0.071  -2.488  -0.620  0.00  0.00    -0.004 A 
ATOM      4  C2  UNL d   1       0.860  -3.205  -1.494  0.00  0.00    -0.047 A 
ATOM      5  C3  UNL d   1       1.839  -2.320  -2.004  0.00  0.00    -0.047 A 
ATOM      6  C4  UNL d   1       1.619  -1.087  -1.426  0.00  0.00    -0.004 A 
ENDROOT
TORSDOF 0
ENDMDL
