MODEL 1
REMARK minimizedAffinity -2.94181728
REMARK minimizedRMSD -1
REMARK  0 active torsions:
REMARK  status: ('A' for Active; 'I' for Inactive)
ROOT
ATOM      1  C   UNL d   1       0.377  -2.222  -2.204  0.00  0.00     0.172 C 
ATOM      2  N   UNL d   1       0.258  -1.502  -0.958  0.00  0.00    -0.070 N 
ATOM      3  C1  UNL d   1      -0.854  -1.468  -0.159  0.00  0.00    -0.004 A 
ATOM      4  C2  UNL d   1      -0.566  -0.677   0.932  0.00  0.00    -0.047 A 
ATOM      5  C3  UNL d   1       0.764  -0.218   0.783  0.00  0.00    -0.047 A 
ATOM      6  C4  UNL d   1       1.251  -0.745  -0.395  0.00  0.00    -0.004 A 
ENDROOT
TORSDOF 0
ENDMDL
