MODEL 1
REMARK minimizedAffinity -1.6998266
REMARK minimizedRMSD -1
REMARK  0 active torsions:
REMARK  status: ('A' for Active; 'I' for Inactive)
ROOT
ATOM      1  C   UNL d   1      -1.375   0.997   1.881  0.00  0.00     0.172 C 
ATOM      2  N   UNL d   1      -0.803  -0.009   1.017  0.00  0.00    -0.070 N 
ATOM      3  C1  UNL d   1      -1.081  -1.349   1.060  0.00  0.00    -0.004 A 
ATOM      4  C2  UNL d   1      -0.337  -1.966   0.078  0.00  0.00    -0.047 A 
ATOM      5  C3  UNL d   1       0.414  -0.962  -0.577  0.00  0.00    -0.047 A 
ATOM      6  C4  UNL d   1       0.107   0.240   0.024  0.00  0.00    -0.004 A 
ENDROOT
TORSDOF 0
ENDMDL
