MODEL 1
REMARK minimizedAffinity -1.55085683
REMARK minimizedRMSD -1
REMARK  0 active torsions:
REMARK  status: ('A' for Active; 'I' for Inactive)
ROOT
ATOM      1  C   UNL d   1       1.241  -0.388  -0.240  0.00  0.00     0.172 C 
ATOM      2  N   UNL d   1       0.006  -0.235   0.493  0.00  0.00    -0.070 N 
ATOM      3  C1  UNL d   1      -0.153   0.479   1.650  0.00  0.00    -0.004 A 
ATOM      4  C2  UNL d   1      -1.474   0.379   2.030  0.00  0.00    -0.047 A 
ATOM      5  C3  UNL d   1      -2.132  -0.423   1.068  0.00  0.00    -0.047 A 
ATOM      6  C4  UNL d   1      -1.192  -0.790   0.128  0.00  0.00    -0.004 A 
ENDROOT
TORSDOF 0
ENDMDL
