MODEL 1
REMARK minimizedAffinity -2.09487534
REMARK minimizedRMSD -1
REMARK  0 active torsions:
REMARK  status: ('A' for Active; 'I' for Inactive)
ROOT
ATOM      1  C   UNL d   1       0.478  -2.241  -1.745  0.00  0.00     0.172 C 
ATOM      2  N   UNL d   1       0.123  -1.326  -0.686  0.00  0.00    -0.070 N 
ATOM      3  C1  UNL d   1      -1.108  -1.231  -0.092  0.00  0.00    -0.004 A 
ATOM      4  C2  UNL d   1      -1.038  -0.244   0.868  0.00  0.00    -0.047 A 
ATOM      5  C3  UNL d   1       0.279   0.272   0.849  0.00  0.00    -0.047 A 
ATOM      6  C4  UNL d   1       0.977  -0.415  -0.122  0.00  0.00    -0.004 A 
ENDROOT
TORSDOF 0
ENDMDL
