MODEL 1
REMARK minimizedAffinity -2.63395262
REMARK minimizedRMSD -1
REMARK  0 active torsions:
REMARK  status: ('A' for Active; 'I' for Inactive)
ROOT
ATOM      1  C   UNL d   1       0.256  -2.717  -2.108  0.00  0.00     0.172 C 
ATOM      2  N   UNL d   1       0.033  -1.875  -0.956  0.00  0.00    -0.070 N 
ATOM      3  C1  UNL d   1       0.898  -0.926  -0.481  0.00  0.00    -0.004 A 
ATOM      4  C2  UNL d   1       0.320  -0.344   0.627  0.00  0.00    -0.047 A 
ATOM      5  C3  UNL d   1      -0.935  -0.966   0.825  0.00  0.00    -0.047 A 
ATOM      6  C4  UNL d   1      -1.088  -1.910  -0.169  0.00  0.00    -0.004 A 
ENDROOT
TORSDOF 0
ENDMDL
