MODEL 1
REMARK minimizedAffinity -0.169180095
REMARK minimizedRMSD -1
REMARK  0 active torsions:
REMARK  status: ('A' for Active; 'I' for Inactive)
ROOT
ATOM      1  C   UNL d   1       0.937  -2.368  -1.547  0.00  0.00     0.172 C 
ATOM      2  N   UNL d   1       0.420  -1.367  -0.643  0.00  0.00    -0.070 N 
ATOM      3  C1  UNL d   1      -0.375  -1.608   0.445  0.00  0.00    -0.004 A 
ATOM      4  C2  UNL d   1      -0.651  -0.398   1.043  0.00  0.00    -0.047 A 
ATOM      5  C3  UNL d   1      -0.001   0.606   0.286  0.00  0.00    -0.047 A 
ATOM      6  C4  UNL d   1       0.654  -0.022  -0.752  0.00  0.00    -0.004 A 
ENDROOT
TORSDOF 0
ENDMDL
