MODEL 1
REMARK minimizedAffinity -2.11069441
REMARK minimizedRMSD -1
REMARK  0 active torsions:
REMARK  status: ('A' for Active; 'I' for Inactive)
ROOT
ATOM      1  C   UNL d   1       0.890  -2.384  -1.959  0.00  0.00     0.172 C 
ATOM      2  N   UNL d   1       0.669  -1.601  -0.766  0.00  0.00    -0.070 N 
ATOM      3  C1  UNL d   1       1.609  -0.839  -0.126  0.00  0.00    -0.004 A 
ATOM      4  C2  UNL d   1       1.004  -0.251   0.965  0.00  0.00    -0.047 A 
ATOM      5  C3  UNL d   1      -0.346  -0.675   0.980  0.00  0.00    -0.047 A 
ATOM      6  C4  UNL d   1      -0.526  -1.510  -0.102  0.00  0.00    -0.004 A 
ENDROOT
TORSDOF 0
ENDMDL
