MODEL 1
REMARK minimizedAffinity -3.88953471
REMARK minimizedRMSD -1
REMARK  0 active torsions:
REMARK  status: ('A' for Active; 'I' for Inactive)
ROOT
ATOM      1  C   UNL d   1      -1.351   1.749   1.717  0.00  0.00     0.172 C 
ATOM      2  N   UNL d   1      -0.689   1.497   0.459  0.00  0.00    -0.070 N 
ATOM      3  C1  UNL d   1      -0.047   2.434  -0.307  0.00  0.00    -0.004 A 
ATOM      4  C2  UNL d   1       0.450   1.797  -1.424  0.00  0.00    -0.047 A 
ATOM      5  C3  UNL d   1       0.093   0.431  -1.327  0.00  0.00    -0.047 A 
ATOM      6  C4  UNL d   1      -0.611   0.273  -0.152  0.00  0.00    -0.004 A 
ENDROOT
TORSDOF 0
ENDMDL
