MODEL 1
REMARK minimizedAffinity -2.01189733
REMARK minimizedRMSD -1
REMARK  0 active torsions:
REMARK  status: ('A' for Active; 'I' for Inactive)
ROOT
ATOM      1  C   UNL d   1      -1.053   1.396   2.349  0.00  0.00     0.172 C 
ATOM      2  N   UNL d   1      -0.367   0.590   1.367  0.00  0.00    -0.070 N 
ATOM      3  C1  UNL d   1      -0.205  -0.769   1.422  0.00  0.00    -0.004 A 
ATOM      4  C2  UNL d   1       0.499  -1.156   0.302  0.00  0.00    -0.047 A 
ATOM      5  C3  UNL d   1       0.771   0.011  -0.451  0.00  0.00    -0.047 A 
ATOM      6  C4  UNL d   1       0.223   1.077   0.231  0.00  0.00    -0.004 A 
ENDROOT
TORSDOF 0
ENDMDL
