MODEL 1
REMARK minimizedAffinity -2.53202748
REMARK minimizedRMSD -1
REMARK  0 active torsions:
REMARK  status: ('A' for Active; 'I' for Inactive)
ROOT
ATOM      1  C   UNL d   1       0.485   2.005  -1.335  0.00  0.00     0.172 C 
ATOM      2  N   UNL d   1       0.191   0.749  -0.685  0.00  0.00    -0.070 N 
ATOM      3  C1  UNL d   1      -0.059   0.581   0.651  0.00  0.00    -0.004 A 
ATOM      4  C2  UNL d   1      -0.293  -0.759   0.871  0.00  0.00    -0.047 A 
ATOM      5  C3  UNL d   1      -0.179  -1.419  -0.376  0.00  0.00    -0.047 A 
ATOM      6  C4  UNL d   1       0.121  -0.462  -1.322  0.00  0.00    -0.004 A 
ENDROOT
TORSDOF 0
ENDMDL
