MODEL 1
REMARK minimizedAffinity -2.99194145
REMARK minimizedRMSD -1
REMARK  2 active torsions:
REMARK  status: ('A' for Active; 'I' for Inactive)
REMARK    1  A    between atoms: C2'_3  and  C1'_4 
REMARK    2  A    between atoms: C1'_4  and  C1_5 
ROOT
ATOM      1  C1  I4B d   1       0.834   0.239  -0.305  0.00  0.00    -0.075 A 
ATOM      2  C2  I4B d   1       1.534  -0.328   0.730  0.00  0.00     0.003 A 
ATOM      3  C3  I4B d   1       1.373  -1.702   1.031  0.00  0.00     0.002 A 
ATOM      4  C4  I4B d   1       0.469  -2.455   0.309  0.00  0.00    -0.004 A 
ATOM      5  C5  I4B d   1      -0.223  -1.883  -0.755  0.00  0.00     0.002 A 
ATOM      6  C6  I4B d   1      -0.031  -0.530  -1.072  0.00  0.00     0.003 A 
ENDROOT
BRANCH   1   7
ATOM      7  C1' I4B d   1       1.004   1.701  -0.574  0.00  0.00     0.060 C 
BRANCH   7   8
ATOM      8  C2' I4B d   1       2.454   2.057  -0.319  0.00  0.00    -0.013 C 
ATOM      9  C4' I4B d   1       3.320   1.694  -1.497  0.00  0.00     0.013 C 
ATOM     10  C3' I4B d   1       2.526   3.526  -0.026  0.00  0.00     0.013 C 
ENDBRANCH   7   8
ENDBRANCH   1   7
TORSDOF 2
ENDMDL
