MODEL 1
REMARK minimizedAffinity -3.32400608
REMARK minimizedRMSD -1
REMARK  2 active torsions:
REMARK  status: ('A' for Active; 'I' for Inactive)
REMARK    1  A    between atoms: C2'_3  and  C1'_4 
REMARK    2  A    between atoms: C1'_4  and  C1_5 
ROOT
ATOM      1  C1  I4B d   1       1.438   2.036  -0.016  0.00  0.00    -0.075 A 
ATOM      2  C2  I4B d   1       0.377   2.822   0.360  0.00  0.00     0.003 A 
ATOM      3  C3  I4B d   1       0.588   4.167   0.749  0.00  0.00     0.002 A 
ATOM      4  C4  I4B d   1       1.874   4.667   0.795  0.00  0.00    -0.004 A 
ATOM      5  C5  I4B d   1       2.946   3.876   0.392  0.00  0.00     0.002 A 
ATOM      6  C6  I4B d   1       2.726   2.556  -0.028  0.00  0.00     0.003 A 
ENDROOT
BRANCH   1   7
ATOM      7  C1' I4B d   1       1.183   0.610  -0.389  0.00  0.00     0.060 C 
BRANCH   7   8
ATOM      8  C2' I4B d   1      -0.261   0.293  -0.057  0.00  0.00    -0.013 C 
ATOM      9  C4' I4B d   1      -1.127   0.343  -1.288  0.00  0.00     0.013 C 
ATOM     10  C3' I4B d   1      -0.302  -1.065   0.579  0.00  0.00     0.013 C 
ENDBRANCH   7   8
ENDBRANCH   1   7
TORSDOF 2
ENDMDL
