MODEL 1
REMARK minimizedAffinity -3.77220321
REMARK minimizedRMSD -1
REMARK  2 active torsions:
REMARK  status: ('A' for Active; 'I' for Inactive)
REMARK    1  A    between atoms: C2'_3  and  C1'_4 
REMARK    2  A    between atoms: C1'_4  and  C1_5 
ROOT
ATOM      1  C1  I4B d   1       0.378   1.308  -0.123  0.00  0.00    -0.075 A 
ATOM      2  C2  I4B d   1      -0.331   2.475   0.015  0.00  0.00     0.003 A 
ATOM      3  C3  I4B d   1       0.346   3.698   0.241  0.00  0.00     0.002 A 
ATOM      4  C4  I4B d   1       1.720   3.700   0.372  0.00  0.00    -0.004 A 
ATOM      5  C5  I4B d   1       2.439   2.520   0.209  0.00  0.00     0.002 A 
ATOM      6  C6  I4B d   1       1.765   1.318  -0.053  0.00  0.00     0.003 A 
ENDROOT
BRANCH   1   7
ATOM      7  C1' I4B d   1      -0.371   0.029  -0.329  0.00  0.00     0.060 C 
BRANCH   7   8
ATOM      8  C2' I4B d   1      -0.438  -0.691   1.002  0.00  0.00    -0.013 C 
ATOM      9  C4' I4B d   1      -1.610  -0.217   1.821  0.00  0.00     0.013 C 
ATOM     10  C3' I4B d   1      -0.529  -2.163   0.728  0.00  0.00     0.013 C 
ENDBRANCH   7   8
ENDBRANCH   1   7
TORSDOF 2
ENDMDL
