MODEL 1
REMARK minimizedAffinity -0.455691546
REMARK minimizedRMSD -1
REMARK  2 active torsions:
REMARK  status: ('A' for Active; 'I' for Inactive)
REMARK    1  A    between atoms: C2'_3  and  C1'_4 
REMARK    2  A    between atoms: C1'_4  and  C1_5 
ROOT
ATOM      1  C1  I4B d   1      -1.712   1.150  -1.502  0.00  0.00    -0.075 A 
ATOM      2  C2  I4B d   1      -0.908   1.452  -2.573  0.00  0.00     0.003 A 
ATOM      3  C3  I4B d   1      -1.447   1.482  -3.882  0.00  0.00     0.002 A 
ATOM      4  C4  I4B d   1      -2.773   1.155  -4.079  0.00  0.00    -0.004 A 
ATOM      5  C5  I4B d   1      -3.592   0.872  -2.989  0.00  0.00     0.002 A 
ATOM      6  C6  I4B d   1      -3.061   0.881  -1.691  0.00  0.00     0.003 A 
ENDROOT
BRANCH   1   7
ATOM      7  C1' I4B d   1      -1.103   1.095  -0.137  0.00  0.00     0.060 C 
BRANCH   7   8
ATOM      8  C2' I4B d   1      -0.570  -0.307   0.081  0.00  0.00    -0.013 C 
ATOM      9  C4' I4B d   1       0.932  -0.341  -0.021  0.00  0.00     0.013 C 
ATOM     10  C3' I4B d   1      -1.032  -0.773   1.429  0.00  0.00     0.013 C 
ENDBRANCH   7   8
ENDBRANCH   1   7
TORSDOF 2
ENDMDL
