MODEL 1
REMARK minimizedAffinity -3.32546306
REMARK minimizedRMSD -1
REMARK  2 active torsions:
REMARK  status: ('A' for Active; 'I' for Inactive)
REMARK    1  A    between atoms: C2'_3  and  C1'_4 
REMARK    2  A    between atoms: C1'_4  and  C1_5 
ROOT
ATOM      1  C1  I4B d   1      -1.663   0.996  -1.624  0.00  0.00    -0.075 A 
ATOM      2  C2  I4B d   1      -1.432   2.173  -2.291  0.00  0.00     0.003 A 
ATOM      3  C3  I4B d   1      -1.932   2.357  -3.603  0.00  0.00     0.002 A 
ATOM      4  C4  I4B d   1      -2.608   1.327  -4.224  0.00  0.00    -0.004 A 
ATOM      5  C5  I4B d   1      -2.860   0.143  -3.537  0.00  0.00     0.002 A 
ATOM      6  C6  I4B d   1      -2.395  -0.019  -2.224  0.00  0.00     0.003 A 
ENDROOT
BRANCH   1   7
ATOM      7  C1' I4B d   1      -1.093   0.822  -0.252  0.00  0.00     0.060 C 
BRANCH   7   8
ATOM      8  C2' I4B d   1      -0.736  -0.640  -0.076  0.00  0.00    -0.013 C 
ATOM      9  C4' I4B d   1       0.742  -0.866  -0.254  0.00  0.00     0.013 C 
ATOM     10  C3' I4B d   1      -1.188  -1.065   1.289  0.00  0.00     0.013 C 
ENDBRANCH   7   8
ENDBRANCH   1   7
TORSDOF 2
ENDMDL
