MODEL 1
REMARK minimizedAffinity -3.45350575
REMARK minimizedRMSD -1
REMARK  2 active torsions:
REMARK  status: ('A' for Active; 'I' for Inactive)
REMARK    1  A    between atoms: C2'_3  and  C1'_4 
REMARK    2  A    between atoms: C1'_4  and  C1_5 
ROOT
ATOM      1  C1  I4B d   1       0.640   1.369  -0.190  0.00  0.00    -0.075 A 
ATOM      2  C2  I4B d   1       1.573   0.366  -0.279  0.00  0.00     0.003 A 
ATOM      3  C3  I4B d   1       1.233  -0.958   0.090  0.00  0.00     0.002 A 
ATOM      4  C4  I4B d   1      -0.027  -1.223   0.586  0.00  0.00    -0.004 A 
ATOM      5  C5  I4B d   1      -0.979  -0.209   0.653  0.00  0.00     0.002 A 
ATOM      6  C6  I4B d   1      -0.647   1.093   0.251  0.00  0.00     0.003 A 
ENDROOT
BRANCH   1   7
ATOM      7  C1' I4B d   1       1.043   2.763  -0.557  0.00  0.00     0.060 C 
BRANCH   7   8
ATOM      8  C2' I4B d   1       1.900   3.311   0.566  0.00  0.00    -0.013 C 
ATOM      9  C4' I4B d   1       3.276   3.673   0.074  0.00  0.00     0.013 C 
ATOM     10  C3' I4B d   1       1.199   4.506   1.141  0.00  0.00     0.013 C 
ENDBRANCH   7   8
ENDBRANCH   1   7
TORSDOF 2
ENDMDL
