MODEL 1
REMARK minimizedAffinity -4.08156157
REMARK minimizedRMSD -1
REMARK  2 active torsions:
REMARK  status: ('A' for Active; 'I' for Inactive)
REMARK    1  A    between atoms: C2'_3  and  C1'_4 
REMARK    2  A    between atoms: C1'_4  and  C1_5 
ROOT
ATOM      1  C1  I4B d   1       0.885   1.172  -0.417  0.00  0.00    -0.075 A 
ATOM      2  C2  I4B d   1       0.444   2.409  -0.019  0.00  0.00     0.003 A 
ATOM      3  C3  I4B d   1       1.348   3.496   0.062  0.00  0.00     0.002 A 
ATOM      4  C4  I4B d   1       2.685   3.290  -0.213  0.00  0.00    -0.004 A 
ATOM      5  C5  I4B d   1       3.126   2.040  -0.638  0.00  0.00     0.002 A 
ATOM      6  C6  I4B d   1       2.218   0.977  -0.753  0.00  0.00     0.003 A 
ENDROOT
BRANCH   1   7
ATOM      7  C1' I4B d   1      -0.090   0.038  -0.460  0.00  0.00     0.060 C 
BRANCH   7   8
ATOM      8  C2' I4B d   1      -0.027  -0.683   0.871  0.00  0.00    -0.013 C 
ATOM      9  C4' I4B d   1      -1.173  -0.283   1.763  0.00  0.00     0.013 C 
ATOM     10  C3' I4B d   1      -0.041  -2.158   0.600  0.00  0.00     0.013 C 
ENDBRANCH   7   8
ENDBRANCH   1   7
TORSDOF 2
ENDMDL
