MODEL 1
REMARK minimizedAffinity -1.42706227
REMARK minimizedRMSD -1
REMARK  2 active torsions:
REMARK  status: ('A' for Active; 'I' for Inactive)
REMARK    1  A    between atoms: C2'_3  and  C1'_4 
REMARK    2  A    between atoms: C1'_4  and  C1_5 
ROOT
ATOM      1  C1  I4B d   1      -1.127  -0.306   0.448  0.00  0.00    -0.075 A 
ATOM      2  C2  I4B d   1      -0.027  -0.849  -0.168  0.00  0.00     0.003 A 
ATOM      3  C3  I4B d   1       0.711  -1.877   0.467  0.00  0.00     0.002 A 
ATOM      4  C4  I4B d   1       0.346  -2.293   1.731  0.00  0.00    -0.004 A 
ATOM      5  C5  I4B d   1      -0.783  -1.758   2.344  0.00  0.00     0.002 A 
ATOM      6  C6  I4B d   1      -1.532  -0.766   1.694  0.00  0.00     0.003 A 
ENDROOT
BRANCH   1   7
ATOM      7  C1' I4B d   1      -1.863   0.801  -0.238  0.00  0.00     0.060 C 
BRANCH   7   8
ATOM      8  C2' I4B d   1      -0.914   1.454  -1.223  0.00  0.00    -0.013 C 
ATOM      9  C4' I4B d   1      -1.659   2.026  -2.400  0.00  0.00     0.013 C 
ATOM     10  C3' I4B d   1      -0.152   2.519  -0.494  0.00  0.00     0.013 C 
ENDBRANCH   7   8
ENDBRANCH   1   7
TORSDOF 2
ENDMDL
