MODEL 1
REMARK minimizedAffinity -3.61861944
REMARK minimizedRMSD -1
REMARK  2 active torsions:
REMARK  status: ('A' for Active; 'I' for Inactive)
REMARK    1  A    between atoms: C2'_3  and  C1'_4 
REMARK    2  A    between atoms: C1'_4  and  C1_5 
ROOT
ATOM      1  C1  I4B d   1       1.172   0.427  -0.211  0.00  0.00    -0.075 A 
ATOM      2  C2  I4B d   1       2.189  -0.488  -0.327  0.00  0.00     0.003 A 
ATOM      3  C3  I4B d   1       2.042  -1.789   0.214  0.00  0.00     0.002 A 
ATOM      4  C4  I4B d   1       0.891  -2.113   0.901  0.00  0.00    -0.004 A 
ATOM      5  C5  I4B d   1      -0.148  -1.192   0.998  0.00  0.00     0.002 A 
ATOM      6  C6  I4B d   1      -0.012   0.082   0.428  0.00  0.00     0.003 A 
ENDROOT
BRANCH   1   7
ATOM      7  C1' I4B d   1       1.373   1.802  -0.764  0.00  0.00     0.060 C 
BRANCH   7   8
ATOM      8  C2' I4B d   1       2.439   2.488   0.065  0.00  0.00    -0.013 C 
ATOM      9  C4' I4B d   1       3.716   2.652  -0.717  0.00  0.00     0.013 C 
ATOM     10  C3' I4B d   1       1.900   3.816   0.506  0.00  0.00     0.013 C 
ENDBRANCH   7   8
ENDBRANCH   1   7
TORSDOF 2
ENDMDL
