MODEL 1
REMARK minimizedAffinity -1.55440784
REMARK minimizedRMSD -1
REMARK  2 active torsions:
REMARK  status: ('A' for Active; 'I' for Inactive)
REMARK    1  A    between atoms: C2'_3  and  C1'_4 
REMARK    2  A    between atoms: C1'_4  and  C1_5 
ROOT
ATOM      1  C1  I4B d   1      -0.101  -1.404   0.661  0.00  0.00    -0.075 A 
ATOM      2  C2  I4B d   1       0.030  -0.141   0.138  0.00  0.00     0.003 A 
ATOM      3  C3  I4B d   1      -0.743   0.927   0.653  0.00  0.00     0.002 A 
ATOM      4  C4  I4B d   1      -1.665   0.681   1.649  0.00  0.00    -0.004 A 
ATOM      5  C5  I4B d   1      -1.781  -0.595   2.194  0.00  0.00     0.002 A 
ATOM      6  C6  I4B d   1      -0.985  -1.642   1.705  0.00  0.00     0.003 A 
ENDROOT
BRANCH   1   7
ATOM      7  C1' I4B d   1       0.707  -2.516   0.071  0.00  0.00     0.060 C 
BRANCH   7   8
ATOM      8  C2' I4B d   1       1.861  -2.803   1.010  0.00  0.00    -0.013 C 
ATOM      9  C4' I4B d   1       2.374  -1.538   1.647  0.00  0.00     0.013 C 
ATOM     10  C3' I4B d   1       1.383  -3.775   2.047  0.00  0.00     0.013 C 
ENDBRANCH   7   8
ENDBRANCH   1   7
TORSDOF 2
ENDMDL
