MODEL 1
REMARK minimizedAffinity 3.65482879
REMARK minimizedRMSD -1
REMARK  0 active torsions:
REMARK  status: ('A' for Active; 'I' for Inactive)
ROOT
ATOM      1  N1  IND d   1       0.519  -2.939   4.000  0.00  0.00    -0.196 N 
ATOM      2  C2  IND d   1       1.667  -2.270   4.320  0.00  0.00     0.054 A 
ATOM      3  C3  IND d   1       1.651  -1.027   3.788  0.00  0.00    -0.031 A 
ATOM      4  C4  IND d   1      -0.201   0.152   2.444  0.00  0.00     0.051 A 
ATOM      5  C5  IND d   1      -1.422  -0.067   1.870  0.00  0.00    -0.031 A 
ATOM      6  C6  IND d   1      -2.072  -1.279   1.981  0.00  0.00     0.015 A 
ATOM      7  C7  IND d   1      -1.529  -2.317   2.683  0.00  0.00    -0.016 A 
ATOM      8  C8  IND d   1      -0.286  -2.100   3.261  0.00  0.00    -0.047 A 
ATOM      9  C9  IND d   1       0.398  -0.887   3.116  0.00  0.00    -0.096 A 
ATOM     10  HN1 IND d   1       0.331  -3.748   4.222  0.00  0.00     0.298 HD
ENDROOT
TORSDOF 0
ENDMDL
