MODEL 1
REMARK minimizedAffinity 7.28688526
REMARK minimizedRMSD -1
REMARK  0 active torsions:
REMARK  status: ('A' for Active; 'I' for Inactive)
ROOT
ATOM      1  N1  IND d   1       2.079  -1.884   2.226  0.00  0.00    -0.196 N 
ATOM      2  C2  IND d   1       0.783  -1.458   2.136  0.00  0.00     0.054 A 
ATOM      3  C3  IND d   1       0.420  -0.815   3.269  0.00  0.00    -0.031 A 
ATOM      4  C4  IND d   1       1.822  -0.259   5.355  0.00  0.00     0.051 A 
ATOM      5  C5  IND d   1       3.049  -0.472   5.916  0.00  0.00    -0.031 A 
ATOM      6  C6  IND d   1       4.037  -1.179   5.262  0.00  0.00     0.015 A 
ATOM      7  C7  IND d   1       3.837  -1.692   4.011  0.00  0.00    -0.016 A 
ATOM      8  C8  IND d   1       2.589  -1.483   3.441  0.00  0.00    -0.047 A 
ATOM      9  C9  IND d   1       1.569  -0.803   4.118  0.00  0.00    -0.096 A 
ATOM     10  HN1 IND d   1       2.504  -2.328   1.624  0.00  0.00     0.298 HD
ENDROOT
TORSDOF 0
ENDMDL
