MODEL 1
REMARK minimizedAffinity 8.24639797
REMARK minimizedRMSD -1
REMARK  0 active torsions:
REMARK  status: ('A' for Active; 'I' for Inactive)
ROOT
ATOM      1  N1  IND d   1       2.489  -3.032  -2.619  0.00  0.00    -0.196 N 
ATOM      2  C2  IND d   1       1.370  -3.760  -2.322  0.00  0.00     0.054 A 
ATOM      3  C3  IND d   1       0.395  -3.514  -3.226  0.00  0.00    -0.031 A 
ATOM      4  C4  IND d   1       0.453  -2.033  -5.331  0.00  0.00     0.051 A 
ATOM      5  C5  IND d   1       1.244  -1.141  -6.000  0.00  0.00    -0.031 A 
ATOM      6  C6  IND d   1       2.517  -0.830  -5.568  0.00  0.00     0.015 A 
ATOM      7  C7  IND d   1       3.054  -1.411  -4.454  0.00  0.00    -0.016 A 
ATOM      8  C8  IND d   1       2.250  -2.311  -3.768  0.00  0.00    -0.047 A 
ATOM      9  C9  IND d   1       0.941  -2.598  -4.177  0.00  0.00    -0.096 A 
ATOM     10  HN1 IND d   1       3.218  -3.026  -2.164  0.00  0.00     0.298 HD
ENDROOT
TORSDOF 0
ENDMDL
