MODEL 1
REMARK minimizedAffinity -1.73055768
REMARK minimizedRMSD -1
REMARK  0 active torsions:
REMARK  status: ('A' for Active; 'I' for Inactive)
ROOT
ATOM      1  N1  IND d   1      -0.640  -0.578  -5.110  0.00  0.00    -0.196 N 
ATOM      2  C2  IND d   1      -1.626  -1.392  -5.593  0.00  0.00     0.054 A 
ATOM      3  C3  IND d   1      -1.628  -2.571  -4.932  0.00  0.00    -0.031 A 
ATOM      4  C4  IND d   1      -0.170  -3.341  -2.955  0.00  0.00     0.051 A 
ATOM      5  C5  IND d   1       0.894  -2.957  -2.188  0.00  0.00    -0.031 A 
ATOM      6  C6  IND d   1       1.512  -1.735  -2.357  0.00  0.00     0.015 A 
ATOM      7  C7  IND d   1       1.079  -0.842  -3.297  0.00  0.00    -0.016 A 
ATOM      8  C8  IND d   1       0.003  -1.231  -4.082  0.00  0.00    -0.047 A 
ATOM      9  C9  IND d   1      -0.601  -2.487  -3.944  0.00  0.00    -0.096 A 
ATOM     10  HN1 IND d   1      -0.454   0.210  -5.399  0.00  0.00     0.298 HD
ENDROOT
TORSDOF 0
ENDMDL
