MODEL 1
REMARK minimizedAffinity 6.21674252
REMARK minimizedRMSD -1
REMARK  0 active torsions:
REMARK  status: ('A' for Active; 'I' for Inactive)
ROOT
ATOM      1  N1  IND d   1       4.113  -0.127   4.301  0.00  0.00    -0.196 N 
ATOM      2  C2  IND d   1       4.205  -0.877   5.440  0.00  0.00     0.054 A 
ATOM      3  C3  IND d   1       3.191  -1.769   5.499  0.00  0.00    -0.031 A 
ATOM      4  C4  IND d   1       1.327  -2.241   3.788  0.00  0.00     0.051 A 
ATOM      5  C5  IND d   1       0.807  -1.787   2.609  0.00  0.00    -0.031 A 
ATOM      6  C6  IND d   1       1.376  -0.737   1.917  0.00  0.00     0.015 A 
ATOM      7  C7  IND d   1       2.497  -0.106   2.377  0.00  0.00    -0.016 A 
ATOM      8  C8  IND d   1       3.024  -0.560   3.578  0.00  0.00    -0.047 A 
ATOM      9  C9  IND d   1       2.426  -1.598   4.305  0.00  0.00    -0.096 A 
ATOM     10  HN1 IND d   1       4.646   0.509   4.074  0.00  0.00     0.298 HD
ENDROOT
TORSDOF 0
ENDMDL
