MODEL 1
REMARK minimizedAffinity 8.41683674
REMARK minimizedRMSD -1
REMARK  0 active torsions:
REMARK  status: ('A' for Active; 'I' for Inactive)
ROOT
ATOM      1  N1  IND d   1      -1.500   4.153   1.646  0.00  0.00    -0.196 N 
ATOM      2  C2  IND d   1      -0.784   5.152   2.245  0.00  0.00     0.054 A 
ATOM      3  C3  IND d   1      -0.290   6.000   1.314  0.00  0.00    -0.031 A 
ATOM      4  C4  IND d   1      -0.619   5.997  -1.239  0.00  0.00     0.051 A 
ATOM      5  C5  IND d   1      -1.165   5.262  -2.254  0.00  0.00    -0.031 A 
ATOM      6  C6  IND d   1      -1.867   4.099  -2.016  0.00  0.00     0.015 A 
ATOM      7  C7  IND d   1      -2.060   3.630  -0.747  0.00  0.00    -0.016 A 
ATOM      8  C8  IND d   1      -1.501   4.370   0.285  0.00  0.00    -0.047 A 
ATOM      9  C9  IND d   1      -0.751   5.529   0.047  0.00  0.00    -0.096 A 
ATOM     10  HN1 IND d   1      -1.885   3.500   2.051  0.00  0.00     0.298 HD
ENDROOT
TORSDOF 0
ENDMDL
