MODEL 1
REMARK minimizedAffinity 8.02397251
REMARK minimizedRMSD -1
REMARK  0 active torsions:
REMARK  status: ('A' for Active; 'I' for Inactive)
ROOT
ATOM      1  N1  IND d   1       2.363   3.053   0.818  0.00  0.00    -0.196 N 
ATOM      2  C2  IND d   1       1.208   3.735   1.081  0.00  0.00     0.054 A 
ATOM      3  C3  IND d   1       0.306   2.920   1.673  0.00  0.00    -0.031 A 
ATOM      4  C4  IND d   1       0.549   0.461   2.396  0.00  0.00     0.051 A 
ATOM      5  C5  IND d   1       1.408  -0.600   2.334  0.00  0.00    -0.031 A 
ATOM      6  C6  IND d   1       2.656  -0.494   1.754  0.00  0.00     0.015 A 
ATOM      7  C7  IND d   1       3.097   0.684   1.223  0.00  0.00    -0.016 A 
ATOM      8  C8  IND d   1       2.225   1.762   1.277  0.00  0.00    -0.047 A 
ATOM      9  C9  IND d   1       0.941   1.650   1.826  0.00  0.00    -0.096 A 
ATOM     10  HN1 IND d   1       3.059   3.376   0.430  0.00  0.00     0.298 HD
ENDROOT
TORSDOF 0
ENDMDL
