MODEL 1
REMARK minimizedAffinity -3.74349046
REMARK minimizedRMSD -1
REMARK  0 active torsions:
REMARK  status: ('A' for Active; 'I' for Inactive)
ROOT
ATOM      1  N1  IND d   1      -0.242  -2.903  -5.620  0.00  0.00    -0.196 N 
ATOM      2  C2  IND d   1      -0.383  -1.718  -4.953  0.00  0.00     0.054 A 
ATOM      3  C3  IND d   1      -0.258  -1.911  -3.621  0.00  0.00    -0.031 A 
ATOM      4  C4  IND d   1       0.280  -4.069  -2.324  0.00  0.00     0.051 A 
ATOM      5  C5  IND d   1       0.459  -5.412  -2.496  0.00  0.00    -0.031 A 
ATOM      6  C6  IND d   1       0.415  -6.000  -3.744  0.00  0.00     0.015 A 
ATOM      7  C7  IND d   1       0.201  -5.260  -4.872  0.00  0.00    -0.016 A 
ATOM      8  C8  IND d   1       0.012  -3.896  -4.701  0.00  0.00    -0.047 A 
ATOM      9  C9  IND d   1       0.013  -3.301  -3.433  0.00  0.00    -0.096 A 
ATOM     10  HN1 IND d   1      -0.302  -3.009  -6.472  0.00  0.00     0.298 HD
ENDROOT
TORSDOF 0
ENDMDL
