MODEL 1
REMARK minimizedAffinity 4.90663099
REMARK minimizedRMSD -1
REMARK  0 active torsions:
REMARK  status: ('A' for Active; 'I' for Inactive)
ROOT
ATOM      1  C   UNL d   1       1.606  -3.253  -0.499  0.00  0.00     0.023 A 
ATOM      2  C1  UNL d   1       2.234  -2.843   0.676  0.00  0.00     0.003 A 
ATOM      3  C2  UNL d   1       2.968  -1.655   0.699  0.00  0.00     0.048 A 
ATOM      4  C3  UNL d   1       3.069  -0.882  -0.457  0.00  0.00     0.023 A 
ATOM      5  C4  UNL d   1       2.441  -1.289  -1.636  0.00  0.00     0.048 A 
ATOM      6  C5  UNL d   1       1.709  -2.478  -1.654  0.00  0.00     0.003 A 
ATOM      7  I   UNL d   1       4.160   0.886  -0.426  0.00  0.00    -0.146 I 
ENDROOT
TORSDOF 0
ENDMDL
