MODEL 1
REMARK minimizedAffinity 5.33157682
REMARK minimizedRMSD -1
REMARK  0 active torsions:
REMARK  status: ('A' for Active; 'I' for Inactive)
ROOT
ATOM      1  C   UNL d   1      -4.841   0.746  -5.097  0.00  0.00     0.023 A 
ATOM      2  C1  UNL d   1      -4.914  -0.022  -3.935  0.00  0.00     0.003 A 
ATOM      3  C2  UNL d   1      -3.780  -0.196  -3.139  0.00  0.00     0.048 A 
ATOM      4  C3  UNL d   1      -2.576   0.403  -3.511  0.00  0.00     0.023 A 
ATOM      5  C4  UNL d   1      -2.499   1.173  -4.672  0.00  0.00     0.048 A 
ATOM      6  C5  UNL d   1      -3.636   1.343  -5.465  0.00  0.00     0.003 A 
ATOM      7  I   UNL d   1      -0.887   0.146  -2.328  0.00  0.00    -0.146 I 
ENDROOT
TORSDOF 0
ENDMDL
