MODEL 1
REMARK minimizedAffinity 8.36408329
REMARK minimizedRMSD -1
REMARK  0 active torsions:
REMARK  status: ('A' for Active; 'I' for Inactive)
ROOT
ATOM      1  C   UNL d   1       4.478   0.916  -0.772  0.00  0.00     0.023 A 
ATOM      2  C1  UNL d   1       4.886   0.036  -1.774  0.00  0.00     0.003 A 
ATOM      3  C2  UNL d   1       4.167  -1.138  -2.010  0.00  0.00     0.048 A 
ATOM      4  C3  UNL d   1       3.040  -1.424  -1.240  0.00  0.00     0.023 A 
ATOM      5  C4  UNL d   1       2.627  -0.546  -0.237  0.00  0.00     0.048 A 
ATOM      6  C5  UNL d   1       3.350   0.626  -0.004  0.00  0.00     0.003 A 
ATOM      7  I   UNL d   1       1.968  -3.170  -1.589  0.00  0.00    -0.146 I 
ENDROOT
TORSDOF 0
ENDMDL
