MODEL 1
REMARK minimizedAffinity 14.3857355
REMARK minimizedRMSD -1
REMARK  0 active torsions:
REMARK  status: ('A' for Active; 'I' for Inactive)
ROOT
ATOM      1  C   UNL d   1      -5.999   2.456  -2.637  0.00  0.00     0.023 A 
ATOM      2  C1  UNL d   1      -5.760   1.102  -2.874  0.00  0.00     0.003 A 
ATOM      3  C2  UNL d   1      -4.827   0.715  -3.839  0.00  0.00     0.048 A 
ATOM      4  C3  UNL d   1      -4.137   1.687  -4.562  0.00  0.00     0.023 A 
ATOM      5  C4  UNL d   1      -4.373   3.043  -4.328  0.00  0.00     0.048 A 
ATOM      6  C5  UNL d   1      -5.307   3.425  -3.364  0.00  0.00     0.003 A 
ATOM      7  I   UNL d   1      -2.748   1.113  -5.998  0.00  0.00    -0.146 I 
ENDROOT
TORSDOF 0
ENDMDL
