MODEL 1
REMARK minimizedAffinity 18.4104023
REMARK minimizedRMSD -1
REMARK  0 active torsions:
REMARK  status: ('A' for Active; 'I' for Inactive)
ROOT
ATOM      1  C   UNL d   1       0.658  -5.925   5.973  0.00  0.00     0.023 A 
ATOM      2  C1  UNL d   1       1.915  -5.321   6.000  0.00  0.00     0.003 A 
ATOM      3  C2  UNL d   1       2.134  -4.131   5.303  0.00  0.00     0.048 A 
ATOM      4  C3  UNL d   1       1.091  -3.549   4.583  0.00  0.00     0.023 A 
ATOM      5  C4  UNL d   1      -0.169  -4.150   4.554  0.00  0.00     0.048 A 
ATOM      6  C5  UNL d   1      -0.383  -5.340   5.251  0.00  0.00     0.003 A 
ATOM      7  I   UNL d   1       1.414  -1.778   3.546  0.00  0.00    -0.146 I 
ENDROOT
TORSDOF 0
ENDMDL
