MODEL 1
REMARK minimizedAffinity 9.41125488
REMARK minimizedRMSD -1
REMARK  0 active torsions:
REMARK  status: ('A' for Active; 'I' for Inactive)
ROOT
ATOM      1  C   UNL d   1      -1.108   0.979   0.940  0.00  0.00     0.023 A 
ATOM      2  C1  UNL d   1      -1.669   2.203   0.575  0.00  0.00     0.003 A 
ATOM      3  C2  UNL d   1      -1.183   3.389   1.129  0.00  0.00     0.048 A 
ATOM      4  C3  UNL d   1      -0.134   3.344   2.047  0.00  0.00     0.023 A 
ATOM      5  C4  UNL d   1       0.431   2.122   2.415  0.00  0.00     0.048 A 
ATOM      6  C5  UNL d   1      -0.059   0.939   1.859  0.00  0.00     0.003 A 
ATOM      7  I   UNL d   1       0.591   5.108   2.873  0.00  0.00    -0.146 I 
ENDROOT
TORSDOF 0
ENDMDL
