MODEL 1
REMARK minimizedAffinity 9.53008652
REMARK minimizedRMSD -1
REMARK  0 active torsions:
REMARK  status: ('A' for Active; 'I' for Inactive)
ROOT
ATOM      1  C   UNL d   1      -0.637  -5.048   6.000  0.00  0.00     0.023 A 
ATOM      2  C1  UNL d   1       0.727  -5.144   5.724  0.00  0.00     0.003 A 
ATOM      3  C2  UNL d   1       1.296  -4.353   4.724  0.00  0.00     0.048 A 
ATOM      4  C3  UNL d   1       0.495  -3.468   4.003  0.00  0.00     0.023 A 
ATOM      5  C4  UNL d   1      -0.870  -3.368   4.276  0.00  0.00     0.048 A 
ATOM      6  C5  UNL d   1      -1.435  -4.162   5.277  0.00  0.00     0.003 A 
ATOM      7  I   UNL d   1       1.339  -2.290   2.514  0.00  0.00    -0.146 I 
ENDROOT
TORSDOF 0
ENDMDL
