MODEL 1
REMARK minimizedAffinity 3.70797205
REMARK minimizedRMSD -1
REMARK  0 active torsions:
REMARK  status: ('A' for Active; 'I' for Inactive)
ROOT
ATOM      1  C   UNL d   1      -2.170  -0.639   2.608  0.00  0.00     0.023 A 
ATOM      2  C1  UNL d   1      -1.019  -1.333   2.981  0.00  0.00     0.003 A 
ATOM      3  C2  UNL d   1       0.008  -1.533   2.056  0.00  0.00     0.048 A 
ATOM      4  C3  UNL d   1      -0.122  -1.034   0.760  0.00  0.00     0.023 A 
ATOM      5  C4  UNL d   1      -1.271  -0.338   0.383  0.00  0.00     0.048 A 
ATOM      6  C5  UNL d   1      -2.296  -0.142   1.311  0.00  0.00     0.003 A 
ATOM      7  I   UNL d   1       1.405  -1.330  -0.618  0.00  0.00    -0.146 I 
ENDROOT
TORSDOF 0
ENDMDL
