MODEL 1
REMARK minimizedAffinity 2.82215977
REMARK minimizedRMSD -1
REMARK  0 active torsions:
REMARK  status: ('A' for Active; 'I' for Inactive)
ROOT
ATOM      1  C   UNL d   1       2.945   0.675  -0.776  0.00  0.00     0.023 A 
ATOM      2  C1  UNL d   1       4.162   0.045  -0.516  0.00  0.00     0.003 A 
ATOM      3  C2  UNL d   1       4.193  -1.317  -0.210  0.00  0.00     0.048 A 
ATOM      4  C3  UNL d   1       3.004  -2.044  -0.166  0.00  0.00     0.023 A 
ATOM      5  C4  UNL d   1       1.784  -1.418  -0.427  0.00  0.00     0.048 A 
ATOM      6  C5  UNL d   1       1.757  -0.056  -0.732  0.00  0.00     0.003 A 
ATOM      7  I   UNL d   1       3.048  -4.071   0.289  0.00  0.00    -0.146 I 
ENDROOT
TORSDOF 0
ENDMDL
