MODEL 1
REMARK minimizedAffinity 0.848546445
REMARK minimizedRMSD -1
REMARK  0 active torsions:
REMARK  status: ('A' for Active; 'I' for Inactive)
ROOT
ATOM      1  C   UNL d   1      -0.836  -0.069   1.770  0.00  0.00     0.023 A 
ATOM      2  C1  UNL d   1      -0.483  -1.003   2.744  0.00  0.00     0.003 A 
ATOM      3  C2  UNL d   1       0.480  -1.975   2.465  0.00  0.00     0.048 A 
ATOM      4  C3  UNL d   1       1.086  -2.008   1.209  0.00  0.00     0.023 A 
ATOM      5  C4  UNL d   1       0.736  -1.075   0.232  0.00  0.00     0.048 A 
ATOM      6  C5  UNL d   1      -0.227  -0.105   0.515  0.00  0.00     0.003 A 
ATOM      7  I   UNL d   1       2.518  -3.454   0.791  0.00  0.00    -0.146 I 
ENDROOT
TORSDOF 0
ENDMDL
