MODEL 1
REMARK minimizedAffinity 2.4735465
REMARK minimizedRMSD -1
REMARK  0 active torsions:
REMARK  status: ('A' for Active; 'I' for Inactive)
ROOT
ATOM      1  C   UNL d   1       3.971  -5.011  -0.008  0.00  0.00     0.023 A 
ATOM      2  C1  UNL d   1       3.379  -3.758  -0.166  0.00  0.00     0.003 A 
ATOM      3  C2  UNL d   1       2.220  -3.438   0.543  0.00  0.00     0.048 A 
ATOM      4  C3  UNL d   1       1.658  -4.375   1.409  0.00  0.00     0.023 A 
ATOM      5  C4  UNL d   1       2.247  -5.630   1.571  0.00  0.00     0.048 A 
ATOM      6  C5  UNL d   1       3.406  -5.946   0.859  0.00  0.00     0.003 A 
ATOM      7  I   UNL d   1      -0.069  -3.901   2.465  0.00  0.00    -0.146 I 
ENDROOT
TORSDOF 0
ENDMDL
