MODEL 1
REMARK minimizedAffinity 3.66475868
REMARK minimizedRMSD -1
REMARK  0 active torsions:
REMARK  status: ('A' for Active; 'I' for Inactive)
ROOT
ATOM      1  C   UNL d   1      -2.724   0.322   1.763  0.00  0.00     0.023 A 
ATOM      2  C1  UNL d   1      -2.508   0.159   0.394  0.00  0.00     0.003 A 
ATOM      3  C2  UNL d   1      -1.296  -0.361  -0.065  0.00  0.00     0.048 A 
ATOM      4  C3  UNL d   1      -0.305  -0.717   0.850  0.00  0.00     0.023 A 
ATOM      5  C4  UNL d   1      -0.518  -0.557   2.220  0.00  0.00     0.048 A 
ATOM      6  C5  UNL d   1      -1.731  -0.035   2.674  0.00  0.00     0.003 A 
ATOM      7  I   UNL d   1       1.499  -1.493   0.169  0.00  0.00    -0.146 I 
ENDROOT
TORSDOF 0
ENDMDL
