MODEL 1
REMARK minimizedAffinity 4.7332449
REMARK minimizedRMSD -1
REMARK  0 active torsions:
REMARK  status: ('A' for Active; 'I' for Inactive)
ROOT
ATOM      1  C   UNL d   1       3.736  -6.000   1.122  0.00  0.00     0.023 A 
ATOM      2  C1  UNL d   1       4.464  -5.402   0.094  0.00  0.00     0.003 A 
ATOM      3  C2  UNL d   1       4.041  -4.187  -0.448  0.00  0.00     0.048 A 
ATOM      4  C3  UNL d   1       2.888  -3.574   0.043  0.00  0.00     0.023 A 
ATOM      5  C4  UNL d   1       2.157  -4.168   1.073  0.00  0.00     0.048 A 
ATOM      6  C5  UNL d   1       2.583  -5.384   1.611  0.00  0.00     0.003 A 
ATOM      7  I   UNL d   1       2.256  -1.766  -0.762  0.00  0.00    -0.146 I 
ENDROOT
TORSDOF 0
ENDMDL
