MODEL 1
REMARK minimizedAffinity 3.90702653
REMARK minimizedRMSD -1
REMARK  0 active torsions:
REMARK  status: ('A' for Active; 'I' for Inactive)
ROOT
ATOM      1  C   UNL d   1      -2.366  -0.508   1.895  0.00  0.00     0.023 A 
ATOM      2  C1  UNL d   1      -2.298  -0.225   0.531  0.00  0.00     0.003 A 
ATOM      3  C2  UNL d   1      -1.088  -0.361  -0.153  0.00  0.00     0.048 A 
ATOM      4  C3  UNL d   1       0.050  -0.783   0.534  0.00  0.00     0.023 A 
ATOM      5  C4  UNL d   1      -0.013  -1.068   1.899  0.00  0.00     0.048 A 
ATOM      6  C5  UNL d   1      -1.225  -0.929   2.578  0.00  0.00     0.003 A 
ATOM      7  I   UNL d   1       1.853  -0.987  -0.480  0.00  0.00    -0.146 I 
ENDROOT
TORSDOF 0
ENDMDL
