MODEL 1
REMARK minimizedAffinity 3.61605883
REMARK minimizedRMSD -1
REMARK  0 active torsions:
REMARK  status: ('A' for Active; 'I' for Inactive)
ROOT
ATOM      1  C   UNL d   1       0.446  -4.561   2.976  0.00  0.00     0.023 A 
ATOM      2  C1  UNL d   1       1.441  -4.785   2.024  0.00  0.00     0.003 A 
ATOM      3  C2  UNL d   1       1.836  -3.754   1.169  0.00  0.00     0.048 A 
ATOM      4  C3  UNL d   1       1.232  -2.501   1.271  0.00  0.00     0.023 A 
ATOM      5  C4  UNL d   1       0.236  -2.272   2.222  0.00  0.00     0.048 A 
ATOM      6  C5  UNL d   1      -0.156  -3.306   3.074  0.00  0.00     0.003 A 
ATOM      7  I   UNL d   1       1.818  -0.965  -0.001  0.00  0.00    -0.146 I 
ENDROOT
TORSDOF 0
ENDMDL
