MODEL 1
REMARK minimizedAffinity -0.152798653
REMARK minimizedRMSD -1
REMARK  0 active torsions:
REMARK  status: ('A' for Active; 'I' for Inactive)
ROOT
ATOM      1  C   UNL d   1      -0.472   0.080  -4.370  0.00  0.00     0.020 A 
ATOM      2  C1  UNL d   1      -0.164  -0.282  -5.681  0.00  0.00     0.020 A 
ATOM      3  C2  UNL d   1       0.072  -1.621  -5.999  0.00  0.00     0.034 A 
ATOM      4  C3  UNL d   1       0.002  -2.603  -5.004  0.00  0.00     0.017 A 
ATOM      5  C4  UNL d   1      -0.307  -2.239  -3.688  0.00  0.00     0.017 A 
ATOM      6  C5  UNL d   1      -0.543  -0.896  -3.376  0.00  0.00     0.034 A 
ATOM      7 Cl   UNL d   1      -0.412  -3.394  -2.407  0.00  0.00    -0.070 Cl
ATOM      8 Cl1  UNL d   1       0.305  -4.240  -5.468  0.00  0.00    -0.070 Cl
ENDROOT
TORSDOF 0
ENDMDL
