MODEL 1
REMARK minimizedAffinity -3.2518363
REMARK minimizedRMSD -1
REMARK  0 active torsions:
REMARK  status: ('A' for Active; 'I' for Inactive)
ROOT
ATOM      1  C   UNL d   1      -2.156  -0.292   1.151  0.00  0.00     0.020 A 
ATOM      2  C1  UNL d   1      -0.979  -0.142   1.884  0.00  0.00     0.020 A 
ATOM      3  C2  UNL d   1       0.247  -0.495   1.316  0.00  0.00     0.034 A 
ATOM      4  C3  UNL d   1       0.299  -1.000   0.011  0.00  0.00     0.017 A 
ATOM      5  C4  UNL d   1      -0.883  -1.150  -0.723  0.00  0.00     0.017 A 
ATOM      6  C5  UNL d   1      -2.108  -0.795  -0.150  0.00  0.00     0.034 A 
ATOM      7 Cl   UNL d   1      -0.898  -1.766  -2.338  0.00  0.00    -0.070 Cl
ATOM      8 Cl1  UNL d   1       1.849  -1.416  -0.628  0.00  0.00    -0.070 Cl
ENDROOT
TORSDOF 0
ENDMDL
