MODEL 1
REMARK minimizedAffinity 8.08294487
REMARK minimizedRMSD -1
REMARK  0 active torsions:
REMARK  status: ('A' for Active; 'I' for Inactive)
ROOT
ATOM      1  C   UNL d   1       2.053   0.332  -5.952  0.00  0.00     0.020 A 
ATOM      2  C1  UNL d   1       2.770  -0.452  -5.049  0.00  0.00     0.020 A 
ATOM      3  C2  UNL d   1       2.095  -1.325  -4.193  0.00  0.00     0.034 A 
ATOM      4  C3  UNL d   1       0.699  -1.416  -4.238  0.00  0.00     0.017 A 
ATOM      5  C4  UNL d   1      -0.020  -0.628  -5.145  0.00  0.00     0.017 A 
ATOM      6  C5  UNL d   1       0.661   0.244  -5.999  0.00  0.00     0.034 A 
ATOM      7 Cl   UNL d   1      -1.743  -0.686  -5.259  0.00  0.00    -0.070 Cl
ATOM      8 Cl1  UNL d   1      -0.070  -2.517  -3.151  0.00  0.00    -0.070 Cl
ENDROOT
TORSDOF 0
ENDMDL
