MODEL 1
REMARK minimizedAffinity 8.87020969
REMARK minimizedRMSD -1
REMARK  0 active torsions:
REMARK  status: ('A' for Active; 'I' for Inactive)
ROOT
ATOM      1  C   UNL d   1      -0.065  -0.397  -5.999  0.00  0.00     0.020 A 
ATOM      2  C1  UNL d   1      -0.992  -1.178  -5.310  0.00  0.00     0.020 A 
ATOM      3  C2  UNL d   1      -0.580  -1.956  -4.226  0.00  0.00     0.034 A 
ATOM      4  C3  UNL d   1       0.762  -1.956  -3.829  0.00  0.00     0.017 A 
ATOM      5  C4  UNL d   1       1.692  -1.172  -4.521  0.00  0.00     0.017 A 
ATOM      6  C5  UNL d   1       1.274  -0.394  -5.606  0.00  0.00     0.034 A 
ATOM      7 Cl   UNL d   1       3.364  -1.120  -4.090  0.00  0.00    -0.070 Cl
ATOM      8 Cl1  UNL d   1       1.200  -2.943  -2.480  0.00  0.00    -0.070 Cl
ENDROOT
TORSDOF 0
ENDMDL
