MODEL 1
REMARK minimizedAffinity 7.60210371
REMARK minimizedRMSD -1
REMARK  0 active torsions:
REMARK  status: ('A' for Active; 'I' for Inactive)
ROOT
ATOM      1  C   UNL d   1       0.329  -2.526   2.485  0.00  0.00     0.020 A 
ATOM      2  C1  UNL d   1       1.446  -1.757   2.810  0.00  0.00     0.020 A 
ATOM      3  C2  UNL d   1       1.418  -0.373   2.624  0.00  0.00     0.034 A 
ATOM      4  C3  UNL d   1       0.272   0.246   2.112  0.00  0.00     0.017 A 
ATOM      5  C4  UNL d   1      -0.848  -0.527   1.786  0.00  0.00     0.017 A 
ATOM      6  C5  UNL d   1      -0.815  -1.913   1.975  0.00  0.00     0.034 A 
ATOM      7 Cl   UNL d   1      -2.299   0.164   1.150  0.00  0.00    -0.070 Cl
ATOM      8 Cl1  UNL d   1       0.308   1.961   1.908  0.00  0.00    -0.070 Cl
ENDROOT
TORSDOF 0
ENDMDL
