MODEL 1
REMARK minimizedAffinity 3.58398843
REMARK minimizedRMSD -1
REMARK  0 active torsions:
REMARK  status: ('A' for Active; 'I' for Inactive)
ROOT
ATOM      1  C   UNL d   1      -2.100  -0.853   1.942  0.00  0.00     0.020 A 
ATOM      2  C1  UNL d   1      -1.035   0.017   1.714  0.00  0.00     0.020 A 
ATOM      3  C2  UNL d   1       0.216  -0.247   2.277  0.00  0.00     0.034 A 
ATOM      4  C3  UNL d   1       0.404  -1.384   3.072  0.00  0.00     0.017 A 
ATOM      5  C4  UNL d   1      -0.666  -2.256   3.301  0.00  0.00     0.017 A 
ATOM      6  C5  UNL d   1      -1.916  -1.987   2.734  0.00  0.00     0.034 A 
ATOM      7 Cl   UNL d   1      -0.511  -3.679   4.271  0.00  0.00    -0.070 Cl
ATOM      8 Cl1  UNL d   1       1.977  -1.648   3.737  0.00  0.00    -0.070 Cl
ENDROOT
TORSDOF 0
ENDMDL
