MODEL 1
REMARK minimizedAffinity 1.74050617
REMARK minimizedRMSD -1
REMARK  1 active torsions:
REMARK  status: ('A' for Active; 'I' for Inactive)
REMARK    1  A    between atoms: C1_2  and  C2_3 
ROOT
ATOM      1  C2  UNL d   1       2.298  -0.825   0.633  0.00  0.00    -0.081 A 
ATOM      2  C3  UNL d   1       2.285   0.570   0.516  0.00  0.00     0.006 A 
ATOM      3  C4  UNL d   1       2.275   1.175  -0.743  0.00  0.00     0.002 A 
ATOM      4  C5  UNL d   1       2.270   0.396  -1.905  0.00  0.00    -0.080 A 
ATOM      5  C6  UNL d   1       2.228   1.033  -3.262  0.00  0.00     0.076 C 
ATOM      6  C7  UNL d   1       2.300  -0.998  -1.788  0.00  0.00     0.002 A 
ATOM      7  C8  UNL d   1       2.311  -1.603  -0.530  0.00  0.00     0.006 A 
ENDROOT
BRANCH   1   8
ATOM      8  C1  UNL d   1       2.243  -1.481   1.989  0.00  0.00     0.054 C 
ATOM      9  C   UNL d   1       0.833  -1.455   2.560  0.00  0.00     0.018 C 
ENDBRANCH   1   8
TORSDOF 1
ENDMDL
