MODEL 1
REMARK minimizedAffinity 0.558838069
REMARK minimizedRMSD -1
REMARK  1 active torsions:
REMARK  status: ('A' for Active; 'I' for Inactive)
REMARK    1  A    between atoms: C1_2  and  C2_3 
ROOT
ATOM      1  C2  UNL d   1       0.877  -1.704   1.219  0.00  0.00    -0.081 A 
ATOM      2  C3  UNL d   1       2.224  -1.697   0.835  0.00  0.00     0.006 A 
ATOM      3  C4  UNL d   1       2.583  -1.388  -0.479  0.00  0.00     0.002 A 
ATOM      4  C5  UNL d   1       1.604  -1.074  -1.428  0.00  0.00    -0.080 A 
ATOM      5  C6  UNL d   1       1.979  -0.712  -2.834  0.00  0.00     0.076 C 
ATOM      6  C7  UNL d   1       0.258  -1.099  -1.048  0.00  0.00     0.002 A 
ATOM      7  C8  UNL d   1      -0.102  -1.408   0.265  0.00  0.00     0.006 A 
ENDROOT
BRANCH   1   8
ATOM      8  C1  UNL d   1       0.490  -1.973   2.651  0.00  0.00     0.054 C 
ATOM      9  C   UNL d   1      -0.051  -0.719   3.323  0.00  0.00     0.018 C 
ENDBRANCH   1   8
TORSDOF 1
ENDMDL
