MODEL 1
REMARK minimizedAffinity 6.57527351
REMARK minimizedRMSD -1
REMARK  1 active torsions:
REMARK  status: ('A' for Active; 'I' for Inactive)
REMARK    1  A    between atoms: C1_2  and  C2_3 
ROOT
ATOM      1  C2  UNL d   1      -0.962   0.097   2.851  0.00  0.00    -0.081 A 
ATOM      2  C3  UNL d   1      -0.469  -0.799   1.895  0.00  0.00     0.006 A 
ATOM      3  C4  UNL d   1       0.749  -1.452   2.098  0.00  0.00     0.002 A 
ATOM      4  C5  UNL d   1       1.489  -1.227   3.264  0.00  0.00    -0.080 A 
ATOM      5  C6  UNL d   1       2.783  -1.944   3.509  0.00  0.00     0.076 C 
ATOM      6  C7  UNL d   1       1.005  -0.319   4.211  0.00  0.00     0.002 A 
ATOM      7  C8  UNL d   1      -0.213   0.335   4.008  0.00  0.00     0.006 A 
ENDROOT
BRANCH   1   8
ATOM      8  C1  UNL d   1      -2.306   0.754   2.664  0.00  0.00     0.054 C 
ATOM      9  C   UNL d   1      -2.611   1.723   3.798  0.00  0.00     0.018 C 
ENDBRANCH   1   8
TORSDOF 1
ENDMDL
