MODEL 1
REMARK minimizedAffinity 9.60506248
REMARK minimizedRMSD -1
REMARK  1 active torsions:
REMARK  status: ('A' for Active; 'I' for Inactive)
REMARK    1  A    between atoms: C1_2  and  C2_3 
ROOT
ATOM      1  C2  UNL d   1      -0.031  -1.236   2.342  0.00  0.00    -0.081 A 
ATOM      2  C3  UNL d   1       1.023  -2.155   2.261  0.00  0.00     0.006 A 
ATOM      3  C4  UNL d   1       1.715  -2.334   1.062  0.00  0.00     0.002 A 
ATOM      4  C5  UNL d   1       1.372  -1.593  -0.074  0.00  0.00    -0.080 A 
ATOM      5  C6  UNL d   1       2.128  -1.754  -1.360  0.00  0.00     0.076 C 
ATOM      6  C7  UNL d   1       0.308  -0.688   0.002  0.00  0.00     0.002 A 
ATOM      7  C8  UNL d   1      -0.385  -0.508   1.201  0.00  0.00     0.006 A 
ENDROOT
BRANCH   1   8
ATOM      8  C1  UNL d   1      -0.738  -0.993   3.651  0.00  0.00     0.054 C 
ATOM      9  C   UNL d   1      -1.230   0.443   3.756  0.00  0.00     0.018 C 
ENDBRANCH   1   8
TORSDOF 1
ENDMDL
