MODEL 1
REMARK minimizedAffinity -1.03538966
REMARK minimizedRMSD -1
REMARK  1 active torsions:
REMARK  status: ('A' for Active; 'I' for Inactive)
REMARK    1  A    between atoms: C1_2  and  C2_3 
ROOT
ATOM      1  C2  UNL d   1      -0.583   1.152   1.820  0.00  0.00    -0.077 A 
ATOM      2  C3  UNL d   1      -1.505   0.457   2.615  0.00  0.00     0.002 A 
ATOM      3  C4  UNL d   1      -2.390  -0.455   2.037  0.00  0.00     0.002 A 
ATOM      4  C5  UNL d   1      -2.359  -0.683   0.663  0.00  0.00    -0.004 A 
ATOM      5  C6  UNL d   1      -1.447   0.006  -0.137  0.00  0.00     0.002 A 
ATOM      6  C7  UNL d   1      -0.562   0.918   0.440  0.00  0.00     0.002 A 
ENDROOT
BRANCH   1   7
ATOM      7  C1  UNL d   1       0.405   2.100   2.449  0.00  0.00     0.055 C 
ATOM      8  C   UNL d   1       1.806   1.505   2.471  0.00  0.00     0.019 C 
ENDBRANCH   1   7
TORSDOF 1
ENDMDL
