MODEL 1
REMARK minimizedAffinity -2.0494945
REMARK minimizedRMSD -1
REMARK  1 active torsions:
REMARK  status: ('A' for Active; 'I' for Inactive)
REMARK    1  A    between atoms: C1_2  and  C2_3 
ROOT
ATOM      1  C2  UNL d   1       0.725   1.028   0.879  0.00  0.00    -0.077 A 
ATOM      2  C3  UNL d   1       0.320   1.342   2.184  0.00  0.00     0.002 A 
ATOM      3  C4  UNL d   1      -0.911   0.896   2.668  0.00  0.00     0.002 A 
ATOM      4  C5  UNL d   1      -1.745   0.130   1.856  0.00  0.00    -0.004 A 
ATOM      5  C6  UNL d   1      -1.352  -0.186   0.556  0.00  0.00     0.002 A 
ATOM      6  C7  UNL d   1      -0.123   0.260   0.070  0.00  0.00     0.002 A 
ENDROOT
BRANCH   1   7
ATOM      7  C1  UNL d   1       2.074   1.466   0.371  0.00  0.00     0.055 C 
ATOM      8  C   UNL d   1       3.113   1.456   1.482  0.00  0.00     0.019 C 
ENDBRANCH   1   7
TORSDOF 1
ENDMDL
