MODEL 1
REMARK minimizedAffinity -4.13246918
REMARK minimizedRMSD -1
REMARK  1 active torsions:
REMARK  status: ('A' for Active; 'I' for Inactive)
REMARK    1  A    between atoms: C1_2  and  C2_3 
ROOT
ATOM      1  C2  UNL d   1       0.506   0.850   0.906  0.00  0.00    -0.077 A 
ATOM      2  C3  UNL d   1       0.192   1.294   2.198  0.00  0.00     0.002 A 
ATOM      3  C4  UNL d   1      -0.993   0.889   2.816  0.00  0.00     0.002 A 
ATOM      4  C5  UNL d   1      -1.870   0.035   2.151  0.00  0.00    -0.004 A 
ATOM      5  C6  UNL d   1      -1.567  -0.411   0.865  0.00  0.00     0.002 A 
ATOM      6  C7  UNL d   1      -0.384  -0.006   0.246  0.00  0.00     0.002 A 
ENDROOT
BRANCH   1   7
ATOM      7  C1  UNL d   1       1.807   1.247   0.258  0.00  0.00     0.055 C 
ATOM      8  C   UNL d   1       2.998   0.656   0.999  0.00  0.00     0.019 C 
ENDBRANCH   1   7
TORSDOF 1
ENDMDL
