MODEL 1
REMARK minimizedAffinity 1.22861266
REMARK minimizedRMSD -1
REMARK  1 active torsions:
REMARK  status: ('A' for Active; 'I' for Inactive)
REMARK    1  A    between atoms: C1_2  and  C2_3 
ROOT
ATOM      1  C2  UNL d   1      -0.552  -0.385   2.689  0.00  0.00    -0.077 A 
ATOM      2  C3  UNL d   1      -1.907  -0.714   2.548  0.00  0.00     0.002 A 
ATOM      3  C4  UNL d   1      -2.515  -0.682   1.292  0.00  0.00     0.002 A 
ATOM      4  C5  UNL d   1      -1.775  -0.325   0.167  0.00  0.00    -0.004 A 
ATOM      5  C6  UNL d   1      -0.427   0.007   0.296  0.00  0.00     0.002 A 
ATOM      6  C7  UNL d   1       0.182  -0.024   1.552  0.00  0.00     0.002 A 
ENDROOT
BRANCH   1   7
ATOM      7  C1  UNL d   1       0.118  -0.467   4.035  0.00  0.00     0.055 C 
ATOM      8  C   UNL d   1       0.058  -1.879   4.599  0.00  0.00     0.019 C 
ENDBRANCH   1   7
TORSDOF 1
ENDMDL
