MODEL 1
REMARK minimizedAffinity 12.8159561
REMARK minimizedRMSD -1
REMARK  1 active torsions:
REMARK  status: ('A' for Active; 'I' for Inactive)
REMARK    1  A    between atoms: C1_2  and  C2_3 
ROOT
ATOM      1  C2  UNL d   1      -0.636  -1.574   3.393  0.00  0.00    -0.076 A 
ATOM      2  C3  UNL d   1      -1.879  -1.941   3.938  0.00  0.00     0.004 A 
ATOM      3  C4  UNL d   1      -2.666  -2.920   3.333  0.00  0.00    -0.003 A 
ATOM      4  C5  UNL d   1      -2.223  -3.548   2.174  0.00  0.00     0.000 A 
ATOM      5  C6  UNL d   1      -0.985  -3.209   1.630  0.00  0.00     0.000 A 
ATOM      6  C7  UNL d   1      -0.171  -2.236   2.236  0.00  0.00    -0.073 A 
ATOM      7  C8  UNL d   1       1.152  -1.905   1.603  0.00  0.00     0.078 C 
ENDROOT
BRANCH   1   8
ATOM      8  C1  UNL d   1       0.162  -0.487   4.077  0.00  0.00     0.053 C 
ATOM      9  C   UNL d   1       0.073  -0.566   5.593  0.00  0.00     0.018 C 
ENDBRANCH   1   8
TORSDOF 1
ENDMDL
