MODEL 1
REMARK minimizedAffinity 20.2629395
REMARK minimizedRMSD -1
REMARK  1 active torsions:
REMARK  status: ('A' for Active; 'I' for Inactive)
REMARK    1  A    between atoms: C1_2  and  C2_3 
ROOT
ATOM      1  C2  UNL d   1      -2.599   2.963  -1.277  0.00  0.00    -0.076 A 
ATOM      2  C3  UNL d   1      -2.169   2.658   0.026  0.00  0.00     0.004 A 
ATOM      3  C4  UNL d   1      -0.819   2.453   0.306  0.00  0.00    -0.003 A 
ATOM      4  C5  UNL d   1       0.123   2.550  -0.712  0.00  0.00     0.000 A 
ATOM      5  C6  UNL d   1      -0.284   2.870  -2.007  0.00  0.00     0.000 A 
ATOM      6  C7  UNL d   1      -1.639   3.096  -2.303  0.00  0.00    -0.073 A 
ATOM      7  C8  UNL d   1      -2.023   3.432  -3.718  0.00  0.00     0.078 C 
ENDROOT
BRANCH   1   8
ATOM      8  C1  UNL d   1      -4.079   3.149  -1.526  0.00  0.00     0.053 C 
ATOM      9  C   UNL d   1      -4.887   3.176  -0.238  0.00  0.00     0.018 C 
ENDBRANCH   1   8
TORSDOF 1
ENDMDL
