MODEL 1
REMARK minimizedAffinity 6.29495859
REMARK minimizedRMSD -1
REMARK  1 active torsions:
REMARK  status: ('A' for Active; 'I' for Inactive)
REMARK    1  A    between atoms: C1_2  and  C2_3 
ROOT
ATOM      1  C2  UNL d   1      -5.004  -3.565   1.590  0.00  0.00    -0.076 A 
ATOM      2  C3  UNL d   1      -5.953  -4.001   0.649  0.00  0.00     0.004 A 
ATOM      3  C4  UNL d   1      -5.590  -4.849  -0.396  0.00  0.00    -0.003 A 
ATOM      4  C5  UNL d   1      -4.272  -5.275  -0.516  0.00  0.00     0.000 A 
ATOM      5  C6  UNL d   1      -3.321  -4.867   0.418  0.00  0.00     0.000 A 
ATOM      6  C7  UNL d   1      -3.674  -4.026   1.487  0.00  0.00    -0.073 A 
ATOM      7  C8  UNL d   1      -2.607  -3.612   2.463  0.00  0.00     0.078 C 
ENDROOT
BRANCH   1   8
ATOM      8  C1  UNL d   1      -5.450  -2.624   2.686  0.00  0.00     0.053 C 
ATOM      9  C   UNL d   1      -5.998  -1.314   2.142  0.00  0.00     0.018 C 
ENDBRANCH   1   8
TORSDOF 1
ENDMDL
