MODEL 1
REMARK minimizedAffinity 9.49982262
REMARK minimizedRMSD -1
REMARK  1 active torsions:
REMARK  status: ('A' for Active; 'I' for Inactive)
REMARK    1  A    between atoms: C1_2  and  C2_3 
ROOT
ATOM      1  C2  UNL d   1      -4.213  -4.808   1.140  0.00  0.00    -0.076 A 
ATOM      2  C3  UNL d   1      -5.026  -3.662   1.150  0.00  0.00     0.004 A 
ATOM      3  C4  UNL d   1      -4.681  -2.544   1.909  0.00  0.00    -0.003 A 
ATOM      4  C5  UNL d   1      -3.517  -2.555   2.670  0.00  0.00     0.000 A 
ATOM      5  C6  UNL d   1      -2.690  -3.678   2.658  0.00  0.00     0.000 A 
ATOM      6  C7  UNL d   1      -3.014  -4.806   1.885  0.00  0.00    -0.073 A 
ATOM      7  C8  UNL d   1      -2.089  -5.991   1.914  0.00  0.00     0.078 C 
ENDROOT
BRANCH   1   8
ATOM      8  C1  UNL d   1      -4.652  -6.000   0.319  0.00  0.00     0.053 C 
ATOM      9  C   UNL d   1      -4.108  -5.961  -1.101  0.00  0.00     0.018 C 
ENDBRANCH   1   8
TORSDOF 1
ENDMDL
