MODEL 1
REMARK minimizedAffinity 14.8801851
REMARK minimizedRMSD -1
REMARK  1 active torsions:
REMARK  status: ('A' for Active; 'I' for Inactive)
REMARK    1  A    between atoms: C1_2  and  C2_3 
ROOT
ATOM      1  C2  UNL d   1       1.980  -0.094   3.066  0.00  0.00    -0.076 A 
ATOM      2  C3  UNL d   1       3.173   0.648   3.081  0.00  0.00     0.004 A 
ATOM      3  C4  UNL d   1       4.153   0.451   2.109  0.00  0.00    -0.003 A 
ATOM      4  C5  UNL d   1       3.954  -0.492   1.106  0.00  0.00     0.000 A 
ATOM      5  C6  UNL d   1       2.769  -1.225   1.066  0.00  0.00     0.000 A 
ATOM      6  C7  UNL d   1       1.764  -1.027   2.029  0.00  0.00    -0.073 A 
ATOM      7  C8  UNL d   1       0.508  -1.850   1.941  0.00  0.00     0.078 C 
ENDROOT
BRANCH   1   8
ATOM      8  C1  UNL d   1       0.965   0.143   4.162  0.00  0.00     0.053 C 
ATOM      9  C   UNL d   1       1.604   0.222   5.540  0.00  0.00     0.018 C 
ENDBRANCH   1   8
TORSDOF 1
ENDMDL
