MODEL 1
REMARK minimizedAffinity 17.1761093
REMARK minimizedRMSD -1
REMARK  1 active torsions:
REMARK  status: ('A' for Active; 'I' for Inactive)
REMARK    1  A    between atoms: C1_2  and  C2_3 
ROOT
ATOM      1  C2  UNL d   1       1.454  -0.771   2.824  0.00  0.00    -0.076 A 
ATOM      2  C3  UNL d   1       2.447   0.175   2.515  0.00  0.00     0.004 A 
ATOM      3  C4  UNL d   1       3.428  -0.099   1.564  0.00  0.00    -0.003 A 
ATOM      4  C5  UNL d   1       3.433  -1.323   0.906  0.00  0.00     0.000 A 
ATOM      5  C6  UNL d   1       2.445  -2.267   1.186  0.00  0.00     0.000 A 
ATOM      6  C7  UNL d   1       1.439  -2.000   2.130  0.00  0.00    -0.073 A 
ATOM      7  C8  UNL d   1       0.402  -3.057   2.398  0.00  0.00     0.078 C 
ENDROOT
BRANCH   1   8
ATOM      8  C1  UNL d   1       0.432  -0.429   3.884  0.00  0.00     0.053 C 
ATOM      9  C   UNL d   1       1.056  -0.244   5.258  0.00  0.00     0.018 C 
ENDBRANCH   1   8
TORSDOF 1
ENDMDL
