MODEL 1
REMARK minimizedAffinity 14.1706095
REMARK minimizedRMSD -1
REMARK  1 active torsions:
REMARK  status: ('A' for Active; 'I' for Inactive)
REMARK    1  A    between atoms: C1_2  and  C2_3 
ROOT
ATOM      1  C2  UNL d   1       1.529  -0.395   2.577  0.00  0.00    -0.076 A 
ATOM      2  C3  UNL d   1       2.650   0.451   2.639  0.00  0.00     0.004 A 
ATOM      3  C4  UNL d   1       3.812   0.155   1.929  0.00  0.00    -0.003 A 
ATOM      4  C5  UNL d   1       3.872  -0.991   1.145  0.00  0.00     0.000 A 
ATOM      5  C6  UNL d   1       2.764  -1.833   1.057  0.00  0.00     0.000 A 
ATOM      6  C7  UNL d   1       1.578  -1.540   1.754  0.00  0.00    -0.073 A 
ATOM      7  C8  UNL d   1       0.415  -2.486   1.628  0.00  0.00     0.078 C 
ENDROOT
BRANCH   1   8
ATOM      8  C1  UNL d   1       0.305  -0.037   3.390  0.00  0.00     0.053 C 
ATOM      9  C   UNL d   1       0.612   0.107   4.872  0.00  0.00     0.018 C 
ENDBRANCH   1   8
TORSDOF 1
ENDMDL
