MODEL 1
REMARK minimizedAffinity 21.8406754
REMARK minimizedRMSD -1
REMARK  1 active torsions:
REMARK  status: ('A' for Active; 'I' for Inactive)
REMARK    1  A    between atoms: C1_2  and  C2_3 
ROOT
ATOM      1  C2  UNL d   1      -0.021  -0.884   3.427  0.00  0.00    -0.076 A 
ATOM      2  C3  UNL d   1       1.139  -0.165   3.088  0.00  0.00     0.004 A 
ATOM      3  C4  UNL d   1       1.909  -0.525   1.983  0.00  0.00    -0.003 A 
ATOM      4  C5  UNL d   1       1.531  -1.610   1.199  0.00  0.00     0.000 A 
ATOM      5  C6  UNL d   1       0.374  -2.323   1.510  0.00  0.00     0.000 A 
ATOM      6  C7  UNL d   1      -0.422  -1.963   2.611  0.00  0.00    -0.073 A 
ATOM      7  C8  UNL d   1      -1.657  -2.771   2.904  0.00  0.00     0.078 C 
ENDROOT
BRANCH   1   8
ATOM      8  C1  UNL d   1      -0.801  -0.463   4.652  0.00  0.00     0.053 C 
ATOM      9  C   UNL d   1       0.091  -0.245   5.864  0.00  0.00     0.018 C 
ENDBRANCH   1   8
TORSDOF 1
ENDMDL
