MODEL 1
REMARK minimizedAffinity 23.8152828
REMARK minimizedRMSD -1
REMARK  1 active torsions:
REMARK  status: ('A' for Active; 'I' for Inactive)
REMARK    1  A    between atoms: C1_2  and  C2_3 
ROOT
ATOM      1  C2  UNL d   1       1.334  -0.819   2.200  0.00  0.00    -0.076 A 
ATOM      2  C3  UNL d   1       0.553  -0.519   3.330  0.00  0.00     0.004 A 
ATOM      3  C4  UNL d   1       1.116   0.091   4.450  0.00  0.00    -0.003 A 
ATOM      4  C5  UNL d   1       2.469   0.413   4.457  0.00  0.00     0.000 A 
ATOM      5  C6  UNL d   1       3.254   0.139   3.338  0.00  0.00     0.000 A 
ATOM      6  C7  UNL d   1       2.699  -0.462   2.195  0.00  0.00    -0.073 A 
ATOM      7  C8  UNL d   1       3.594  -0.740   1.019  0.00  0.00     0.078 C 
ENDROOT
BRANCH   1   8
ATOM      8  C1  UNL d   1       0.674  -1.507   1.026  0.00  0.00     0.053 C 
ATOM      9  C   UNL d   1       1.149  -2.941   0.849  0.00  0.00     0.018 C 
ENDBRANCH   1   8
TORSDOF 1
ENDMDL
