MODEL 1
REMARK minimizedAffinity 10.3765507
REMARK minimizedRMSD -1
REMARK  1 active torsions:
REMARK  status: ('A' for Active; 'I' for Inactive)
REMARK    1  A    between atoms: C1_2  and  C2_3 
ROOT
ATOM      1  C2  UNL d   1       2.070  -0.265   3.016  0.00  0.00    -0.076 A 
ATOM      2  C3  UNL d   1       3.279   0.447   2.952  0.00  0.00     0.004 A 
ATOM      3  C4  UNL d   1       4.265   0.106   2.027  0.00  0.00    -0.003 A 
ATOM      4  C5  UNL d   1       4.056  -0.954   1.151  0.00  0.00     0.000 A 
ATOM      5  C6  UNL d   1       2.855  -1.661   1.189  0.00  0.00     0.000 A 
ATOM      6  C7  UNL d   1       1.844  -1.319   2.105  0.00  0.00    -0.073 A 
ATOM      7  C8  UNL d   1       0.571  -2.119   2.106  0.00  0.00     0.078 C 
ENDROOT
BRANCH   1   8
ATOM      8  C1  UNL d   1       1.049   0.133   4.058  0.00  0.00     0.053 C 
ATOM      9  C   UNL d   1       1.632   0.166   5.463  0.00  0.00     0.018 C 
ENDBRANCH   1   8
TORSDOF 1
ENDMDL
