MODEL 1
REMARK minimizedAffinity 3.46795297
REMARK minimizedRMSD -1
REMARK  1 active torsions:
REMARK  status: ('A' for Active; 'I' for Inactive)
REMARK    1  A    between atoms: C1_2  and  C2_3 
ROOT
ATOM      1  C2  UNL d   1      -1.473  -2.109   3.535  0.00  0.00    -0.076 A 
ATOM      2  C3  UNL d   1      -1.997  -1.887   4.820  0.00  0.00     0.004 A 
ATOM      3  C4  UNL d   1      -1.371  -1.014   5.709  0.00  0.00    -0.003 A 
ATOM      4  C5  UNL d   1      -0.212  -0.348   5.327  0.00  0.00     0.000 A 
ATOM      5  C6  UNL d   1       0.312  -0.543   4.049  0.00  0.00     0.000 A 
ATOM      6  C7  UNL d   1      -0.315  -1.407   3.135  0.00  0.00    -0.073 A 
ATOM      7  C8  UNL d   1       0.296  -1.584   1.772  0.00  0.00     0.078 C 
ENDROOT
BRANCH   1   8
ATOM      8  C1  UNL d   1      -2.179  -3.087   2.624  0.00  0.00     0.053 C 
ATOM      9  C   UNL d   1      -3.662  -2.782   2.479  0.00  0.00     0.018 C 
ENDBRANCH   1   8
TORSDOF 1
ENDMDL
