MODEL 1
REMARK minimizedAffinity 11.2186394
REMARK minimizedRMSD -1
REMARK  1 active torsions:
REMARK  status: ('A' for Active; 'I' for Inactive)
REMARK    1  A    between atoms: C1_2  and  C2_3 
ROOT
ATOM      1  C2  UNL d   1       2.054  -0.372   3.102  0.00  0.00    -0.076 A 
ATOM      2  C3  UNL d   1       2.940  -0.991   2.203  0.00  0.00     0.004 A 
ATOM      3  C4  UNL d   1       2.487  -1.940   1.289  0.00  0.00    -0.003 A 
ATOM      4  C5  UNL d   1       1.140  -2.285   1.257  0.00  0.00     0.000 A 
ATOM      5  C6  UNL d   1       0.244  -1.667   2.130  0.00  0.00     0.000 A 
ATOM      6  C7  UNL d   1       0.682  -0.697   3.047  0.00  0.00    -0.073 A 
ATOM      7  C8  UNL d   1      -0.327  -0.067   3.968  0.00  0.00     0.078 C 
ENDROOT
BRANCH   1   8
ATOM      8  C1  UNL d   1       2.608   0.630   4.090  0.00  0.00     0.053 C 
ATOM      9  C   UNL d   1       2.453   0.173   5.532  0.00  0.00     0.018 C 
ENDBRANCH   1   8
TORSDOF 1
ENDMDL
