MODEL 1
REMARK minimizedAffinity 12.3122406
REMARK minimizedRMSD -1
REMARK  1 active torsions:
REMARK  status: ('A' for Active; 'I' for Inactive)
REMARK    1  A    between atoms: C1_2  and  C2_3 
ROOT
ATOM      1  C2  UNL d   1      -1.700   2.244  -1.862  0.00  0.00    -0.076 A 
ATOM      2  C3  UNL d   1      -1.099   1.877  -0.645  0.00  0.00     0.004 A 
ATOM      3  C4  UNL d   1       0.167   2.346  -0.301  0.00  0.00    -0.003 A 
ATOM      4  C5  UNL d   1       0.854   3.189  -1.167  0.00  0.00     0.000 A 
ATOM      5  C6  UNL d   1       0.266   3.577  -2.370  0.00  0.00     0.000 A 
ATOM      6  C7  UNL d   1      -1.017   3.127  -2.726  0.00  0.00    -0.073 A 
ATOM      7  C8  UNL d   1      -1.601   3.573  -4.038  0.00  0.00     0.078 C 
ENDROOT
BRANCH   1   8
ATOM      8  C1  UNL d   1      -3.064   1.683  -2.194  0.00  0.00     0.053 C 
ATOM      9  C   UNL d   1      -4.195   2.530  -1.632  0.00  0.00     0.018 C 
ENDBRANCH   1   8
TORSDOF 1
ENDMDL
