MODEL 1
REMARK minimizedAffinity 6.89911795
REMARK minimizedRMSD -1
REMARK  1 active torsions:
REMARK  status: ('A' for Active; 'I' for Inactive)
REMARK    1  A    between atoms: C1_2  and  C2_3 
ROOT
ATOM      1  C2  UNL d   1      -3.354   4.194  -1.737  0.00  0.00    -0.076 A 
ATOM      2  C3  UNL d   1      -3.590   2.893  -1.261  0.00  0.00     0.004 A 
ATOM      3  C4  UNL d   1      -2.735   1.843  -1.589  0.00  0.00    -0.003 A 
ATOM      4  C5  UNL d   1      -1.628   2.076  -2.397  0.00  0.00     0.000 A 
ATOM      5  C6  UNL d   1      -1.368   3.364  -2.864  0.00  0.00     0.000 A 
ATOM      6  C7  UNL d   1      -2.212   4.438  -2.530  0.00  0.00    -0.073 A 
ATOM      7  C8  UNL d   1      -1.887   5.805  -3.067  0.00  0.00     0.078 C 
ENDROOT
BRANCH   1   8
ATOM      8  C1  UNL d   1      -4.331   5.288  -1.371  0.00  0.00     0.053 C 
ATOM      9  C   UNL d   1      -5.171   4.936  -0.153  0.00  0.00     0.018 C 
ENDBRANCH   1   8
TORSDOF 1
ENDMDL
