MODEL 1
REMARK minimizedAffinity 17.9839535
REMARK minimizedRMSD -1
REMARK  1 active torsions:
REMARK  status: ('A' for Active; 'I' for Inactive)
REMARK    1  A    between atoms: C1_2  and  C2_3 
ROOT
ATOM      1  C2  UNL d   1      -3.636   2.614  -3.672  0.00  0.00    -0.076 A 
ATOM      2  C3  UNL d   1      -4.224   2.831  -4.930  0.00  0.00     0.004 A 
ATOM      3  C4  UNL d   1      -3.474   3.318  -5.999  0.00  0.00    -0.003 A 
ATOM      4  C5  UNL d   1      -2.122   3.594  -5.827  0.00  0.00     0.000 A 
ATOM      5  C6  UNL d   1      -1.518   3.368  -4.591  0.00  0.00     0.000 A 
ATOM      6  C7  UNL d   1      -2.256   2.863  -3.508  0.00  0.00    -0.073 A 
ATOM      7  C8  UNL d   1      -1.555   2.643  -2.195  0.00  0.00     0.078 C 
ENDROOT
BRANCH   1   8
ATOM      8  C1  UNL d   1      -4.506   2.111  -2.542  0.00  0.00     0.053 C 
ATOM      9  C   UNL d   1      -5.846   1.582  -3.030  0.00  0.00     0.018 C 
ENDBRANCH   1   8
TORSDOF 1
ENDMDL
