MODEL 1
REMARK minimizedAffinity 1.82488155
REMARK minimizedRMSD -1
REMARK  1 active torsions:
REMARK  status: ('A' for Active; 'I' for Inactive)
REMARK    1  A    between atoms: C1_2  and  C2_3 
ROOT
ATOM      1  C2  UNL d   1       1.367  -0.833   0.599  0.00  0.00    -0.076 A 
ATOM      2  C3  UNL d   1       0.233  -1.347   1.253  0.00  0.00     0.004 A 
ATOM      3  C4  UNL d   1      -0.930  -0.589   1.374  0.00  0.00    -0.003 A 
ATOM      4  C5  UNL d   1      -0.980   0.695   0.843  0.00  0.00     0.000 A 
ATOM      5  C6  UNL d   1       0.129   1.214   0.175  0.00  0.00     0.000 A 
ATOM      6  C7  UNL d   1       1.304   0.457   0.030  0.00  0.00    -0.073 A 
ATOM      7  C8  UNL d   1       2.472   1.069  -0.694  0.00  0.00     0.078 C 
ENDROOT
BRANCH   1   8
ATOM      8  C1  UNL d   1       2.610  -1.691   0.522  0.00  0.00     0.053 C 
ATOM      9  C   UNL d   1       3.463  -1.594   1.777  0.00  0.00     0.018 C 
ENDBRANCH   1   8
TORSDOF 1
ENDMDL
