MODEL 1
REMARK minimizedAffinity -1.67242265
REMARK minimizedRMSD -1
REMARK  0 active torsions:
REMARK  status: ('A' for Active; 'I' for Inactive)
ROOT
ATOM      1  C2' OXE d   1      -1.680   0.777  -1.715  0.00  0.00     0.078 C 
ATOM      2  C1' OXE d   1      -3.745   1.088   0.161  0.00  0.00     0.078 C 
ATOM      3  C1  OXE d   1      -2.363   1.545   0.555  0.00  0.00    -0.078 A 
ATOM      4  C2  OXE d   1      -1.349   1.346  -0.352  0.00  0.00    -0.078 A 
ATOM      5  C3  OXE d   1      -0.065   1.798  -0.061  0.00  0.00     0.003 A 
ATOM      6  C4  OXE d   1       0.234   2.314   1.206  0.00  0.00    -0.002 A 
ATOM      7  C5  OXE d   1      -0.776   2.488   2.159  0.00  0.00    -0.002 A 
ATOM      8  C6  OXE d   1      -2.084   2.149   1.834  0.00  0.00     0.003 A 
ENDROOT
TORSDOF 0
ENDMDL
