MODEL 1
REMARK minimizedAffinity -2.78203464
REMARK minimizedRMSD -1
REMARK  0 active torsions:
REMARK  status: ('A' for Active; 'I' for Inactive)
ROOT
ATOM      1  C2' OXE d   1       2.178   1.818   0.486  0.00  0.00     0.078 C 
ATOM      2  C1' OXE d   1       1.524   0.663   2.959  0.00  0.00     0.078 C 
ATOM      3  C1  OXE d   1       0.420   1.337   2.184  0.00  0.00    -0.078 A 
ATOM      4  C2  OXE d   1       0.759   1.941   0.997  0.00  0.00    -0.078 A 
ATOM      5  C3  OXE d   1      -0.232   2.529   0.216  0.00  0.00     0.003 A 
ATOM      6  C4  OXE d   1      -1.540   2.648   0.700  0.00  0.00    -0.002 A 
ATOM      7  C5  OXE d   1      -1.898   2.075   1.925  0.00  0.00    -0.002 A 
ATOM      8  C6  OXE d   1      -0.941   1.381   2.658  0.00  0.00     0.003 A 
ENDROOT
TORSDOF 0
ENDMDL
