MODEL 1
REMARK minimizedAffinity 4.11835384
REMARK minimizedRMSD -1
REMARK  0 active torsions:
REMARK  status: ('A' for Active; 'I' for Inactive)
ROOT
ATOM      1  C2' OXE d   1       1.915   0.470   1.303  0.00  0.00     0.078 C 
ATOM      2  C1' OXE d   1       0.032   0.301   3.378  0.00  0.00     0.078 C 
ATOM      3  C1  OXE d   1      -0.170   1.367   2.330  0.00  0.00    -0.078 A 
ATOM      4  C2  OXE d   1       0.782   1.472   1.344  0.00  0.00    -0.078 A 
ATOM      5  C3  OXE d   1       0.616   2.402   0.322  0.00  0.00     0.003 A 
ATOM      6  C4  OXE d   1      -0.430   3.332   0.373  0.00  0.00    -0.002 A 
ATOM      7  C5  OXE d   1      -1.388   3.268   1.390  0.00  0.00    -0.002 A 
ATOM      8  C6  OXE d   1      -1.297   2.266   2.351  0.00  0.00     0.003 A 
ENDROOT
TORSDOF 0
ENDMDL
