MODEL 1
REMARK minimizedAffinity 6.54067135
REMARK minimizedRMSD -1
REMARK  0 active torsions:
REMARK  status: ('A' for Active; 'I' for Inactive)
ROOT
ATOM      1  C2' OXE d   1      -2.461   3.189   2.740  0.00  0.00     0.078 C 
ATOM      2  C1' OXE d   1      -0.503   1.584   3.951  0.00  0.00     0.078 C 
ATOM      3  C1  OXE d   1      -0.251   2.058   2.542  0.00  0.00    -0.078 A 
ATOM      4  C2  OXE d   1      -1.235   2.805   1.941  0.00  0.00    -0.078 A 
ATOM      5  C3  OXE d   1      -1.029   3.314   0.662  0.00  0.00     0.003 A 
ATOM      6  C4  OXE d   1       0.103   2.945  -0.075  0.00  0.00    -0.002 A 
ATOM      7  C5  OXE d   1       1.100   2.153   0.505  0.00  0.00    -0.002 A 
ATOM      8  C6  OXE d   1       0.958   1.738   1.824  0.00  0.00     0.003 A 
ENDROOT
TORSDOF 0
ENDMDL
