MODEL 1
REMARK minimizedAffinity 4.0683465
REMARK minimizedRMSD -1
REMARK  0 active torsions:
REMARK  status: ('A' for Active; 'I' for Inactive)
ROOT
ATOM      1  C2' OXE d   1       1.043  -2.975  -0.825  0.00  0.00     0.078 C 
ATOM      2  C1' OXE d   1       3.024  -1.874   0.831  0.00  0.00     0.078 C 
ATOM      3  C1  OXE d   1       2.053  -0.927   0.171  0.00  0.00    -0.078 A 
ATOM      4  C2  OXE d   1       1.116  -1.471  -0.675  0.00  0.00    -0.078 A 
ATOM      5  C3  OXE d   1       0.162  -0.649  -1.267  0.00  0.00     0.003 A 
ATOM      6  C4  OXE d   1       0.243   0.742  -1.131  0.00  0.00    -0.002 A 
ATOM      7  C5  OXE d   1       1.214   1.320  -0.306  0.00  0.00    -0.002 A 
ATOM      8  C6  OXE d   1       2.098   0.498   0.384  0.00  0.00     0.003 A 
ENDROOT
TORSDOF 0
ENDMDL
