MODEL 1
REMARK minimizedAffinity 0.493926793
REMARK minimizedRMSD -1
REMARK  0 active torsions:
REMARK  status: ('A' for Active; 'I' for Inactive)
ROOT
ATOM      1  C2' OXE d   1      -5.334   0.438  -0.490  0.00  0.00     0.078 C 
ATOM      2  C1' OXE d   1      -3.646  -0.953  -2.250  0.00  0.00     0.078 C 
ATOM      3  C1  OXE d   1      -4.353   0.272  -2.774  0.00  0.00    -0.078 A 
ATOM      4  C2  OXE d   1      -5.213   0.919  -1.920  0.00  0.00    -0.078 A 
ATOM      5  C3  OXE d   1      -5.849   2.085  -2.335  0.00  0.00     0.003 A 
ATOM      6  C4  OXE d   1      -5.740   2.518  -3.662  0.00  0.00    -0.002 A 
ATOM      7  C5  OXE d   1      -4.900   1.850  -4.560  0.00  0.00    -0.002 A 
ATOM      8  C6  OXE d   1      -4.168   0.753  -4.121  0.00  0.00     0.003 A 
ENDROOT
TORSDOF 0
ENDMDL
