MODEL 1
REMARK minimizedAffinity 5.23837185
REMARK minimizedRMSD -1
REMARK  0 active torsions:
REMARK  status: ('A' for Active; 'I' for Inactive)
ROOT
ATOM      1  C2' OXE d   1      -0.995   1.476   3.745  0.00  0.00     0.078 C 
ATOM      2  C1' OXE d   1      -3.082   1.988   1.938  0.00  0.00     0.078 C 
ATOM      3  C1  OXE d   1      -1.672   2.270   1.483  0.00  0.00    -0.078 A 
ATOM      4  C2  OXE d   1      -0.661   2.060   2.390  0.00  0.00    -0.078 A 
ATOM      5  C3  OXE d   1       0.662   2.252   2.003  0.00  0.00     0.003 A 
ATOM      6  C4  OXE d   1       0.962   2.802   0.751  0.00  0.00    -0.002 A 
ATOM      7  C5  OXE d   1      -0.055   3.061  -0.173  0.00  0.00    -0.002 A 
ATOM      8  C6  OXE d   1      -1.371   2.760   0.161  0.00  0.00     0.003 A 
ENDROOT
TORSDOF 0
ENDMDL
