MODEL 1
REMARK minimizedAffinity 3.96656299
REMARK minimizedRMSD -1
REMARK  0 active torsions:
REMARK  status: ('A' for Active; 'I' for Inactive)
ROOT
ATOM      1  C2' OXE d   1      -0.544  -0.335  -1.657  0.00  0.00     0.078 C 
ATOM      2  C1' OXE d   1      -0.548  -3.012  -0.811  0.00  0.00     0.078 C 
ATOM      3  C1  OXE d   1       0.681  -2.185  -0.526  0.00  0.00    -0.078 A 
ATOM      4  C2  OXE d   1       0.693  -0.890  -0.985  0.00  0.00    -0.078 A 
ATOM      5  C3  OXE d   1       1.779  -0.067  -0.701  0.00  0.00     0.003 A 
ATOM      6  C4  OXE d   1       2.924  -0.591  -0.088  0.00  0.00    -0.002 A 
ATOM      7  C5  OXE d   1       2.948  -1.919   0.353  0.00  0.00    -0.002 A 
ATOM      8  C6  OXE d   1       1.822  -2.715   0.180  0.00  0.00     0.003 A 
ENDROOT
TORSDOF 0
ENDMDL
