MODEL 1
REMARK minimizedAffinity 9.61468124
REMARK minimizedRMSD -1
REMARK  0 active torsions:
REMARK  status: ('A' for Active; 'I' for Inactive)
ROOT
ATOM      1  C2' OXE d   1       1.461   2.690   2.211  0.00  0.00     0.078 C 
ATOM      2  C1' OXE d   1      -0.003   1.184   4.074  0.00  0.00     0.078 C 
ATOM      3  C1  OXE d   1      -0.703   1.610   2.807  0.00  0.00    -0.078 A 
ATOM      4  C2  OXE d   1       0.007   2.386   1.923  0.00  0.00    -0.078 A 
ATOM      5  C3  OXE d   1      -0.574   2.760   0.714  0.00  0.00     0.003 A 
ATOM      6  C4  OXE d   1      -1.922   2.483   0.460  0.00  0.00    -0.002 A 
ATOM      7  C5  OXE d   1      -2.675   1.728   1.365  0.00  0.00    -0.002 A 
ATOM      8  C6  OXE d   1      -2.070   1.248   2.522  0.00  0.00     0.003 A 
ENDROOT
TORSDOF 0
ENDMDL
