MODEL 1
REMARK minimizedAffinity 20.450407
REMARK minimizedRMSD -1
REMARK  0 active torsions:
REMARK  status: ('A' for Active; 'I' for Inactive)
ROOT
ATOM      1  C   UNL d   1       2.502  -5.130  -2.376  0.00  0.00     0.124 A 
ATOM      2  C1  UNL d   1       3.818  -5.465  -2.090  0.00  0.00     0.062 A 
ATOM      3  C2  UNL d   1       4.727  -5.676  -3.123  0.00  0.00     0.162 A 
ATOM      4  C3  UNL d   1       4.322  -5.551  -4.452  0.00  0.00    -0.034 A 
ATOM      5  C4  UNL d   1       2.997  -5.215  -4.732  0.00  0.00     0.162 A 
ATOM      6  C5  UNL d   1       2.092  -5.005  -3.696  0.00  0.00     0.062 A 
ATOM      7  F   UNL d   1       0.821  -4.681  -3.974  0.00  0.00    -0.097 F 
ATOM      8  F1  UNL d   1       2.575  -5.087  -5.998  0.00  0.00    -0.096 F 
ATOM      9  I   UNL d   1       5.678  -5.866  -6.000  0.00  0.00    -0.060 I 
ATOM     10  F2  UNL d   1       5.992  -5.998  -2.817  0.00  0.00    -0.096 F 
ATOM     11  F3  UNL d   1       4.216  -5.587  -0.815  0.00  0.00    -0.097 F 
ATOM     12  F4  UNL d   1       1.629  -4.928  -1.380  0.00  0.00    -0.092 F 
ENDROOT
TORSDOF 0
ENDMDL
