MODEL 1
REMARK minimizedAffinity 9.54776955
REMARK minimizedRMSD -1
REMARK  0 active torsions:
REMARK  status: ('A' for Active; 'I' for Inactive)
ROOT
ATOM      1  C   UNL d   1       2.209  -5.005  -2.524  0.00  0.00     0.124 A 
ATOM      2  C1  UNL d   1       3.542  -4.839  -2.175  0.00  0.00     0.062 A 
ATOM      3  C2  UNL d   1       4.545  -5.064  -3.114  0.00  0.00     0.162 A 
ATOM      4  C3  UNL d   1       4.218  -5.457  -4.412  0.00  0.00    -0.034 A 
ATOM      5  C4  UNL d   1       2.875  -5.623  -4.755  0.00  0.00     0.162 A 
ATOM      6  C5  UNL d   1       1.877  -5.397  -3.813  0.00  0.00     0.062 A 
ATOM      7  F   UNL d   1       0.589  -5.558  -4.152  0.00  0.00    -0.097 F 
ATOM      8  F1  UNL d   1       2.526  -6.000  -5.994  0.00  0.00    -0.096 F 
ATOM      9  I   UNL d   1       5.714  -5.795  -5.819  0.00  0.00    -0.060 I 
ATOM     10  F2  UNL d   1       5.825  -4.896  -2.749  0.00  0.00    -0.096 F 
ATOM     11  F3  UNL d   1       3.866  -4.462  -0.930  0.00  0.00    -0.097 F 
ATOM     12  F4  UNL d   1       1.247  -4.789  -1.618  0.00  0.00    -0.092 F 
ENDROOT
TORSDOF 0
ENDMDL
