MODEL 1
REMARK minimizedAffinity 13.394166
REMARK minimizedRMSD -1
REMARK  0 active torsions:
REMARK  status: ('A' for Active; 'I' for Inactive)
ROOT
ATOM      1  C   UNL d   1       2.440  -5.359  -2.373  0.00  0.00     0.124 A 
ATOM      2  C1  UNL d   1       2.027  -5.243  -3.693  0.00  0.00     0.062 A 
ATOM      3  C2  UNL d   1       2.946  -5.381  -4.729  0.00  0.00     0.162 A 
ATOM      4  C3  UNL d   1       4.288  -5.637  -4.450  0.00  0.00    -0.034 A 
ATOM      5  C4  UNL d   1       4.697  -5.751  -3.120  0.00  0.00     0.162 A 
ATOM      6  C5  UNL d   1       3.774  -5.613  -2.088  0.00  0.00     0.062 A 
ATOM      7  F   UNL d   1       4.175  -5.725  -0.813  0.00  0.00    -0.097 F 
ATOM      8  F1  UNL d   1       5.980  -5.997  -2.815  0.00  0.00    -0.096 F 
ATOM      9  I   UNL d   1       5.666  -5.843  -5.996  0.00  0.00    -0.060 I 
ATOM     10  F2  UNL d   1       2.519  -5.264  -5.995  0.00  0.00    -0.096 F 
ATOM     11  F3  UNL d   1       0.738  -4.997  -3.972  0.00  0.00    -0.097 F 
ATOM     12  F4  UNL d   1       1.554  -5.225  -1.379  0.00  0.00    -0.092 F 
ENDROOT
TORSDOF 0
ENDMDL
