MODEL 1
REMARK minimizedAffinity 11.6818514
REMARK minimizedRMSD -1
REMARK  0 active torsions:
REMARK  status: ('A' for Active; 'I' for Inactive)
ROOT
ATOM      1  C   UNL d   1       3.012   1.238   0.680  0.00  0.00     0.124 A 
ATOM      2  C1  UNL d   1       1.768   1.832   0.515  0.00  0.00     0.062 A 
ATOM      3  C2  UNL d   1       1.673   3.191   0.232  0.00  0.00     0.162 A 
ATOM      4  C3  UNL d   1       2.826   3.967   0.110  0.00  0.00    -0.034 A 
ATOM      5  C4  UNL d   1       4.074   3.363   0.278  0.00  0.00     0.162 A 
ATOM      6  C5  UNL d   1       4.163   2.004   0.561  0.00  0.00     0.062 A 
ATOM      7  F   UNL d   1       5.366   1.432   0.720  0.00  0.00    -0.097 F 
ATOM      8  F1  UNL d   1       5.202   4.079   0.168  0.00  0.00    -0.096 F 
ATOM      9  I   UNL d   1       2.689   6.000  -0.313  0.00  0.00    -0.060 I 
ATOM     10  F2  UNL d   1       0.458   3.738   0.078  0.00  0.00    -0.096 F 
ATOM     11  F3  UNL d   1       0.654   1.094   0.630  0.00  0.00    -0.097 F 
ATOM     12  F4  UNL d   1       3.100  -0.070   0.953  0.00  0.00    -0.092 F 
ENDROOT
TORSDOF 0
ENDMDL
