MODEL 1
REMARK minimizedAffinity 7.02514315
REMARK minimizedRMSD -1
REMARK  0 active torsions:
REMARK  status: ('A' for Active; 'I' for Inactive)
ROOT
ATOM      1  C   UNL d   1       2.521  -5.019  -2.402  0.00  0.00     0.124 A 
ATOM      2  C1  UNL d   1       3.800  -5.427  -2.051  0.00  0.00     0.062 A 
ATOM      3  C2  UNL d   1       4.772  -5.605  -3.032  0.00  0.00     0.162 A 
ATOM      4  C3  UNL d   1       4.468  -5.375  -4.374  0.00  0.00    -0.034 A 
ATOM      5  C4  UNL d   1       3.179  -4.966  -4.719  0.00  0.00     0.162 A 
ATOM      6  C5  UNL d   1       2.211  -4.789  -3.735  0.00  0.00     0.062 A 
ATOM      7  F   UNL d   1       0.976  -4.395  -4.076  0.00  0.00    -0.097 F 
ATOM      8  F1  UNL d   1       2.853  -4.735  -6.000  0.00  0.00    -0.096 F 
ATOM      9  I   UNL d   1       5.918  -5.640  -5.843  0.00  0.00    -0.060 I 
ATOM     10  F2  UNL d   1       6.000  -6.000  -2.664  0.00  0.00    -0.096 F 
ATOM     11  F3  UNL d   1       4.101  -5.651  -0.764  0.00  0.00    -0.097 F 
ATOM     12  F4  UNL d   1       1.588  -4.850  -1.457  0.00  0.00    -0.092 F 
ENDROOT
TORSDOF 0
ENDMDL
