MODEL 1
REMARK minimizedAffinity 12.4474859
REMARK minimizedRMSD -1
REMARK  0 active torsions:
REMARK  status: ('A' for Active; 'I' for Inactive)
ROOT
ATOM      1  C   UNL d   1       4.347   1.351   0.200  0.00  0.00     0.124 A 
ATOM      2  C1  UNL d   1       4.034   1.322   1.552  0.00  0.00     0.062 A 
ATOM      3  C2  UNL d   1       2.705   1.265   1.963  0.00  0.00     0.162 A 
ATOM      4  C3  UNL d   1       1.678   1.234   1.019  0.00  0.00    -0.034 A 
ATOM      5  C4  UNL d   1       2.000   1.264  -0.339  0.00  0.00     0.162 A 
ATOM      6  C5  UNL d   1       3.330   1.322  -0.744  0.00  0.00     0.062 A 
ATOM      7  F   UNL d   1       3.630   1.350  -2.050  0.00  0.00    -0.097 F 
ATOM      8  F1  UNL d   1       1.038   1.236  -1.272  0.00  0.00    -0.096 F 
ATOM      9  I   UNL d   1      -0.310   1.148   1.629  0.00  0.00    -0.060 I 
ATOM     10  F2  UNL d   1       2.433   1.238   3.276  0.00  0.00    -0.096 F 
ATOM     11  F3  UNL d   1       5.015   1.351   2.467  0.00  0.00    -0.097 F 
ATOM     12  F4  UNL d   1       5.626   1.408  -0.192  0.00  0.00    -0.092 F 
ENDROOT
TORSDOF 0
ENDMDL
