MODEL 1
REMARK minimizedAffinity 8.59674931
REMARK minimizedRMSD -1
REMARK  0 active torsions:
REMARK  status: ('A' for Active; 'I' for Inactive)
ROOT
ATOM      1  C   UNL d   1       2.404  -5.704  -2.378  0.00  0.00     0.124 A 
ATOM      2  C1  UNL d   1       1.975  -5.748  -3.697  0.00  0.00     0.062 A 
ATOM      3  C2  UNL d   1       2.902  -5.819  -4.733  0.00  0.00     0.162 A 
ATOM      4  C3  UNL d   1       4.268  -5.847  -4.454  0.00  0.00    -0.034 A 
ATOM      5  C4  UNL d   1       4.693  -5.802  -3.125  0.00  0.00     0.162 A 
ATOM      6  C5  UNL d   1       3.762  -5.732  -2.093  0.00  0.00     0.062 A 
ATOM      7  F   UNL d   1       4.179  -5.690  -0.819  0.00  0.00    -0.097 F 
ATOM      8  F1  UNL d   1       5.999  -5.828  -2.821  0.00  0.00    -0.096 F 
ATOM      9  I   UNL d   1       5.658  -5.953  -6.000  0.00  0.00    -0.060 I 
ATOM     10  F2  UNL d   1       2.459  -5.859  -5.999  0.00  0.00    -0.096 F 
ATOM     11  F3  UNL d   1       0.664  -5.721  -3.976  0.00  0.00    -0.097 F 
ATOM     12  F4  UNL d   1       1.510  -5.635  -1.384  0.00  0.00    -0.092 F 
ENDROOT
TORSDOF 0
ENDMDL
