MODEL 1
REMARK minimizedAffinity 23.3272171
REMARK minimizedRMSD -1
REMARK  0 active torsions:
REMARK  status: ('A' for Active; 'I' for Inactive)
ROOT
ATOM      1  C   UNL d   1       2.459  -5.320  -2.303  0.00  0.00     0.124 A 
ATOM      2  C1  UNL d   1       2.024  -5.642  -3.581  0.00  0.00     0.062 A 
ATOM      3  C2  UNL d   1       2.929  -5.685  -4.638  0.00  0.00     0.162 A 
ATOM      4  C3  UNL d   1       4.278  -5.406  -4.422  0.00  0.00    -0.034 A 
ATOM      5  C4  UNL d   1       4.708  -5.081  -3.134  0.00  0.00     0.162 A 
ATOM      6  C5  UNL d   1       3.800  -5.040  -2.081  0.00  0.00     0.062 A 
ATOM      7  F   UNL d   1       4.221  -4.728  -0.847  0.00  0.00    -0.097 F 
ATOM      8  F1  UNL d   1       5.998  -4.807  -2.890  0.00  0.00    -0.096 F 
ATOM      9  I   UNL d   1       5.634  -5.468  -6.000  0.00  0.00    -0.060 I 
ATOM     10  F2  UNL d   1       2.481  -6.000  -5.863  0.00  0.00    -0.096 F 
ATOM     11  F3  UNL d   1       0.729  -5.913  -3.799  0.00  0.00    -0.097 F 
ATOM     12  F4  UNL d   1       1.586  -5.278  -1.288  0.00  0.00    -0.092 F 
ENDROOT
TORSDOF 0
ENDMDL
