MODEL 1
REMARK minimizedAffinity 6.86856508
REMARK minimizedRMSD -1
REMARK  0 active torsions:
REMARK  status: ('A' for Active; 'I' for Inactive)
ROOT
ATOM      1  C   UNL d   1       1.933   2.132   1.477  0.00  0.00     0.124 A 
ATOM      2  C1  UNL d   1       0.695   2.236   0.858  0.00  0.00     0.062 A 
ATOM      3  C2  UNL d   1       0.590   2.107  -0.524  0.00  0.00     0.162 A 
ATOM      4  C3  UNL d   1       1.727   1.871  -1.297  0.00  0.00    -0.034 A 
ATOM      5  C4  UNL d   1       2.969   1.770  -0.668  0.00  0.00     0.162 A 
ATOM      6  C5  UNL d   1       3.068   1.899   0.714  0.00  0.00     0.062 A 
ATOM      7  F   UNL d   1       4.265   1.799   1.310  0.00  0.00    -0.097 F 
ATOM      8  F1  UNL d   1       4.082   1.544  -1.381  0.00  0.00    -0.096 F 
ATOM      9  I   UNL d   1       1.574   1.678  -3.363  0.00  0.00    -0.060 I 
ATOM     10  F2  UNL d   1      -0.620   2.211  -1.095  0.00  0.00    -0.096 F 
ATOM     11  F3  UNL d   1      -0.404   2.462   1.593  0.00  0.00    -0.097 F 
ATOM     12  F4  UNL d   1       2.031   2.258   2.807  0.00  0.00    -0.092 F 
ENDROOT
TORSDOF 0
ENDMDL
