MODEL 1
REMARK minimizedAffinity 9.66976547
REMARK minimizedRMSD -1
REMARK  0 active torsions:
REMARK  status: ('A' for Active; 'I' for Inactive)
ROOT
ATOM      1  C   UNL d   1      -2.375   2.455  -5.110  0.00  0.00     0.124 A 
ATOM      2  C1  UNL d   1      -2.087   3.775  -5.429  0.00  0.00     0.062 A 
ATOM      3  C2  UNL d   1      -3.118   4.675  -5.684  0.00  0.00     0.162 A 
ATOM      4  C3  UNL d   1      -4.448   4.258  -5.619  0.00  0.00    -0.034 A 
ATOM      5  C4  UNL d   1      -4.730   2.929  -5.298  0.00  0.00     0.162 A 
ATOM      6  C5  UNL d   1      -3.696   2.034  -5.045  0.00  0.00     0.062 A 
ATOM      7  F   UNL d   1      -3.976   0.759  -4.736  0.00  0.00    -0.097 F 
ATOM      8  F1  UNL d   1      -5.997   2.495  -5.227  0.00  0.00    -0.096 F 
ATOM      9  I   UNL d   1      -5.992   5.601  -5.999  0.00  0.00    -0.060 I 
ATOM     10  F2  UNL d   1      -2.810   5.944  -5.990  0.00  0.00    -0.096 F 
ATOM     11  F3  UNL d   1      -0.812   4.184  -5.494  0.00  0.00    -0.097 F 
ATOM     12  F4  UNL d   1      -1.381   1.591  -4.867  0.00  0.00    -0.092 F 
ENDROOT
TORSDOF 0
ENDMDL
