MODEL 1
REMARK minimizedAffinity 14.7351742
REMARK minimizedRMSD -1
REMARK  0 active torsions:
REMARK  status: ('A' for Active; 'I' for Inactive)
ROOT
ATOM      1  C   UNL d   1       4.308   1.474   0.448  0.00  0.00     0.124 A 
ATOM      2  C1  UNL d   1       4.039   1.845   1.758  0.00  0.00     0.062 A 
ATOM      3  C2  UNL d   1       2.725   2.025   2.179  0.00  0.00     0.162 A 
ATOM      4  C3  UNL d   1       1.668   1.834   1.289  0.00  0.00    -0.034 A 
ATOM      5  C4  UNL d   1       1.946   1.462  -0.028  0.00  0.00     0.162 A 
ATOM      6  C5  UNL d   1       3.262   1.283  -0.444  0.00  0.00     0.062 A 
ATOM      7  F   UNL d   1       3.519   0.925  -1.710  0.00  0.00    -0.097 F 
ATOM      8  F1  UNL d   1       0.954   1.270  -0.910  0.00  0.00    -0.096 F 
ATOM      9  I   UNL d   1      -0.299   2.103   1.914  0.00  0.00    -0.060 I 
ATOM     10  F2  UNL d   1       2.495   2.384   3.451  0.00  0.00    -0.096 F 
ATOM     11  F3  UNL d   1       5.048   2.031   2.621  0.00  0.00    -0.097 F 
ATOM     12  F4  UNL d   1       5.574   1.302   0.045  0.00  0.00    -0.092 F 
ENDROOT
TORSDOF 0
ENDMDL
