MODEL 1
REMARK minimizedAffinity 11.515564
REMARK minimizedRMSD -1
REMARK  0 active torsions:
REMARK  status: ('A' for Active; 'I' for Inactive)
ROOT
ATOM      1  C   UNL d   1       1.393   1.993   0.702  0.00  0.00     0.124 A 
ATOM      2  C1  UNL d   1       0.672   3.067   0.199  0.00  0.00     0.062 A 
ATOM      3  C2  UNL d   1       1.333   4.212  -0.236  0.00  0.00     0.162 A 
ATOM      4  C3  UNL d   1       2.724   4.289  -0.169  0.00  0.00    -0.034 A 
ATOM      5  C4  UNL d   1       3.442   3.205   0.339  0.00  0.00     0.162 A 
ATOM      6  C5  UNL d   1       2.777   2.063   0.772  0.00  0.00     0.062 A 
ATOM      7  F   UNL d   1       3.475   1.026   1.258  0.00  0.00    -0.097 F 
ATOM      8  F1  UNL d   1       4.781   3.246   0.417  0.00  0.00    -0.096 F 
ATOM      9  I   UNL d   1       3.717   6.000  -0.817  0.00  0.00    -0.060 I 
ATOM     10  F2  UNL d   1       0.611   5.234  -0.717  0.00  0.00    -0.096 F 
ATOM     11  F3  UNL d   1      -0.666   3.002   0.131  0.00  0.00    -0.097 F 
ATOM     12  F4  UNL d   1       0.754   0.892   1.120  0.00  0.00    -0.092 F 
ENDROOT
TORSDOF 0
ENDMDL
