MODEL 1
REMARK minimizedAffinity 6.72264147
REMARK minimizedRMSD -1
REMARK  0 active torsions:
REMARK  status: ('A' for Active; 'I' for Inactive)
ROOT
ATOM      1  C   UNL d   1       4.787  -5.395  -3.928  0.00  0.00     0.124 A 
ATOM      2  C1  UNL d   1       4.666  -5.044  -2.590  0.00  0.00     0.062 A 
ATOM      3  C2  UNL d   1       3.407  -4.862  -2.026  0.00  0.00     0.162 A 
ATOM      4  C3  UNL d   1       2.258  -5.030  -2.799  0.00  0.00    -0.034 A 
ATOM      5  C4  UNL d   1       2.388  -5.382  -4.143  0.00  0.00     0.162 A 
ATOM      6  C5  UNL d   1       3.648  -5.563  -4.703  0.00  0.00     0.062 A 
ATOM      7  F   UNL d   1       3.764  -5.901  -5.995  0.00  0.00    -0.097 F 
ATOM      8  F1  UNL d   1       1.304  -5.551  -4.915  0.00  0.00    -0.096 F 
ATOM      9  I   UNL d   1       0.373  -4.758  -1.958  0.00  0.00    -0.060 I 
ATOM     10  F2  UNL d   1       3.319  -4.524  -0.730  0.00  0.00    -0.096 F 
ATOM     11  F3  UNL d   1       5.765  -4.880  -1.839  0.00  0.00    -0.097 F 
ATOM     12  F4  UNL d   1       6.000  -5.569  -4.468  0.00  0.00    -0.092 F 
ENDROOT
TORSDOF 0
ENDMDL
