MODEL 1
REMARK minimizedAffinity 9.77175236
REMARK minimizedRMSD -1
REMARK  0 active torsions:
REMARK  status: ('A' for Active; 'I' for Inactive)
ROOT
ATOM      1  C   UNL d   1      -2.363   2.360  -5.448  0.00  0.00     0.124 A 
ATOM      2  C1  UNL d   1      -2.082   3.705  -5.647  0.00  0.00     0.062 A 
ATOM      3  C2  UNL d   1      -3.119   4.620  -5.805  0.00  0.00     0.162 A 
ATOM      4  C3  UNL d   1      -4.447   4.195  -5.764  0.00  0.00    -0.034 A 
ATOM      5  C4  UNL d   1      -4.721   2.840  -5.564  0.00  0.00     0.162 A 
ATOM      6  C5  UNL d   1      -3.682   1.929  -5.407  0.00  0.00     0.062 A 
ATOM      7  F   UNL d   1      -3.955   0.631  -5.215  0.00  0.00    -0.097 F 
ATOM      8  F1  UNL d   1      -5.986   2.397  -5.519  0.00  0.00    -0.096 F 
ATOM      9  I   UNL d   1      -5.999   5.560  -5.999  0.00  0.00    -0.060 I 
ATOM     10  F2  UNL d   1      -2.818   5.914  -5.996  0.00  0.00    -0.096 F 
ATOM     11  F3  UNL d   1      -0.809   4.124  -5.689  0.00  0.00    -0.097 F 
ATOM     12  F4  UNL d   1      -1.364   1.481  -5.298  0.00  0.00    -0.092 F 
ENDROOT
TORSDOF 0
ENDMDL
