MODEL 1
REMARK minimizedAffinity 6.2897892
REMARK minimizedRMSD -1
REMARK  0 active torsions:
REMARK  status: ('A' for Active; 'I' for Inactive)
ROOT
ATOM      1  C   UNL d   1       1.665   1.282   0.264  0.00  0.00     0.124 A 
ATOM      2  C1  UNL d   1       0.296   1.190   0.055  0.00  0.00     0.062 A 
ATOM      3  C2  UNL d   1      -0.589   1.804   0.936  0.00  0.00     0.162 A 
ATOM      4  C3  UNL d   1      -0.109   2.516   2.035  0.00  0.00    -0.034 A 
ATOM      5  C4  UNL d   1       1.269   2.603   2.239  0.00  0.00     0.162 A 
ATOM      6  C5  UNL d   1       2.151   1.988   1.356  0.00  0.00     0.062 A 
ATOM      7  F   UNL d   1       3.473   2.078   1.560  0.00  0.00    -0.097 F 
ATOM      8  F1  UNL d   1       1.766   3.280   3.285  0.00  0.00    -0.096 F 
ATOM      9  I   UNL d   1      -1.430   3.435   3.354  0.00  0.00    -0.060 I 
ATOM     10  F2  UNL d   1      -1.907   1.698   0.709  0.00  0.00    -0.096 F 
ATOM     11  F3  UNL d   1      -0.175   0.507  -0.999  0.00  0.00    -0.097 F 
ATOM     12  F4  UNL d   1       2.515   0.690  -0.585  0.00  0.00    -0.092 F 
ENDROOT
TORSDOF 0
ENDMDL
