MODEL 1
REMARK minimizedAffinity 8.84262657
REMARK minimizedRMSD -1
REMARK  0 active torsions:
REMARK  status: ('A' for Active; 'I' for Inactive)
ROOT
ATOM      1  C   UNL d   1       4.711  -5.680  -3.736  0.00  0.00     0.124 A 
ATOM      2  C1  UNL d   1       3.752  -5.734  -4.738  0.00  0.00     0.062 A 
ATOM      3  C2  UNL d   1       2.411  -5.513  -4.436  0.00  0.00     0.162 A 
ATOM      4  C3  UNL d   1       2.021  -5.237  -3.125  0.00  0.00    -0.034 A 
ATOM      5  C4  UNL d   1       2.991  -5.185  -2.123  0.00  0.00     0.162 A 
ATOM      6  C5  UNL d   1       4.330  -5.406  -2.430  0.00  0.00     0.062 A 
ATOM      7  F   UNL d   1       5.255  -5.354  -1.460  0.00  0.00    -0.097 F 
ATOM      8  F1  UNL d   1       2.651  -4.922  -0.853  0.00  0.00    -0.096 F 
ATOM      9  I   UNL d   1       0.017  -4.907  -2.670  0.00  0.00    -0.060 I 
ATOM     10  F2  UNL d   1       1.506  -5.571  -5.424  0.00  0.00    -0.096 F 
ATOM     11  F3  UNL d   1       4.117  -5.999  -6.000  0.00  0.00    -0.097 F 
ATOM     12  F4  UNL d   1       6.000  -5.893  -4.029  0.00  0.00    -0.092 F 
ENDROOT
TORSDOF 0
ENDMDL
