MODEL 1
REMARK minimizedAffinity 7.29575872
REMARK minimizedRMSD -1
REMARK  0 active torsions:
REMARK  status: ('A' for Active; 'I' for Inactive)
ROOT
ATOM      1  C   UNL d   1       2.527   1.339  -0.011  0.00  0.00     0.124 A 
ATOM      2  C1  UNL d   1       1.148   1.325  -0.164  0.00  0.00     0.062 A 
ATOM      3  C2  UNL d   1       0.337   2.014   0.734  0.00  0.00     0.162 A 
ATOM      4  C3  UNL d   1       0.904   2.724   1.792  0.00  0.00    -0.034 A 
ATOM      5  C4  UNL d   1       2.292   2.733   1.940  0.00  0.00     0.162 A 
ATOM      6  C5  UNL d   1       3.098   2.043   1.040  0.00  0.00     0.062 A 
ATOM      7  F   UNL d   1       4.431   2.057   1.189  0.00  0.00    -0.097 F 
ATOM      8  F1  UNL d   1       2.870   3.405   2.946  0.00  0.00    -0.096 F 
ATOM      9  I   UNL d   1      -0.305   3.756   3.136  0.00  0.00    -0.060 I 
ATOM     10  F2  UNL d   1      -0.993   1.983   0.562  0.00  0.00    -0.096 F 
ATOM     11  F3  UNL d   1       0.594   0.646  -1.178  0.00  0.00    -0.097 F 
ATOM     12  F4  UNL d   1       3.305   0.675  -0.876  0.00  0.00    -0.092 F 
ENDROOT
TORSDOF 0
ENDMDL
