MODEL 1
REMARK minimizedAffinity 10.2411823
REMARK minimizedRMSD -1
REMARK  0 active torsions:
REMARK  status: ('A' for Active; 'I' for Inactive)
ROOT
ATOM      1  C   UNL d   1      -3.204   1.909  -3.787  0.00  0.00     0.172 C 
ATOM      2  N   UNL d   1      -1.852   2.323  -4.083  0.00  0.00    -0.070 N 
ATOM      3  C1  UNL d   1      -1.467   3.580  -4.464  0.00  0.00    -0.004 A 
ATOM      4  C2  UNL d   1      -0.102   3.566  -4.650  0.00  0.00    -0.047 A 
ATOM      5  C3  UNL d   1       0.350   2.254  -4.370  0.00  0.00    -0.047 A 
ATOM      6  C4  UNL d   1      -0.755   1.505  -4.022  0.00  0.00    -0.004 A 
ENDROOT
TORSDOF 0
ENDMDL
