MODEL 1
REMARK minimizedAffinity 6.04649067
REMARK minimizedRMSD -1
REMARK  0 active torsions:
REMARK  status: ('A' for Active; 'I' for Inactive)
ROOT
ATOM      1  C   UNL d   1      -2.793   0.370   5.982  0.00  0.00     0.172 C 
ATOM      2  N   UNL d   1      -3.888   1.312   5.987  0.00  0.00    -0.070 N 
ATOM      3  C1  UNL d   1      -3.767   2.676   5.985  0.00  0.00    -0.004 A 
ATOM      4  C2  UNL d   1      -5.037   3.212   5.991  0.00  0.00    -0.047 A 
ATOM      5  C3  UNL d   1      -5.952   2.132   5.998  0.00  0.00    -0.047 A 
ATOM      6  C4  UNL d   1      -5.214   0.968   5.996  0.00  0.00    -0.004 A 
ENDROOT
TORSDOF 0
ENDMDL
