MODEL 1
REMARK minimizedAffinity 3.84982038
REMARK minimizedRMSD -1
REMARK  0 active torsions:
REMARK  status: ('A' for Active; 'I' for Inactive)
ROOT
ATOM      1  C   UNL d   1      -2.766   0.122   5.987  0.00  0.00     0.172 C 
ATOM      2  N   UNL d   1      -2.289  -1.160   5.523  0.00  0.00    -0.070 N 
ATOM      3  C1  UNL d   1      -2.876  -1.924   4.549  0.00  0.00    -0.004 A 
ATOM      4  C2  UNL d   1      -2.120  -3.067   4.398  0.00  0.00    -0.047 A 
ATOM      5  C3  UNL d   1      -1.043  -2.987   5.313  0.00  0.00    -0.047 A 
ATOM      6  C4  UNL d   1      -1.172  -1.796   5.996  0.00  0.00    -0.004 A 
ENDROOT
TORSDOF 0
ENDMDL
