MODEL 1
REMARK minimizedAffinity 7.03144312
REMARK minimizedRMSD -1
REMARK  0 active torsions:
REMARK  status: ('A' for Active; 'I' for Inactive)
ROOT
ATOM      1  C   UNL d   1      -3.156   3.741  -4.521  0.00  0.00     0.172 C 
ATOM      2  N   UNL d   1      -4.285   4.641  -4.481  0.00  0.00    -0.070 N 
ATOM      3  C1  UNL d   1      -5.009   5.062  -5.564  0.00  0.00    -0.004 A 
ATOM      4  C2  UNL d   1      -5.997   5.908  -5.109  0.00  0.00    -0.047 A 
ATOM      5  C3  UNL d   1      -5.861   5.999  -3.703  0.00  0.00    -0.047 A 
ATOM      6  C4  UNL d   1      -4.794   5.205  -3.341  0.00  0.00    -0.004 A 
ENDROOT
TORSDOF 0
ENDMDL
