MODEL 1
REMARK minimizedAffinity 6.74761724
REMARK minimizedRMSD -1
REMARK  0 active torsions:
REMARK  status: ('A' for Active; 'I' for Inactive)
ROOT
ATOM      1  C   UNL d   1      -4.972   5.900  -1.094  0.00  0.00     0.172 C 
ATOM      2  N   UNL d   1      -4.908   5.927  -2.536  0.00  0.00    -0.070 N 
ATOM      3  C1  UNL d   1      -5.984   5.945  -3.383  0.00  0.00    -0.004 A 
ATOM      4  C2  UNL d   1      -5.504   5.969  -4.674  0.00  0.00    -0.047 A 
ATOM      5  C3  UNL d   1      -4.091   5.965  -4.602  0.00  0.00    -0.047 A 
ATOM      6  C4  UNL d   1      -3.749   5.939  -3.266  0.00  0.00    -0.004 A 
ENDROOT
TORSDOF 0
ENDMDL
