MODEL 1
REMARK minimizedAffinity 10.2901602
REMARK minimizedRMSD -1
REMARK  0 active torsions:
REMARK  status: ('A' for Active; 'I' for Inactive)
ROOT
ATOM      1  C   UNL d   1      -2.865   0.382   5.838  0.00  0.00     0.172 C 
ATOM      2  N   UNL d   1      -3.796   1.484   5.903  0.00  0.00    -0.070 N 
ATOM      3  C1  UNL d   1      -3.460   2.811   5.941  0.00  0.00    -0.004 A 
ATOM      4  C2  UNL d   1      -4.628   3.541   5.999  0.00  0.00    -0.047 A 
ATOM      5  C3  UNL d   1      -5.703   2.620   5.997  0.00  0.00    -0.047 A 
ATOM      6  C4  UNL d   1      -5.159   1.354   5.937  0.00  0.00    -0.004 A 
ENDROOT
TORSDOF 0
ENDMDL
