MODEL 1
REMARK minimizedAffinity -0.663208842
REMARK minimizedRMSD -1
REMARK  0 active torsions:
REMARK  status: ('A' for Active; 'I' for Inactive)
ROOT
ATOM      1  C   UNL d   1      -3.390   0.293   5.948  0.00  0.00     0.172 C 
ATOM      2  N   UNL d   1      -4.133   1.531   5.967  0.00  0.00    -0.070 N 
ATOM      3  C1  UNL d   1      -5.497   1.644   5.984  0.00  0.00    -0.004 A 
ATOM      4  C2  UNL d   1      -5.810   2.986   6.000  0.00  0.00    -0.047 A 
ATOM      5  C3  UNL d   1      -4.591   3.705   5.990  0.00  0.00    -0.047 A 
ATOM      6  C4  UNL d   1      -3.569   2.779   5.970  0.00  0.00    -0.004 A 
ENDROOT
TORSDOF 0
ENDMDL
