MODEL 1
REMARK minimizedAffinity 3.90941358
REMARK minimizedRMSD -1
REMARK  0 active torsions:
REMARK  status: ('A' for Active; 'I' for Inactive)
ROOT
ATOM      1  C   UNL d   1      -0.443  -5.914   1.831  0.00  0.00     0.172 C 
ATOM      2  N   UNL d   1      -1.058  -4.617   1.668  0.00  0.00    -0.070 N 
ATOM      3  C1  UNL d   1      -0.931  -3.805   0.573  0.00  0.00    -0.004 A 
ATOM      4  C2  UNL d   1      -1.667  -2.664   0.806  0.00  0.00    -0.047 A 
ATOM      5  C3  UNL d   1      -2.256  -2.794   2.086  0.00  0.00    -0.047 A 
ATOM      6  C4  UNL d   1      -1.862  -4.012   2.598  0.00  0.00    -0.004 A 
ENDROOT
TORSDOF 0
ENDMDL
