MODEL 1
REMARK minimizedAffinity 3.10018063
REMARK minimizedRMSD -1
REMARK  0 active torsions:
REMARK  status: ('A' for Active; 'I' for Inactive)
ROOT
ATOM      1  C   UNL d   1      -3.078   1.873  -3.343  0.00  0.00     0.172 C 
ATOM      2  N   UNL d   1      -2.234   2.559  -4.293  0.00  0.00    -0.070 N 
ATOM      3  C1  UNL d   1      -0.866   2.511  -4.326  0.00  0.00    -0.004 A 
ATOM      4  C2  UNL d   1      -0.442   3.295  -5.377  0.00  0.00    -0.047 A 
ATOM      5  C3  UNL d   1      -1.595   3.833  -5.997  0.00  0.00    -0.047 A 
ATOM      6  C4  UNL d   1      -2.691   3.361  -5.306  0.00  0.00    -0.004 A 
ENDROOT
TORSDOF 0
ENDMDL
