MODEL 1
REMARK minimizedAffinity 6.67997122
REMARK minimizedRMSD -1
REMARK  0 active torsions:
REMARK  status: ('A' for Active; 'I' for Inactive)
ROOT
ATOM      1  C   UNL d   1      -0.680  -1.092  -2.618  0.00  0.00     0.172 C 
ATOM      2  N   UNL d   1      -1.870  -0.976  -1.808  0.00  0.00    -0.070 N 
ATOM      3  C1  UNL d   1      -2.892  -0.090  -2.014  0.00  0.00    -0.004 A 
ATOM      4  C2  UNL d   1      -3.835  -0.297  -1.030  0.00  0.00    -0.047 A 
ATOM      5  C3  UNL d   1      -3.362  -1.344  -0.204  0.00  0.00    -0.047 A 
ATOM      6  C4  UNL d   1      -2.143  -1.746  -0.708  0.00  0.00    -0.004 A 
ENDROOT
TORSDOF 0
ENDMDL
