MODEL 1
REMARK minimizedAffinity 12.0978441
REMARK minimizedRMSD -1
REMARK  0 active torsions:
REMARK  status: ('A' for Active; 'I' for Inactive)
ROOT
ATOM      1  C   UNL d   1      -4.732   2.642  -5.796  0.00  0.00     0.172 C 
ATOM      2  N   UNL d   1      -5.065   3.985  -5.382  0.00  0.00    -0.070 N 
ATOM      3  C1  UNL d   1      -5.967   4.810  -5.998  0.00  0.00    -0.004 A 
ATOM      4  C2  UNL d   1      -5.997   5.999  -5.300  0.00  0.00    -0.047 A 
ATOM      5  C3  UNL d   1      -5.080   5.883  -4.228  0.00  0.00    -0.047 A 
ATOM      6  C4  UNL d   1      -4.517   4.627  -4.302  0.00  0.00    -0.004 A 
ENDROOT
TORSDOF 0
ENDMDL
