MODEL 1
REMARK minimizedAffinity 1.94223559
REMARK minimizedRMSD -1
REMARK  0 active torsions:
REMARK  status: ('A' for Active; 'I' for Inactive)
ROOT
ATOM      1  C   UNL d   1      -5.847   2.924   5.986  0.00  0.00     0.172 C 
ATOM      2  N   UNL d   1      -4.886   1.846   5.985  0.00  0.00    -0.070 N 
ATOM      3  C1  UNL d   1      -5.185   0.510   5.999  0.00  0.00    -0.004 A 
ATOM      4  C2  UNL d   1      -3.998  -0.189   5.992  0.00  0.00    -0.047 A 
ATOM      5  C3  UNL d   1      -2.948   0.760   5.975  0.00  0.00    -0.047 A 
ATOM      6  C4  UNL d   1      -3.526   2.012   5.971  0.00  0.00    -0.004 A 
ENDROOT
TORSDOF 0
ENDMDL
