MODEL 1
REMARK minimizedAffinity 4.57166004
REMARK minimizedRMSD -1
REMARK  0 active torsions:
REMARK  status: ('A' for Active; 'I' for Inactive)
ROOT
ATOM      1  C   UNL d   1      -4.514   2.920   0.748  0.00  0.00     0.172 C 
ATOM      2  N   UNL d   1      -4.873   4.160   0.101  0.00  0.00    -0.070 N 
ATOM      3  C1  UNL d   1      -4.148   4.789  -0.876  0.00  0.00    -0.004 A 
ATOM      4  C2  UNL d   1      -4.824   5.937  -1.230  0.00  0.00    -0.047 A 
ATOM      5  C3  UNL d   1      -5.995   6.000  -0.438  0.00  0.00    -0.047 A 
ATOM      6  C4  UNL d   1      -6.000   4.887   0.377  0.00  0.00    -0.004 A 
ENDROOT
TORSDOF 0
ENDMDL
