MODEL 1
REMARK minimizedAffinity 3.9504571
REMARK minimizedRMSD -1
REMARK  0 active torsions:
REMARK  status: ('A' for Active; 'I' for Inactive)
ROOT
ATOM      1  C   UNL d   1      -3.585   3.109  -5.818  0.00  0.00     0.172 C 
ATOM      2  N   UNL d   1      -2.225   2.952  -5.359  0.00  0.00    -0.070 N 
ATOM      3  C1  UNL d   1      -1.108   3.418  -6.000  0.00  0.00    -0.004 A 
ATOM      4  C2  UNL d   1      -0.011   3.067  -5.243  0.00  0.00    -0.047 A 
ATOM      5  C3  UNL d   1      -0.485   2.365  -4.110  0.00  0.00    -0.047 A 
ATOM      6  C4  UNL d   1      -1.859   2.308  -4.207  0.00  0.00    -0.004 A 
ENDROOT
TORSDOF 0
ENDMDL
