MODEL 1
REMARK minimizedAffinity 3.65686274
REMARK minimizedRMSD -1
REMARK  0 active torsions:
REMARK  status: ('A' for Active; 'I' for Inactive)
ROOT
ATOM      1  C   UNL d   1      -2.959   3.742  -4.420  0.00  0.00     0.172 C 
ATOM      2  N   UNL d   1      -4.116   4.506  -4.824  0.00  0.00    -0.070 N 
ATOM      3  C1  UNL d   1      -4.815   4.339  -5.990  0.00  0.00    -0.004 A 
ATOM      4  C2  UNL d   1      -5.844   5.256  -6.000  0.00  0.00    -0.047 A 
ATOM      5  C3  UNL d   1      -5.760   6.000  -4.799  0.00  0.00    -0.047 A 
ATOM      6  C4  UNL d   1      -4.681   5.515  -4.090  0.00  0.00    -0.004 A 
ENDROOT
TORSDOF 0
ENDMDL
