MODEL 1
REMARK minimizedAffinity 19.4380455
REMARK minimizedRMSD -1
REMARK  3 active torsions:
REMARK  status: ('A' for Active; 'I' for Inactive)
REMARK    1  A    between atoms: C3'_2  and  C2'_3 
REMARK    2  A    between atoms: C2'_3  and  C1'_4 
REMARK    3  A    between atoms: C1'_4  and  C1_5 
ROOT
ATOM      1  C1  N4B d   1      -0.654  -0.926  -0.974  0.00  0.00    -0.075 A 
ATOM      2  C2  N4B d   1      -0.175   0.394  -0.818  0.00  0.00     0.002 A 
ATOM      3  C3  N4B d   1       1.057   0.741  -1.316  0.00  0.00     0.002 A 
ATOM      4  C4  N4B d   1       1.832  -0.215  -1.955  0.00  0.00    -0.004 A 
ATOM      5  C5  N4B d   1       1.352  -1.480  -2.125  0.00  0.00     0.002 A 
ATOM      6  C6  N4B d   1       0.114  -1.842  -1.633  0.00  0.00     0.002 A 
ENDROOT
BRANCH   1   7
ATOM      7  C1' N4B d   1      -1.957  -1.375  -0.372  0.00  0.00     0.057 C 
BRANCH   7   8
ATOM      8  C2' N4B d   1      -2.540  -0.239   0.464  0.00  0.00     0.009 C 
BRANCH   8   9
ATOM      9  C3' N4B d   1      -2.675  -0.622   1.928  0.00  0.00     0.004 C 
ATOM     10  C4' N4B d   1      -2.646   0.565   2.844  0.00  0.00     0.003 C 
ENDBRANCH   8   9
ENDBRANCH   7   8
ENDBRANCH   1   7
TORSDOF 3
ENDMDL
