MODEL 1
REMARK minimizedAffinity 26.5853767
REMARK minimizedRMSD -1
REMARK  3 active torsions:
REMARK  status: ('A' for Active; 'I' for Inactive)
REMARK    1  A    between atoms: C3'_2  and  C2'_3 
REMARK    2  A    between atoms: C2'_3  and  C1'_4 
REMARK    3  A    between atoms: C1'_4  and  C1_5 
ROOT
ATOM      1  C1  N4B d   1       1.446  -0.964  -1.851  0.00  0.00    -0.075 A 
ATOM      2  C2  N4B d   1       0.169  -0.910  -2.450  0.00  0.00     0.002 A 
ATOM      3  C3  N4B d   1      -0.381  -2.042  -2.998  0.00  0.00     0.002 A 
ATOM      4  C4  N4B d   1       0.334  -3.231  -2.977  0.00  0.00    -0.004 A 
ATOM      5  C5  N4B d   1       1.556  -3.280  -2.373  0.00  0.00     0.002 A 
ATOM      6  C6  N4B d   1       2.119  -2.151  -1.815  0.00  0.00     0.002 A 
ENDROOT
BRANCH   1   7
ATOM      7  C1' N4B d   1       2.125   0.267  -1.314  0.00  0.00     0.057 C 
BRANCH   7   8
ATOM      8  C2' N4B d   1       3.630   0.025  -1.257  0.00  0.00     0.009 C 
BRANCH   8   9
ATOM      9  C3' N4B d   1       4.388   0.925  -2.218  0.00  0.00     0.004 C 
ATOM     10  C4' N4B d   1       5.852   0.605  -2.281  0.00  0.00     0.003 C 
ENDBRANCH   8   9
ENDBRANCH   7   8
ENDBRANCH   1   7
TORSDOF 3
ENDMDL
