MODEL 1
REMARK minimizedAffinity 19.7678585
REMARK minimizedRMSD -1
REMARK  3 active torsions:
REMARK  status: ('A' for Active; 'I' for Inactive)
REMARK    1  A    between atoms: C3'_2  and  C2'_3 
REMARK    2  A    between atoms: C2'_3  and  C1'_4 
REMARK    3  A    between atoms: C1'_4  and  C1_5 
ROOT
ATOM      1  C1  N4B d   1      -0.924  -1.397  -1.172  0.00  0.00    -0.075 A 
ATOM      2  C2  N4B d   1      -0.337  -0.130  -0.963  0.00  0.00     0.002 A 
ATOM      3  C3  N4B d   1       0.974   0.085  -1.309  0.00  0.00     0.002 A 
ATOM      4  C4  N4B d   1       1.721  -0.953  -1.846  0.00  0.00    -0.004 A 
ATOM      5  C5  N4B d   1       1.140  -2.167  -2.069  0.00  0.00     0.002 A 
ATOM      6  C6  N4B d   1      -0.179  -2.396  -1.730  0.00  0.00     0.002 A 
ENDROOT
BRANCH   1   7
ATOM      7  C1' N4B d   1      -2.329  -1.705  -0.731  0.00  0.00     0.057 C 
BRANCH   7   8
ATOM      8  C2' N4B d   1      -2.762  -0.677   0.311  0.00  0.00     0.009 C 
BRANCH   8   9
ATOM      9  C3' N4B d   1      -2.586  -1.196   1.728  0.00  0.00     0.004 C 
ATOM     10  C4' N4B d   1      -2.638  -0.105   2.756  0.00  0.00     0.003 C 
ENDBRANCH   8   9
ENDBRANCH   7   8
ENDBRANCH   1   7
TORSDOF 3
ENDMDL
