MODEL 1
REMARK minimizedAffinity 18.1355858
REMARK minimizedRMSD -1
REMARK  3 active torsions:
REMARK  status: ('A' for Active; 'I' for Inactive)
REMARK    1  A    between atoms: C3'_2  and  C2'_3 
REMARK    2  A    between atoms: C2'_3  and  C1'_4 
REMARK    3  A    between atoms: C1'_4  and  C1_5 
ROOT
ATOM      1  C1  N4B d   1       3.052   0.445  -2.225  0.00  0.00    -0.075 A 
ATOM      2  C2  N4B d   1       2.214  -0.275  -1.345  0.00  0.00     0.002 A 
ATOM      3  C3  N4B d   1       0.865  -0.015  -1.314  0.00  0.00     0.002 A 
ATOM      4  C4  N4B d   1       0.338   0.968  -2.138  0.00  0.00    -0.004 A 
ATOM      5  C5  N4B d   1       1.150   1.641  -3.003  0.00  0.00     0.002 A 
ATOM      6  C6  N4B d   1       2.506   1.388  -3.047  0.00  0.00     0.002 A 
ENDROOT
BRANCH   1   7
ATOM      7  C1' N4B d   1       4.544   0.256  -2.232  0.00  0.00     0.057 C 
BRANCH   7   8
ATOM      8  C2' N4B d   1       5.178   1.313  -3.132  0.00  0.00     0.009 C 
BRANCH   8   9
ATOM      9  C3' N4B d   1       5.987   0.691  -4.257  0.00  0.00     0.004 C 
ATOM     10  C4' N4B d   1       5.830   1.421  -5.557  0.00  0.00     0.003 C 
ENDBRANCH   8   9
ENDBRANCH   7   8
ENDBRANCH   1   7
TORSDOF 3
ENDMDL
