MODEL 1
REMARK minimizedAffinity 7.27763939
REMARK minimizedRMSD -1
REMARK  3 active torsions:
REMARK  status: ('A' for Active; 'I' for Inactive)
REMARK    1  A    between atoms: C3'_2  and  C2'_3 
REMARK    2  A    between atoms: C2'_3  and  C1'_4 
REMARK    3  A    between atoms: C1'_4  and  C1_5 
ROOT
ATOM      1  C1  N4B d   1       3.496   5.017   0.446  0.00  0.00    -0.075 A 
ATOM      2  C2  N4B d   1       4.424   4.908  -0.613  0.00  0.00     0.002 A 
ATOM      3  C3  N4B d   1       4.085   5.345  -1.870  0.00  0.00     0.002 A 
ATOM      4  C4  N4B d   1       2.824   5.875  -2.095  0.00  0.00    -0.004 A 
ATOM      5  C5  N4B d   1       1.942   5.999  -1.062  0.00  0.00     0.002 A 
ATOM      6  C6  N4B d   1       2.271   5.568   0.208  0.00  0.00     0.002 A 
ENDROOT
BRANCH   1   7
ATOM      7  C1' N4B d   1       3.790   4.474   1.818  0.00  0.00     0.057 C 
BRANCH   7   8
ATOM      8  C2' N4B d   1       5.236   4.795   2.184  0.00  0.00     0.009 C 
BRANCH   8   9
ATOM      9  C3' N4B d   1       5.325   5.752   3.361  0.00  0.00     0.004 C 
ATOM     10  C4' N4B d   1       4.719   5.191   4.613  0.00  0.00     0.003 C 
ENDBRANCH   8   9
ENDBRANCH   7   8
ENDBRANCH   1   7
TORSDOF 3
ENDMDL
