MODEL 1
REMARK minimizedAffinity 21.0869198
REMARK minimizedRMSD -1
REMARK  3 active torsions:
REMARK  status: ('A' for Active; 'I' for Inactive)
REMARK    1  A    between atoms: C3'_2  and  C2'_3 
REMARK    2  A    between atoms: C2'_3  and  C1'_4 
REMARK    3  A    between atoms: C1'_4  and  C1_5 
ROOT
ATOM      1  C1  N4B d   1       1.440  -0.086  -2.175  0.00  0.00    -0.075 A 
ATOM      2  C2  N4B d   1       0.692   0.194  -3.340  0.00  0.00     0.002 A 
ATOM      3  C3  N4B d   1      -0.036  -0.801  -3.944  0.00  0.00     0.002 A 
ATOM      4  C4  N4B d   1      -0.016  -2.083  -3.415  0.00  0.00    -0.004 A 
ATOM      5  C5  N4B d   1       0.688  -2.339  -2.276  0.00  0.00     0.002 A 
ATOM      6  C6  N4B d   1       1.421  -1.348  -1.655  0.00  0.00     0.002 A 
ENDROOT
BRANCH   1   7
ATOM      7  C1' N4B d   1       2.320   0.948  -1.528  0.00  0.00     0.057 C 
BRANCH   7   8
ATOM      8  C2' N4B d   1       3.775   0.497  -1.621  0.00  0.00     0.009 C 
BRANCH   8   9
ATOM      9  C3' N4B d   1       4.531   1.238  -2.710  0.00  0.00     0.004 C 
ATOM     10  C4' N4B d   1       6.000   0.934  -2.707  0.00  0.00     0.003 C 
ENDBRANCH   8   9
ENDBRANCH   7   8
ENDBRANCH   1   7
TORSDOF 3
ENDMDL
