MODEL 1
REMARK minimizedAffinity 10.1241779
REMARK minimizedRMSD -1
REMARK  3 active torsions:
REMARK  status: ('A' for Active; 'I' for Inactive)
REMARK    1  A    between atoms: C3'_2  and  C2'_3 
REMARK    2  A    between atoms: C2'_3  and  C1'_4 
REMARK    3  A    between atoms: C1'_4  and  C1_5 
ROOT
ATOM      1  C1  N4B d   1       4.526  -2.899   5.109  0.00  0.00    -0.075 A 
ATOM      2  C2  N4B d   1       3.705  -3.921   4.585  0.00  0.00     0.002 A 
ATOM      3  C3  N4B d   1       4.055  -5.238   4.757  0.00  0.00     0.002 A 
ATOM      4  C4  N4B d   1       5.226  -5.555   5.430  0.00  0.00    -0.004 A 
ATOM      5  C5  N4B d   1       6.000  -4.562   5.956  0.00  0.00     0.002 A 
ATOM      6  C6  N4B d   1       5.658  -3.234   5.794  0.00  0.00     0.002 A 
ENDROOT
BRANCH   1   7
ATOM      7  C1' N4B d   1       4.230  -1.443   4.872  0.00  0.00     0.057 C 
BRANCH   7   8
ATOM      8  C2' N4B d   1       5.287  -0.862   3.938  0.00  0.00     0.009 C 
BRANCH   8   9
ATOM      9  C3' N4B d   1       4.669  -0.039   2.821  0.00  0.00     0.004 C 
ATOM     10  C4' N4B d   1       3.170  -0.090   2.824  0.00  0.00     0.003 C 
ENDBRANCH   8   9
ENDBRANCH   7   8
ENDBRANCH   1   7
TORSDOF 3
ENDMDL
