MODEL 1
REMARK minimizedAffinity 9.81110477
REMARK minimizedRMSD -1
REMARK  3 active torsions:
REMARK  status: ('A' for Active; 'I' for Inactive)
REMARK    1  A    between atoms: C3'_2  and  C2'_3 
REMARK    2  A    between atoms: C2'_3  and  C1'_4 
REMARK    3  A    between atoms: C1'_4  and  C1_5 
ROOT
ATOM      1  C1  N4B d   1       0.991  -0.157  -1.602  0.00  0.00    -0.075 A 
ATOM      2  C2  N4B d   1       2.303  -0.283  -1.095  0.00  0.00     0.002 A 
ATOM      3  C3  N4B d   1       2.983   0.830  -0.664  0.00  0.00     0.002 A 
ATOM      4  C4  N4B d   1       2.381   2.077  -0.750  0.00  0.00    -0.004 A 
ATOM      5  C5  N4B d   1       1.104   2.186  -1.218  0.00  0.00     0.002 A 
ATOM      6  C6  N4B d   1       0.408   1.076  -1.650  0.00  0.00     0.002 A 
ENDROOT
BRANCH   1   7
ATOM      7  C1' N4B d   1       0.241  -1.334  -2.164  0.00  0.00     0.057 C 
BRANCH   7   8
ATOM      8  C2' N4B d   1      -0.648  -1.927  -1.075  0.00  0.00     0.009 C 
BRANCH   8   9
ATOM      9  C3' N4B d   1      -1.678  -0.929  -0.576  0.00  0.00     0.004 C 
ATOM     10  C4' N4B d   1      -2.804  -1.581   0.170  0.00  0.00     0.003 C 
ENDBRANCH   8   9
ENDBRANCH   7   8
ENDBRANCH   1   7
TORSDOF 3
ENDMDL
