MODEL 1
REMARK minimizedAffinity 10.7029266
REMARK minimizedRMSD -1
REMARK  3 active torsions:
REMARK  status: ('A' for Active; 'I' for Inactive)
REMARK    1  A    between atoms: C3'_2  and  C2'_3 
REMARK    2  A    between atoms: C2'_3  and  C1'_4 
REMARK    3  A    between atoms: C1'_4  and  C1_5 
ROOT
ATOM      1  C1  N4B d   1       1.161   2.270  -2.564  0.00  0.00    -0.075 A 
ATOM      2  C2  N4B d   1       1.718   1.524  -1.503  0.00  0.00     0.002 A 
ATOM      3  C3  N4B d   1       1.511   0.168  -1.433  0.00  0.00     0.002 A 
ATOM      4  C4  N4B d   1       0.738  -0.458  -2.400  0.00  0.00    -0.004 A 
ATOM      5  C5  N4B d   1       0.225   0.266  -3.436  0.00  0.00     0.002 A 
ATOM      6  C6  N4B d   1       0.428   1.629  -3.521  0.00  0.00     0.002 A 
ENDROOT
BRANCH   1   7
ATOM      7  C1' N4B d   1       1.288   3.767  -2.636  0.00  0.00     0.057 C 
BRANCH   7   8
ATOM      8  C2' N4B d   1       2.529   4.202  -1.860  0.00  0.00     0.009 C 
BRANCH   8   9
ATOM      9  C3' N4B d   1       2.197   4.595  -0.431  0.00  0.00     0.004 C 
ATOM     10  C4' N4B d   1       3.072   3.911   0.577  0.00  0.00     0.003 C 
ENDBRANCH   8   9
ENDBRANCH   7   8
ENDBRANCH   1   7
TORSDOF 3
ENDMDL
