MODEL 1
REMARK minimizedAffinity 4.39664841
REMARK minimizedRMSD -1
REMARK  0 active torsions:
REMARK  status: ('A' for Active; 'I' for Inactive)
ROOT
ATOM      1  C   UNL d   1      -0.019  -0.730   3.257  0.00  0.00     0.172 C 
ATOM      2  N   UNL d   1      -0.758  -0.440   2.051  0.00  0.00    -0.070 N 
ATOM      3  C1  UNL d   1      -2.054  -0.003   1.994  0.00  0.00    -0.004 A 
ATOM      4  C2  UNL d   1      -2.389   0.156   0.667  0.00  0.00    -0.047 A 
ATOM      5  C3  UNL d   1      -1.255  -0.200  -0.101  0.00  0.00    -0.047 A 
ATOM      6  C4  UNL d   1      -0.260  -0.565   0.781  0.00  0.00    -0.004 A 
ENDROOT
TORSDOF 0
ENDMDL
