MODEL 1
REMARK minimizedAffinity 2.43619442
REMARK minimizedRMSD -1
REMARK  0 active torsions:
REMARK  status: ('A' for Active; 'I' for Inactive)
ROOT
ATOM      1  C   UNL d   1      -0.460   0.298   1.128  0.00  0.00     0.172 C 
ATOM      2  N   UNL d   1      -0.039  -0.953   1.713  0.00  0.00    -0.070 N 
ATOM      3  C1  UNL d   1      -0.434  -1.437   2.932  0.00  0.00    -0.004 A 
ATOM      4  C2  UNL d   1       0.187  -2.652   3.124  0.00  0.00    -0.047 A 
ATOM      5  C3  UNL d   1       0.983  -2.907   1.982  0.00  0.00    -0.047 A 
ATOM      6  C4  UNL d   1       0.825  -1.839   1.125  0.00  0.00    -0.004 A 
ENDROOT
TORSDOF 0
ENDMDL
