MODEL 1
REMARK minimizedAffinity 5.07005787
REMARK minimizedRMSD -1
REMARK  0 active torsions:
REMARK  status: ('A' for Active; 'I' for Inactive)
ROOT
ATOM      1  C   UNL d   1       0.006  -0.244   2.844  0.00  0.00     0.172 C 
ATOM      2  N   UNL d   1      -0.390  -1.626   2.976  0.00  0.00    -0.070 N 
ATOM      3  C1  UNL d   1       0.429  -2.711   2.808  0.00  0.00    -0.004 A 
ATOM      4  C2  UNL d   1      -0.325  -3.845   3.020  0.00  0.00    -0.047 A 
ATOM      5  C3  UNL d   1      -1.642  -3.428   3.324  0.00  0.00    -0.047 A 
ATOM      6  C4  UNL d   1      -1.655  -2.049   3.290  0.00  0.00    -0.004 A 
ENDROOT
TORSDOF 0
ENDMDL
