MODEL 1
REMARK minimizedAffinity -2.22346878
REMARK minimizedRMSD -1
REMARK  0 active torsions:
REMARK  status: ('A' for Active; 'I' for Inactive)
ROOT
ATOM      1  C   UNL d   1       1.257  -4.072   1.819  0.00  0.00     0.172 C 
ATOM      2  N   UNL d   1       0.587  -2.796   1.916  0.00  0.00    -0.070 N 
ATOM      3  C1  UNL d   1       0.670  -1.779   1.003  0.00  0.00    -0.004 A 
ATOM      4  C2  UNL d   1      -0.111  -0.739   1.458  0.00  0.00    -0.047 A 
ATOM      5  C3  UNL d   1      -0.683  -1.145   2.688  0.00  0.00    -0.047 A 
ATOM      6  C4  UNL d   1      -0.234  -2.422   2.947  0.00  0.00    -0.004 A 
ENDROOT
TORSDOF 0
ENDMDL
