MODEL 1
REMARK minimizedAffinity -0.310253143
REMARK minimizedRMSD -1
REMARK  0 active torsions:
REMARK  status: ('A' for Active; 'I' for Inactive)
ROOT
ATOM      1  C   UNL d   1      -3.750  -0.961  -2.231  0.00  0.00     0.172 C 
ATOM      2  N   UNL d   1      -4.245  -0.209  -3.360  0.00  0.00    -0.070 N 
ATOM      3  C1  UNL d   1      -5.546  -0.171  -3.785  0.00  0.00    -0.004 A 
ATOM      4  C2  UNL d   1      -5.607   0.656  -4.886  0.00  0.00    -0.047 A 
ATOM      5  C3  UNL d   1      -4.297   1.131  -5.131  0.00  0.00    -0.047 A 
ATOM      6  C4  UNL d   1      -3.474   0.580  -4.172  0.00  0.00    -0.004 A 
ENDROOT
TORSDOF 0
ENDMDL
