MODEL 1
REMARK minimizedAffinity 2.04022694
REMARK minimizedRMSD -1
REMARK  0 active torsions:
REMARK  status: ('A' for Active; 'I' for Inactive)
ROOT
ATOM      1  C   UNL d   1      -1.178  -0.467   2.150  0.00  0.00     0.172 C 
ATOM      2  N   UNL d   1      -0.725  -0.459   0.779  0.00  0.00    -0.070 N 
ATOM      3  C1  UNL d   1      -1.521  -0.299  -0.324  0.00  0.00    -0.004 A 
ATOM      4  C2  UNL d   1      -0.713  -0.350  -1.439  0.00  0.00    -0.047 A 
ATOM      5  C3  UNL d   1       0.615  -0.548  -0.991  0.00  0.00    -0.047 A 
ATOM      6  C4  UNL d   1       0.579  -0.612   0.386  0.00  0.00    -0.004 A 
ENDROOT
TORSDOF 0
ENDMDL
