MODEL 1
REMARK minimizedAffinity -0.514588773
REMARK minimizedRMSD -1
REMARK  0 active torsions:
REMARK  status: ('A' for Active; 'I' for Inactive)
ROOT
ATOM      1  C   UNL d   1       2.016  -3.526   1.147  0.00  0.00     0.172 C 
ATOM      2  N   UNL d   1       1.338  -2.260   0.994  0.00  0.00    -0.070 N 
ATOM      3  C1  UNL d   1       0.457  -1.713   1.888  0.00  0.00    -0.004 A 
ATOM      4  C2  UNL d   1       0.034  -0.505   1.378  0.00  0.00    -0.047 A 
ATOM      5  C3  UNL d   1       0.683  -0.319   0.134  0.00  0.00    -0.047 A 
ATOM      6  C4  UNL d   1       1.484  -1.421  -0.079  0.00  0.00    -0.004 A 
ENDROOT
TORSDOF 0
ENDMDL
