MODEL 1
REMARK minimizedAffinity 1.64358163
REMARK minimizedRMSD -1
REMARK  0 active torsions:
REMARK  status: ('A' for Active; 'I' for Inactive)
ROOT
ATOM      1  C   UNL d   1      -2.049   2.978  -2.408  0.00  0.00     0.172 C 
ATOM      2  N   UNL d   1      -3.383   2.594  -2.807  0.00  0.00    -0.070 N 
ATOM      3  C1  UNL d   1      -4.404   3.455  -3.111  0.00  0.00    -0.004 A 
ATOM      4  C2  UNL d   1      -5.509   2.700  -3.441  0.00  0.00    -0.047 A 
ATOM      5  C3  UNL d   1      -5.139   1.338  -3.331  0.00  0.00    -0.047 A 
ATOM      6  C4  UNL d   1      -3.818   1.302  -2.937  0.00  0.00    -0.004 A 
ENDROOT
TORSDOF 0
ENDMDL
