MODEL 1
REMARK minimizedAffinity -1.24344087
REMARK minimizedRMSD -1
REMARK  0 active torsions:
REMARK  status: ('A' for Active; 'I' for Inactive)
ROOT
ATOM      1  C   UNL d   1      -0.152  -0.491  -0.688  0.00  0.00     0.172 C 
ATOM      2  N   UNL d   1      -0.030  -0.928   0.683  0.00  0.00    -0.070 N 
ATOM      3  C1  UNL d   1       0.881  -1.834   1.154  0.00  0.00    -0.004 A 
ATOM      4  C2  UNL d   1       0.671  -1.979   2.509  0.00  0.00    -0.047 A 
ATOM      5  C3  UNL d   1      -0.404  -1.131   2.864  0.00  0.00    -0.047 A 
ATOM      6  C4  UNL d   1      -0.820  -0.492   1.714  0.00  0.00    -0.004 A 
ENDROOT
TORSDOF 0
ENDMDL
