MODEL 1
REMARK minimizedAffinity -1.97998226
REMARK minimizedRMSD -1
REMARK  0 active torsions:
REMARK  status: ('A' for Active; 'I' for Inactive)
ROOT
ATOM      1  C   UNL d   1       0.707  -0.789  -1.300  0.00  0.00     0.077 C 
ATOM      2  C1  UNL d   1       0.268  -2.216  -1.436  0.00  0.00    -0.074 A 
ATOM      3  C2  UNL d   1      -0.929  -2.541  -2.082  0.00  0.00    -0.005 A 
ATOM      4  C3  UNL d   1      -1.320  -3.874  -2.210  0.00  0.00     0.006 A 
ATOM      5  C4  UNL d   1      -0.520  -4.894  -1.692  0.00  0.00    -0.005 A 
ATOM      6  C5  UNL d   1       0.681  -4.588  -1.043  0.00  0.00    -0.074 A 
ATOM      7  C6  UNL d   1       1.557  -5.672  -0.490  0.00  0.00     0.077 C 
ATOM      8  C7  UNL d   1       1.070  -3.246  -0.926  0.00  0.00    -0.001 A 
ENDROOT
TORSDOF 0
ENDMDL
