MODEL 1
REMARK minimizedAffinity -3.98010087
REMARK minimizedRMSD -1
REMARK  0 active torsions:
REMARK  status: ('A' for Active; 'I' for Inactive)
ROOT
ATOM      1  C   UNL d   1       1.414  -0.137   1.561  0.00  0.00     0.077 C 
ATOM      2  C1  UNL d   1       0.285   0.826   1.344  0.00  0.00    -0.074 A 
ATOM      3  C2  UNL d   1      -0.167   1.649   2.380  0.00  0.00    -0.005 A 
ATOM      4  C3  UNL d   1      -1.211   2.547   2.161  0.00  0.00     0.006 A 
ATOM      5  C4  UNL d   1      -1.813   2.632   0.904  0.00  0.00    -0.005 A 
ATOM      6  C5  UNL d   1      -1.373   1.818  -0.144  0.00  0.00    -0.074 A 
ATOM      7  C6  UNL d   1      -2.002   1.903  -1.503  0.00  0.00     0.077 C 
ATOM      8  C7  UNL d   1      -0.319   0.923   0.082  0.00  0.00    -0.001 A 
ENDROOT
TORSDOF 0
ENDMDL
