MODEL 1
REMARK minimizedAffinity -3.04479074
REMARK minimizedRMSD -1
REMARK  0 active torsions:
REMARK  status: ('A' for Active; 'I' for Inactive)
ROOT
ATOM      1  C   UNL d   1      -1.705   2.350   1.294  0.00  0.00     0.077 C 
ATOM      2  C1  UNL d   1      -0.696   1.251   1.134  0.00  0.00    -0.074 A 
ATOM      3  C2  UNL d   1       0.336   1.082   2.063  0.00  0.00    -0.005 A 
ATOM      4  C3  UNL d   1       1.260   0.050   1.906  0.00  0.00     0.006 A 
ATOM      5  C4  UNL d   1       1.163  -0.822   0.821  0.00  0.00    -0.005 A 
ATOM      6  C5  UNL d   1       0.138  -0.669  -0.118  0.00  0.00    -0.074 A 
ATOM      7  C6  UNL d   1       0.013  -1.603  -1.284  0.00  0.00     0.077 C 
ATOM      8  C7  UNL d   1      -0.792   0.367   0.051  0.00  0.00    -0.001 A 
ENDROOT
TORSDOF 0
ENDMDL
