MODEL 1
REMARK minimizedAffinity -2.02111125
REMARK minimizedRMSD -1
REMARK  0 active torsions:
REMARK  status: ('A' for Active; 'I' for Inactive)
ROOT
ATOM      1  C   UNL d   1       0.353  -1.954  -0.729  0.00  0.00     0.077 C 
ATOM      2  C1  UNL d   1      -0.022  -0.504  -0.805  0.00  0.00    -0.074 A 
ATOM      3  C2  UNL d   1       0.219   0.241  -1.964  0.00  0.00    -0.005 A 
ATOM      4  C3  UNL d   1      -0.144   1.586  -2.024  0.00  0.00     0.006 A 
ATOM      5  C4  UNL d   1      -0.751   2.199  -0.927  0.00  0.00    -0.005 A 
ATOM      6  C5  UNL d   1      -1.001   1.470   0.240  0.00  0.00    -0.074 A 
ATOM      7  C6  UNL d   1      -1.661   2.112   1.424  0.00  0.00     0.077 C 
ATOM      8  C7  UNL d   1      -0.639   0.117   0.289  0.00  0.00    -0.001 A 
ENDROOT
TORSDOF 0
ENDMDL
