MODEL 1
REMARK minimizedAffinity -3.21831536
REMARK minimizedRMSD -1
REMARK  0 active torsions:
REMARK  status: ('A' for Active; 'I' for Inactive)
ROOT
ATOM      1  C   UNL d   1      -1.716   1.990   1.292  0.00  0.00     0.077 C 
ATOM      2  C1  UNL d   1      -0.987   1.411   0.116  0.00  0.00    -0.074 A 
ATOM      3  C2  UNL d   1      -1.024   2.039  -1.133  0.00  0.00    -0.005 A 
ATOM      4  C3  UNL d   1      -0.333   1.494  -2.215  0.00  0.00     0.006 A 
ATOM      5  C4  UNL d   1       0.401   0.317  -2.060  0.00  0.00    -0.005 A 
ATOM      6  C5  UNL d   1       0.451  -0.324  -0.818  0.00  0.00    -0.074 A 
ATOM      7  C6  UNL d   1       1.243  -1.584  -0.631  0.00  0.00     0.077 C 
ATOM      8  C7  UNL d   1      -0.241   0.234   0.266  0.00  0.00    -0.001 A 
ENDROOT
TORSDOF 0
ENDMDL
