MODEL 1
REMARK minimizedAffinity -1.89820039
REMARK minimizedRMSD -1
REMARK  0 active torsions:
REMARK  status: ('A' for Active; 'I' for Inactive)
ROOT
ATOM      1  C   UNL d   1       1.370   4.622   2.224  0.00  0.00     0.077 C 
ATOM      2  C1  UNL d   1       0.357   3.774   1.515  0.00  0.00    -0.074 A 
ATOM      3  C2  UNL d   1      -0.999   3.839   1.853  0.00  0.00    -0.005 A 
ATOM      4  C3  UNL d   1      -1.931   3.051   1.178  0.00  0.00     0.006 A 
ATOM      5  C4  UNL d   1      -1.518   2.192   0.159  0.00  0.00    -0.005 A 
ATOM      6  C5  UNL d   1      -0.167   2.114  -0.194  0.00  0.00    -0.074 A 
ATOM      7  C6  UNL d   1       0.292   1.203  -1.294  0.00  0.00     0.077 C 
ATOM      8  C7  UNL d   1       0.763   2.914   0.484  0.00  0.00    -0.001 A 
ENDROOT
TORSDOF 0
ENDMDL
