MODEL 1
REMARK minimizedAffinity 1.07778394
REMARK minimizedRMSD -1
REMARK  0 active torsions:
REMARK  status: ('A' for Active; 'I' for Inactive)
ROOT
ATOM      1  C   UNL d   1      -0.741  -2.433  -0.744  0.00  0.00     0.077 C 
ATOM      2  C1  UNL d   1      -0.718  -0.942  -0.900  0.00  0.00    -0.074 A 
ATOM      3  C2  UNL d   1       0.012  -0.338  -1.929  0.00  0.00    -0.005 A 
ATOM      4  C3  UNL d   1       0.015   1.050  -2.067  0.00  0.00     0.006 A 
ATOM      5  C4  UNL d   1      -0.710   1.847  -1.181  0.00  0.00    -0.005 A 
ATOM      6  C5  UNL d   1      -1.447   1.261  -0.147  0.00  0.00    -0.074 A 
ATOM      7  C6  UNL d   1      -2.240   2.102   0.809  0.00  0.00     0.077 C 
ATOM      8  C7  UNL d   1      -1.451  -0.135  -0.018  0.00  0.00    -0.001 A 
ENDROOT
TORSDOF 0
ENDMDL
