MODEL 1
REMARK minimizedAffinity -1.03477824
REMARK minimizedRMSD -1
REMARK  0 active torsions:
REMARK  status: ('A' for Active; 'I' for Inactive)
ROOT
ATOM      1  C   UNL d   1      -1.713   2.131   1.000  0.00  0.00     0.077 C 
ATOM      2  C1  UNL d   1      -0.902   0.928   0.618  0.00  0.00    -0.074 A 
ATOM      3  C2  UNL d   1       0.494   0.990   0.564  0.00  0.00    -0.005 A 
ATOM      4  C3  UNL d   1       1.235  -0.139   0.216  0.00  0.00     0.006 A 
ATOM      5  C4  UNL d   1       0.588  -1.340  -0.081  0.00  0.00    -0.005 A 
ATOM      6  C5  UNL d   1      -0.807  -1.421  -0.031  0.00  0.00    -0.074 A 
ATOM      7  C6  UNL d   1      -1.517  -2.706  -0.337  0.00  0.00     0.077 C 
ATOM      8  C7  UNL d   1      -1.544  -0.284   0.326  0.00  0.00    -0.001 A 
ENDROOT
TORSDOF 0
ENDMDL
