MODEL 1
REMARK minimizedAffinity 14.7162943
REMARK minimizedRMSD -1
REMARK  1 active torsions:
REMARK  status: ('A' for Active; 'I' for Inactive)
REMARK    1  A    between atoms: C1_2  and  C2_3 
ROOT
ATOM      1  C2  UNL d   1       0.779   1.336   2.956  0.00  0.00    -0.081 A 
ATOM      2  C3  UNL d   1       1.736   0.648   2.200  0.00  0.00     0.006 A 
ATOM      3  C4  UNL d   1       2.254  -0.568   2.652  0.00  0.00     0.002 A 
ATOM      4  C5  UNL d   1       1.818  -1.121   3.861  0.00  0.00    -0.080 A 
ATOM      5  C6  UNL d   1       2.344  -2.440   4.342  0.00  0.00     0.076 C 
ATOM      6  C7  UNL d   1       0.875  -0.425   4.624  0.00  0.00     0.002 A 
ATOM      7  C8  UNL d   1       0.357   0.791   4.174  0.00  0.00     0.006 A 
ENDROOT
BRANCH   1   8
ATOM      8  C1  UNL d   1       0.171   2.615   2.441  0.00  0.00     0.054 C 
ATOM      9  C   UNL d   1       0.259   2.698   0.924  0.00  0.00     0.018 C 
ENDBRANCH   1   8
TORSDOF 1
ENDMDL
