MODEL 1
REMARK minimizedAffinity 5.38914776
REMARK minimizedRMSD -1
REMARK  1 active torsions:
REMARK  status: ('A' for Active; 'I' for Inactive)
REMARK    1  A    between atoms: C1_2  and  C2_3 
ROOT
ATOM      1  C2  UNL d   1       0.823   4.258   0.308  0.00  0.00    -0.081 A 
ATOM      2  C3  UNL d   1      -0.176   3.391   0.766  0.00  0.00     0.006 A 
ATOM      3  C4  UNL d   1       0.010   2.652   1.937  0.00  0.00     0.002 A 
ATOM      4  C5  UNL d   1       1.194   2.774   2.673  0.00  0.00    -0.080 A 
ATOM      5  C6  UNL d   1       1.394   2.010   3.948  0.00  0.00     0.076 C 
ATOM      6  C7  UNL d   1       2.199   3.628   2.206  0.00  0.00     0.002 A 
ATOM      7  C8  UNL d   1       2.014   4.366   1.035  0.00  0.00     0.006 A 
ENDROOT
BRANCH   1   8
ATOM      8  C1  UNL d   1       0.599   5.105  -0.919  0.00  0.00     0.054 C 
ATOM      9  C   UNL d   1      -0.644   5.971  -0.774  0.00  0.00     0.018 C 
ENDBRANCH   1   8
TORSDOF 1
ENDMDL
