MODEL 1
REMARK minimizedAffinity 9.51778412
REMARK minimizedRMSD -1
REMARK  1 active torsions:
REMARK  status: ('A' for Active; 'I' for Inactive)
REMARK    1  A    between atoms: C1_2  and  C2_3 
ROOT
ATOM      1  C2  UNL d   1      -3.848  -5.678  -4.666  0.00  0.00    -0.081 A 
ATOM      2  C3  UNL d   1      -3.097  -5.403  -3.516  0.00  0.00     0.006 A 
ATOM      3  C4  UNL d   1      -1.705  -5.309  -3.584  0.00  0.00     0.002 A 
ATOM      4  C5  UNL d   1      -1.041  -5.479  -4.804  0.00  0.00    -0.080 A 
ATOM      5  C6  UNL d   1       0.450  -5.350  -4.897  0.00  0.00     0.076 C 
ATOM      6  C7  UNL d   1      -1.789  -5.771  -5.950  0.00  0.00     0.002 A 
ATOM      7  C8  UNL d   1      -3.181  -5.866  -5.882  0.00  0.00     0.006 A 
ENDROOT
BRANCH   1   8
ATOM      8  C1  UNL d   1      -5.353  -5.717  -4.607  0.00  0.00     0.054 C 
ATOM      9  C   UNL d   1      -5.953  -5.999  -5.977  0.00  0.00     0.018 C 
ENDBRANCH   1   8
TORSDOF 1
ENDMDL
