MODEL 1
REMARK minimizedAffinity 12.8163204
REMARK minimizedRMSD -1
REMARK  1 active torsions:
REMARK  status: ('A' for Active; 'I' for Inactive)
REMARK    1  A    between atoms: C1_2  and  C2_3 
ROOT
ATOM      1  C2  UNL d   1      -2.765   1.238  -3.624  0.00  0.00    -0.081 A 
ATOM      2  C3  UNL d   1      -3.005   1.198  -2.245  0.00  0.00     0.006 A 
ATOM      3  C4  UNL d   1      -2.278   0.333  -1.424  0.00  0.00     0.002 A 
ATOM      4  C5  UNL d   1      -1.293  -0.499  -1.966  0.00  0.00    -0.080 A 
ATOM      5  C6  UNL d   1      -0.483  -1.410  -1.092  0.00  0.00     0.076 C 
ATOM      6  C7  UNL d   1      -1.065  -0.472  -3.346  0.00  0.00     0.002 A 
ATOM      7  C8  UNL d   1      -1.793   0.391  -4.168  0.00  0.00     0.006 A 
ENDROOT
BRANCH   1   8
ATOM      8  C1  UNL d   1      -3.503   2.215  -4.503  0.00  0.00     0.054 C 
ATOM      9  C   UNL d   1      -3.895   1.580  -5.829  0.00  0.00     0.018 C 
ENDBRANCH   1   8
TORSDOF 1
ENDMDL
