MODEL 1
REMARK minimizedAffinity 5.69282675
REMARK minimizedRMSD -1
REMARK  1 active torsions:
REMARK  status: ('A' for Active; 'I' for Inactive)
REMARK    1  A    between atoms: C1_2  and  C2_3 
ROOT
ATOM      1  C2  UNL d   1      -5.633   3.713  -4.977  0.00  0.00    -0.081 A 
ATOM      2  C3  UNL d   1      -5.415   2.385  -5.362  0.00  0.00     0.006 A 
ATOM      3  C4  UNL d   1      -5.134   1.407  -4.405  0.00  0.00     0.002 A 
ATOM      4  C5  UNL d   1      -5.074   1.739  -3.048  0.00  0.00    -0.080 A 
ATOM      5  C6  UNL d   1      -4.803   0.693  -2.008  0.00  0.00     0.076 C 
ATOM      6  C7  UNL d   1      -5.274   3.069  -2.664  0.00  0.00     0.002 A 
ATOM      7  C8  UNL d   1      -5.554   4.048  -3.621  0.00  0.00     0.006 A 
ENDROOT
BRANCH   1   8
ATOM      8  C1  UNL d   1      -6.000   4.758  -6.000  0.00  0.00     0.054 C 
ATOM      9  C   UNL d   1      -5.126   5.997  -5.864  0.00  0.00     0.018 C 
ENDBRANCH   1   8
TORSDOF 1
ENDMDL
