MODEL 1
REMARK minimizedAffinity 4.38070726
REMARK minimizedRMSD -1
REMARK  0 active torsions:
REMARK  status: ('A' for Active; 'I' for Inactive)
ROOT
ATOM      1  C   UNL d   1       1.952  -0.846   1.192  0.00  0.00     0.078 C 
ATOM      2  C1  UNL d   1       1.255   0.247   0.437  0.00  0.00    -0.077 A 
ATOM      3  C2  UNL d   1       0.846   0.060  -0.889  0.00  0.00    -0.001 A 
ATOM      4  C3  UNL d   1       0.206   1.089  -1.582  0.00  0.00     0.003 A 
ATOM      5  C4  UNL d   1      -0.028   2.313  -0.957  0.00  0.00    -0.005 A 
ATOM      6  C5  UNL d   1       0.378   2.509   0.361  0.00  0.00     0.003 A 
ATOM      7  C6  UNL d   1       1.017   1.480   1.056  0.00  0.00    -0.001 A 
ENDROOT
TORSDOF 0
ENDMDL
