MODEL 1
REMARK minimizedAffinity -1.04870903
REMARK minimizedRMSD -1
REMARK  0 active torsions:
REMARK  status: ('A' for Active; 'I' for Inactive)
ROOT
ATOM      1  C   UNL d   1       0.174   0.270  -2.863  0.00  0.00     0.078 C 
ATOM      2  C1  UNL d   1       0.402   0.886  -1.515  0.00  0.00    -0.077 A 
ATOM      3  C2  UNL d   1       1.323   0.334  -0.617  0.00  0.00    -0.001 A 
ATOM      4  C3  UNL d   1       1.518   0.912   0.638  0.00  0.00     0.003 A 
ATOM      5  C4  UNL d   1       0.794   2.044   1.007  0.00  0.00    -0.005 A 
ATOM      6  C5  UNL d   1      -0.127   2.599   0.121  0.00  0.00     0.003 A 
ATOM      7  C6  UNL d   1      -0.323   2.022  -1.135  0.00  0.00    -0.001 A 
ENDROOT
TORSDOF 0
ENDMDL
