MODEL 1
REMARK minimizedAffinity 4.10213089
REMARK minimizedRMSD -1
REMARK  0 active torsions:
REMARK  status: ('A' for Active; 'I' for Inactive)
ROOT
ATOM      1  C   UNL d   1      -2.913   2.269  -1.661  0.00  0.00     0.078 C 
ATOM      2  C1  UNL d   1      -1.625   2.787  -1.095  0.00  0.00    -0.077 A 
ATOM      3  C2  UNL d   1      -1.351   4.160  -1.066  0.00  0.00    -0.001 A 
ATOM      4  C3  UNL d   1      -0.144   4.628  -0.544  0.00  0.00     0.003 A 
ATOM      5  C4  UNL d   1       0.799   3.730  -0.049  0.00  0.00    -0.005 A 
ATOM      6  C5  UNL d   1       0.536   2.362  -0.076  0.00  0.00     0.003 A 
ATOM      7  C6  UNL d   1      -0.670   1.892  -0.597  0.00  0.00    -0.001 A 
ENDROOT
TORSDOF 0
ENDMDL
