MODEL 1
REMARK minimizedAffinity 6.7618494
REMARK minimizedRMSD -1
REMARK  0 active torsions:
REMARK  status: ('A' for Active; 'I' for Inactive)
ROOT
ATOM      1  C   UNL d   1       0.994   5.269  -0.936  0.00  0.00     0.078 C 
ATOM      2  C1  UNL d   1       0.903   3.876  -0.387  0.00  0.00    -0.077 A 
ATOM      3  C2  UNL d   1       1.673   3.483   0.714  0.00  0.00    -0.001 A 
ATOM      4  C3  UNL d   1       1.585   2.181   1.208  0.00  0.00     0.003 A 
ATOM      5  C4  UNL d   1       0.729   1.260   0.606  0.00  0.00    -0.005 A 
ATOM      6  C5  UNL d   1      -0.039   1.642  -0.492  0.00  0.00     0.003 A 
ATOM      7  C6  UNL d   1       0.047   2.944  -0.987  0.00  0.00    -0.001 A 
ENDROOT
TORSDOF 0
ENDMDL
