MODEL 1
REMARK minimizedAffinity -2.60515904
REMARK minimizedRMSD -1
REMARK  0 active torsions:
REMARK  status: ('A' for Active; 'I' for Inactive)
ROOT
ATOM      1  C   UNL d   1      -4.989   5.746  -5.979  0.00  0.00     0.078 C 
ATOM      2  C1  UNL d   1      -4.988   4.411  -5.297  0.00  0.00    -0.077 A 
ATOM      3  C2  UNL d   1      -3.987   4.070  -4.380  0.00  0.00    -0.001 A 
ATOM      4  C3  UNL d   1      -3.994   2.820  -3.760  0.00  0.00     0.003 A 
ATOM      5  C4  UNL d   1      -4.998   1.899  -4.051  0.00  0.00    -0.005 A 
ATOM      6  C5  UNL d   1      -5.998   2.229  -4.965  0.00  0.00     0.003 A 
ATOM      7  C6  UNL d   1      -5.993   3.479  -5.586  0.00  0.00    -0.001 A 
ENDROOT
TORSDOF 0
ENDMDL
