MODEL 1
REMARK minimizedAffinity 6.26487684
REMARK minimizedRMSD -1
REMARK  0 active torsions:
REMARK  status: ('A' for Active; 'I' for Inactive)
ROOT
ATOM      1  C   UNL d   1      -3.523   5.261  -4.816  0.00  0.00     0.078 C 
ATOM      2  C1  UNL d   1      -3.152   3.812  -4.700  0.00  0.00    -0.077 A 
ATOM      3  C2  UNL d   1      -4.062   2.874  -4.196  0.00  0.00    -0.001 A 
ATOM      4  C3  UNL d   1      -3.700   1.531  -4.084  0.00  0.00     0.003 A 
ATOM      5  C4  UNL d   1      -2.428   1.113  -4.472  0.00  0.00    -0.005 A 
ATOM      6  C5  UNL d   1      -1.516   2.040  -4.973  0.00  0.00     0.003 A 
ATOM      7  C6  UNL d   1      -1.876   3.384  -5.085  0.00  0.00    -0.001 A 
ENDROOT
TORSDOF 0
ENDMDL
