MODEL 1
REMARK minimizedAffinity 1.81448495
REMARK minimizedRMSD -1
REMARK  0 active torsions:
REMARK  status: ('A' for Active; 'I' for Inactive)
ROOT
ATOM      1  C   UNL d   1      -4.443   4.814  -4.884  0.00  0.00     0.078 C 
ATOM      2  C1  UNL d   1      -3.641   3.547  -4.872  0.00  0.00    -0.077 A 
ATOM      3  C2  UNL d   1      -3.619   2.718  -3.744  0.00  0.00    -0.001 A 
ATOM      4  C3  UNL d   1      -2.860   1.546  -3.744  0.00  0.00     0.003 A 
ATOM      5  C4  UNL d   1      -2.117   1.194  -4.869  0.00  0.00    -0.005 A 
ATOM      6  C5  UNL d   1      -2.131   2.014  -5.996  0.00  0.00     0.003 A 
ATOM      7  C6  UNL d   1      -2.889   3.186  -5.998  0.00  0.00    -0.001 A 
ENDROOT
TORSDOF 0
ENDMDL
