MODEL 1
REMARK minimizedAffinity 7.21349859
REMARK minimizedRMSD -1
REMARK  0 active torsions:
REMARK  status: ('A' for Active; 'I' for Inactive)
ROOT
ATOM      1  C   UNL d   1       1.148   2.073   0.668  0.00  0.00     0.078 C 
ATOM      2  C1  UNL d   1       1.122   3.427   0.026  0.00  0.00    -0.077 A 
ATOM      3  C2  UNL d   1       2.309   4.118  -0.249  0.00  0.00    -0.001 A 
ATOM      4  C3  UNL d   1       2.270   5.382  -0.839  0.00  0.00     0.003 A 
ATOM      5  C4  UNL d   1       1.046   5.968  -1.156  0.00  0.00    -0.005 A 
ATOM      6  C5  UNL d   1      -0.140   5.290  -0.884  0.00  0.00     0.003 A 
ATOM      7  C6  UNL d   1      -0.103   4.025  -0.295  0.00  0.00    -0.001 A 
ENDROOT
TORSDOF 0
ENDMDL
