MODEL 1
REMARK minimizedAffinity 5.59515858
REMARK minimizedRMSD -1
REMARK  0 active torsions:
REMARK  status: ('A' for Active; 'I' for Inactive)
ROOT
ATOM      1  C   UNL d   1       2.580  -1.375   1.359  0.00  0.00     0.078 C 
ATOM      2  C1  UNL d   1       3.310  -1.403   2.668  0.00  0.00    -0.077 A 
ATOM      3  C2  UNL d   1       3.312  -0.288   3.516  0.00  0.00    -0.001 A 
ATOM      4  C3  UNL d   1       4.005  -0.325   4.728  0.00  0.00     0.003 A 
ATOM      5  C4  UNL d   1       4.700  -1.473   5.102  0.00  0.00    -0.005 A 
ATOM      6  C5  UNL d   1       4.705  -2.586   4.264  0.00  0.00     0.003 A 
ATOM      7  C6  UNL d   1       4.013  -2.551   3.052  0.00  0.00    -0.001 A 
ENDROOT
TORSDOF 0
ENDMDL
