MODEL 1
REMARK minimizedAffinity 6.63014269
REMARK minimizedRMSD -1
REMARK  0 active torsions:
REMARK  status: ('A' for Active; 'I' for Inactive)
ROOT
ATOM      1  C   UNL d   1      -1.469   1.821  -5.424  0.00  0.00     0.078 C 
ATOM      2  C1  UNL d   1      -2.498   2.911  -5.393  0.00  0.00    -0.077 A 
ATOM      3  C2  UNL d   1      -3.792   2.695  -5.883  0.00  0.00    -0.001 A 
ATOM      4  C3  UNL d   1      -4.738   3.721  -5.857  0.00  0.00     0.003 A 
ATOM      5  C4  UNL d   1      -4.399   4.971  -5.343  0.00  0.00    -0.005 A 
ATOM      6  C5  UNL d   1      -3.113   5.196  -4.855  0.00  0.00     0.003 A 
ATOM      7  C6  UNL d   1      -2.167   4.171  -4.880  0.00  0.00    -0.001 A 
ENDROOT
TORSDOF 0
ENDMDL
