MODEL 1
REMARK minimizedAffinity 12.5897465
REMARK minimizedRMSD -1
REMARK  0 active torsions:
REMARK  status: ('A' for Active; 'I' for Inactive)
ROOT
ATOM      1  C   UNL d   1       1.680  -5.985  -0.096  0.00  0.00     0.124 A 
ATOM      2  C1  UNL d   1       3.025  -5.983  -0.436  0.00  0.00     0.062 A 
ATOM      3  C2  UNL d   1       3.408  -5.987  -1.775  0.00  0.00     0.162 A 
ATOM      4  C3  UNL d   1       2.444  -5.992  -2.783  0.00  0.00    -0.034 A 
ATOM      5  C4  UNL d   1       1.093  -5.994  -2.432  0.00  0.00     0.162 A 
ATOM      6  C5  UNL d   1       0.715  -5.990  -1.093  0.00  0.00     0.062 A 
ATOM      7  F   UNL d   1      -0.585  -5.992  -0.766  0.00  0.00    -0.097 F 
ATOM      8  F1  UNL d   1       0.140  -5.999  -3.376  0.00  0.00    -0.096 F 
ATOM      9  I   UNL d   1       3.013  -5.998  -4.785  0.00  0.00    -0.060 I 
ATOM     10  F2  UNL d   1       4.716  -5.986  -2.075  0.00  0.00    -0.096 F 
ATOM     11  F3  UNL d   1       3.959  -5.979   0.526  0.00  0.00    -0.097 F 
ATOM     12  F4  UNL d   1       1.314  -5.982   1.193  0.00  0.00    -0.092 F 
ENDROOT
TORSDOF 0
ENDMDL
