MODEL 1
REMARK minimizedAffinity 22.4803619
REMARK minimizedRMSD -1
REMARK  0 active torsions:
REMARK  status: ('A' for Active; 'I' for Inactive)
ROOT
ATOM      1  C   UNL d   1      -4.745   3.523   0.756  0.00  0.00     0.124 A 
ATOM      2  C1  UNL d   1      -3.656   3.778  -0.066  0.00  0.00     0.062 A 
ATOM      3  C2  UNL d   1      -2.711   2.784  -0.303  0.00  0.00     0.162 A 
ATOM      4  C3  UNL d   1      -2.850   1.526   0.283  0.00  0.00    -0.034 A 
ATOM      5  C4  UNL d   1      -3.947   1.278   1.110  0.00  0.00     0.162 A 
ATOM      6  C5  UNL d   1      -4.890   2.274   1.343  0.00  0.00     0.062 A 
ATOM      7  F   UNL d   1      -5.941   2.027   2.138  0.00  0.00    -0.097 F 
ATOM      8  F1  UNL d   1      -4.112   0.080   1.689  0.00  0.00    -0.096 F 
ATOM      9  I   UNL d   1      -1.439   0.037  -0.068  0.00  0.00    -0.060 I 
ATOM     10  F2  UNL d   1      -1.669   3.058  -1.102  0.00  0.00    -0.096 F 
ATOM     11  F3  UNL d   1      -3.514   4.984  -0.634  0.00  0.00    -0.097 F 
ATOM     12  F4  UNL d   1      -5.653   4.482   0.983  0.00  0.00    -0.092 F 
ENDROOT
TORSDOF 0
ENDMDL
