MODEL 1
REMARK minimizedAffinity 20.420723
REMARK minimizedRMSD -1
REMARK  0 active torsions:
REMARK  status: ('A' for Active; 'I' for Inactive)
ROOT
ATOM      1  C   UNL d   1       1.388  -0.419   3.413  0.00  0.00     0.124 A 
ATOM      2  C1  UNL d   1       2.070  -0.666   2.230  0.00  0.00     0.062 A 
ATOM      3  C2  UNL d   1       2.506   0.393   1.439  0.00  0.00     0.162 A 
ATOM      4  C3  UNL d   1       2.262   1.710   1.829  0.00  0.00    -0.034 A 
ATOM      5  C4  UNL d   1       1.575   1.950   3.021  0.00  0.00     0.162 A 
ATOM      6  C5  UNL d   1       1.141   0.888   3.807  0.00  0.00     0.062 A 
ATOM      7  F   UNL d   1       0.483   1.128   4.951  0.00  0.00    -0.097 F 
ATOM      8  F1  UNL d   1       1.323   3.204   3.426  0.00  0.00    -0.096 F 
ATOM      9  I   UNL d   1       2.912   3.296   0.650  0.00  0.00    -0.060 I 
ATOM     10  F2  UNL d   1       3.163   0.125   0.300  0.00  0.00    -0.096 F 
ATOM     11  F3  UNL d   1       2.310  -1.928   1.846  0.00  0.00    -0.097 F 
ATOM     12  F4  UNL d   1       0.970  -1.440   4.172  0.00  0.00    -0.092 F 
ENDROOT
TORSDOF 0
ENDMDL
