MODEL 1
REMARK minimizedAffinity 9.78184128
REMARK minimizedRMSD -1
REMARK  0 active torsions:
REMARK  status: ('A' for Active; 'I' for Inactive)
ROOT
ATOM      1  C   UNL d   1       1.417  -4.295   4.017  0.00  0.00     0.124 A 
ATOM      2  C1  UNL d   1       1.141  -3.170   4.782  0.00  0.00     0.062 A 
ATOM      3  C2  UNL d   1       1.427  -1.900   4.288  0.00  0.00     0.162 A 
ATOM      4  C3  UNL d   1       1.993  -1.749   3.022  0.00  0.00    -0.034 A 
ATOM      5  C4  UNL d   1       2.269  -2.885   2.259  0.00  0.00     0.162 A 
ATOM      6  C5  UNL d   1       1.981  -4.152   2.757  0.00  0.00     0.062 A 
ATOM      7  F   UNL d   1       2.249  -5.237   2.017  0.00  0.00    -0.097 F 
ATOM      8  F1  UNL d   1       2.812  -2.775   1.038  0.00  0.00    -0.096 F 
ATOM      9  I   UNL d   1       2.422   0.148   2.280  0.00  0.00    -0.060 I 
ATOM     10  F2  UNL d   1       1.149  -0.831   5.048  0.00  0.00    -0.096 F 
ATOM     11  F3  UNL d   1       0.597  -3.305   6.000  0.00  0.00    -0.097 F 
ATOM     12  F4  UNL d   1       1.142  -5.515   4.495  0.00  0.00    -0.092 F 
ENDROOT
TORSDOF 0
ENDMDL
