MODEL 1
REMARK minimizedAffinity 6.42771435
REMARK minimizedRMSD -1
REMARK  0 active torsions:
REMARK  status: ('A' for Active; 'I' for Inactive)
ROOT
ATOM      1  C   UNL d   1       1.311  -1.594   4.154  0.00  0.00     0.124 A 
ATOM      2  C1  UNL d   1       1.412  -0.270   4.560  0.00  0.00     0.062 A 
ATOM      3  C2  UNL d   1       1.928   0.690   3.695  0.00  0.00     0.162 A 
ATOM      4  C3  UNL d   1       2.346   0.332   2.414  0.00  0.00    -0.034 A 
ATOM      5  C4  UNL d   1       2.243  -1.002   2.013  0.00  0.00     0.162 A 
ATOM      6  C5  UNL d   1       1.727  -1.958   2.881  0.00  0.00     0.062 A 
ATOM      7  F   UNL d   1       1.630  -3.236   2.486  0.00  0.00    -0.097 F 
ATOM      8  F1  UNL d   1       2.636  -1.381   0.788  0.00  0.00    -0.096 F 
ATOM      9  I   UNL d   1       3.118   1.765   1.117  0.00  0.00    -0.060 I 
ATOM     10  F2  UNL d   1       2.014   1.962   4.115  0.00  0.00    -0.096 F 
ATOM     11  F3  UNL d   1       1.012   0.084   5.790  0.00  0.00    -0.097 F 
ATOM     12  F4  UNL d   1       0.816  -2.516   4.989  0.00  0.00    -0.092 F 
ENDROOT
TORSDOF 0
ENDMDL
