MODEL 1
REMARK minimizedAffinity 18.6654015
REMARK minimizedRMSD -1
REMARK  0 active torsions:
REMARK  status: ('A' for Active; 'I' for Inactive)
ROOT
ATOM      1  C   UNL d   1       2.708  -2.183   3.409  0.00  0.00     0.124 A 
ATOM      2  C1  UNL d   1       1.362  -2.400   3.146  0.00  0.00     0.062 A 
ATOM      3  C2  UNL d   1       0.705  -3.488   3.712  0.00  0.00     0.162 A 
ATOM      4  C3  UNL d   1       1.392  -4.369   4.547  0.00  0.00    -0.034 A 
ATOM      5  C4  UNL d   1       2.746  -4.144   4.807  0.00  0.00     0.162 A 
ATOM      6  C5  UNL d   1       3.398  -3.055   4.239  0.00  0.00     0.062 A 
ATOM      7  F   UNL d   1       4.698  -2.847   4.494  0.00  0.00    -0.097 F 
ATOM      8  F1  UNL d   1       3.437  -4.971   5.606  0.00  0.00    -0.096 F 
ATOM      9  I   UNL d   1       0.413  -5.998   5.395  0.00  0.00    -0.060 I 
ATOM     10  F2  UNL d   1      -0.595  -3.674   3.440  0.00  0.00    -0.096 F 
ATOM     11  F3  UNL d   1       0.693  -1.559   2.344  0.00  0.00    -0.097 F 
ATOM     12  F4  UNL d   1       3.338  -1.135   2.863  0.00  0.00    -0.092 F 
ENDROOT
TORSDOF 0
ENDMDL
