MODEL 1
REMARK minimizedAffinity 22.9308186
REMARK minimizedRMSD -1
REMARK  0 active torsions:
REMARK  status: ('A' for Active; 'I' for Inactive)
ROOT
ATOM      1  C   UNL d   1       0.360  -3.676   3.178  0.00  0.00     0.124 A 
ATOM      2  C1  UNL d   1       1.093  -2.558   2.804  0.00  0.00     0.062 A 
ATOM      3  C2  UNL d   1       2.340  -2.317   3.374  0.00  0.00     0.162 A 
ATOM      4  C3  UNL d   1       2.862  -3.196   4.323  0.00  0.00    -0.034 A 
ATOM      5  C4  UNL d   1       2.118  -4.317   4.694  0.00  0.00     0.162 A 
ATOM      6  C5  UNL d   1       0.873  -4.554   4.122  0.00  0.00     0.062 A 
ATOM      7  F   UNL d   1       0.165  -5.634   4.484  0.00  0.00    -0.097 F 
ATOM      8  F1  UNL d   1       2.590  -5.182   5.603  0.00  0.00    -0.096 F 
ATOM      9  I   UNL d   1       4.726  -2.838   5.177  0.00  0.00    -0.060 I 
ATOM     10  F2  UNL d   1       3.027  -1.229   2.994  0.00  0.00    -0.096 F 
ATOM     11  F3  UNL d   1       0.599  -1.708   1.893  0.00  0.00    -0.097 F 
ATOM     12  F4  UNL d   1      -0.840  -3.905   2.629  0.00  0.00    -0.092 F 
ENDROOT
TORSDOF 0
ENDMDL
