MODEL 1
REMARK minimizedAffinity 19.6299934
REMARK minimizedRMSD -1
REMARK  0 active torsions:
REMARK  status: ('A' for Active; 'I' for Inactive)
ROOT
ATOM      1  C   UNL d   1       2.640  -1.817   3.118  0.00  0.00     0.124 A 
ATOM      2  C1  UNL d   1       1.349  -2.172   2.755  0.00  0.00     0.062 A 
ATOM      3  C2  UNL d   1       0.776  -3.338   3.256  0.00  0.00     0.162 A 
ATOM      4  C3  UNL d   1       1.495  -4.157   4.127  0.00  0.00    -0.034 A 
ATOM      5  C4  UNL d   1       2.795  -3.794   4.486  0.00  0.00     0.162 A 
ATOM      6  C5  UNL d   1       3.362  -2.628   3.983  0.00  0.00     0.062 A 
ATOM      7  F   UNL d   1       4.610  -2.286   4.334  0.00  0.00    -0.097 F 
ATOM      8  F1  UNL d   1       3.514  -4.558   5.321  0.00  0.00    -0.096 F 
ATOM      9  I   UNL d   1       0.643  -5.901   4.879  0.00  0.00    -0.060 I 
ATOM     10  F2  UNL d   1      -0.474  -3.657   2.889  0.00  0.00    -0.096 F 
ATOM     11  F3  UNL d   1       0.650  -1.391   1.919  0.00  0.00    -0.097 F 
ATOM     12  F4  UNL d   1       3.189  -0.696   2.633  0.00  0.00    -0.092 F 
ENDROOT
TORSDOF 0
ENDMDL
