MODEL 1
REMARK minimizedAffinity 9.79612255
REMARK minimizedRMSD -1
REMARK  0 active torsions:
REMARK  status: ('A' for Active; 'I' for Inactive)
ROOT
ATOM      1  C   UNL d   1       3.128  -1.232   2.345  0.00  0.00     0.124 A 
ATOM      2  C1  UNL d   1       4.099  -2.030   2.935  0.00  0.00     0.062 A 
ATOM      3  C2  UNL d   1       3.731  -3.159   3.660  0.00  0.00     0.162 A 
ATOM      4  C3  UNL d   1       2.385  -3.499   3.798  0.00  0.00    -0.034 A 
ATOM      5  C4  UNL d   1       1.414  -2.692   3.203  0.00  0.00     0.162 A 
ATOM      6  C5  UNL d   1       1.787  -1.564   2.479  0.00  0.00     0.062 A 
ATOM      7  F   UNL d   1       0.848  -0.794   1.910  0.00  0.00    -0.097 F 
ATOM      8  F1  UNL d   1       0.111  -2.989   3.316  0.00  0.00    -0.096 F 
ATOM      9  I   UNL d   1       1.830  -5.187   4.882  0.00  0.00    -0.060 I 
ATOM     10  F2  UNL d   1       4.690  -3.912   4.220  0.00  0.00    -0.096 F 
ATOM     11  F3  UNL d   1       5.395  -1.711   2.807  0.00  0.00    -0.097 F 
ATOM     12  F4  UNL d   1       3.485  -0.145   1.649  0.00  0.00    -0.092 F 
ENDROOT
TORSDOF 0
ENDMDL
