MODEL 1
REMARK minimizedAffinity 5.08253336
REMARK minimizedRMSD -1
REMARK  0 active torsions:
REMARK  status: ('A' for Active; 'I' for Inactive)
ROOT
ATOM      1  C   UNL d   1      -0.578   3.137  -1.763  0.00  0.00     0.077 C 
ATOM      2  C1  UNL d   1      -1.104   3.396  -0.382  0.00  0.00    -0.074 A 
ATOM      3  C2  UNL d   1      -1.954   4.477  -0.128  0.00  0.00    -0.005 A 
ATOM      4  C3  UNL d   1      -2.443   4.699   1.160  0.00  0.00     0.006 A 
ATOM      5  C4  UNL d   1      -2.088   3.844   2.204  0.00  0.00    -0.005 A 
ATOM      6  C5  UNL d   1      -1.240   2.757   1.968  0.00  0.00    -0.074 A 
ATOM      7  C6  UNL d   1      -0.856   1.823   3.077  0.00  0.00     0.077 C 
ATOM      8  C7  UNL d   1      -0.758   2.537   0.670  0.00  0.00    -0.001 A 
ENDROOT
TORSDOF 0
ENDMDL
