MODEL 1
REMARK minimizedAffinity 3.71622419
REMARK minimizedRMSD -1
REMARK  0 active torsions:
REMARK  status: ('A' for Active; 'I' for Inactive)
ROOT
ATOM      1  C   UNL d   1      -1.093   2.100   2.268  0.00  0.00     0.077 C 
ATOM      2  C1  UNL d   1      -0.837   2.434   0.829  0.00  0.00    -0.074 A 
ATOM      3  C2  UNL d   1      -1.055   3.726   0.340  0.00  0.00    -0.005 A 
ATOM      4  C3  UNL d   1      -0.804   4.023  -0.999  0.00  0.00     0.006 A 
ATOM      5  C4  UNL d   1      -0.333   3.033  -1.862  0.00  0.00    -0.005 A 
ATOM      6  C5  UNL d   1      -0.108   1.736  -1.392  0.00  0.00    -0.074 A 
ATOM      7  C6  UNL d   1       0.407   0.662  -2.304  0.00  0.00     0.077 C 
ATOM      8  C7  UNL d   1      -0.357   1.446  -0.043  0.00  0.00    -0.001 A 
ENDROOT
TORSDOF 0
ENDMDL
