MODEL 1
REMARK minimizedAffinity 0.509723246
REMARK minimizedRMSD -1
REMARK  0 active torsions:
REMARK  status: ('A' for Active; 'I' for Inactive)
ROOT
ATOM      1  C   UNL d   1      -0.007   0.348   2.597  0.00  0.00     0.077 C 
ATOM      2  C1  UNL d   1      -0.476   1.650   2.017  0.00  0.00    -0.074 A 
ATOM      3  C2  UNL d   1      -0.957   2.672   2.842  0.00  0.00    -0.005 A 
ATOM      4  C3  UNL d   1      -1.381   3.880   2.290  0.00  0.00     0.006 A 
ATOM      5  C4  UNL d   1      -1.330   4.079   0.909  0.00  0.00    -0.005 A 
ATOM      6  C5  UNL d   1      -0.851   3.068   0.069  0.00  0.00    -0.074 A 
ATOM      7  C6  UNL d   1      -0.779   3.269  -1.416  0.00  0.00     0.077 C 
ATOM      8  C7  UNL d   1      -0.420   1.859   0.632  0.00  0.00    -0.001 A 
ENDROOT
TORSDOF 0
ENDMDL
