MODEL 1
REMARK minimizedAffinity -1.60952353
REMARK minimizedRMSD -1
REMARK  0 active torsions:
REMARK  status: ('A' for Active; 'I' for Inactive)
ROOT
ATOM      1  C   UNL d   1      -3.323   5.045   1.722  0.00  0.00     0.077 C 
ATOM      2  C1  UNL d   1      -2.126   4.315   1.189  0.00  0.00    -0.074 A 
ATOM      3  C2  UNL d   1      -2.168   3.680  -0.057  0.00  0.00    -0.005 A 
ATOM      4  C3  UNL d   1      -1.045   3.013  -0.544  0.00  0.00     0.006 A 
ATOM      5  C4  UNL d   1       0.130   2.974   0.207  0.00  0.00    -0.005 A 
ATOM      6  C5  UNL d   1       0.191   3.603   1.455  0.00  0.00    -0.074 A 
ATOM      7  C6  UNL d   1       1.449   3.579   2.271  0.00  0.00     0.077 C 
ATOM      8  C7  UNL d   1      -0.940   4.278   1.935  0.00  0.00    -0.001 A 
ENDROOT
TORSDOF 0
ENDMDL
