MODEL 1
REMARK minimizedAffinity 3.47841477
REMARK minimizedRMSD -1
REMARK  0 active torsions:
REMARK  status: ('A' for Active; 'I' for Inactive)
ROOT
ATOM      1  C   UNL d   1       5.620  -4.499  -3.670  0.00  0.00     0.077 C 
ATOM      2  C1  UNL d   1       4.977  -4.805  -2.350  0.00  0.00    -0.074 A 
ATOM      3  C2  UNL d   1       5.545  -5.733  -1.471  0.00  0.00    -0.005 A 
ATOM      4  C3  UNL d   1       4.941  -6.000  -0.243  0.00  0.00     0.006 A 
ATOM      5  C4  UNL d   1       3.764  -5.344   0.119  0.00  0.00    -0.005 A 
ATOM      6  C5  UNL d   1       3.181  -4.412  -0.747  0.00  0.00    -0.074 A 
ATOM      7  C6  UNL d   1       1.921  -3.691  -0.369  0.00  0.00     0.077 C 
ATOM      8  C7  UNL d   1       3.798  -4.144  -1.976  0.00  0.00    -0.001 A 
ENDROOT
TORSDOF 0
ENDMDL
