MODEL 1
REMARK minimizedAffinity -1.42894042
REMARK minimizedRMSD -1
REMARK  0 active torsions:
REMARK  status: ('A' for Active; 'I' for Inactive)
ROOT
ATOM      1  C   UNL d   1       2.621  -1.212   0.996  0.00  0.00     0.023 A 
ATOM      2  C1  UNL d   1       2.849  -0.344  -0.072  0.00  0.00     0.003 A 
ATOM      3  C2  UNL d   1       1.784   0.355  -0.646  0.00  0.00     0.048 A 
ATOM      4  C3  UNL d   1       0.494   0.182  -0.145  0.00  0.00     0.023 A 
ATOM      5  C4  UNL d   1       0.261  -0.685   0.925  0.00  0.00     0.048 A 
ATOM      6  C5  UNL d   1       1.329  -1.382   1.494  0.00  0.00     0.003 A 
ATOM      7  I   UNL d   1      -1.092   1.221  -0.996  0.00  0.00    -0.146 I 
ENDROOT
TORSDOF 0
ENDMDL
