MODEL 1
REMARK minimizedAffinity -2.53433299
REMARK minimizedRMSD -1
REMARK  0 active torsions:
REMARK  status: ('A' for Active; 'I' for Inactive)
ROOT
ATOM      1  C   UNL d   1       1.160  -1.295   0.891  0.00  0.00     0.023 A 
ATOM      2  C1  UNL d   1       1.425  -1.185  -0.474  0.00  0.00     0.003 A 
ATOM      3  C2  UNL d   1       0.563  -0.456  -1.297  0.00  0.00     0.048 A 
ATOM      4  C3  UNL d   1      -0.561   0.160  -0.748  0.00  0.00     0.023 A 
ATOM      5  C4  UNL d   1      -0.829   0.053   0.617  0.00  0.00     0.048 A 
ATOM      6  C5  UNL d   1       0.035  -0.676   1.436  0.00  0.00     0.003 A 
ATOM      7  I   UNL d   1      -1.844   1.245  -1.971  0.00  0.00    -0.146 I 
ENDROOT
TORSDOF 0
ENDMDL
