MODEL 1
REMARK minimizedAffinity -2.9456923
REMARK minimizedRMSD -1
REMARK  0 active torsions:
REMARK  status: ('A' for Active; 'I' for Inactive)
ROOT
ATOM      1  C   UNL d   1       2.288  -1.772   0.799  0.00  0.00     0.023 A 
ATOM      2  C1  UNL d   1       2.713  -0.928  -0.227  0.00  0.00     0.003 A 
ATOM      3  C2  UNL d   1       1.831   0.006  -0.775  0.00  0.00     0.048 A 
ATOM      4  C3  UNL d   1       0.525   0.090  -0.292  0.00  0.00     0.023 A 
ATOM      5  C4  UNL d   1       0.096  -0.752   0.735  0.00  0.00     0.048 A 
ATOM      6  C5  UNL d   1       0.981  -1.685   1.279  0.00  0.00     0.003 A 
ATOM      7  I   UNL d   1      -0.789   1.479  -1.106  0.00  0.00    -0.146 I 
ENDROOT
TORSDOF 0
ENDMDL
