MODEL 1
REMARK minimizedAffinity -2.66529799
REMARK minimizedRMSD -1
REMARK  0 active torsions:
REMARK  status: ('A' for Active; 'I' for Inactive)
ROOT
ATOM      1  C   UNL d   1       2.213  -1.639   1.095  0.00  0.00     0.023 A 
ATOM      2  C1  UNL d   1       2.494  -1.024  -0.125  0.00  0.00     0.003 A 
ATOM      3  C2  UNL d   1       1.533  -0.220  -0.741  0.00  0.00     0.048 A 
ATOM      4  C3  UNL d   1       0.293  -0.034  -0.130  0.00  0.00     0.023 A 
ATOM      5  C4  UNL d   1       0.008  -0.647   1.091  0.00  0.00     0.048 A 
ATOM      6  C5  UNL d   1       0.972  -1.451   1.702  0.00  0.00     0.003 A 
ATOM      7  I   UNL d   1      -1.139   1.163  -1.044  0.00  0.00    -0.146 I 
ENDROOT
TORSDOF 0
ENDMDL
