MODEL 1
REMARK minimizedAffinity -2.47002125
REMARK minimizedRMSD -1
REMARK  0 active torsions:
REMARK  status: ('A' for Active; 'I' for Inactive)
ROOT
ATOM      1  C   UNL d   1      -2.533   1.619  -3.221  0.00  0.00     0.023 A 
ATOM      2  C1  UNL d   1      -2.030   2.512  -2.274  0.00  0.00     0.003 A 
ATOM      3  C2  UNL d   1      -1.066   2.089  -1.356  0.00  0.00     0.048 A 
ATOM      4  C3  UNL d   1      -0.609   0.772  -1.392  0.00  0.00     0.023 A 
ATOM      5  C4  UNL d   1      -1.108  -0.124  -2.338  0.00  0.00     0.048 A 
ATOM      6  C5  UNL d   1      -2.073   0.303  -3.253  0.00  0.00     0.003 A 
ATOM      7  I   UNL d   1       0.826   0.140  -0.028  0.00  0.00    -0.146 I 
ENDROOT
TORSDOF 0
ENDMDL
