MODEL 1
REMARK minimizedAffinity -1.74197006
REMARK minimizedRMSD -1
REMARK  0 active torsions:
REMARK  status: ('A' for Active; 'I' for Inactive)
ROOT
ATOM      1  C   UNL d   1       1.225  -0.684   0.623  0.00  0.00     0.023 A 
ATOM      2  C1  UNL d   1       1.760   0.201  -0.313  0.00  0.00     0.003 A 
ATOM      3  C2  UNL d   1       0.915   0.904  -1.174  0.00  0.00     0.048 A 
ATOM      4  C3  UNL d   1      -0.465   0.718  -1.093  0.00  0.00     0.023 A 
ATOM      5  C4  UNL d   1      -1.005  -0.166  -0.157  0.00  0.00     0.048 A 
ATOM      6  C5  UNL d   1      -0.156  -0.867   0.701  0.00  0.00     0.003 A 
ATOM      7  I   UNL d   1      -1.725   1.764  -2.372  0.00  0.00    -0.146 I 
ENDROOT
TORSDOF 0
ENDMDL
