MODEL 1
REMARK minimizedAffinity -3.7289474
REMARK minimizedRMSD -1
REMARK  0 active torsions:
REMARK  status: ('A' for Active; 'I' for Inactive)
ROOT
ATOM      1  C   UNL d   1      -0.975  -0.391   1.351  0.00  0.00     0.023 A 
ATOM      2  C1  UNL d   1      -0.724   0.722   0.549  0.00  0.00     0.003 A 
ATOM      3  C2  UNL d   1       0.544   0.914  -0.003  0.00  0.00     0.048 A 
ATOM      4  C3  UNL d   1       1.556  -0.012   0.249  0.00  0.00     0.023 A 
ATOM      5  C4  UNL d   1       1.309  -1.128   1.050  0.00  0.00     0.048 A 
ATOM      6  C5  UNL d   1       0.040  -1.315   1.601  0.00  0.00     0.003 A 
ATOM      7  I   UNL d   1       3.444   0.272  -0.573  0.00  0.00    -0.146 I 
ENDROOT
TORSDOF 0
ENDMDL
