MODEL 1
REMARK minimizedAffinity -4.30131912
REMARK minimizedRMSD -1
REMARK  0 active torsions:
REMARK  status: ('A' for Active; 'I' for Inactive)
ROOT
ATOM      1  C   UNL d   1       2.634  -1.925   0.830  0.00  0.00     0.023 A 
ATOM      2  C1  UNL d   1       3.258  -0.763   0.376  0.00  0.00     0.003 A 
ATOM      3  C2  UNL d   1       2.490   0.337  -0.012  0.00  0.00     0.048 A 
ATOM      4  C3  UNL d   1       1.099   0.269   0.058  0.00  0.00     0.023 A 
ATOM      5  C4  UNL d   1       0.470  -0.892   0.512  0.00  0.00     0.048 A 
ATOM      6  C5  UNL d   1       1.242  -1.989   0.898  0.00  0.00     0.003 A 
ATOM      7  I   UNL d   1      -0.046   1.905  -0.519  0.00  0.00    -0.146 I 
ENDROOT
TORSDOF 0
ENDMDL
