MODEL 1
REMARK minimizedAffinity -4.15989304
REMARK minimizedRMSD -1
REMARK  0 active torsions:
REMARK  status: ('A' for Active; 'I' for Inactive)
ROOT
ATOM      1  C   UNL d   1      -1.782  -0.090   0.987  0.00  0.00     0.023 A 
ATOM      2  C1  UNL d   1      -0.586   0.014   0.277  0.00  0.00     0.003 A 
ATOM      3  C2  UNL d   1       0.422  -0.935   0.460  0.00  0.00     0.048 A 
ATOM      4  C3  UNL d   1       0.226  -1.987   1.354  0.00  0.00     0.023 A 
ATOM      5  C4  UNL d   1      -0.969  -2.096   2.066  0.00  0.00     0.048 A 
ATOM      6  C5  UNL d   1      -1.973  -1.144   1.880  0.00  0.00     0.003 A 
ATOM      7  I   UNL d   1       1.724  -3.401   1.627  0.00  0.00    -0.146 I 
ENDROOT
TORSDOF 0
ENDMDL
