MODEL 1
REMARK minimizedAffinity -3.73477554
REMARK minimizedRMSD -1
REMARK  0 active torsions:
REMARK  status: ('A' for Active; 'I' for Inactive)
ROOT
ATOM      1  C   UNL d   1      -2.175   1.542  -3.699  0.00  0.00     0.023 A 
ATOM      2  C1  UNL d   1      -1.327   2.459  -3.077  0.00  0.00     0.003 A 
ATOM      3  C2  UNL d   1      -0.658   2.108  -1.903  0.00  0.00     0.048 A 
ATOM      4  C3  UNL d   1      -0.839   0.837  -1.358  0.00  0.00     0.023 A 
ATOM      5  C4  UNL d   1      -1.685  -0.084  -1.977  0.00  0.00     0.048 A 
ATOM      6  C5  UNL d   1      -2.353   0.272  -3.150  0.00  0.00     0.003 A 
ATOM      7  I   UNL d   1       0.157   0.311   0.389  0.00  0.00    -0.146 I 
ENDROOT
TORSDOF 0
ENDMDL
