MODEL 1
REMARK minimizedAffinity -3.80686522
REMARK minimizedRMSD -1
REMARK  0 active torsions:
REMARK  status: ('A' for Active; 'I' for Inactive)
ROOT
ATOM      1  C   UNL d   1       1.634  -2.477   1.028  0.00  0.00     0.023 A 
ATOM      2  C1  UNL d   1       2.288  -1.431   0.376  0.00  0.00     0.003 A 
ATOM      3  C2  UNL d   1       1.561  -0.333  -0.088  0.00  0.00     0.048 A 
ATOM      4  C3  UNL d   1       0.181  -0.286   0.104  0.00  0.00     0.023 A 
ATOM      5  C4  UNL d   1      -0.477  -1.330   0.757  0.00  0.00     0.048 A 
ATOM      6  C5  UNL d   1       0.253  -2.426   1.218  0.00  0.00     0.003 A 
ATOM      7  I   UNL d   1      -0.903   1.347  -0.586  0.00  0.00    -0.146 I 
ENDROOT
TORSDOF 0
ENDMDL
