MODEL 1
REMARK minimizedAffinity -4.03432083
REMARK minimizedRMSD -1
REMARK  0 active torsions:
REMARK  status: ('A' for Active; 'I' for Inactive)
ROOT
ATOM      1  C   UNL d   1      -2.021   1.849  -2.320  0.00  0.00     0.023 A 
ATOM      2  C1  UNL d   1      -2.082   0.476  -2.558  0.00  0.00     0.003 A 
ATOM      3  C2  UNL d   1      -1.330  -0.404  -1.777  0.00  0.00     0.048 A 
ATOM      4  C3  UNL d   1      -0.519   0.097  -0.759  0.00  0.00     0.023 A 
ATOM      5  C4  UNL d   1      -0.456   1.470  -0.516  0.00  0.00     0.048 A 
ATOM      6  C5  UNL d   1      -1.209   2.345  -1.301  0.00  0.00     0.003 A 
ATOM      7  I   UNL d   1       0.602  -1.210   0.406  0.00  0.00    -0.146 I 
ENDROOT
TORSDOF 0
ENDMDL
