MODEL 1
REMARK minimizedAffinity -3.81679344
REMARK minimizedRMSD -1
REMARK  0 active torsions:
REMARK  status: ('A' for Active; 'I' for Inactive)
ROOT
ATOM      1  C   UNL d   1       1.979  -1.902   1.332  0.00  0.00     0.023 A 
ATOM      2  C1  UNL d   1       2.542  -0.869   0.582  0.00  0.00     0.003 A 
ATOM      3  C2  UNL d   1       1.727   0.129   0.045  0.00  0.00     0.048 A 
ATOM      4  C3  UNL d   1       0.350   0.089   0.261  0.00  0.00     0.023 A 
ATOM      5  C4  UNL d   1      -0.217  -0.942   1.012  0.00  0.00     0.048 A 
ATOM      6  C5  UNL d   1       0.602  -1.939   1.547  0.00  0.00     0.003 A 
ATOM      7  I   UNL d   1      -0.865   1.574  -0.538  0.00  0.00    -0.146 I 
ENDROOT
TORSDOF 0
ENDMDL
