MODEL 1
REMARK minimizedAffinity 0.0615182556
REMARK minimizedRMSD -1
REMARK  0 active torsions:
REMARK  status: ('A' for Active; 'I' for Inactive)
ROOT
ATOM      1  C   UNL d   1      -1.655  -0.487   1.748  0.00  0.00     0.023 A 
ATOM      2  C1  UNL d   1      -1.706   0.845   1.338  0.00  0.00     0.003 A 
ATOM      3  C2  UNL d   1      -0.706   1.362   0.512  0.00  0.00     0.048 A 
ATOM      4  C3  UNL d   1       0.342   0.541   0.099  0.00  0.00     0.023 A 
ATOM      5  C4  UNL d   1       0.398  -0.793   0.507  0.00  0.00     0.048 A 
ATOM      6  C5  UNL d   1      -0.604  -1.305   1.333  0.00  0.00     0.003 A 
ATOM      7  I   UNL d   1       1.832   1.307  -1.130  0.00  0.00    -0.146 I 
ENDROOT
TORSDOF 0
ENDMDL
