MODEL 1
REMARK minimizedAffinity -1.73995948
REMARK minimizedRMSD -1
REMARK  0 active torsions:
REMARK  status: ('A' for Active; 'I' for Inactive)
ROOT
ATOM      1  C   UNL d   1      -0.744   1.885  -0.381  0.00  0.00     0.023 A 
ATOM      2  C1  UNL d   1      -1.503   1.088   0.475  0.00  0.00     0.003 A 
ATOM      3  C2  UNL d   1      -1.030  -0.166   0.868  0.00  0.00     0.048 A 
ATOM      4  C3  UNL d   1       0.205  -0.615   0.401  0.00  0.00     0.023 A 
ATOM      5  C4  UNL d   1       0.969   0.179  -0.455  0.00  0.00     0.048 A 
ATOM      6  C5  UNL d   1       0.491   1.432  -0.846  0.00  0.00     0.003 A 
ATOM      7  I   UNL d   1       0.912  -2.481   0.984  0.00  0.00    -0.146 I 
ENDROOT
TORSDOF 0
ENDMDL
