MODEL 1
REMARK minimizedAffinity 0.17065686
REMARK minimizedRMSD -1
REMARK  1 active torsions:
REMARK  status: ('A' for Active; 'I' for Inactive)
REMARK    1  A    between atoms: C3_4  and  O_7 
ROOT
ATOM      1  C   UNL d   1      -4.885   1.130  -4.346  0.00  0.00    -0.033 A 
ATOM      2  C1  UNL d   1      -5.304   1.874  -3.241  0.00  0.00     0.039 A 
ATOM      3  C2  UNL d   1      -5.678   3.210  -3.399  0.00  0.00    -0.080 A 
ATOM      4  C3  UNL d   1      -5.630   3.789  -4.664  0.00  0.00     0.150 A 
ATOM      5  C4  UNL d   1      -5.217   3.052  -5.769  0.00  0.00    -0.007 A 
ATOM      6  C5  UNL d   1      -4.843   1.719  -5.610  0.00  0.00     0.039 A 
ENDROOT
BRANCH   4   7
ATOM      7  O   UNL d   1      -5.980   5.091  -4.866  0.00  0.00    -0.526 OA
ATOM      8  H5  UNL d   1      -6.216   5.483  -4.009  0.00  0.00     0.418 HD
ENDBRANCH   4   7
TORSDOF 1
ENDMDL
