MODEL 1
REMARK minimizedAffinity 2.53663874
REMARK minimizedRMSD -1
REMARK  1 active torsions:
REMARK  status: ('A' for Active; 'I' for Inactive)
REMARK    1  A    between atoms: C3_4  and  O_7 
ROOT
ATOM      1  C   UNL d   1       1.495  -1.479   1.639  0.00  0.00    -0.033 A 
ATOM      2  C1  UNL d   1       2.000  -2.720   2.032  0.00  0.00     0.039 A 
ATOM      3  C2  UNL d   1       1.960  -3.099   3.375  0.00  0.00    -0.080 A 
ATOM      4  C3  UNL d   1       1.412  -2.229   4.314  0.00  0.00     0.150 A 
ATOM      5  C4  UNL d   1       0.903  -0.993   3.930  0.00  0.00    -0.007 A 
ATOM      6  C5  UNL d   1       0.945  -0.616   2.588  0.00  0.00     0.039 A 
ENDROOT
BRANCH   4   7
ATOM      7  O   UNL d   1       1.355  -2.553   5.637  0.00  0.00    -0.526 OA
ATOM      8  H5  UNL d   1       1.769  -3.424   5.759  0.00  0.00     0.418 HD
ENDBRANCH   4   7
TORSDOF 1
ENDMDL
