MODEL 1
REMARK minimizedAffinity 0.157114148
REMARK minimizedRMSD -1
REMARK  1 active torsions:
REMARK  status: ('A' for Active; 'I' for Inactive)
REMARK    1  A    between atoms: C3_4  and  O_7 
ROOT
ATOM      1  C   UNL d   1      -0.686  -0.649   0.980  0.00  0.00    -0.033 A 
ATOM      2  C1  UNL d   1       0.032  -1.836   0.823  0.00  0.00     0.039 A 
ATOM      3  C2  UNL d   1      -0.620  -2.998   0.402  0.00  0.00    -0.080 A 
ATOM      4  C3  UNL d   1      -1.987  -2.958   0.142  0.00  0.00     0.150 A 
ATOM      5  C4  UNL d   1      -2.707  -1.778   0.293  0.00  0.00    -0.007 A 
ATOM      6  C5  UNL d   1      -2.055  -0.620   0.714  0.00  0.00     0.039 A 
ENDROOT
BRANCH   4   7
ATOM      7  O   UNL d   1      -2.667  -4.067  -0.266  0.00  0.00    -0.526 OA
ATOM      8  H5  UNL d   1      -2.046  -4.814  -0.298  0.00  0.00     0.418 HD
ENDBRANCH   4   7
TORSDOF 1
ENDMDL
