MODEL 1
REMARK minimizedAffinity 4.3771224
REMARK minimizedRMSD -1
REMARK  1 active torsions:
REMARK  status: ('A' for Active; 'I' for Inactive)
REMARK    1  A    between atoms: C3_4  and  O_7 
ROOT
ATOM      1  C   UNL d   1      -5.999   4.525  -1.610  0.00  0.00    -0.033 A 
ATOM      2  C1  UNL d   1      -5.995   3.418  -2.460  0.00  0.00     0.039 A 
ATOM      3  C2  UNL d   1      -5.994   3.599  -3.845  0.00  0.00    -0.080 A 
ATOM      4  C3  UNL d   1      -5.995   4.891  -4.365  0.00  0.00     0.150 A 
ATOM      5  C4  UNL d   1      -5.995   5.998  -3.523  0.00  0.00    -0.007 A 
ATOM      6  C5  UNL d   1      -5.998   5.815  -2.141  0.00  0.00     0.039 A 
ENDROOT
BRANCH   4   7
ATOM      7  O   UNL d   1      -5.999   5.117  -5.709  0.00  0.00    -0.526 OA
ATOM      8  H5  UNL d   1      -6.028   4.260  -6.166  0.00  0.00     0.418 HD
ENDBRANCH   4   7
TORSDOF 1
ENDMDL
