MODEL 1
REMARK minimizedAffinity -2.95909882
REMARK minimizedRMSD -1
REMARK  0 active torsions:
REMARK  status: ('A' for Active; 'I' for Inactive)
ROOT
ATOM      1  C   UNL d   1       0.692  -0.163  -0.646  0.00  0.00     0.172 C 
ATOM      2  N   UNL d   1       0.424  -0.021   0.766  0.00  0.00    -0.070 N 
ATOM      3  C1  UNL d   1      -0.707  -0.447   1.410  0.00  0.00    -0.004 A 
ATOM      4  C2  UNL d   1      -0.578  -0.128   2.745  0.00  0.00    -0.047 A 
ATOM      5  C3  UNL d   1       0.673   0.513   2.908  0.00  0.00    -0.047 A 
ATOM      6  C4  UNL d   1       1.272   0.565   1.667  0.00  0.00    -0.004 A 
ENDROOT
TORSDOF 0
ENDMDL
