MODEL 1
REMARK minimizedAffinity -3.43810582
REMARK minimizedRMSD -1
REMARK  0 active torsions:
REMARK  status: ('A' for Active; 'I' for Inactive)
ROOT
ATOM      1  C   UNL d   1      -0.464   0.529  -1.803  0.00  0.00     0.172 C 
ATOM      2  N   UNL d   1       0.389  -0.274  -2.646  0.00  0.00    -0.070 N 
ATOM      3  C1  UNL d   1       1.593   0.118  -3.168  0.00  0.00    -0.004 A 
ATOM      4  C2  UNL d   1       2.091  -0.929  -3.912  0.00  0.00    -0.047 A 
ATOM      5  C3  UNL d   1       1.154  -1.986  -3.837  0.00  0.00    -0.047 A 
ATOM      6  C4  UNL d   1       0.110  -1.554  -3.047  0.00  0.00    -0.004 A 
ENDROOT
TORSDOF 0
ENDMDL
