MODEL 1
REMARK minimizedAffinity -3.3935616
REMARK minimizedRMSD -1
REMARK  0 active torsions:
REMARK  status: ('A' for Active; 'I' for Inactive)
ROOT
ATOM      1  C   UNL d   1       0.278   0.165  -1.062  0.00  0.00     0.172 C 
ATOM      2  N   UNL d   1       0.141  -0.016   0.364  0.00  0.00    -0.070 N 
ATOM      3  C1  UNL d   1      -0.810  -0.782   0.983  0.00  0.00    -0.004 A 
ATOM      4  C2  UNL d   1      -0.602  -0.695   2.343  0.00  0.00    -0.047 A 
ATOM      5  C3  UNL d   1       0.512   0.153   2.548  0.00  0.00    -0.047 A 
ATOM      6  C4  UNL d   1       0.952   0.560   1.306  0.00  0.00    -0.004 A 
ENDROOT
TORSDOF 0
ENDMDL
