MODEL 1
REMARK minimizedAffinity -3.5378046
REMARK minimizedRMSD -1
REMARK  0 active torsions:
REMARK  status: ('A' for Active; 'I' for Inactive)
ROOT
ATOM      1  C   UNL d   1       0.080   0.096  -0.681  0.00  0.00     0.172 C 
ATOM      2  N   UNL d   1       0.075  -0.157   0.740  0.00  0.00    -0.070 N 
ATOM      3  C1  UNL d   1      -1.006  -0.564   1.476  0.00  0.00    -0.004 A 
ATOM      4  C2  UNL d   1      -0.601  -0.692   2.787  0.00  0.00    -0.047 A 
ATOM      5  C3  UNL d   1       0.771  -0.349   2.841  0.00  0.00    -0.047 A 
ATOM      6  C4  UNL d   1       1.164  -0.022   1.561  0.00  0.00    -0.004 A 
ENDROOT
TORSDOF 0
ENDMDL
