MODEL 1
REMARK minimizedAffinity -3.98024106
REMARK minimizedRMSD -1
REMARK  0 active torsions:
REMARK  status: ('A' for Active; 'I' for Inactive)
ROOT
ATOM      1  C   UNL d   1       0.213   0.167  -0.145  0.00  0.00     0.172 C 
ATOM      2  N   UNL d   1       0.144   0.104   1.296  0.00  0.00    -0.070 N 
ATOM      3  C1  UNL d   1       1.011   0.712   2.164  0.00  0.00    -0.004 A 
ATOM      4  C2  UNL d   1       0.605   0.411   3.446  0.00  0.00    -0.047 A 
ATOM      5  C3  UNL d   1      -0.545  -0.407   3.345  0.00  0.00    -0.047 A 
ATOM      6  C4  UNL d   1      -0.809  -0.582   2.003  0.00  0.00    -0.004 A 
ENDROOT
TORSDOF 0
ENDMDL
