MODEL 1
REMARK minimizedAffinity -3.55096483
REMARK minimizedRMSD -1
REMARK  0 active torsions:
REMARK  status: ('A' for Active; 'I' for Inactive)
ROOT
ATOM      1  C   UNL d   1       0.400  -0.031  -1.457  0.00  0.00     0.172 C 
ATOM      2  N   UNL d   1       0.163  -0.014  -0.032  0.00  0.00    -0.070 N 
ATOM      3  C1  UNL d   1      -1.029  -0.293   0.582  0.00  0.00    -0.004 A 
ATOM      4  C2  UNL d   1      -0.842  -0.168   1.942  0.00  0.00    -0.047 A 
ATOM      5  C3  UNL d   1       0.508   0.200   2.152  0.00  0.00    -0.047 A 
ATOM      6  C4  UNL d   1       1.107   0.288   0.913  0.00  0.00    -0.004 A 
ENDROOT
TORSDOF 0
ENDMDL
