MODEL 1
REMARK minimizedAffinity -3.53088236
REMARK minimizedRMSD -1
REMARK  0 active torsions:
REMARK  status: ('A' for Active; 'I' for Inactive)
ROOT
ATOM      1  C   UNL d   1       0.375   0.105  -1.187  0.00  0.00     0.172 C 
ATOM      2  N   UNL d   1       0.128  -0.086   0.223  0.00  0.00    -0.070 N 
ATOM      3  C1  UNL d   1      -0.941  -0.750   0.763  0.00  0.00    -0.004 A 
ATOM      4  C2  UNL d   1      -0.812  -0.712   2.135  0.00  0.00    -0.047 A 
ATOM      5  C3  UNL d   1       0.375  -0.000   2.429  0.00  0.00    -0.047 A 
ATOM      6  C4  UNL d   1       0.937   0.376   1.227  0.00  0.00    -0.004 A 
ENDROOT
TORSDOF 0
ENDMDL
