MODEL 1
REMARK minimizedAffinity -3.5344336
REMARK minimizedRMSD -1
REMARK  0 active torsions:
REMARK  status: ('A' for Active; 'I' for Inactive)
ROOT
ATOM      1  C   UNL d   1       0.406   0.098  -0.829  0.00  0.00     0.172 C 
ATOM      2  N   UNL d   1       0.318   0.019   0.610  0.00  0.00    -0.070 N 
ATOM      3  C1  UNL d   1       1.365   0.149   1.482  0.00  0.00    -0.004 A 
ATOM      4  C2  UNL d   1       0.869   0.011   2.761  0.00  0.00    -0.047 A 
ATOM      5  C3  UNL d   1      -0.525  -0.210   2.653  0.00  0.00    -0.047 A 
ATOM      6  C4  UNL d   1      -0.839  -0.200   1.310  0.00  0.00    -0.004 A 
ENDROOT
TORSDOF 0
ENDMDL
