MODEL 1
REMARK minimizedAffinity -3.68767214
REMARK minimizedRMSD -1
REMARK  0 active torsions:
REMARK  status: ('A' for Active; 'I' for Inactive)
ROOT
ATOM      1  C   UNL d   1       0.416   0.336  -1.392  0.00  0.00     0.172 C 
ATOM      2  N   UNL d   1       0.205   0.030   0.003  0.00  0.00    -0.070 N 
ATOM      3  C1  UNL d   1      -0.989  -0.329   0.570  0.00  0.00    -0.004 A 
ATOM      4  C2  UNL d   1      -0.772  -0.535   1.916  0.00  0.00    -0.047 A 
ATOM      5  C3  UNL d   1       0.599  -0.290   2.166  0.00  0.00    -0.047 A 
ATOM      6  C4  UNL d   1       1.180   0.058   0.965  0.00  0.00    -0.004 A 
ENDROOT
TORSDOF 0
ENDMDL
