MODEL 1
REMARK minimizedAffinity -3.87003255
REMARK minimizedRMSD -1
REMARK  0 active torsions:
REMARK  status: ('A' for Active; 'I' for Inactive)
ROOT
ATOM      1  C   UNL d   1       1.700   0.044   1.166  0.00  0.00     0.172 C 
ATOM      2  N   UNL d   1       0.378   0.030   1.747  0.00  0.00    -0.070 N 
ATOM      3  C1  UNL d   1       0.094   0.054   3.086  0.00  0.00    -0.004 A 
ATOM      4  C2  UNL d   1      -1.277   0.030   3.227  0.00  0.00    -0.047 A 
ATOM      5  C3  UNL d   1      -1.836  -0.010   1.928  0.00  0.00    -0.047 A 
ATOM      6  C4  UNL d   1      -0.789  -0.009   1.030  0.00  0.00    -0.004 A 
ENDROOT
TORSDOF 0
ENDMDL
