MODEL 1
REMARK minimizedAffinity -3.20618558
REMARK minimizedRMSD -1
REMARK  0 active torsions:
REMARK  status: ('A' for Active; 'I' for Inactive)
ROOT
ATOM      1  C   UNL d   1       0.008   0.131  -0.912  0.00  0.00     0.172 C 
ATOM      2  N   UNL d   1      -0.221  -0.057   0.501  0.00  0.00    -0.070 N 
ATOM      3  C1  UNL d   1      -1.394  -0.473   1.072  0.00  0.00    -0.004 A 
ATOM      4  C2  UNL d   1      -1.204  -0.526   2.436  0.00  0.00    -0.047 A 
ATOM      5  C3  UNL d   1       0.129  -0.128   2.694  0.00  0.00    -0.047 A 
ATOM      6  C4  UNL d   1       0.715   0.157   1.479  0.00  0.00    -0.004 A 
ENDROOT
TORSDOF 0
ENDMDL
