MODEL 1
REMARK minimizedAffinity -1.1525085
REMARK minimizedRMSD -1
REMARK  0 active torsions:
REMARK  status: ('A' for Active; 'I' for Inactive)
ROOT
ATOM      1  C   UNL d   1      -0.734  -0.001   3.367  0.00  0.00     0.172 C 
ATOM      2  N   UNL d   1      -0.205   0.075   2.026  0.00  0.00    -0.070 N 
ATOM      3  C1  UNL d   1       1.094   0.353   1.695  0.00  0.00    -0.004 A 
ATOM      4  C2  UNL d   1       1.193   0.331   0.320  0.00  0.00    -0.047 A 
ATOM      5  C3  UNL d   1      -0.091   0.031  -0.193  0.00  0.00    -0.047 A 
ATOM      6  C4  UNL d   1      -0.937  -0.123   0.885  0.00  0.00    -0.004 A 
ENDROOT
TORSDOF 0
ENDMDL
