MODEL 1
REMARK minimizedAffinity -3.61073542
REMARK minimizedRMSD -1
REMARK  0 active torsions:
REMARK  status: ('A' for Active; 'I' for Inactive)
ROOT
ATOM      1  C   UNL d   1       0.218   0.068  -0.666  0.00  0.00     0.172 C 
ATOM      2  N   UNL d   1       0.065  -0.034   0.766  0.00  0.00    -0.070 N 
ATOM      3  C1  UNL d   1       1.076   0.061   1.685  0.00  0.00    -0.004 A 
ATOM      4  C2  UNL d   1       0.523  -0.088   2.938  0.00  0.00    -0.047 A 
ATOM      5  C3  UNL d   1      -0.869  -0.281   2.766  0.00  0.00    -0.047 A 
ATOM      6  C4  UNL d   1      -1.124  -0.243   1.412  0.00  0.00    -0.004 A 
ENDROOT
TORSDOF 0
ENDMDL
