MODEL 1
REMARK minimizedAffinity -2.85315084
REMARK minimizedRMSD -1
REMARK  0 active torsions:
REMARK  status: ('A' for Active; 'I' for Inactive)
ROOT
ATOM      1  C   UNL d   1       1.645   0.342   1.170  0.00  0.00     0.172 C 
ATOM      2  N   UNL d   1       0.442   0.255   1.964  0.00  0.00    -0.070 N 
ATOM      3  C1  UNL d   1       0.370   0.406   3.323  0.00  0.00    -0.004 A 
ATOM      4  C2  UNL d   1      -0.948   0.251   3.696  0.00  0.00    -0.047 A 
ATOM      5  C3  UNL d   1      -1.693  -0.002   2.520  0.00  0.00    -0.047 A 
ATOM      6  C4  UNL d   1      -0.808   0.006   1.463  0.00  0.00    -0.004 A 
ENDROOT
TORSDOF 0
ENDMDL
