MODEL 1
REMARK minimizedAffinity -3.18638992
REMARK minimizedRMSD -1
REMARK  0 active torsions:
REMARK  status: ('A' for Active; 'I' for Inactive)
ROOT
ATOM      1  C   UNL d   1       1.669  -4.014   0.170  0.00  0.00     0.078 C 
ATOM      2  C1  UNL d   1       1.081  -2.668   0.472  0.00  0.00    -0.077 A 
ATOM      3  C2  UNL d   1      -0.302  -2.457   0.423  0.00  0.00    -0.001 A 
ATOM      4  C3  UNL d   1      -0.835  -1.197   0.697  0.00  0.00     0.003 A 
ATOM      5  C4  UNL d   1       0.009  -0.136   1.021  0.00  0.00    -0.005 A 
ATOM      6  C5  UNL d   1       1.387  -0.335   1.071  0.00  0.00     0.003 A 
ATOM      7  C6  UNL d   1       1.922  -1.595   0.798  0.00  0.00    -0.001 A 
ENDROOT
TORSDOF 0
ENDMDL
