MODEL 1
REMARK minimizedAffinity -4.22603416
REMARK minimizedRMSD -1
REMARK  0 active torsions:
REMARK  status: ('A' for Active; 'I' for Inactive)
ROOT
ATOM      1  C   UNL d   1       3.056  -3.524  -0.431  0.00  0.00     0.078 C 
ATOM      2  C1  UNL d   1       1.965  -2.601   0.024  0.00  0.00    -0.077 A 
ATOM      3  C2  UNL d   1       2.177  -1.220   0.112  0.00  0.00    -0.001 A 
ATOM      4  C3  UNL d   1       1.155  -0.375   0.546  0.00  0.00     0.003 A 
ATOM      5  C4  UNL d   1      -0.086  -0.901   0.898  0.00  0.00    -0.005 A 
ATOM      6  C5  UNL d   1      -0.307  -2.274   0.816  0.00  0.00     0.003 A 
ATOM      7  C6  UNL d   1       0.714  -3.121   0.381  0.00  0.00    -0.001 A 
ENDROOT
TORSDOF 0
ENDMDL
