MODEL 1
REMARK minimizedAffinity -6.25469017
REMARK minimizedRMSD -1
REMARK  0 active torsions:
REMARK  status: ('A' for Active; 'I' for Inactive)
ROOT
ATOM      1  C   UNL d   1       2.959  -4.133   0.154  0.00  0.00     0.078 C 
ATOM      2  C1  UNL d   1       2.008  -2.985   0.311  0.00  0.00    -0.077 A 
ATOM      3  C2  UNL d   1       0.625  -3.173   0.196  0.00  0.00    -0.001 A 
ATOM      4  C3  UNL d   1      -0.248  -2.093   0.335  0.00  0.00     0.003 A 
ATOM      5  C4  UNL d   1       0.251  -0.817   0.588  0.00  0.00    -0.005 A 
ATOM      6  C5  UNL d   1       1.626  -0.619   0.701  0.00  0.00     0.003 A 
ATOM      7  C6  UNL d   1       2.501  -1.698   0.563  0.00  0.00    -0.001 A 
ENDROOT
TORSDOF 0
ENDMDL
