MODEL 1
REMARK minimizedAffinity 5.44132423
REMARK minimizedRMSD -1
REMARK  0 active torsions:
REMARK  status: ('A' for Active; 'I' for Inactive)
ROOT
ATOM      1  C   UNL d   1       2.753  -0.185   1.487  0.00  0.00     0.078 C 
ATOM      2  C1  UNL d   1       1.350  -0.530   1.088  0.00  0.00    -0.077 A 
ATOM      3  C2  UNL d   1       1.093  -1.542   0.155  0.00  0.00    -0.001 A 
ATOM      4  C3  UNL d   1      -0.218  -1.846  -0.214  0.00  0.00     0.003 A 
ATOM      5  C4  UNL d   1      -1.283  -1.142   0.343  0.00  0.00    -0.005 A 
ATOM      6  C5  UNL d   1      -1.038  -0.132   1.271  0.00  0.00     0.003 A 
ATOM      7  C6  UNL d   1       0.273   0.174   1.641  0.00  0.00    -0.001 A 
ENDROOT
TORSDOF 0
ENDMDL
