MODEL 1
REMARK minimizedAffinity -2.24491858
REMARK minimizedRMSD -1
REMARK  0 active torsions:
REMARK  status: ('A' for Active; 'I' for Inactive)
ROOT
ATOM      1  C   UNL d   1       2.136  -3.862  -0.223  0.00  0.00     0.078 C 
ATOM      2  C1  UNL d   1       1.312  -2.703   0.253  0.00  0.00    -0.077 A 
ATOM      3  C2  UNL d   1       1.798  -1.392   0.175  0.00  0.00    -0.001 A 
ATOM      4  C3  UNL d   1       1.025  -0.324   0.631  0.00  0.00     0.003 A 
ATOM      5  C4  UNL d   1      -0.240  -0.555   1.169  0.00  0.00    -0.005 A 
ATOM      6  C5  UNL d   1      -0.731  -1.856   1.253  0.00  0.00     0.003 A 
ATOM      7  C6  UNL d   1       0.041  -2.926   0.798  0.00  0.00    -0.001 A 
ENDROOT
TORSDOF 0
ENDMDL
