MODEL 1
REMARK minimizedAffinity -3.16665649
REMARK minimizedRMSD -1
REMARK  0 active torsions:
REMARK  status: ('A' for Active; 'I' for Inactive)
ROOT
ATOM      1  C   UNL d   1       3.141  -4.426  -0.097  0.00  0.00     0.078 C 
ATOM      2  C1  UNL d   1       2.187  -3.286   0.097  0.00  0.00    -0.077 A 
ATOM      3  C2  UNL d   1       0.804  -3.504   0.147  0.00  0.00    -0.001 A 
ATOM      4  C3  UNL d   1      -0.073  -2.432   0.318  0.00  0.00     0.003 A 
ATOM      5  C4  UNL d   1       0.422  -1.135   0.439  0.00  0.00    -0.005 A 
ATOM      6  C5  UNL d   1       1.795  -0.908   0.387  0.00  0.00     0.003 A 
ATOM      7  C6  UNL d   1       2.675  -1.979   0.216  0.00  0.00    -0.001 A 
ENDROOT
TORSDOF 0
ENDMDL
