MODEL 1
REMARK minimizedAffinity -0.418560952
REMARK minimizedRMSD -1
REMARK  0 active torsions:
REMARK  status: ('A' for Active; 'I' for Inactive)
ROOT
ATOM      1  C   UNL d   1      -1.751   0.041   1.461  0.00  0.00     0.078 C 
ATOM      2  C1  UNL d   1      -0.544  -0.803   1.178  0.00  0.00    -0.077 A 
ATOM      3  C2  UNL d   1      -0.675  -2.120   0.722  0.00  0.00    -0.001 A 
ATOM      4  C3  UNL d   1       0.457  -2.897   0.472  0.00  0.00     0.003 A 
ATOM      5  C4  UNL d   1       1.729  -2.366   0.677  0.00  0.00    -0.005 A 
ATOM      6  C5  UNL d   1       1.870  -1.057   1.133  0.00  0.00     0.003 A 
ATOM      7  C6  UNL d   1       0.739  -0.278   1.384  0.00  0.00    -0.001 A 
ENDROOT
TORSDOF 0
ENDMDL
