MODEL 1
REMARK minimizedAffinity -6.62839317
REMARK minimizedRMSD -1
REMARK  0 active torsions:
REMARK  status: ('A' for Active; 'I' for Inactive)
ROOT
ATOM      1  C   UNL d   1       3.128  -3.753  -0.235  0.00  0.00     0.078 C 
ATOM      2  C1  UNL d   1       2.043  -2.780   0.118  0.00  0.00    -0.077 A 
ATOM      3  C2  UNL d   1       2.278  -1.400   0.102  0.00  0.00    -0.001 A 
ATOM      4  C3  UNL d   1       1.261  -0.506   0.442  0.00  0.00     0.003 A 
ATOM      5  C4  UNL d   1       0.002  -0.983   0.801  0.00  0.00    -0.005 A 
ATOM      6  C5  UNL d   1      -0.241  -2.355   0.823  0.00  0.00     0.003 A 
ATOM      7  C6  UNL d   1       0.775  -3.250   0.483  0.00  0.00    -0.001 A 
ENDROOT
TORSDOF 0
ENDMDL
