MODEL 1
REMARK minimizedAffinity -1.27483213
REMARK minimizedRMSD -1
REMARK  0 active torsions:
REMARK  status: ('A' for Active; 'I' for Inactive)
ROOT
ATOM      1  C   UNL d   1       4.735   4.227  -1.191  0.00  0.00     0.078 C 
ATOM      2  C1  UNL d   1       3.970   3.261  -2.045  0.00  0.00    -0.077 A 
ATOM      3  C2  UNL d   1       3.102   3.715  -3.047  0.00  0.00    -0.001 A 
ATOM      4  C3  UNL d   1       2.389   2.804  -3.828  0.00  0.00     0.003 A 
ATOM      5  C4  UNL d   1       2.535   1.435  -3.616  0.00  0.00    -0.005 A 
ATOM      6  C5  UNL d   1       3.395   0.974  -2.621  0.00  0.00     0.003 A 
ATOM      7  C6  UNL d   1       4.108   1.883  -1.838  0.00  0.00    -0.001 A 
ENDROOT
TORSDOF 0
ENDMDL
