MODEL 1
REMARK minimizedAffinity -4.78102016
REMARK minimizedRMSD -1
REMARK  0 active torsions:
REMARK  status: ('A' for Active; 'I' for Inactive)
ROOT
ATOM      1  C   UNL d   1       2.425  -3.432  -0.574  0.00  0.00     0.078 C 
ATOM      2  C1  UNL d   1       1.567  -2.379   0.060  0.00  0.00    -0.077 A 
ATOM      3  C2  UNL d   1       2.030  -1.066   0.212  0.00  0.00    -0.001 A 
ATOM      4  C3  UNL d   1       1.224  -0.099   0.814  0.00  0.00     0.003 A 
ATOM      5  C4  UNL d   1      -0.049  -0.433   1.269  0.00  0.00    -0.005 A 
ATOM      6  C5  UNL d   1      -0.518  -1.737   1.124  0.00  0.00     0.003 A 
ATOM      7  C6  UNL d   1       0.286  -2.706   0.523  0.00  0.00    -0.001 A 
ENDROOT
TORSDOF 0
ENDMDL
