MODEL 1
REMARK minimizedAffinity -1.8599236
REMARK minimizedRMSD -1
REMARK  0 active torsions:
REMARK  status: ('A' for Active; 'I' for Inactive)
ROOT
ATOM      1  C   UNL d   1       1.565  -3.622  -0.198  0.00  0.00     0.078 C 
ATOM      2  C1  UNL d   1       1.279  -2.211   0.221  0.00  0.00    -0.077 A 
ATOM      3  C2  UNL d   1       2.313  -1.349   0.605  0.00  0.00    -0.001 A 
ATOM      4  C3  UNL d   1       2.031  -0.041   1.003  0.00  0.00     0.003 A 
ATOM      5  C4  UNL d   1       0.715   0.416   1.021  0.00  0.00    -0.005 A 
ATOM      6  C5  UNL d   1      -0.321  -0.435   0.642  0.00  0.00     0.003 A 
ATOM      7  C6  UNL d   1      -0.041  -1.743   0.245  0.00  0.00    -0.001 A 
ENDROOT
TORSDOF 0
ENDMDL
