MODEL 1
REMARK minimizedAffinity -0.419406891
REMARK minimizedRMSD -1
REMARK  0 active torsions:
REMARK  status: ('A' for Active; 'I' for Inactive)
ROOT
ATOM      1  C   UNL d   1       1.654  -3.958   0.461  0.00  0.00     0.078 C 
ATOM      2  C1  UNL d   1       0.925  -2.655   0.592  0.00  0.00    -0.077 A 
ATOM      3  C2  UNL d   1       1.524  -1.552   1.213  0.00  0.00    -0.001 A 
ATOM      4  C3  UNL d   1       0.829  -0.348   1.337  0.00  0.00     0.003 A 
ATOM      5  C4  UNL d   1      -0.469  -0.235   0.843  0.00  0.00    -0.005 A 
ATOM      6  C5  UNL d   1      -1.074  -1.327   0.225  0.00  0.00     0.003 A 
ATOM      7  C6  UNL d   1      -0.381  -2.532   0.100  0.00  0.00    -0.001 A 
ENDROOT
TORSDOF 0
ENDMDL
