MODEL 1
REMARK minimizedAffinity -5.73519087
REMARK minimizedRMSD -1
REMARK  0 active torsions:
REMARK  status: ('A' for Active; 'I' for Inactive)
ROOT
ATOM      1  C   UNL d   1       3.834  -4.088  -0.030  0.00  0.00     0.078 C 
ATOM      2  C1  UNL d   1       2.746  -3.079   0.191  0.00  0.00    -0.077 A 
ATOM      3  C2  UNL d   1       3.049  -1.735   0.440  0.00  0.00    -0.001 A 
ATOM      4  C3  UNL d   1       2.026  -0.809   0.654  0.00  0.00     0.003 A 
ATOM      5  C4  UNL d   1       0.694  -1.218   0.623  0.00  0.00    -0.005 A 
ATOM      6  C5  UNL d   1       0.384  -2.554   0.379  0.00  0.00     0.003 A 
ATOM      7  C6  UNL d   1       1.405  -3.481   0.164  0.00  0.00    -0.001 A 
ENDROOT
TORSDOF 0
ENDMDL
