MODEL 1
REMARK minimizedAffinity -3.42762899
REMARK minimizedRMSD -1
REMARK  0 active torsions:
REMARK  status: ('A' for Active; 'I' for Inactive)
ROOT
ATOM      1  C   UNL d   1      -1.612  -0.155   1.289  0.00  0.00     0.078 C 
ATOM      2  C1  UNL d   1      -0.447  -0.995   0.858  0.00  0.00    -0.077 A 
ATOM      3  C2  UNL d   1       0.858  -0.490   0.889  0.00  0.00    -0.001 A 
ATOM      4  C3  UNL d   1       1.931  -1.280   0.475  0.00  0.00     0.003 A 
ATOM      5  C4  UNL d   1       1.711  -2.580   0.026  0.00  0.00    -0.005 A 
ATOM      6  C5  UNL d   1       0.415  -3.092  -0.011  0.00  0.00     0.003 A 
ATOM      7  C6  UNL d   1      -0.660  -2.303   0.403  0.00  0.00    -0.001 A 
ENDROOT
TORSDOF 0
ENDMDL
