MODEL 1
REMARK minimizedAffinity 5.27682638
REMARK minimizedRMSD -1
REMARK  0 active torsions:
REMARK  status: ('A' for Active; 'I' for Inactive)
ROOT
ATOM      1  C   UNL d   1      -5.234  -4.821   1.508  0.00  0.00     0.078 C 
ATOM      2  C1  UNL d   1      -4.893  -4.810   2.968  0.00  0.00    -0.077 A 
ATOM      3  C2  UNL d   1      -4.932  -3.622   3.708  0.00  0.00    -0.001 A 
ATOM      4  C3  UNL d   1      -4.603  -3.625   5.065  0.00  0.00     0.003 A 
ATOM      5  C4  UNL d   1      -4.231  -4.813   5.692  0.00  0.00    -0.005 A 
ATOM      6  C5  UNL d   1      -4.187  -5.999   4.963  0.00  0.00     0.003 A 
ATOM      7  C6  UNL d   1      -4.516  -5.998   3.606  0.00  0.00    -0.001 A 
ENDROOT
TORSDOF 0
ENDMDL
