MODEL 1
REMARK minimizedAffinity -6.22574329
REMARK minimizedRMSD -1
REMARK  0 active torsions:
REMARK  status: ('A' for Active; 'I' for Inactive)
ROOT
ATOM      1  C   UNL d   1       2.552  -4.006   0.304  0.00  0.00     0.078 C 
ATOM      2  C1  UNL d   1       1.677  -2.797   0.443  0.00  0.00    -0.077 A 
ATOM      3  C2  UNL d   1       0.283  -2.901   0.348  0.00  0.00    -0.001 A 
ATOM      4  C3  UNL d   1      -0.519  -1.765   0.470  0.00  0.00     0.003 A 
ATOM      5  C4  UNL d   1       0.063  -0.517   0.687  0.00  0.00    -0.005 A 
ATOM      6  C5  UNL d   1       1.448  -0.404   0.781  0.00  0.00     0.003 A 
ATOM      7  C6  UNL d   1       2.252  -1.538   0.659  0.00  0.00    -0.001 A 
ENDROOT
TORSDOF 0
ENDMDL
