MODEL 1
REMARK minimizedAffinity -4.81175947
REMARK minimizedRMSD -1
REMARK  0 active torsions:
REMARK  status: ('A' for Active; 'I' for Inactive)
ROOT
ATOM      1  C   UNL d   1      -0.163  -0.549  -1.325  0.00  0.00     0.078 C 
ATOM      2  C1  UNL d   1       0.057   0.513  -0.290  0.00  0.00    -0.077 A 
ATOM      3  C2  UNL d   1       1.240   1.263  -0.266  0.00  0.00    -0.001 A 
ATOM      4  C3  UNL d   1       1.436   2.242   0.709  0.00  0.00     0.003 A 
ATOM      5  C4  UNL d   1       0.454   2.479   1.669  0.00  0.00    -0.005 A 
ATOM      6  C5  UNL d   1      -0.725   1.737   1.655  0.00  0.00     0.003 A 
ATOM      7  C6  UNL d   1      -0.923   0.757   0.680  0.00  0.00    -0.001 A 
ENDROOT
TORSDOF 0
ENDMDL
