MODEL 1
REMARK minimizedAffinity -4.91881323
REMARK minimizedRMSD -1
REMARK  0 active torsions:
REMARK  status: ('A' for Active; 'I' for Inactive)
ROOT
ATOM      1  C   UNL d   1      -0.281  -0.829  -0.765  0.00  0.00     0.078 C 
ATOM      2  C1  UNL d   1       0.188   0.343   0.044  0.00  0.00    -0.077 A 
ATOM      3  C2  UNL d   1      -0.142   0.462   1.399  0.00  0.00    -0.001 A 
ATOM      4  C3  UNL d   1       0.294   1.564   2.138  0.00  0.00     0.003 A 
ATOM      5  C4  UNL d   1       1.060   2.555   1.529  0.00  0.00    -0.005 A 
ATOM      6  C5  UNL d   1       1.391   2.447   0.180  0.00  0.00     0.003 A 
ATOM      7  C6  UNL d   1       0.957   1.346  -0.560  0.00  0.00    -0.001 A 
ENDROOT
TORSDOF 0
ENDMDL
