MODEL 1
REMARK minimizedAffinity -4.66309166
REMARK minimizedRMSD -1
REMARK  0 active torsions:
REMARK  status: ('A' for Active; 'I' for Inactive)
ROOT
ATOM      1  C   UNL d   1      -0.683  -0.715  -0.790  0.00  0.00     0.078 C 
ATOM      2  C1  UNL d   1      -0.279   0.457   0.054  0.00  0.00    -0.077 A 
ATOM      3  C2  UNL d   1      -0.717   0.579   1.378  0.00  0.00    -0.001 A 
ATOM      4  C3  UNL d   1      -0.341   1.680   2.148  0.00  0.00     0.003 A 
ATOM      5  C4  UNL d   1       0.476   2.669   1.603  0.00  0.00    -0.005 A 
ATOM      6  C5  UNL d   1       0.915   2.558   0.285  0.00  0.00     0.003 A 
ATOM      7  C6  UNL d   1       0.540   1.457  -0.487  0.00  0.00    -0.001 A 
ENDROOT
TORSDOF 0
ENDMDL
