MODEL 1
REMARK minimizedAffinity -4.30096292
REMARK minimizedRMSD -1
REMARK  0 active torsions:
REMARK  status: ('A' for Active; 'I' for Inactive)
ROOT
ATOM      1  C   UNL d   1       1.183   2.979   0.768  0.00  0.00     0.078 C 
ATOM      2  C1  UNL d   1       0.583   1.634   0.486  0.00  0.00    -0.077 A 
ATOM      3  C2  UNL d   1       1.076   0.827  -0.546  0.00  0.00    -0.001 A 
ATOM      4  C3  UNL d   1       0.502  -0.419  -0.804  0.00  0.00     0.003 A 
ATOM      5  C4  UNL d   1      -0.569  -0.869  -0.034  0.00  0.00    -0.005 A 
ATOM      6  C5  UNL d   1      -1.068  -0.071   0.994  0.00  0.00     0.003 A 
ATOM      7  C6  UNL d   1      -0.495   1.175   1.253  0.00  0.00    -0.001 A 
ENDROOT
TORSDOF 0
ENDMDL
