MODEL 1
REMARK minimizedAffinity -4.43759298
REMARK minimizedRMSD -1
REMARK  0 active torsions:
REMARK  status: ('A' for Active; 'I' for Inactive)
ROOT
ATOM      1  C   UNL d   1       0.733   2.292   1.543  0.00  0.00     0.078 C 
ATOM      2  C1  UNL d   1       0.345   1.017   0.854  0.00  0.00    -0.077 A 
ATOM      3  C2  UNL d   1      -0.829   0.338   1.202  0.00  0.00    -0.001 A 
ATOM      4  C3  UNL d   1      -1.173  -0.852   0.559  0.00  0.00     0.003 A 
ATOM      5  C4  UNL d   1      -0.347  -1.374  -0.435  0.00  0.00    -0.005 A 
ATOM      6  C5  UNL d   1       0.824  -0.706  -0.787  0.00  0.00     0.003 A 
ATOM      7  C6  UNL d   1       1.169   0.484  -0.145  0.00  0.00    -0.001 A 
ENDROOT
TORSDOF 0
ENDMDL
