MODEL 1
REMARK minimizedAffinity -1.83204544
REMARK minimizedRMSD -1
REMARK  0 active torsions:
REMARK  status: ('A' for Active; 'I' for Inactive)
ROOT
ATOM      1  C   UNL d   1      -0.913  -1.796  -2.163  0.00  0.00     0.078 C 
ATOM      2  C1  UNL d   1      -0.786  -0.939  -0.939  0.00  0.00    -0.077 A 
ATOM      3  C2  UNL d   1      -0.763  -1.509   0.340  0.00  0.00    -0.001 A 
ATOM      4  C3  UNL d   1      -0.655  -0.699   1.472  0.00  0.00     0.003 A 
ATOM      5  C4  UNL d   1      -0.569   0.685   1.336  0.00  0.00    -0.005 A 
ATOM      6  C5  UNL d   1      -0.593   1.261   0.068  0.00  0.00     0.003 A 
ATOM      7  C6  UNL d   1      -0.702   0.453  -1.065  0.00  0.00    -0.001 A 
ENDROOT
TORSDOF 0
ENDMDL
