MODEL 1
REMARK minimizedAffinity -4.06049824
REMARK minimizedRMSD -1
REMARK  0 active torsions:
REMARK  status: ('A' for Active; 'I' for Inactive)
ROOT
ATOM      1  C   UNL d   1       0.845   2.112   1.750  0.00  0.00     0.078 C 
ATOM      2  C1  UNL d   1       0.571   0.880   0.940  0.00  0.00    -0.077 A 
ATOM      3  C2  UNL d   1      -0.636   0.183   1.072  0.00  0.00    -0.001 A 
ATOM      4  C3  UNL d   1      -0.874  -0.967   0.318  0.00  0.00     0.003 A 
ATOM      5  C4  UNL d   1       0.093  -1.432  -0.572  0.00  0.00    -0.005 A 
ATOM      6  C5  UNL d   1       1.298  -0.747  -0.708  0.00  0.00     0.003 A 
ATOM      7  C6  UNL d   1       1.537   0.404   0.045  0.00  0.00    -0.001 A 
ENDROOT
TORSDOF 0
ENDMDL
