MODEL 1
REMARK minimizedAffinity -4.72825146
REMARK minimizedRMSD -1
REMARK  0 active torsions:
REMARK  status: ('A' for Active; 'I' for Inactive)
ROOT
ATOM      1  C   UNL d   1      -1.199  -0.265   0.807  0.00  0.00     0.078 C 
ATOM      2  C1  UNL d   1       0.115   0.431   0.608  0.00  0.00    -0.077 A 
ATOM      3  C2  UNL d   1       0.415   1.614   1.293  0.00  0.00    -0.001 A 
ATOM      4  C3  UNL d   1       1.638   2.256   1.090  0.00  0.00     0.003 A 
ATOM      5  C4  UNL d   1       2.570   1.722   0.202  0.00  0.00    -0.005 A 
ATOM      6  C5  UNL d   1       2.279   0.546  -0.485  0.00  0.00     0.003 A 
ATOM      7  C6  UNL d   1       1.057  -0.097  -0.284  0.00  0.00    -0.001 A 
ENDROOT
TORSDOF 0
ENDMDL
