MODEL 1
REMARK minimizedAffinity -1.99222755
REMARK minimizedRMSD -1
REMARK  0 active torsions:
REMARK  status: ('A' for Active; 'I' for Inactive)
ROOT
ATOM      1  C   UNL d   1      -0.540   0.592   0.834  0.00  0.00     0.078 C 
ATOM      2  C1  UNL d   1      -0.744  -0.213  -0.414  0.00  0.00    -0.077 A 
ATOM      3  C2  UNL d   1      -1.570   0.252  -1.445  0.00  0.00    -0.001 A 
ATOM      4  C3  UNL d   1      -1.758  -0.513  -2.598  0.00  0.00     0.003 A 
ATOM      5  C4  UNL d   1      -1.126  -1.747  -2.730  0.00  0.00    -0.005 A 
ATOM      6  C5  UNL d   1      -0.304  -2.219  -1.708  0.00  0.00     0.003 A 
ATOM      7  C6  UNL d   1      -0.115  -1.456  -0.555  0.00  0.00    -0.001 A 
ENDROOT
TORSDOF 0
ENDMDL
