MODEL 1
REMARK minimizedAffinity -3.55267811
REMARK minimizedRMSD -1
REMARK  0 active torsions:
REMARK  status: ('A' for Active; 'I' for Inactive)
ROOT
ATOM      1  C   UNL d   1      -0.584  -0.228  -0.571  0.00  0.00     0.078 C 
ATOM      2  C1  UNL d   1       0.336   0.657   0.216  0.00  0.00    -0.077 A 
ATOM      3  C2  UNL d   1       1.540   1.116  -0.333  0.00  0.00    -0.001 A 
ATOM      4  C3  UNL d   1       2.391   1.932   0.414  0.00  0.00     0.003 A 
ATOM      5  C4  UNL d   1       2.049   2.293   1.716  0.00  0.00    -0.005 A 
ATOM      6  C5  UNL d   1       0.855   1.839   2.272  0.00  0.00     0.003 A 
ATOM      7  C6  UNL d   1       0.002   1.024   1.526  0.00  0.00    -0.001 A 
ENDROOT
TORSDOF 0
ENDMDL
