MODEL 1
REMARK minimizedAffinity -1.95124197
REMARK minimizedRMSD -1
REMARK  0 active torsions:
REMARK  status: ('A' for Active; 'I' for Inactive)
ROOT
ATOM      1  C   UNL d   1       3.938   1.113  -0.129  0.00  0.00     0.078 C 
ATOM      2  C1  UNL d   1       2.547   1.450   0.319  0.00  0.00    -0.077 A 
ATOM      3  C2  UNL d   1       2.315   2.480   1.240  0.00  0.00    -0.001 A 
ATOM      4  C3  UNL d   1       1.016   2.776   1.655  0.00  0.00     0.003 A 
ATOM      5  C4  UNL d   1      -0.061   2.047   1.157  0.00  0.00    -0.005 A 
ATOM      6  C5  UNL d   1       0.159   1.019   0.243  0.00  0.00     0.003 A 
ATOM      7  C6  UNL d   1       1.458   0.721  -0.174  0.00  0.00    -0.001 A 
ENDROOT
TORSDOF 0
ENDMDL
