MODEL 1
REMARK minimizedAffinity -0.507849872
REMARK minimizedRMSD -1
REMARK  0 active torsions:
REMARK  status: ('A' for Active; 'I' for Inactive)
ROOT
ATOM      1  C   UNL d   1       3.129   0.460  -0.010  0.00  0.00     0.078 C 
ATOM      2  C1  UNL d   1       1.711   0.531   0.474  0.00  0.00    -0.077 A 
ATOM      3  C2  UNL d   1       1.337   1.428   1.482  0.00  0.00    -0.001 A 
ATOM      4  C3  UNL d   1       0.016   1.476   1.930  0.00  0.00     0.003 A 
ATOM      5  C4  UNL d   1      -0.942   0.630   1.375  0.00  0.00    -0.005 A 
ATOM      6  C5  UNL d   1      -0.579  -0.266   0.372  0.00  0.00     0.003 A 
ATOM      7  C6  UNL d   1       0.742  -0.316  -0.077  0.00  0.00    -0.001 A 
ENDROOT
TORSDOF 0
ENDMDL
