MODEL 1
REMARK minimizedAffinity 1.41622066
REMARK minimizedRMSD -1
REMARK  0 active torsions:
REMARK  status: ('A' for Active; 'I' for Inactive)
ROOT
ATOM      1  C   UNL d   1       1.157   2.333  -0.455  0.00  0.00     0.078 C 
ATOM      2  C1  UNL d   1       0.406   1.706   0.682  0.00  0.00    -0.077 A 
ATOM      3  C2  UNL d   1       0.474   2.241   1.974  0.00  0.00    -0.001 A 
ATOM      4  C3  UNL d   1      -0.223   1.641   3.024  0.00  0.00     0.003 A 
ATOM      5  C4  UNL d   1      -0.991   0.502   2.793  0.00  0.00    -0.005 A 
ATOM      6  C5  UNL d   1      -1.063  -0.039   1.511  0.00  0.00     0.003 A 
ATOM      7  C6  UNL d   1      -0.367   0.559   0.460  0.00  0.00    -0.001 A 
ENDROOT
TORSDOF 0
ENDMDL
