MODEL 1
REMARK minimizedAffinity -1.81238067
REMARK minimizedRMSD -1
REMARK  0 active torsions:
REMARK  status: ('A' for Active; 'I' for Inactive)
ROOT
ATOM      1  C   UNL d   1      -1.031   1.487  -0.397  0.00  0.00     0.078 C 
ATOM      2  C1  UNL d   1      -0.022   0.469   0.044  0.00  0.00    -0.077 A 
ATOM      3  C2  UNL d   1       1.285   0.485  -0.460  0.00  0.00    -0.001 A 
ATOM      4  C3  UNL d   1       2.211  -0.475  -0.048  0.00  0.00     0.003 A 
ATOM      5  C4  UNL d   1       1.841  -1.457   0.868  0.00  0.00    -0.005 A 
ATOM      6  C5  UNL d   1       0.543  -1.481   1.374  0.00  0.00     0.003 A 
ATOM      7  C6  UNL d   1      -0.385  -0.523   0.963  0.00  0.00    -0.001 A 
ENDROOT
TORSDOF 0
ENDMDL
