MODEL 1
REMARK minimizedAffinity -2.45703673
REMARK minimizedRMSD -1
REMARK  0 active torsions:
REMARK  status: ('A' for Active; 'I' for Inactive)
ROOT
ATOM      1  C   UNL d   1       2.412  -1.543   0.331  0.00  0.00     0.078 C 
ATOM      2  C1  UNL d   1       1.362  -0.473   0.287  0.00  0.00    -0.077 A 
ATOM      3  C2  UNL d   1       1.620   0.765  -0.314  0.00  0.00    -0.001 A 
ATOM      4  C3  UNL d   1       0.637   1.756  -0.339  0.00  0.00     0.003 A 
ATOM      5  C4  UNL d   1      -0.610   1.519   0.236  0.00  0.00    -0.005 A 
ATOM      6  C5  UNL d   1      -0.875   0.290   0.838  0.00  0.00     0.003 A 
ATOM      7  C6  UNL d   1       0.107  -0.701   0.865  0.00  0.00    -0.001 A 
ENDROOT
TORSDOF 0
ENDMDL
