MODEL 1
REMARK minimizedAffinity -4.52218676
REMARK minimizedRMSD -1
REMARK  0 active torsions:
REMARK  status: ('A' for Active; 'I' for Inactive)
ROOT
ATOM      1  C   UNL d   1      -0.663   0.777  -0.207  0.00  0.00     0.078 C 
ATOM      2  C1  UNL d   1      -0.023  -0.198   0.736  0.00  0.00    -0.077 A 
ATOM      3  C2  UNL d   1      -0.669  -0.592   1.914  0.00  0.00    -0.001 A 
ATOM      4  C3  UNL d   1      -0.057  -1.493   2.787  0.00  0.00     0.003 A 
ATOM      5  C4  UNL d   1       1.204  -2.006   2.491  0.00  0.00    -0.005 A 
ATOM      6  C5  UNL d   1       1.856  -1.619   1.322  0.00  0.00     0.003 A 
ATOM      7  C6  UNL d   1       1.246  -0.718   0.448  0.00  0.00    -0.001 A 
ENDROOT
TORSDOF 0
ENDMDL
