MODEL 1
REMARK minimizedAffinity -3.01268649
REMARK minimizedRMSD -1
REMARK  0 active torsions:
REMARK  status: ('A' for Active; 'I' for Inactive)
ROOT
ATOM      1  C   UNL d   1       0.022   0.551  -0.444  0.00  0.00     0.078 C 
ATOM      2  C1  UNL d   1       0.326  -0.504   0.577  0.00  0.00    -0.077 A 
ATOM      3  C2  UNL d   1       1.440  -1.342   0.439  0.00  0.00    -0.001 A 
ATOM      4  C3  UNL d   1       1.705  -2.326   1.393  0.00  0.00     0.003 A 
ATOM      5  C4  UNL d   1       0.860  -2.483   2.490  0.00  0.00    -0.005 A 
ATOM      6  C5  UNL d   1      -0.251  -1.656   2.634  0.00  0.00     0.003 A 
ATOM      7  C6  UNL d   1      -0.518  -0.671   1.682  0.00  0.00    -0.001 A 
ENDROOT
TORSDOF 0
ENDMDL
