MODEL 1
REMARK minimizedAffinity -4.15001822
REMARK minimizedRMSD -1
REMARK  0 active torsions:
REMARK  status: ('A' for Active; 'I' for Inactive)
ROOT
ATOM      1  C   UNL d   1       0.361  -1.858   3.386  0.00  0.00     0.078 C 
ATOM      2  C1  UNL d   1       0.549  -1.157   2.074  0.00  0.00    -0.077 A 
ATOM      3  C2  UNL d   1      -0.449  -0.325   1.551  0.00  0.00    -0.001 A 
ATOM      4  C3  UNL d   1      -0.265   0.313   0.324  0.00  0.00     0.003 A 
ATOM      5  C4  UNL d   1       0.916   0.126  -0.391  0.00  0.00    -0.005 A 
ATOM      6  C5  UNL d   1       1.914  -0.701   0.120  0.00  0.00     0.003 A 
ATOM      7  C6  UNL d   1       1.731  -1.341   1.347  0.00  0.00    -0.001 A 
ENDROOT
TORSDOF 0
ENDMDL
