MODEL 1
REMARK minimizedAffinity -3.88134646
REMARK minimizedRMSD -1
REMARK  0 active torsions:
REMARK  status: ('A' for Active; 'I' for Inactive)
ROOT
ATOM      1  C   UNL d   1      -0.540  -1.350   3.406  0.00  0.00     0.078 C 
ATOM      2  C1  UNL d   1       0.140  -1.122   2.089  0.00  0.00    -0.077 A 
ATOM      3  C2  UNL d   1      -0.394  -0.237   1.145  0.00  0.00    -0.001 A 
ATOM      4  C3  UNL d   1       0.244  -0.041  -0.080  0.00  0.00     0.003 A 
ATOM      5  C4  UNL d   1       1.421  -0.728  -0.373  0.00  0.00    -0.005 A 
ATOM      6  C5  UNL d   1       1.960  -1.612   0.559  0.00  0.00     0.003 A 
ATOM      7  C6  UNL d   1       1.322  -1.809   1.785  0.00  0.00    -0.001 A 
ENDROOT
TORSDOF 0
ENDMDL
