MODEL 1
REMARK minimizedAffinity -1.9786911
REMARK minimizedRMSD -1
REMARK  0 active torsions:
REMARK  status: ('A' for Active; 'I' for Inactive)
ROOT
ATOM      1  C   UNL d   1       0.134   0.379   0.034  0.00  0.00     0.078 C 
ATOM      2  C1  UNL d   1      -0.790   0.957  -0.996  0.00  0.00    -0.077 A 
ATOM      3  C2  UNL d   1      -1.732   0.155  -1.653  0.00  0.00    -0.001 A 
ATOM      4  C3  UNL d   1      -2.579   0.705  -2.616  0.00  0.00     0.003 A 
ATOM      5  C4  UNL d   1      -2.493   2.060  -2.932  0.00  0.00    -0.005 A 
ATOM      6  C5  UNL d   1      -1.558   2.866  -2.285  0.00  0.00     0.003 A 
ATOM      7  C6  UNL d   1      -0.710   2.317  -1.322  0.00  0.00    -0.001 A 
ENDROOT
TORSDOF 0
ENDMDL
