MODEL 1
REMARK minimizedAffinity -2.91998315
REMARK minimizedRMSD -1
REMARK  0 active torsions:
REMARK  status: ('A' for Active; 'I' for Inactive)
ROOT
ATOM      1  C   UNL d   1      -1.570   2.413   0.779  0.00  0.00     0.078 C 
ATOM      2  C1  UNL d   1      -1.991   2.087  -0.622  0.00  0.00    -0.077 A 
ATOM      3  C2  UNL d   1      -3.311   1.720  -0.912  0.00  0.00    -0.001 A 
ATOM      4  C3  UNL d   1      -3.686   1.410  -2.220  0.00  0.00     0.003 A 
ATOM      5  C4  UNL d   1      -2.747   1.461  -3.249  0.00  0.00    -0.005 A 
ATOM      6  C5  UNL d   1      -1.431   1.822  -2.969  0.00  0.00     0.003 A 
ATOM      7  C6  UNL d   1      -1.053   2.133  -1.662  0.00  0.00    -0.001 A 
ENDROOT
TORSDOF 0
ENDMDL
