MODEL 1
REMARK minimizedAffinity -3.99589133
REMARK minimizedRMSD -1
REMARK  0 active torsions:
REMARK  status: ('A' for Active; 'I' for Inactive)
ROOT
ATOM      1  C   UNL d   1      -0.931   0.982  -0.639  0.00  0.00     0.078 C 
ATOM      2  C1  UNL d   1       0.266   0.112  -0.395  0.00  0.00    -0.077 A 
ATOM      3  C2  UNL d   1       0.258  -0.858   0.615  0.00  0.00    -0.001 A 
ATOM      4  C3  UNL d   1       1.382  -1.654   0.838  0.00  0.00     0.003 A 
ATOM      5  C4  UNL d   1       2.523  -1.488   0.055  0.00  0.00    -0.005 A 
ATOM      6  C5  UNL d   1       2.541  -0.525  -0.951  0.00  0.00     0.003 A 
ATOM      7  C6  UNL d   1       1.418   0.273  -1.175  0.00  0.00    -0.001 A 
ENDROOT
TORSDOF 0
ENDMDL
