MODEL 1
REMARK minimizedAffinity -3.92803407
REMARK minimizedRMSD -1
REMARK  0 active torsions:
REMARK  status: ('A' for Active; 'I' for Inactive)
ROOT
ATOM      1  C   UNL d   1      -1.826   1.775  -3.222  0.00  0.00     0.078 C 
ATOM      2  C1  UNL d   1      -1.012   1.234  -2.085  0.00  0.00    -0.077 A 
ATOM      3  C2  UNL d   1      -0.127   0.166  -2.276  0.00  0.00    -0.001 A 
ATOM      4  C3  UNL d   1       0.618  -0.333  -1.206  0.00  0.00     0.003 A 
ATOM      5  C4  UNL d   1       0.484   0.229   0.062  0.00  0.00    -0.005 A 
ATOM      6  C5  UNL d   1      -0.395   1.290   0.262  0.00  0.00     0.003 A 
ATOM      7  C6  UNL d   1      -1.141   1.791  -0.807  0.00  0.00    -0.001 A 
ENDROOT
TORSDOF 0
ENDMDL
