MODEL 1
REMARK minimizedAffinity -2.56715798
REMARK minimizedRMSD -1
REMARK  0 active torsions:
REMARK  status: ('A' for Active; 'I' for Inactive)
ROOT
ATOM      1  C   UNL d   1      -2.812   1.945  -2.921  0.00  0.00     0.078 C 
ATOM      2  C1  UNL d   1      -1.801   1.457  -1.927  0.00  0.00    -0.077 A 
ATOM      3  C2  UNL d   1      -1.393   0.118  -1.911  0.00  0.00    -0.001 A 
ATOM      4  C3  UNL d   1      -0.458  -0.324  -0.974  0.00  0.00     0.003 A 
ATOM      5  C4  UNL d   1       0.075   0.566  -0.044  0.00  0.00    -0.005 A 
ATOM      6  C5  UNL d   1      -0.327   1.900  -0.050  0.00  0.00     0.003 A 
ATOM      7  C6  UNL d   1      -1.262   2.344  -0.987  0.00  0.00    -0.001 A 
ENDROOT
TORSDOF 0
ENDMDL
