MODEL 1
REMARK minimizedAffinity -4.03888083
REMARK minimizedRMSD -1
REMARK  0 active torsions:
REMARK  status: ('A' for Active; 'I' for Inactive)
ROOT
ATOM      1  C   UNL d   1       1.916  -1.175   0.250  0.00  0.00     0.078 C 
ATOM      2  C1  UNL d   1       0.729  -0.396  -0.234  0.00  0.00    -0.077 A 
ATOM      3  C2  UNL d   1       0.397   0.840   0.334  0.00  0.00    -0.001 A 
ATOM      4  C3  UNL d   1      -0.716   1.549  -0.120  0.00  0.00     0.003 A 
ATOM      5  C4  UNL d   1      -1.507   1.030  -1.143  0.00  0.00    -0.005 A 
ATOM      6  C5  UNL d   1      -1.185  -0.200  -1.714  0.00  0.00     0.003 A 
ATOM      7  C6  UNL d   1      -0.072  -0.911  -1.261  0.00  0.00    -0.001 A 
ENDROOT
TORSDOF 0
ENDMDL
