MODEL 1
REMARK minimizedAffinity -1.35502231
REMARK minimizedRMSD -1
REMARK  0 active torsions:
REMARK  status: ('A' for Active; 'I' for Inactive)
ROOT
ATOM      1  C   UNL d   1      -0.977   1.511   0.169  0.00  0.00     0.078 C 
ATOM      2  C1  UNL d   1      -1.499   1.819  -1.202  0.00  0.00    -0.077 A 
ATOM      3  C2  UNL d   1      -0.838   2.727  -2.038  0.00  0.00    -0.001 A 
ATOM      4  C3  UNL d   1      -1.341   3.012  -3.309  0.00  0.00     0.003 A 
ATOM      5  C4  UNL d   1      -2.509   2.394  -3.754  0.00  0.00    -0.005 A 
ATOM      6  C5  UNL d   1      -3.174   1.491  -2.928  0.00  0.00     0.003 A 
ATOM      7  C6  UNL d   1      -2.673   1.205  -1.657  0.00  0.00    -0.001 A 
ENDROOT
TORSDOF 0
ENDMDL
