MODEL 1
REMARK minimizedAffinity -3.74580765
REMARK minimizedRMSD -1
REMARK  0 active torsions:
REMARK  status: ('A' for Active; 'I' for Inactive)
ROOT
ATOM      1  C   UNL d   1      -1.146   1.849   0.275  0.00  0.00     0.078 C 
ATOM      2  C1  UNL d   1      -1.587   1.927  -1.156  0.00  0.00    -0.077 A 
ATOM      3  C2  UNL d   1      -2.603   1.096  -1.643  0.00  0.00    -0.001 A 
ATOM      4  C3  UNL d   1      -2.996   1.172  -2.980  0.00  0.00     0.003 A 
ATOM      5  C4  UNL d   1      -2.378   2.077  -3.841  0.00  0.00    -0.005 A 
ATOM      6  C5  UNL d   1      -1.365   2.906  -3.365  0.00  0.00     0.003 A 
ATOM      7  C6  UNL d   1      -0.970   2.831  -2.029  0.00  0.00    -0.001 A 
ENDROOT
TORSDOF 0
ENDMDL
