MODEL 1
REMARK minimizedAffinity 0.0949075893
REMARK minimizedRMSD -1
REMARK  2 active torsions:
REMARK  status: ('A' for Active; 'I' for Inactive)
REMARK    1  A    between atoms: C1_2  and  C2_3 
REMARK    2  A    between atoms: C2_3  and  C3_4 
ROOT
ATOM      1  C3  UNL d   1      -5.938   3.602  -3.553  0.00  0.00    -0.075 A 
ATOM      2  C4  UNL d   1      -5.925   2.200  -3.587  0.00  0.00     0.002 A 
ATOM      3  C5  UNL d   1      -5.853   1.522  -4.804  0.00  0.00     0.002 A 
ATOM      4  C6  UNL d   1      -5.802   2.234  -6.000  0.00  0.00    -0.004 A 
ATOM      5  C7  UNL d   1      -5.831   3.627  -5.979  0.00  0.00     0.002 A 
ATOM      6  C8  UNL d   1      -5.899   4.308  -4.763  0.00  0.00     0.002 A 
ENDROOT
BRANCH   1   7
ATOM      7  C2  UNL d   1      -5.987   4.343  -2.238  0.00  0.00     0.056 C 
BRANCH   7   8
ATOM      8  C1  UNL d   1      -5.398   3.560  -1.059  0.00  0.00     0.007 C 
ATOM      9  C   UNL d   1      -5.999   2.170  -0.901  0.00  0.00     0.009 C 
ENDBRANCH   7   8
ENDBRANCH   1   7
TORSDOF 2
ENDMDL
