MODEL 1
REMARK minimizedAffinity 13.3138943
REMARK minimizedRMSD -1
REMARK  2 active torsions:
REMARK  status: ('A' for Active; 'I' for Inactive)
REMARK    1  A    between atoms: C1_2  and  C2_3 
REMARK    2  A    between atoms: C2_3  and  C3_4 
ROOT
ATOM      1  C3  UNL d   1      -5.956   1.089  -3.590  0.00  0.00    -0.075 A 
ATOM      2  C4  UNL d   1      -5.942   2.491  -3.627  0.00  0.00     0.002 A 
ATOM      3  C5  UNL d   1      -5.942   3.230  -2.443  0.00  0.00     0.002 A 
ATOM      4  C6  UNL d   1      -5.965   2.579  -1.212  0.00  0.00    -0.004 A 
ATOM      5  C7  UNL d   1      -5.996   1.187  -1.164  0.00  0.00     0.002 A 
ATOM      6  C8  UNL d   1      -5.991   0.445  -2.346  0.00  0.00     0.002 A 
ENDROOT
BRANCH   1   7
ATOM      7  C2  UNL d   1      -5.926   0.283  -4.867  0.00  0.00     0.056 C 
BRANCH   7   8
ATOM      8  C1  UNL d   1      -4.597  -0.437  -5.119  0.00  0.00     0.007 C 
ATOM      9  C   UNL d   1      -3.636   0.363  -5.988  0.00  0.00     0.009 C 
ENDBRANCH   7   8
ENDBRANCH   1   7
TORSDOF 2
ENDMDL
