MODEL 1
REMARK minimizedAffinity 7.95586443
REMARK minimizedRMSD -1
REMARK  2 active torsions:
REMARK  status: ('A' for Active; 'I' for Inactive)
REMARK    1  A    between atoms: C1_2  and  C2_3 
REMARK    2  A    between atoms: C2_3  and  C3_4 
ROOT
ATOM      1  C3  UNL d   1      -2.364  -4.746  -5.678  0.00  0.00    -0.075 A 
ATOM      2  C4  UNL d   1      -2.892  -3.601  -5.063  0.00  0.00     0.002 A 
ATOM      3  C5  UNL d   1      -2.077  -2.500  -4.797  0.00  0.00     0.002 A 
ATOM      4  C6  UNL d   1      -0.726  -2.533  -5.132  0.00  0.00    -0.004 A 
ATOM      5  C7  UNL d   1      -0.187  -3.671  -5.728  0.00  0.00     0.002 A 
ATOM      6  C8  UNL d   1      -1.000  -4.773  -5.999  0.00  0.00     0.002 A 
ENDROOT
BRANCH   1   7
ATOM      7  C2  UNL d   1      -3.246  -5.930  -5.995  0.00  0.00     0.056 C 
BRANCH   7   8
ATOM      8  C1  UNL d   1      -4.527  -5.995  -5.156  0.00  0.00     0.007 C 
ATOM      9  C   UNL d   1      -5.796  -6.000  -5.997  0.00  0.00     0.009 C 
ENDBRANCH   7   8
ENDBRANCH   1   7
TORSDOF 2
ENDMDL
