MODEL 1
REMARK minimizedAffinity 8.52866745
REMARK minimizedRMSD -1
REMARK  2 active torsions:
REMARK  status: ('A' for Active; 'I' for Inactive)
REMARK    1  A    between atoms: C1_2  and  C2_3 
REMARK    2  A    between atoms: C2_3  and  C3_4 
ROOT
ATOM      1  C3  UNL d   1      -4.810   0.010   3.882  0.00  0.00    -0.075 A 
ATOM      2  C4  UNL d   1      -4.750  -1.391   3.895  0.00  0.00     0.002 A 
ATOM      3  C5  UNL d   1      -5.322  -2.114   4.943  0.00  0.00     0.002 A 
ATOM      4  C6  UNL d   1      -5.949  -1.448   5.993  0.00  0.00    -0.004 A 
ATOM      5  C7  UNL d   1      -5.999  -0.055   5.998  0.00  0.00     0.002 A 
ATOM      6  C8  UNL d   1      -5.432   0.671   4.950  0.00  0.00     0.002 A 
ENDROOT
BRANCH   1   7
ATOM      7  C2  UNL d   1      -4.219   0.798   2.737  0.00  0.00     0.056 C 
BRANCH   7   8
ATOM      8  C1  UNL d   1      -2.687   0.837   2.731  0.00  0.00     0.007 C 
ATOM      9  C   UNL d   1      -2.109   1.846   3.715  0.00  0.00     0.009 C 
ENDBRANCH   7   8
ENDBRANCH   1   7
TORSDOF 2
ENDMDL
