MODEL 1
REMARK minimizedAffinity -1.78875065
REMARK minimizedRMSD -1
REMARK  0 active torsions:
REMARK  status: ('A' for Active; 'I' for Inactive)
ROOT
ATOM      1  C   UNL d   1      -0.723   0.943  -0.996  0.00  0.00     0.124 A 
ATOM      2  C1  UNL d   1      -1.936   0.587  -0.422  0.00  0.00     0.062 A 
ATOM      3  C2  UNL d   1      -1.981   0.134   0.893  0.00  0.00     0.162 A 
ATOM      4  C3  UNL d   1      -0.810   0.034   1.645  0.00  0.00    -0.034 A 
ATOM      5  C4  UNL d   1       0.406   0.392   1.060  0.00  0.00     0.162 A 
ATOM      6  C5  UNL d   1       0.446   0.845  -0.255  0.00  0.00     0.062 A 
ATOM      7  F   UNL d   1       1.619   1.187  -0.807  0.00  0.00    -0.097 F 
ATOM      8  F1  UNL d   1       1.551   0.308   1.754  0.00  0.00    -0.096 F 
ATOM      9  I   UNL d   1      -0.875  -0.644   3.611  0.00  0.00    -0.060 I 
ATOM     10  F2  UNL d   1      -3.167  -0.202   1.422  0.00  0.00    -0.096 F 
ATOM     11  F3  UNL d   1      -3.066   0.680  -1.136  0.00  0.00    -0.097 F 
ATOM     12  F4  UNL d   1      -0.681   1.378  -2.262  0.00  0.00    -0.092 F 
ENDROOT
TORSDOF 0
ENDMDL
