MODEL 1
REMARK minimizedAffinity -3.68635201
REMARK minimizedRMSD -1
REMARK  0 active torsions:
REMARK  status: ('A' for Active; 'I' for Inactive)
ROOT
ATOM      1  C   UNL d   1      -1.314  -0.013   2.949  0.00  0.00     0.124 A 
ATOM      2  C1  UNL d   1      -2.226  -0.179   1.916  0.00  0.00     0.062 A 
ATOM      3  C2  UNL d   1      -1.803  -0.114   0.592  0.00  0.00     0.162 A 
ATOM      4  C3  UNL d   1      -0.460   0.117   0.293  0.00  0.00    -0.034 A 
ATOM      5  C4  UNL d   1       0.451   0.284   1.337  0.00  0.00     0.162 A 
ATOM      6  C5  UNL d   1       0.023   0.218   2.659  0.00  0.00     0.062 A 
ATOM      7  F   UNL d   1       0.906   0.378   3.656  0.00  0.00    -0.097 F 
ATOM      8  F1  UNL d   1       1.749   0.508   1.085  0.00  0.00    -0.096 F 
ATOM      9  I   UNL d   1       0.177   0.216  -1.686  0.00  0.00    -0.060 I 
ATOM     10  F2  UNL d   1      -2.706  -0.277  -0.386  0.00  0.00    -0.096 F 
ATOM     11  F3  UNL d   1      -3.519  -0.401   2.194  0.00  0.00    -0.097 F 
ATOM     12  F4  UNL d   1      -1.724  -0.076   4.223  0.00  0.00    -0.092 F 
ENDROOT
TORSDOF 0
ENDMDL
