MODEL 1
REMARK minimizedAffinity -2.54151869
REMARK minimizedRMSD -1
REMARK  0 active torsions:
REMARK  status: ('A' for Active; 'I' for Inactive)
ROOT
ATOM      1  C   UNL d   1       0.353  -0.381   2.593  0.00  0.00     0.124 A 
ATOM      2  C1  UNL d   1      -0.992  -0.670   2.405  0.00  0.00     0.062 A 
ATOM      3  C2  UNL d   1      -1.608  -0.379   1.192  0.00  0.00     0.162 A 
ATOM      4  C3  UNL d   1      -0.879   0.205   0.155  0.00  0.00    -0.034 A 
ATOM      5  C4  UNL d   1       0.472   0.494   0.352  0.00  0.00     0.162 A 
ATOM      6  C5  UNL d   1       1.083   0.201   1.566  0.00  0.00     0.062 A 
ATOM      7  F   UNL d   1       2.382   0.481   1.746  0.00  0.00    -0.097 F 
ATOM      8  F1  UNL d   1       1.202   1.055  -0.624  0.00  0.00    -0.096 F 
ATOM      9  I   UNL d   1      -1.797   0.643  -1.661  0.00  0.00    -0.060 I 
ATOM     10  F2  UNL d   1      -2.908  -0.669   1.038  0.00  0.00    -0.096 F 
ATOM     11  F3  UNL d   1      -1.700  -1.231   3.396  0.00  0.00    -0.097 F 
ATOM     12  F4  UNL d   1       0.943  -0.661   3.762  0.00  0.00    -0.092 F 
ENDROOT
TORSDOF 0
ENDMDL
