MODEL 1
REMARK minimizedAffinity -1.77180052
REMARK minimizedRMSD -1
REMARK  0 active torsions:
REMARK  status: ('A' for Active; 'I' for Inactive)
ROOT
ATOM      1  C   UNL d   1      -0.707   0.300   1.661  0.00  0.00     0.124 A 
ATOM      2  C1  UNL d   1      -1.346   0.684   0.490  0.00  0.00     0.062 A 
ATOM      3  C2  UNL d   1      -0.647   0.705  -0.714  0.00  0.00     0.162 A 
ATOM      4  C3  UNL d   1       0.698   0.338  -0.753  0.00  0.00    -0.034 A 
ATOM      5  C4  UNL d   1       1.333  -0.047   0.428  0.00  0.00     0.162 A 
ATOM      6  C5  UNL d   1       0.631  -0.065   1.629  0.00  0.00     0.062 A 
ATOM      7  F   UNL d   1       1.250  -0.437   2.759  0.00  0.00    -0.097 F 
ATOM      8  F1  UNL d   1       2.626  -0.405   0.426  0.00  0.00    -0.096 F 
ATOM      9  I   UNL d   1       1.746   0.368  -2.551  0.00  0.00    -0.060 I 
ATOM     10  F2  UNL d   1      -1.290   1.081  -1.830  0.00  0.00    -0.096 F 
ATOM     11  F3  UNL d   1      -2.639   1.038   0.518  0.00  0.00    -0.097 F 
ATOM     12  F4  UNL d   1      -1.381   0.282   2.818  0.00  0.00    -0.092 F 
ENDROOT
TORSDOF 0
ENDMDL
