MODEL 1
REMARK minimizedAffinity 4.66209126
REMARK minimizedRMSD -1
REMARK  0 active torsions:
REMARK  status: ('A' for Active; 'I' for Inactive)
ROOT
ATOM      1  C   UNL d   1       0.587   0.645   1.833  0.00  0.00     0.124 A 
ATOM      2  C1  UNL d   1      -0.168  -0.507   1.671  0.00  0.00     0.062 A 
ATOM      3  C2  UNL d   1      -0.351  -1.052   0.403  0.00  0.00     0.162 A 
ATOM      4  C3  UNL d   1       0.225  -0.446  -0.713  0.00  0.00    -0.034 A 
ATOM      5  C4  UNL d   1       0.983   0.714  -0.543  0.00  0.00     0.162 A 
ATOM      6  C5  UNL d   1       1.162   1.255   0.726  0.00  0.00     0.062 A 
ATOM      7  F   UNL d   1       1.893   2.369   0.881  0.00  0.00    -0.097 F 
ATOM      8  F1  UNL d   1       1.550   1.323  -1.594  0.00  0.00    -0.096 F 
ATOM      9  I   UNL d   1      -0.046  -1.258  -2.610  0.00  0.00    -0.060 I 
ATOM     10  F2  UNL d   1      -1.086  -2.167   0.276  0.00  0.00    -0.096 F 
ATOM     11  F3  UNL d   1      -0.725  -1.098   2.738  0.00  0.00    -0.097 F 
ATOM     12  F4  UNL d   1       0.761   1.168   3.054  0.00  0.00    -0.092 F 
ENDROOT
TORSDOF 0
ENDMDL
