MODEL 1
REMARK minimizedAffinity -0.75050962
REMARK minimizedRMSD -1
REMARK  0 active torsions:
REMARK  status: ('A' for Active; 'I' for Inactive)
ROOT
ATOM      1  C   UNL d   1       0.625   0.419  -0.068  0.00  0.00     0.124 A 
ATOM      2  C1  UNL d   1       1.339   0.376   1.121  0.00  0.00     0.062 A 
ATOM      3  C2  UNL d   1       0.721  -0.050   2.293  0.00  0.00     0.162 A 
ATOM      4  C3  UNL d   1      -0.619  -0.438   2.282  0.00  0.00    -0.034 A 
ATOM      5  C4  UNL d   1      -1.331  -0.391   1.082  0.00  0.00     0.162 A 
ATOM      6  C5  UNL d   1      -0.709   0.035  -0.087  0.00  0.00     0.062 A 
ATOM      7  F   UNL d   1      -1.400   0.076  -1.236  0.00  0.00    -0.097 F 
ATOM      8  F1  UNL d   1      -2.620  -0.757   1.035  0.00  0.00    -0.096 F 
ATOM      9  I   UNL d   1      -1.547  -1.075   4.032  0.00  0.00    -0.060 I 
ATOM     10  F2  UNL d   1       1.435  -0.081   3.428  0.00  0.00    -0.096 F 
ATOM     11  F3  UNL d   1       2.627   0.747   1.142  0.00  0.00    -0.097 F 
ATOM     12  F4  UNL d   1       1.222   0.830  -1.195  0.00  0.00    -0.092 F 
ENDROOT
TORSDOF 0
ENDMDL
