MODEL 1
REMARK minimizedAffinity 0.559137702
REMARK minimizedRMSD -1
REMARK  0 active torsions:
REMARK  status: ('A' for Active; 'I' for Inactive)
ROOT
ATOM      1  C   UNL d   1       0.741  -0.059   2.528  0.00  0.00     0.124 A 
ATOM      2  C1  UNL d   1      -0.632  -0.261   2.509  0.00  0.00     0.062 A 
ATOM      3  C2  UNL d   1      -1.343  -0.120   1.321  0.00  0.00     0.162 A 
ATOM      4  C3  UNL d   1      -0.683   0.222   0.141  0.00  0.00    -0.034 A 
ATOM      5  C4  UNL d   1       0.699   0.424   0.169  0.00  0.00     0.162 A 
ATOM      6  C5  UNL d   1       1.405   0.283   1.359  0.00  0.00     0.062 A 
ATOM      7  F   UNL d   1       2.732   0.478   1.375  0.00  0.00    -0.097 F 
ATOM      8  F1  UNL d   1       1.365   0.755  -0.947  0.00  0.00    -0.096 F 
ATOM      9  I   UNL d   1      -1.743   0.433  -1.637  0.00  0.00    -0.060 I 
ATOM     10  F2  UNL d   1      -2.670  -0.321   1.332  0.00  0.00    -0.096 F 
ATOM     11  F3  UNL d   1      -1.276  -0.590   3.638  0.00  0.00    -0.097 F 
ATOM     12  F4  UNL d   1       1.423  -0.194   3.673  0.00  0.00    -0.092 F 
ENDROOT
TORSDOF 0
ENDMDL
