MODEL 1
REMARK minimizedAffinity -0.320542783
REMARK minimizedRMSD -1
REMARK  0 active torsions:
REMARK  status: ('A' for Active; 'I' for Inactive)
ROOT
ATOM      1  C   UNL d   1       0.005   0.784  -1.976  0.00  0.00     0.124 A 
ATOM      2  C1  UNL d   1      -1.287   0.617  -1.496  0.00  0.00     0.062 A 
ATOM      3  C2  UNL d   1      -1.500   0.277  -0.163  0.00  0.00     0.162 A 
ATOM      4  C3  UNL d   1      -0.418   0.101   0.700  0.00  0.00    -0.034 A 
ATOM      5  C4  UNL d   1       0.878   0.269   0.209  0.00  0.00     0.162 A 
ATOM      6  C5  UNL d   1       1.086   0.609  -1.123  0.00  0.00     0.062 A 
ATOM      7  F   UNL d   1       2.334   0.770  -1.585  0.00  0.00    -0.097 F 
ATOM      8  F1  UNL d   1       1.941   0.107   1.012  0.00  0.00    -0.096 F 
ATOM      9  I   UNL d   1      -0.732  -0.409   2.693  0.00  0.00    -0.060 I 
ATOM     10  F2  UNL d   1      -2.759   0.122   0.273  0.00  0.00    -0.096 F 
ATOM     11  F3  UNL d   1      -2.333   0.784  -2.318  0.00  0.00    -0.097 F 
ATOM     12  F4  UNL d   1       0.207   1.111  -3.259  0.00  0.00    -0.092 F 
ENDROOT
TORSDOF 0
ENDMDL
