MODEL 1
REMARK minimizedAffinity -0.0981955901
REMARK minimizedRMSD -1
REMARK  0 active torsions:
REMARK  status: ('A' for Active; 'I' for Inactive)
ROOT
ATOM      1  C   UNL d   1      -2.121  -0.218   1.788  0.00  0.00     0.124 A 
ATOM      2  C1  UNL d   1      -2.497   0.397   0.602  0.00  0.00     0.062 A 
ATOM      3  C2  UNL d   1      -1.586   0.517  -0.443  0.00  0.00     0.162 A 
ATOM      4  C3  UNL d   1      -0.290   0.020  -0.308  0.00  0.00    -0.034 A 
ATOM      5  C4  UNL d   1       0.081  -0.597   0.888  0.00  0.00     0.162 A 
ATOM      6  C5  UNL d   1      -0.832  -0.715   1.930  0.00  0.00     0.062 A 
ATOM      7  F   UNL d   1      -0.467  -1.309   3.075  0.00  0.00    -0.097 F 
ATOM      8  F1  UNL d   1       1.320  -1.086   1.052  0.00  0.00    -0.096 F 
ATOM      9  I   UNL d   1       1.075   0.197  -1.869  0.00  0.00    -0.060 I 
ATOM     10  F2  UNL d   1      -1.976   1.116  -1.578  0.00  0.00    -0.096 F 
ATOM     11  F3  UNL d   1      -3.740   0.878   0.463  0.00  0.00    -0.097 F 
ATOM     12  F4  UNL d   1      -2.999  -0.332   2.793  0.00  0.00    -0.092 F 
ENDROOT
TORSDOF 0
ENDMDL
