MODEL 1
REMARK minimizedAffinity -0.269375384
REMARK minimizedRMSD -1
REMARK  0 active torsions:
REMARK  status: ('A' for Active; 'I' for Inactive)
ROOT
ATOM      1  C   UNL d   1      -0.940  -0.173   2.342  0.00  0.00     0.124 A 
ATOM      2  C1  UNL d   1      -1.620  -0.272   1.136  0.00  0.00     0.062 A 
ATOM      3  C2  UNL d   1      -0.932  -0.139  -0.067  0.00  0.00     0.162 A 
ATOM      4  C3  UNL d   1       0.443   0.092  -0.070  0.00  0.00    -0.034 A 
ATOM      5  C4  UNL d   1       1.119   0.191   1.147  0.00  0.00     0.162 A 
ATOM      6  C5  UNL d   1       0.428   0.058   2.347  0.00  0.00     0.062 A 
ATOM      7  F   UNL d   1       1.086   0.154   3.512  0.00  0.00    -0.097 F 
ATOM      8  F1  UNL d   1       2.442   0.414   1.181  0.00  0.00    -0.096 F 
ATOM      9  I   UNL d   1       1.475   0.291  -1.867  0.00  0.00    -0.060 I 
ATOM     10  F2  UNL d   1      -1.614  -0.239  -1.218  0.00  0.00    -0.096 F 
ATOM     11  F3  UNL d   1      -2.942  -0.495   1.128  0.00  0.00    -0.097 F 
ATOM     12  F4  UNL d   1      -1.605  -0.300   3.498  0.00  0.00    -0.092 F 
ENDROOT
TORSDOF 0
ENDMDL
