MODEL 1
REMARK minimizedAffinity -1.89982796
REMARK minimizedRMSD -1
REMARK  0 active torsions:
REMARK  status: ('A' for Active; 'I' for Inactive)
ROOT
ATOM      1  C   UNL d   1       0.463  -0.101  -1.743  0.00  0.00     0.124 A 
ATOM      2  C1  UNL d   1      -0.643   0.496  -1.153  0.00  0.00     0.062 A 
ATOM      3  C2  UNL d   1      -0.887   0.328   0.206  0.00  0.00     0.162 A 
ATOM      4  C3  UNL d   1      -0.023  -0.440   0.987  0.00  0.00    -0.034 A 
ATOM      5  C4  UNL d   1       1.086  -1.038   0.387  0.00  0.00     0.162 A 
ATOM      6  C5  UNL d   1       1.326  -0.867  -0.973  0.00  0.00     0.062 A 
ATOM      7  F   UNL d   1       2.395  -1.445  -1.540  0.00  0.00    -0.097 F 
ATOM      8  F1  UNL d   1       1.937  -1.783   1.108  0.00  0.00    -0.096 F 
ATOM      9  I   UNL d   1      -0.385  -0.694   3.021  0.00  0.00    -0.060 I 
ATOM     10  F2  UNL d   1      -1.963   0.916   0.749  0.00  0.00    -0.096 F 
ATOM     11  F3  UNL d   1      -1.479   1.236  -1.896  0.00  0.00    -0.097 F 
ATOM     12  F4  UNL d   1       0.695   0.061  -3.052  0.00  0.00    -0.092 F 
ENDROOT
TORSDOF 0
ENDMDL
