MODEL 1
REMARK minimizedAffinity 1.01026285
REMARK minimizedRMSD -1
REMARK  0 active torsions:
REMARK  status: ('A' for Active; 'I' for Inactive)
ROOT
ATOM      1  C   UNL d   1      -0.557   0.406  -1.602  0.00  0.00     0.124 A 
ATOM      2  C1  UNL d   1       0.669   0.278  -0.964  0.00  0.00     0.062 A 
ATOM      3  C2  UNL d   1       0.758   0.422   0.418  0.00  0.00     0.162 A 
ATOM      4  C3  UNL d   1      -0.384   0.696   1.171  0.00  0.00    -0.034 A 
ATOM      5  C4  UNL d   1      -1.613   0.824   0.522  0.00  0.00     0.162 A 
ATOM      6  C5  UNL d   1      -1.696   0.679  -0.858  0.00  0.00     0.062 A 
ATOM      7  F   UNL d   1      -2.882   0.803  -1.473  0.00  0.00    -0.097 F 
ATOM      8  F1  UNL d   1      -2.730   1.087   1.217  0.00  0.00    -0.096 F 
ATOM      9  I   UNL d   1      -0.256   0.912   3.237  0.00  0.00    -0.060 I 
ATOM     10  F2  UNL d   1       1.955   0.293   1.008  0.00  0.00    -0.096 F 
ATOM     11  F3  UNL d   1       1.772   0.015  -1.680  0.00  0.00    -0.097 F 
ATOM     12  F4  UNL d   1      -0.639   0.268  -2.931  0.00  0.00    -0.092 F 
ENDROOT
TORSDOF 0
ENDMDL
