MODEL 1
REMARK minimizedAffinity 3.43699193
REMARK minimizedRMSD -1
REMARK  0 active torsions:
REMARK  status: ('A' for Active; 'I' for Inactive)
ROOT
ATOM      1  C   UNL d   1      -0.172   0.962  -1.552  0.00  0.00     0.124 A 
ATOM      2  C1  UNL d   1       1.010   0.807  -0.840  0.00  0.00     0.062 A 
ATOM      3  C2  UNL d   1       0.975   0.582   0.533  0.00  0.00     0.162 A 
ATOM      4  C3  UNL d   1      -0.245   0.511   1.204  0.00  0.00    -0.034 A 
ATOM      5  C4  UNL d   1      -1.430   0.670   0.482  0.00  0.00     0.162 A 
ATOM      6  C5  UNL d   1      -1.390   0.894  -0.890  0.00  0.00     0.062 A 
ATOM      7  F   UNL d   1      -2.532   1.044  -1.576  0.00  0.00    -0.097 F 
ATOM      8  F1  UNL d   1      -2.620   0.608   1.096  0.00  0.00    -0.096 F 
ATOM      9  I   UNL d   1      -0.301   0.176   3.258  0.00  0.00    -0.060 I 
ATOM     10  F2  UNL d   1       2.132   0.436   1.195  0.00  0.00    -0.096 F 
ATOM     11  F3  UNL d   1       2.188   0.873  -1.477  0.00  0.00    -0.097 F 
ATOM     12  F4  UNL d   1      -0.136   1.179  -2.873  0.00  0.00    -0.092 F 
ENDROOT
TORSDOF 0
ENDMDL
