MODEL 1
REMARK minimizedAffinity -3.63065743
REMARK minimizedRMSD -1
REMARK  0 active torsions:
REMARK  status: ('A' for Active; 'I' for Inactive)
ROOT
ATOM      1  C   UNL d   1      -1.368  -0.106   2.138  0.00  0.00     0.124 A 
ATOM      2  C1  UNL d   1      -2.145  -0.102   0.988  0.00  0.00     0.062 A 
ATOM      3  C2  UNL d   1      -1.553   0.103  -0.255  0.00  0.00     0.162 A 
ATOM      4  C3  UNL d   1      -0.176   0.305  -0.355  0.00  0.00    -0.034 A 
ATOM      5  C4  UNL d   1       0.598   0.299   0.807  0.00  0.00     0.162 A 
ATOM      6  C5  UNL d   1       0.002   0.094   2.047  0.00  0.00     0.062 A 
ATOM      7  F   UNL d   1       0.754   0.090   3.157  0.00  0.00    -0.097 F 
ATOM      8  F1  UNL d   1       1.924   0.490   0.747  0.00  0.00    -0.096 F 
ATOM      9  I   UNL d   1       0.712   0.611  -2.212  0.00  0.00    -0.060 I 
ATOM     10  F2  UNL d   1      -2.328   0.103  -1.350  0.00  0.00    -0.096 F 
ATOM     11  F3  UNL d   1      -3.469  -0.294   1.074  0.00  0.00    -0.097 F 
ATOM     12  F4  UNL d   1      -1.940  -0.303   3.333  0.00  0.00    -0.092 F 
ENDROOT
TORSDOF 0
ENDMDL
