MODEL 1
REMARK minimizedAffinity 2.12968135
REMARK minimizedRMSD -1
REMARK  0 active torsions:
REMARK  status: ('A' for Active; 'I' for Inactive)
ROOT
ATOM      1  C   UNL d   1      -5.944   3.190   6.000  0.00  0.00     0.172 C 
ATOM      2  N   UNL d   1      -4.997   2.100   5.983  0.00  0.00    -0.070 N 
ATOM      3  C1  UNL d   1      -5.314   0.768   5.948  0.00  0.00    -0.004 A 
ATOM      4  C2  UNL d   1      -4.135   0.054   5.942  0.00  0.00    -0.047 A 
ATOM      5  C3  UNL d   1      -3.073   0.989   5.975  0.00  0.00    -0.047 A 
ATOM      6  C4  UNL d   1      -3.635   2.248   6.000  0.00  0.00    -0.004 A 
ENDROOT
TORSDOF 0
ENDMDL
