MODEL 1
REMARK minimizedAffinity 10.4139423
REMARK minimizedRMSD -1
REMARK  0 active torsions:
REMARK  status: ('A' for Active; 'I' for Inactive)
ROOT
ATOM      1  C   UNL d   1      -0.980  -2.200  -0.081  0.00  0.00     0.172 C 
ATOM      2  N   UNL d   1      -0.715  -3.526   0.427  0.00  0.00    -0.070 N 
ATOM      3  C1  UNL d   1      -0.605  -4.663  -0.329  0.00  0.00    -0.004 A 
ATOM      4  C2  UNL d   1      -0.350  -5.714   0.525  0.00  0.00    -0.047 A 
ATOM      5  C3  UNL d   1      -0.306  -5.191   1.839  0.00  0.00    -0.047 A 
ATOM      6  C4  UNL d   1      -0.536  -3.834   1.749  0.00  0.00    -0.004 A 
ENDROOT
TORSDOF 0
ENDMDL
