MODEL 1
REMARK minimizedAffinity 6.58524561
REMARK minimizedRMSD -1
REMARK  0 active torsions:
REMARK  status: ('A' for Active; 'I' for Inactive)
ROOT
ATOM      1  C   UNL d   1      -2.303   2.988  -4.138  0.00  0.00     0.172 C 
ATOM      2  N   UNL d   1      -0.994   3.015  -4.747  0.00  0.00    -0.070 N 
ATOM      3  C1  UNL d   1      -0.029   3.960  -4.524  0.00  0.00    -0.004 A 
ATOM      4  C2  UNL d   1       1.069   3.631  -5.290  0.00  0.00    -0.047 A 
ATOM      5  C3  UNL d   1       0.753   2.447  -5.997  0.00  0.00    -0.047 A 
ATOM      6  C4  UNL d   1      -0.530   2.087  -5.642  0.00  0.00    -0.004 A 
ENDROOT
TORSDOF 0
ENDMDL
