MODEL 1
REMARK minimizedAffinity 9.8347683
REMARK minimizedRMSD -1
REMARK  0 active torsions:
REMARK  status: ('A' for Active; 'I' for Inactive)
ROOT
ATOM      1  C   UNL d   1      -2.666   2.692  -4.011  0.00  0.00     0.172 C 
ATOM      2  N   UNL d   1      -1.251   2.854  -4.253  0.00  0.00    -0.070 N 
ATOM      3  C1  UNL d   1      -0.268   1.994  -3.843  0.00  0.00    -0.004 A 
ATOM      4  C2  UNL d   1       0.941   2.501  -4.271  0.00  0.00    -0.047 A 
ATOM      5  C3  UNL d   1       0.674   3.707  -4.961  0.00  0.00    -0.047 A 
ATOM      6  C4  UNL d   1      -0.691   3.901  -4.935  0.00  0.00    -0.004 A 
ENDROOT
TORSDOF 0
ENDMDL
