MODEL 1
REMARK minimizedAffinity 6.1098156
REMARK minimizedRMSD -1
REMARK  0 active torsions:
REMARK  status: ('A' for Active; 'I' for Inactive)
ROOT
ATOM      1  C   UNL d   1      -2.529   1.900  -3.751  0.00  0.00     0.172 C 
ATOM      2  N   UNL d   1      -1.520   2.676  -4.432  0.00  0.00    -0.070 N 
ATOM      3  C1  UNL d   1      -1.585   3.107  -5.730  0.00  0.00    -0.004 A 
ATOM      4  C2  UNL d   1      -0.432   3.812  -6.000  0.00  0.00    -0.047 A 
ATOM      5  C3  UNL d   1       0.354   3.804  -4.823  0.00  0.00    -0.047 A 
ATOM      6  C4  UNL d   1      -0.343   3.094  -3.868  0.00  0.00    -0.004 A 
ENDROOT
TORSDOF 0
ENDMDL
