MODEL 1
REMARK minimizedAffinity 9.03649712
REMARK minimizedRMSD -1
REMARK  0 active torsions:
REMARK  status: ('A' for Active; 'I' for Inactive)
ROOT
ATOM      1  C   UNL d   1      -2.787   2.483  -3.752  0.00  0.00     0.172 C 
ATOM      2  N   UNL d   1      -1.518   2.648  -4.421  0.00  0.00    -0.070 N 
ATOM      3  C1  UNL d   1      -0.287   2.435  -3.860  0.00  0.00    -0.004 A 
ATOM      4  C2  UNL d   1       0.666   2.699  -4.821  0.00  0.00    -0.047 A 
ATOM      5  C3  UNL d   1      -0.017   3.085  -5.999  0.00  0.00    -0.047 A 
ATOM      6  C4  UNL d   1      -1.367   3.044  -5.723  0.00  0.00    -0.004 A 
ENDROOT
TORSDOF 0
ENDMDL
