MODEL 1
REMARK minimizedAffinity 6.22752762
REMARK minimizedRMSD -1
REMARK  0 active torsions:
REMARK  status: ('A' for Active; 'I' for Inactive)
ROOT
ATOM      1  C   UNL d   1       4.847   5.994   1.135  0.00  0.00     0.172 C 
ATOM      2  N   UNL d   1       4.856   4.800   0.323  0.00  0.00    -0.070 N 
ATOM      3  C1  UNL d   1       4.029   3.720   0.482  0.00  0.00    -0.004 A 
ATOM      4  C2  UNL d   1       4.352   2.795  -0.487  0.00  0.00    -0.047 A 
ATOM      5  C3  UNL d   1       5.410   3.337  -1.255  0.00  0.00    -0.047 A 
ATOM      6  C4  UNL d   1       5.702   4.579  -0.732  0.00  0.00    -0.004 A 
ENDROOT
TORSDOF 0
ENDMDL
