MODEL 1
REMARK minimizedAffinity 5.06214905
REMARK minimizedRMSD -1
REMARK  0 active torsions:
REMARK  status: ('A' for Active; 'I' for Inactive)
ROOT
ATOM      1  C   UNL d   1      -5.726   4.439   5.998  0.00  0.00     0.172 C 
ATOM      2  N   UNL d   1      -5.129   3.124   5.963  0.00  0.00    -0.070 N 
ATOM      3  C1  UNL d   1      -5.811   1.937   5.992  0.00  0.00    -0.004 A 
ATOM      4  C2  UNL d   1      -4.886   0.917   5.941  0.00  0.00    -0.047 A 
ATOM      5  C3  UNL d   1      -3.603   1.512   5.882  0.00  0.00    -0.047 A 
ATOM      6  C4  UNL d   1      -3.783   2.879   5.897  0.00  0.00    -0.004 A 
ENDROOT
TORSDOF 0
ENDMDL
