MODEL 1
REMARK minimizedAffinity 13.3934689
REMARK minimizedRMSD -1
REMARK  0 active torsions:
REMARK  status: ('A' for Active; 'I' for Inactive)
ROOT
ATOM      1  C   UNL d   1      -5.980   5.949  -5.993  0.00  0.00     0.172 C 
ATOM      2  N   UNL d   1      -4.787   5.356  -5.437  0.00  0.00    -0.070 N 
ATOM      3  C1  UNL d   1      -4.341   4.084  -5.677  0.00  0.00    -0.004 A 
ATOM      4  C2  UNL d   1      -3.175   3.903  -4.964  0.00  0.00    -0.047 A 
ATOM      5  C3  UNL d   1      -2.912   5.108  -4.271  0.00  0.00    -0.047 A 
ATOM      6  C4  UNL d   1      -3.925   5.991  -4.581  0.00  0.00    -0.004 A 
ENDROOT
TORSDOF 0
ENDMDL
