MODEL 1
REMARK minimizedAffinity 9.86535454
REMARK minimizedRMSD -1
REMARK  0 active torsions:
REMARK  status: ('A' for Active; 'I' for Inactive)
ROOT
ATOM      1  C   UNL d   1       3.496   2.503   0.278  0.00  0.00     0.172 C 
ATOM      2  N   UNL d   1       4.289   3.655  -0.081  0.00  0.00    -0.070 N 
ATOM      3  C1  UNL d   1       4.127   4.921   0.416  0.00  0.00    -0.004 A 
ATOM      4  C2  UNL d   1       5.076   5.729  -0.173  0.00  0.00    -0.047 A 
ATOM      5  C3  UNL d   1       5.833   4.921  -1.054  0.00  0.00    -0.047 A 
ATOM      6  C4  UNL d   1       5.325   3.642  -0.977  0.00  0.00    -0.004 A 
ENDROOT
TORSDOF 0
ENDMDL
