MODEL 1
REMARK minimizedAffinity 8.62573147
REMARK minimizedRMSD -1
REMARK  0 active torsions:
REMARK  status: ('A' for Active; 'I' for Inactive)
ROOT
ATOM      1  C   UNL d   1       3.197   2.490   0.213  0.00  0.00     0.172 C 
ATOM      2  N   UNL d   1       4.105   3.608   0.100  0.00  0.00    -0.070 N 
ATOM      3  C1  UNL d   1       4.115   4.713   0.909  0.00  0.00    -0.004 A 
ATOM      4  C2  UNL d   1       5.127   5.543   0.476  0.00  0.00    -0.047 A 
ATOM      5  C3  UNL d   1       5.745   4.915  -0.632  0.00  0.00    -0.047 A 
ATOM      6  C4  UNL d   1       5.092   3.719  -0.843  0.00  0.00    -0.004 A 
ENDROOT
TORSDOF 0
ENDMDL
