MODEL 1
REMARK minimizedAffinity 9.92672443
REMARK minimizedRMSD -1
REMARK  0 active torsions:
REMARK  status: ('A' for Active; 'I' for Inactive)
ROOT
ATOM      1  C   UNL d   1      -3.001   0.688   5.904  0.00  0.00     0.172 C 
ATOM      2  N   UNL d   1      -2.183  -0.424   5.480  0.00  0.00    -0.070 N 
ATOM      3  C1  UNL d   1      -0.961  -0.760   6.000  0.00  0.00    -0.004 A 
ATOM      4  C2  UNL d   1      -0.510  -1.876   5.328  0.00  0.00    -0.047 A 
ATOM      5  C3  UNL d   1      -1.493  -2.221   4.370  0.00  0.00    -0.047 A 
ATOM      6  C4  UNL d   1      -2.518  -1.305   4.486  0.00  0.00    -0.004 A 
ENDROOT
TORSDOF 0
ENDMDL
