MODEL 1
REMARK minimizedAffinity 3.11931562
REMARK minimizedRMSD -1
REMARK  0 active torsions:
REMARK  status: ('A' for Active; 'I' for Inactive)
ROOT
ATOM      1  C   UNL d   1      -0.537  -5.242   1.152  0.00  0.00     0.172 C 
ATOM      2  N   UNL d   1      -1.132  -3.947   0.923  0.00  0.00    -0.070 N 
ATOM      3  C1  UNL d   1      -1.992  -3.303   1.772  0.00  0.00    -0.004 A 
ATOM      4  C2  UNL d   1      -2.331  -2.098   1.195  0.00  0.00    -0.047 A 
ATOM      5  C3  UNL d   1      -1.651  -2.015  -0.043  0.00  0.00    -0.047 A 
ATOM      6  C4  UNL d   1      -0.916  -3.173  -0.186  0.00  0.00    -0.004 A 
ENDROOT
TORSDOF 0
ENDMDL
