MODEL 1
REMARK minimizedAffinity 5.74438715
REMARK minimizedRMSD -1
REMARK  0 active torsions:
REMARK  status: ('A' for Active; 'I' for Inactive)
ROOT
ATOM      1  C   UNL d   1      -5.837   2.030   5.999  0.00  0.00     0.172 C 
ATOM      2  N   UNL d   1      -4.707   1.130   5.990  0.00  0.00    -0.070 N 
ATOM      3  C1  UNL d   1      -4.776  -0.237   5.972  0.00  0.00    -0.004 A 
ATOM      4  C2  UNL d   1      -3.486  -0.724   5.969  0.00  0.00    -0.047 A 
ATOM      5  C3  UNL d   1      -2.613   0.389   5.987  0.00  0.00    -0.047 A 
ATOM      6  C4  UNL d   1      -3.395   1.525   6.000  0.00  0.00    -0.004 A 
ENDROOT
TORSDOF 0
ENDMDL
