MODEL 1
REMARK minimizedAffinity 12.6042452
REMARK minimizedRMSD -1
REMARK  0 active torsions:
REMARK  status: ('A' for Active; 'I' for Inactive)
ROOT
ATOM      1  C   UNL d   1       4.958   3.675   5.633  0.00  0.00     0.172 C 
ATOM      2  N   UNL d   1       3.696   4.369   5.732  0.00  0.00    -0.070 N 
ATOM      3  C1  UNL d   1       2.458   3.798   5.599  0.00  0.00    -0.004 A 
ATOM      4  C2  UNL d   1       1.516   4.790   5.762  0.00  0.00    -0.047 A 
ATOM      5  C3  UNL d   1       2.211   6.000   5.999  0.00  0.00    -0.047 A 
ATOM      6  C4  UNL d   1       3.559   5.710   5.976  0.00  0.00    -0.004 A 
ENDROOT
TORSDOF 0
ENDMDL
