MODEL 1
REMARK minimizedAffinity 10.6088057
REMARK minimizedRMSD -1
REMARK  0 active torsions:
REMARK  status: ('A' for Active; 'I' for Inactive)
ROOT
ATOM      1  C   UNL d   1       4.659   6.000   0.741  0.00  0.00     0.172 C 
ATOM      2  N   UNL d   1       4.981   4.729   0.135  0.00  0.00    -0.070 N 
ATOM      3  C1  UNL d   1       4.324   3.549   0.360  0.00  0.00    -0.004 A 
ATOM      4  C2  UNL d   1       4.932   2.575  -0.403  0.00  0.00    -0.047 A 
ATOM      5  C3  UNL d   1       5.992   3.192  -1.110  0.00  0.00    -0.047 A 
ATOM      6  C4  UNL d   1       5.999   4.525  -0.758  0.00  0.00    -0.004 A 
ENDROOT
TORSDOF 0
ENDMDL
