MODEL 1
REMARK minimizedAffinity -2.98777246
REMARK minimizedRMSD -1
REMARK  0 active torsions:
REMARK  status: ('A' for Active; 'I' for Inactive)
ROOT
ATOM      1  C   UNL d   1       1.611   0.768  -4.507  0.00  0.00     0.023 A 
ATOM      2  C1  UNL d   1       1.884   0.752  -3.139  0.00  0.00     0.003 A 
ATOM      3  C2  UNL d   1       1.107  -0.027  -2.280  0.00  0.00     0.048 A 
ATOM      4  C3  UNL d   1       0.059  -0.789  -2.795  0.00  0.00     0.023 A 
ATOM      5  C4  UNL d   1      -0.218  -0.777  -4.163  0.00  0.00     0.048 A 
ATOM      6  C5  UNL d   1       0.561   0.005  -5.018  0.00  0.00     0.003 A 
ATOM      7  I   UNL d   1      -1.099  -1.950  -1.518  0.00  0.00    -0.146 I 
ENDROOT
TORSDOF 0
ENDMDL
