MODEL 1
REMARK minimizedAffinity -2.18646169
REMARK minimizedRMSD -1
REMARK  0 active torsions:
REMARK  status: ('A' for Active; 'I' for Inactive)
ROOT
ATOM      1  C   UNL d   1      -0.955   1.322   2.696  0.00  0.00     0.023 A 
ATOM      2  C1  UNL d   1       0.346   1.713   2.379  0.00  0.00     0.003 A 
ATOM      3  C2  UNL d   1       0.917   1.326   1.165  0.00  0.00     0.048 A 
ATOM      4  C3  UNL d   1       0.180   0.549   0.271  0.00  0.00     0.023 A 
ATOM      5  C4  UNL d   1      -1.122   0.156   0.584  0.00  0.00     0.048 A 
ATOM      6  C5  UNL d   1      -1.688   0.544   1.799  0.00  0.00     0.003 A 
ATOM      7  I   UNL d   1       1.027  -0.029  -1.537  0.00  0.00    -0.146 I 
ENDROOT
TORSDOF 0
ENDMDL
