MODEL 1
REMARK minimizedAffinity -4.33682108
REMARK minimizedRMSD -1
REMARK  0 active torsions:
REMARK  status: ('A' for Active; 'I' for Inactive)
ROOT
ATOM      1  C   UNL d   1      -0.968   1.893   2.997  0.00  0.00     0.023 A 
ATOM      2  C1  UNL d   1       0.375   1.925   2.624  0.00  0.00     0.003 A 
ATOM      3  C2  UNL d   1       0.820   1.161   1.543  0.00  0.00     0.048 A 
ATOM      4  C3  UNL d   1      -0.086   0.368   0.839  0.00  0.00     0.023 A 
ATOM      5  C4  UNL d   1      -1.431   0.333   1.208  0.00  0.00     0.048 A 
ATOM      6  C5  UNL d   1      -1.871   1.098   2.290  0.00  0.00     0.003 A 
ATOM      7  I   UNL d   1       0.573  -0.770  -0.771  0.00  0.00    -0.146 I 
ENDROOT
TORSDOF 0
ENDMDL
