MODEL 1
REMARK minimizedAffinity -2.35012603
REMARK minimizedRMSD -1
REMARK  0 active torsions:
REMARK  status: ('A' for Active; 'I' for Inactive)
ROOT
ATOM      1  C   UNL d   1       0.638   0.392  -5.568  0.00  0.00     0.023 A 
ATOM      2  C1  UNL d   1       1.250   1.311  -4.716  0.00  0.00     0.003 A 
ATOM      3  C2  UNL d   1       1.179   1.137  -3.333  0.00  0.00     0.048 A 
ATOM      4  C3  UNL d   1       0.496   0.041  -2.808  0.00  0.00     0.023 A 
ATOM      5  C4  UNL d   1      -0.117  -0.883  -3.656  0.00  0.00     0.048 A 
ATOM      6  C5  UNL d   1      -0.045  -0.704  -5.039  0.00  0.00     0.003 A 
ATOM      7  I   UNL d   1       0.390  -0.221  -0.749  0.00  0.00    -0.146 I 
ENDROOT
TORSDOF 0
ENDMDL
