MODEL 1
REMARK minimizedAffinity 3.1899662
REMARK minimizedRMSD -1
REMARK  0 active torsions:
REMARK  status: ('A' for Active; 'I' for Inactive)
ROOT
ATOM      1  C   UNL d   1       0.796   0.038   1.118  0.00  0.00     0.023 A 
ATOM      2  C1  UNL d   1       1.593  -0.823   0.362  0.00  0.00     0.003 A 
ATOM      3  C2  UNL d   1       1.659  -0.677  -1.025  0.00  0.00     0.048 A 
ATOM      4  C3  UNL d   1       0.928   0.332  -1.650  0.00  0.00     0.023 A 
ATOM      5  C4  UNL d   1       0.130   1.196  -0.898  0.00  0.00     0.048 A 
ATOM      6  C5  UNL d   1       0.065   1.046   0.489  0.00  0.00     0.003 A 
ATOM      7  I   UNL d   1       1.026   0.552  -3.714  0.00  0.00    -0.146 I 
ENDROOT
TORSDOF 0
ENDMDL
