MODEL 1
REMARK minimizedAffinity 0.297434092
REMARK minimizedRMSD -1
REMARK  0 active torsions:
REMARK  status: ('A' for Active; 'I' for Inactive)
ROOT
ATOM      1  C   UNL d   1       0.611   0.143   1.754  0.00  0.00     0.023 A 
ATOM      2  C1  UNL d   1      -0.093   1.012   0.921  0.00  0.00     0.003 A 
ATOM      3  C2  UNL d   1       0.080   0.949  -0.463  0.00  0.00     0.048 A 
ATOM      4  C3  UNL d   1       0.959   0.013  -1.008  0.00  0.00     0.023 A 
ATOM      5  C4  UNL d   1       1.666  -0.859  -0.178  0.00  0.00     0.048 A 
ATOM      6  C5  UNL d   1       1.490  -0.791   1.205  0.00  0.00     0.003 A 
ATOM      7  I   UNL d   1       1.219  -0.084  -3.068  0.00  0.00    -0.146 I 
ENDROOT
TORSDOF 0
ENDMDL
