MODEL 1
REMARK minimizedAffinity -1.39057779
REMARK minimizedRMSD -1
REMARK  0 active torsions:
REMARK  status: ('A' for Active; 'I' for Inactive)
ROOT
ATOM      1  C   UNL d   1       1.022   0.807  -5.980  0.00  0.00     0.023 A 
ATOM      2  C1  UNL d   1      -0.028   0.025  -5.498  0.00  0.00     0.003 A 
ATOM      3  C2  UNL d   1      -0.113  -0.268  -4.136  0.00  0.00     0.048 A 
ATOM      4  C3  UNL d   1       0.854   0.224  -3.260  0.00  0.00     0.023 A 
ATOM      5  C4  UNL d   1       1.906   1.008  -3.738  0.00  0.00     0.048 A 
ATOM      6  C5  UNL d   1       1.988   1.297  -5.101  0.00  0.00     0.003 A 
ATOM      7  I   UNL d   1       0.729  -0.211  -1.232  0.00  0.00    -0.146 I 
ENDROOT
TORSDOF 0
ENDMDL
