MODEL 1
REMARK minimizedAffinity 0.251639575
REMARK minimizedRMSD -1
REMARK  0 active torsions:
REMARK  status: ('A' for Active; 'I' for Inactive)
ROOT
ATOM      1  C   UNL d   1       1.364   1.021   1.620  0.00  0.00     0.023 A 
ATOM      2  C1  UNL d   1       1.922  -0.133   1.069  0.00  0.00     0.003 A 
ATOM      3  C2  UNL d   1       1.119  -1.025   0.354  0.00  0.00     0.048 A 
ATOM      4  C3  UNL d   1      -0.240  -0.757   0.194  0.00  0.00     0.023 A 
ATOM      5  C4  UNL d   1      -0.802   0.397   0.743  0.00  0.00     0.048 A 
ATOM      6  C5  UNL d   1       0.004   1.285   1.457  0.00  0.00     0.003 A 
ATOM      7  I   UNL d   1      -1.436  -2.083  -0.869  0.00  0.00    -0.146 I 
ENDROOT
TORSDOF 0
ENDMDL
