MODEL 1
REMARK minimizedAffinity -3.47134686
REMARK minimizedRMSD -1
REMARK  3 active torsions:
REMARK  status: ('A' for Active; 'I' for Inactive)
REMARK    1  A    between atoms: C3'_2  and  C2'_3 
REMARK    2  A    between atoms: C2'_3  and  C1'_4 
REMARK    3  A    between atoms: C1'_4  and  C1_5 
ROOT
ATOM      1  C1  N4B d   1      -0.062   0.286  -0.256  0.00  0.00    -0.075 A 
ATOM      2  C2  N4B d   1      -1.441   0.318   0.043  0.00  0.00     0.002 A 
ATOM      3  C3  N4B d   1      -2.061  -0.800   0.545  0.00  0.00     0.002 A 
ATOM      4  C4  N4B d   1      -1.329  -1.962   0.737  0.00  0.00    -0.004 A 
ATOM      5  C5  N4B d   1       0.008  -1.978   0.470  0.00  0.00     0.002 A 
ATOM      6  C6  N4B d   1       0.645  -0.860  -0.031  0.00  0.00     0.002 A 
ENDROOT
BRANCH   1   7
ATOM      7  C1' N4B d   1       0.642   1.456  -0.887  0.00  0.00     0.057 C 
BRANCH   7   8
ATOM      8  C2' N4B d   1      -0.040   1.797  -2.208  0.00  0.00     0.009 C 
BRANCH   8   9
ATOM      9  C3' N4B d   1       0.881   2.562  -3.143  0.00  0.00     0.004 C 
ATOM     10  C4' N4B d   1       1.188   1.808  -4.402  0.00  0.00     0.003 C 
ENDBRANCH   8   9
ENDBRANCH   7   8
ENDBRANCH   1   7
TORSDOF 3
ENDMDL
