MODEL 1
REMARK minimizedAffinity 0.577175021
REMARK minimizedRMSD -1
REMARK  3 active torsions:
REMARK  status: ('A' for Active; 'I' for Inactive)
REMARK    1  A    between atoms: C3'_2  and  C2'_3 
REMARK    2  A    between atoms: C2'_3  and  C1'_4 
REMARK    3  A    between atoms: C1'_4  and  C1_5 
ROOT
ATOM      1  C1  N4B d   1       0.392   1.398  -2.158  0.00  0.00    -0.075 A 
ATOM      2  C2  N4B d   1       1.265   0.952  -3.175  0.00  0.00     0.002 A 
ATOM      3  C3  N4B d   1       1.418   1.691  -4.322  0.00  0.00     0.002 A 
ATOM      4  C4  N4B d   1       0.698   2.865  -4.482  0.00  0.00    -0.004 A 
ATOM      5  C5  N4B d   1      -0.124   3.303  -3.485  0.00  0.00     0.002 A 
ATOM      6  C6  N4B d   1      -0.284   2.572  -2.325  0.00  0.00     0.002 A 
ENDROOT
BRANCH   1   7
ATOM      7  C1' N4B d   1       0.127   0.581  -0.924  0.00  0.00     0.057 C 
BRANCH   7   8
ATOM      8  C2' N4B d   1      -0.853   1.331  -0.027  0.00  0.00     0.009 C 
BRANCH   8   9
ATOM      9  C3' N4B d   1      -1.558   0.402   0.947  0.00  0.00     0.004 C 
ATOM     10  C4' N4B d   1      -2.537  -0.512   0.273  0.00  0.00     0.003 C 
ENDBRANCH   8   9
ENDBRANCH   7   8
ENDBRANCH   1   7
TORSDOF 3
ENDMDL
