MODEL 1
REMARK minimizedAffinity -4.25934505
REMARK minimizedRMSD -1
REMARK  3 active torsions:
REMARK  status: ('A' for Active; 'I' for Inactive)
REMARK    1  A    between atoms: C3'_2  and  C2'_3 
REMARK    2  A    between atoms: C2'_3  and  C1'_4 
REMARK    3  A    between atoms: C1'_4  and  C1_5 
ROOT
ATOM      1  C1  N4B d   1       0.099  -0.109  -0.002  0.00  0.00    -0.075 A 
ATOM      2  C2  N4B d   1       0.698  -1.180   0.697  0.00  0.00     0.002 A 
ATOM      3  C3  N4B d   1      -0.078  -2.208   1.173  0.00  0.00     0.002 A 
ATOM      4  C4  N4B d   1      -1.451  -2.178   0.979  0.00  0.00    -0.004 A 
ATOM      5  C5  N4B d   1      -2.018  -1.153   0.280  0.00  0.00     0.002 A 
ATOM      6  C6  N4B d   1      -1.250  -0.115  -0.207  0.00  0.00     0.002 A 
ENDROOT
BRANCH   1   7
ATOM      7  C1' N4B d   1       0.895   1.080  -0.467  0.00  0.00     0.057 C 
BRANCH   7   8
ATOM      8  C2' N4B d   1       0.558   1.369  -1.926  0.00  0.00     0.009 C 
BRANCH   8   9
ATOM      9  C3' N4B d   1       1.738   1.964  -2.675  0.00  0.00     0.004 C 
ATOM     10  C4' N4B d   1       1.370   2.455  -4.043  0.00  0.00     0.003 C 
ENDBRANCH   8   9
ENDBRANCH   7   8
ENDBRANCH   1   7
TORSDOF 3
ENDMDL
