MODEL 1
REMARK minimizedAffinity -2.37126374
REMARK minimizedRMSD -1
REMARK  3 active torsions:
REMARK  status: ('A' for Active; 'I' for Inactive)
REMARK    1  A    between atoms: C3'_2  and  C2'_3 
REMARK    2  A    between atoms: C2'_3  and  C1'_4 
REMARK    3  A    between atoms: C1'_4  and  C1_5 
ROOT
ATOM      1  C1  N4B d   1       1.324   0.779   0.080  0.00  0.00    -0.075 A 
ATOM      2  C2  N4B d   1       2.149   1.813   0.573  0.00  0.00     0.002 A 
ATOM      3  C3  N4B d   1       3.287   1.506   1.279  0.00  0.00     0.002 A 
ATOM      4  C4  N4B d   1       3.607   0.179   1.519  0.00  0.00    -0.004 A 
ATOM      5  C5  N4B d   1       2.818  -0.815   1.018  0.00  0.00     0.002 A 
ATOM      6  C6  N4B d   1       1.674  -0.521   0.303  0.00  0.00     0.002 A 
ENDROOT
BRANCH   1   7
ATOM      7  C1' N4B d   1       0.025   1.066  -0.623  0.00  0.00     0.057 C 
BRANCH   7   8
ATOM      8  C2' N4B d   1      -1.080   1.235   0.415  0.00  0.00     0.009 C 
BRANCH   8   9
ATOM      9  C3' N4B d   1      -1.924  -0.020   0.555  0.00  0.00     0.004 C 
ATOM     10  C4' N4B d   1      -3.154   0.197   1.385  0.00  0.00     0.003 C 
ENDBRANCH   8   9
ENDBRANCH   7   8
ENDBRANCH   1   7
TORSDOF 3
ENDMDL
