MODEL 1
REMARK minimizedAffinity -0.917567253
REMARK minimizedRMSD -1
REMARK  3 active torsions:
REMARK  status: ('A' for Active; 'I' for Inactive)
REMARK    1  A    between atoms: C3'_2  and  C2'_3 
REMARK    2  A    between atoms: C2'_3  and  C1'_4 
REMARK    3  A    between atoms: C1'_4  and  C1_5 
ROOT
ATOM      1  C1  N4B d   1       1.905   1.018   0.387  0.00  0.00    -0.075 A 
ATOM      2  C2  N4B d   1       2.425   2.108   1.119  0.00  0.00     0.002 A 
ATOM      3  C3  N4B d   1       3.477   1.917   1.982  0.00  0.00     0.002 A 
ATOM      4  C4  N4B d   1       4.010   0.647   2.142  0.00  0.00    -0.004 A 
ATOM      5  C5  N4B d   1       3.519  -0.396   1.412  0.00  0.00     0.002 A 
ATOM      6  C6  N4B d   1       2.465  -0.218   0.539  0.00  0.00     0.002 A 
ENDROOT
BRANCH   1   7
ATOM      7  C1' N4B d   1       0.701   1.161  -0.503  0.00  0.00     0.057 C 
BRANCH   7   8
ATOM      8  C2' N4B d   1      -0.088  -0.145  -0.492  0.00  0.00     0.009 C 
BRANCH   8   9
ATOM      9  C3' N4B d   1      -1.088  -0.195   0.650  0.00  0.00     0.004 C 
ATOM     10  C4' N4B d   1      -1.638   1.156   1.000  0.00  0.00     0.003 C 
ENDBRANCH   8   9
ENDBRANCH   7   8
ENDBRANCH   1   7
TORSDOF 3
ENDMDL
