MODEL 1
REMARK minimizedAffinity -2.42565179
REMARK minimizedRMSD -1
REMARK  3 active torsions:
REMARK  status: ('A' for Active; 'I' for Inactive)
REMARK    1  A    between atoms: C3'_2  and  C2'_3 
REMARK    2  A    between atoms: C2'_3  and  C1'_4 
REMARK    3  A    between atoms: C1'_4  and  C1_5 
ROOT
ATOM      1  C1  N4B d   1       0.057   0.444   0.184  0.00  0.00    -0.075 A 
ATOM      2  C2  N4B d   1       0.008  -0.955  -0.002  0.00  0.00     0.002 A 
ATOM      3  C3  N4B d   1      -1.183  -1.625   0.136  0.00  0.00     0.002 A 
ATOM      4  C4  N4B d   1      -2.329  -0.923   0.476  0.00  0.00    -0.004 A 
ATOM      5  C5  N4B d   1      -2.279   0.432   0.629  0.00  0.00     0.002 A 
ATOM      6  C6  N4B d   1      -1.090   1.119   0.489  0.00  0.00     0.002 A 
ENDROOT
BRANCH   1   7
ATOM      7  C1' N4B d   1       1.351   1.208   0.128  0.00  0.00     0.057 C 
BRANCH   7   8
ATOM      8  C2' N4B d   1       2.422   0.436   0.893  0.00  0.00     0.009 C 
BRANCH   8   9
ATOM      9  C3' N4B d   1       3.396   1.363   1.599  0.00  0.00     0.004 C 
ATOM     10  C4' N4B d   1       4.148   0.683   2.704  0.00  0.00     0.003 C 
ENDBRANCH   8   9
ENDBRANCH   7   8
ENDBRANCH   1   7
TORSDOF 3
ENDMDL
