MODEL 1
REMARK minimizedAffinity -4.80286551
REMARK minimizedRMSD -1
REMARK  3 active torsions:
REMARK  status: ('A' for Active; 'I' for Inactive)
REMARK    1  A    between atoms: C3'_2  and  C2'_3 
REMARK    2  A    between atoms: C2'_3  and  C1'_4 
REMARK    3  A    between atoms: C1'_4  and  C1_5 
ROOT
ATOM      1  C1  N4B d   1       0.430  -0.828   0.527  0.00  0.00    -0.075 A 
ATOM      2  C2  N4B d   1      -0.206  -0.350  -0.640  0.00  0.00     0.002 A 
ATOM      3  C3  N4B d   1      -1.493  -0.733  -0.927  0.00  0.00     0.002 A 
ATOM      4  C4  N4B d   1      -2.155  -1.604  -0.075  0.00  0.00    -0.004 A 
ATOM      5  C5  N4B d   1      -1.544  -2.041   1.063  0.00  0.00     0.002 A 
ATOM      6  C6  N4B d   1      -0.252  -1.661   1.366  0.00  0.00     0.002 A 
ENDROOT
BRANCH   1   7
ATOM      7  C1' N4B d   1       1.866  -0.506   0.838  0.00  0.00     0.057 C 
BRANCH   7   8
ATOM      8  C2' N4B d   1       2.072   1.003   0.746  0.00  0.00     0.009 C 
BRANCH   8   9
ATOM      9  C3' N4B d   1       3.339   1.448   1.455  0.00  0.00     0.004 C 
ATOM     10  C4' N4B d   1       3.927   0.374   2.322  0.00  0.00     0.003 C 
ENDBRANCH   8   9
ENDBRANCH   7   8
ENDBRANCH   1   7
TORSDOF 3
ENDMDL
