MODEL 1
REMARK minimizedAffinity -6.04843092
REMARK minimizedRMSD -1
REMARK  3 active torsions:
REMARK  status: ('A' for Active; 'I' for Inactive)
REMARK    1  A    between atoms: C3'_2  and  C2'_3 
REMARK    2  A    between atoms: C2'_3  and  C1'_4 
REMARK    3  A    between atoms: C1'_4  and  C1_5 
ROOT
ATOM      1  C1  N4B d   1       0.931  -1.260   0.906  0.00  0.00    -0.075 A 
ATOM      2  C2  N4B d   1       0.351  -2.503   1.242  0.00  0.00     0.002 A 
ATOM      3  C3  N4B d   1      -1.001  -2.693   1.092  0.00  0.00     0.002 A 
ATOM      4  C4  N4B d   1      -1.792  -1.653   0.627  0.00  0.00    -0.004 A 
ATOM      5  C5  N4B d   1      -1.220  -0.464   0.281  0.00  0.00     0.002 A 
ATOM      6  C6  N4B d   1       0.138  -0.260   0.423  0.00  0.00     0.002 A 
ENDROOT
BRANCH   1   7
ATOM      7  C1' N4B d   1       2.391  -0.977   1.134  0.00  0.00     0.057 C 
BRANCH   7   8
ATOM      8  C2' N4B d   1       2.559   0.478   1.559  0.00  0.00     0.009 C 
BRANCH   8   9
ATOM      9  C3' N4B d   1       3.986   0.788   1.977  0.00  0.00     0.004 C 
ATOM     10  C4' N4B d   1       4.864  -0.428   1.986  0.00  0.00     0.003 C 
ENDBRANCH   8   9
ENDBRANCH   7   8
ENDBRANCH   1   7
TORSDOF 3
ENDMDL
