MODEL 1
REMARK minimizedAffinity -4.247859
REMARK minimizedRMSD -1
REMARK  3 active torsions:
REMARK  status: ('A' for Active; 'I' for Inactive)
REMARK    1  A    between atoms: C3'_2  and  C2'_3 
REMARK    2  A    between atoms: C2'_3  and  C1'_4 
REMARK    3  A    between atoms: C1'_4  and  C1_5 
ROOT
ATOM      1  C1  N4B d   1      -0.020  -0.377   0.422  0.00  0.00    -0.075 A 
ATOM      2  C2  N4B d   1       0.635  -1.403   1.137  0.00  0.00     0.002 A 
ATOM      3  C3  N4B d   1      -0.042  -2.554   1.460  0.00  0.00     0.002 A 
ATOM      4  C4  N4B d   1      -1.373  -2.692   1.097  0.00  0.00    -0.004 A 
ATOM      5  C5  N4B d   1      -1.990  -1.707   0.383  0.00  0.00     0.002 A 
ATOM      6  C6  N4B d   1      -1.322  -0.547   0.049  0.00  0.00     0.002 A 
ENDROOT
BRANCH   1   7
ATOM      7  C1' N4B d   1       0.652   0.935   0.121  0.00  0.00     0.057 C 
BRANCH   7   8
ATOM      8  C2' N4B d   1       0.221   1.413  -1.262  0.00  0.00     0.009 C 
BRANCH   8   9
ATOM      9  C3' N4B d   1       1.359   2.087  -2.010  0.00  0.00     0.004 C 
ATOM     10  C4' N4B d   1       0.883   2.915  -3.167  0.00  0.00     0.003 C 
ENDBRANCH   8   9
ENDBRANCH   7   8
ENDBRANCH   1   7
TORSDOF 3
ENDMDL
