MODEL 1
REMARK minimizedAffinity -6.06245613
REMARK minimizedRMSD -1
REMARK  3 active torsions:
REMARK  status: ('A' for Active; 'I' for Inactive)
REMARK    1  A    between atoms: C3'_2  and  C2'_3 
REMARK    2  A    between atoms: C2'_3  and  C1'_4 
REMARK    3  A    between atoms: C1'_4  and  C1_5 
ROOT
ATOM      1  C1  N4B d   1       0.887  -1.036   0.790  0.00  0.00    -0.075 A 
ATOM      2  C2  N4B d   1       0.167  -2.066   1.434  0.00  0.00     0.002 A 
ATOM      3  C3  N4B d   1      -1.181  -2.205   1.209  0.00  0.00     0.002 A 
ATOM      4  C4  N4B d   1      -1.830  -1.319   0.363  0.00  0.00    -0.004 A 
ATOM      5  C5  N4B d   1      -1.123  -0.342  -0.275  0.00  0.00     0.002 A 
ATOM      6  C6  N4B d   1       0.233  -0.193  -0.061  0.00  0.00     0.002 A 
ENDROOT
BRANCH   1   7
ATOM      7  C1' N4B d   1       2.344  -0.791   1.071  0.00  0.00     0.057 C 
BRANCH   7   8
ATOM      8  C2' N4B d   1       2.560   0.696   1.340  0.00  0.00     0.009 C 
BRANCH   8   9
ATOM      9  C3' N4B d   1       3.629   0.934   2.392  0.00  0.00     0.004 C 
ATOM     10  C4' N4B d   1       4.628  -0.182   2.468  0.00  0.00     0.003 C 
ENDBRANCH   8   9
ENDBRANCH   7   8
ENDBRANCH   1   7
TORSDOF 3
ENDMDL
