MODEL 1
REMARK minimizedAffinity -2.00460029
REMARK minimizedRMSD -1
REMARK  3 active torsions:
REMARK  status: ('A' for Active; 'I' for Inactive)
REMARK    1  A    between atoms: C3'_2  and  C2'_3 
REMARK    2  A    between atoms: C2'_3  and  C1'_4 
REMARK    3  A    between atoms: C1'_4  and  C1_5 
ROOT
ATOM      1  C1  N4B d   1       1.726   0.384   0.376  0.00  0.00    -0.075 A 
ATOM      2  C2  N4B d   1       0.606   1.204   0.115  0.00  0.00     0.002 A 
ATOM      3  C3  N4B d   1      -0.646   0.647   0.024  0.00  0.00     0.002 A 
ATOM      4  C4  N4B d   1      -0.799  -0.723   0.171  0.00  0.00    -0.004 A 
ATOM      5  C5  N4B d   1       0.284  -1.505   0.448  0.00  0.00     0.002 A 
ATOM      6  C6  N4B d   1       1.548  -0.958   0.546  0.00  0.00     0.002 A 
ENDROOT
BRANCH   1   7
ATOM      7  C1' N4B d   1       3.126   0.935   0.398  0.00  0.00     0.057 C 
BRANCH   7   8
ATOM      8  C2' N4B d   1       3.481   1.342   1.825  0.00  0.00     0.009 C 
BRANCH   8   9
ATOM      9  C3' N4B d   1       4.235   0.246   2.558  0.00  0.00     0.004 C 
ATOM     10  C4' N4B d   1       5.122  -0.554   1.652  0.00  0.00     0.003 C 
ENDBRANCH   8   9
ENDBRANCH   7   8
ENDBRANCH   1   7
TORSDOF 3
ENDMDL
