MODEL 1
REMARK minimizedAffinity -5.17458534
REMARK minimizedRMSD -1
REMARK  0 active torsions:
REMARK  status: ('A' for Active; 'I' for Inactive)
ROOT
ATOM      1  C4' PXY d   1       1.210  -2.408   1.149  0.00  0.00     0.077 C 
ATOM      2  C1' PXY d   1      -1.001   2.241  -1.481  0.00  0.00     0.077 C 
ATOM      3  C1  PXY d   1      -0.411   1.022  -0.799  0.00  0.00    -0.082 A 
ATOM      4  C2  PXY d   1      -1.206   0.184  -0.156  0.00  0.00     0.003 A 
ATOM      5  C3  PXY d   1      -0.686  -0.906   0.493  0.00  0.00     0.003 A 
ATOM      6  C4  PXY d   1       0.657  -1.169   0.438  0.00  0.00    -0.082 A 
ATOM      7  C5  PXY d   1       1.474  -0.324  -0.226  0.00  0.00     0.003 A 
ATOM      8  C6  PXY d   1       0.931   0.799  -0.843  0.00  0.00     0.003 A 
ENDROOT
TORSDOF 0
ENDMDL
