MODEL 1
REMARK minimizedAffinity -4.63864756
REMARK minimizedRMSD -1
REMARK  0 active torsions:
REMARK  status: ('A' for Active; 'I' for Inactive)
ROOT
ATOM      1  C4' PXY d   1      -0.746   2.010  -1.173  0.00  0.00     0.077 C 
ATOM      2  C1' PXY d   1       1.211  -2.928   1.107  0.00  0.00     0.077 C 
ATOM      3  C1  PXY d   1       0.710  -1.628   0.509  0.00  0.00    -0.082 A 
ATOM      4  C2  PXY d   1      -0.562  -1.291   0.649  0.00  0.00     0.003 A 
ATOM      5  C3  PXY d   1      -1.039  -0.135   0.088  0.00  0.00     0.003 A 
ATOM      6  C4  PXY d   1      -0.194   0.712  -0.578  0.00  0.00    -0.082 A 
ATOM      7  C5  PXY d   1       1.107   0.381  -0.716  0.00  0.00     0.003 A 
ATOM      8  C6  PXY d   1       1.563  -0.818  -0.175  0.00  0.00     0.003 A 
ENDROOT
TORSDOF 0
ENDMDL
