MODEL 1
REMARK minimizedAffinity -4.02252579
REMARK minimizedRMSD -1
REMARK  0 active torsions:
REMARK  status: ('A' for Active; 'I' for Inactive)
ROOT
ATOM      1  C4' PXY d   1       1.468  -2.072   1.380  0.00  0.00     0.077 C 
ATOM      2  C1' PXY d   1      -1.117   2.236  -1.480  0.00  0.00     0.077 C 
ATOM      3  C1  PXY d   1      -0.429   1.107  -0.738  0.00  0.00    -0.082 A 
ATOM      4  C2  PXY d   1      -1.154   0.231  -0.061  0.00  0.00     0.003 A 
ATOM      5  C3  PXY d   1      -0.546  -0.777   0.642  0.00  0.00     0.003 A 
ATOM      6  C4  PXY d   1       0.815  -0.921   0.608  0.00  0.00    -0.082 A 
ATOM      7  C5  PXY d   1       1.561  -0.038  -0.089  0.00  0.00     0.003 A 
ATOM      8  C6  PXY d   1       0.928   1.002  -0.762  0.00  0.00     0.003 A 
ENDROOT
TORSDOF 0
ENDMDL
