MODEL 1
REMARK minimizedAffinity -2.9285605
REMARK minimizedRMSD -1
REMARK  0 active torsions:
REMARK  status: ('A' for Active; 'I' for Inactive)
ROOT
ATOM      1  C4' PXY d   1      -1.225   1.344  -0.854  0.00  0.00     0.077 C 
ATOM      2  C1' PXY d   1       1.726  -3.240   1.068  0.00  0.00     0.077 C 
ATOM      3  C1  PXY d   1       0.963  -2.031   0.565  0.00  0.00    -0.082 A 
ATOM      4  C2  PXY d   1      -0.353  -1.984   0.701  0.00  0.00     0.003 A 
ATOM      5  C3  PXY d   1      -1.062  -0.912   0.223  0.00  0.00     0.003 A 
ATOM      6  C4  PXY d   1      -0.412   0.147  -0.352  0.00  0.00    -0.082 A 
ATOM      7  C5  PXY d   1       0.931   0.112  -0.484  0.00  0.00     0.003 A 
ATOM      8  C6  PXY d   1       1.628  -1.003  -0.030  0.00  0.00     0.003 A 
ENDROOT
TORSDOF 0
ENDMDL
