MODEL 1
REMARK minimizedAffinity -1.72293282
REMARK minimizedRMSD -1
REMARK  0 active torsions:
REMARK  status: ('A' for Active; 'I' for Inactive)
ROOT
ATOM      1  C4' PXY d   1      -1.422   2.096  -1.076  0.00  0.00     0.077 C 
ATOM      2  C1' PXY d   1       1.823  -2.192   1.046  0.00  0.00     0.077 C 
ATOM      3  C1  PXY d   1       0.961  -1.074   0.493  0.00  0.00    -0.082 A 
ATOM      4  C2  PXY d   1       1.454  -0.263  -0.430  0.00  0.00     0.003 A 
ATOM      5  C3  PXY d   1       0.699   0.772  -0.918  0.00  0.00     0.003 A 
ATOM      6  C4  PXY d   1      -0.591   0.948  -0.496  0.00  0.00    -0.082 A 
ATOM      7  C5  PXY d   1      -1.105   0.119   0.437  0.00  0.00     0.003 A 
ATOM      8  C6  PXY d   1      -0.309  -0.901   0.950  0.00  0.00     0.003 A 
ENDROOT
TORSDOF 0
ENDMDL
