MODEL 1
REMARK minimizedAffinity -5.22858334
REMARK minimizedRMSD -1
REMARK  0 active torsions:
REMARK  status: ('A' for Active; 'I' for Inactive)
ROOT
ATOM      1  C4' PXY d   1      -0.594   2.017  -1.061  0.00  0.00     0.077 C 
ATOM      2  C1' PXY d   1       1.408  -2.900   1.226  0.00  0.00     0.077 C 
ATOM      3  C1  PXY d   1       0.895  -1.605   0.626  0.00  0.00    -0.082 A 
ATOM      4  C2  PXY d   1      -0.370  -1.260   0.801  0.00  0.00     0.003 A 
ATOM      5  C3  PXY d   1      -0.859  -0.109   0.238  0.00  0.00     0.003 A 
ATOM      6  C4  PXY d   1      -0.030   0.724  -0.465  0.00  0.00    -0.082 A 
ATOM      7  C5  PXY d   1       1.265   0.384  -0.638  0.00  0.00     0.003 A 
ATOM      8  C6  PXY d   1       1.731  -0.809  -0.094  0.00  0.00     0.003 A 
ENDROOT
TORSDOF 0
ENDMDL
