MODEL 1
REMARK minimizedAffinity -2.80754828
REMARK minimizedRMSD -1
REMARK  0 active torsions:
REMARK  status: ('A' for Active; 'I' for Inactive)
ROOT
ATOM      1  C4' PXY d   1      -0.759   1.863  -0.571  0.00  0.00     0.077 C 
ATOM      2  C1' PXY d   1       1.473  -3.218   1.045  0.00  0.00     0.077 C 
ATOM      3  C1  PXY d   1       0.900  -1.880   0.622  0.00  0.00    -0.082 A 
ATOM      4  C2  PXY d   1      -0.377  -1.616   0.846  0.00  0.00     0.003 A 
ATOM      5  C3  PXY d   1      -0.920  -0.423   0.441  0.00  0.00     0.003 A 
ATOM      6  C4  PXY d   1      -0.135   0.529  -0.152  0.00  0.00    -0.082 A 
ATOM      7  C5  PXY d   1       1.171   0.271  -0.375  0.00  0.00     0.003 A 
ATOM      8  C6  PXY d   1       1.693  -0.962   0.006  0.00  0.00     0.003 A 
ENDROOT
TORSDOF 0
ENDMDL
