MODEL 1
REMARK minimizedAffinity -4.93405771
REMARK minimizedRMSD -1
REMARK  0 active torsions:
REMARK  status: ('A' for Active; 'I' for Inactive)
ROOT
ATOM      1  C4' PXY d   1      -0.879  -1.448   1.991  0.00  0.00     0.077 C 
ATOM      2  C1' PXY d   1       3.362  -0.125  -1.706  0.00  0.00     0.077 C 
ATOM      3  C1  PXY d   1       2.247  -0.459  -0.736  0.00  0.00    -0.082 A 
ATOM      4  C2  PXY d   1       2.313  -1.571  -0.021  0.00  0.00     0.003 A 
ATOM      5  C3  PXY d   1       1.297  -1.904   0.837  0.00  0.00     0.003 A 
ATOM      6  C4  PXY d   1       0.229  -1.065   1.006  0.00  0.00    -0.082 A 
ATOM      7  C5  PXY d   1       0.159   0.077   0.289  0.00  0.00     0.003 A 
ATOM      8  C6  PXY d   1       1.181   0.377  -0.608  0.00  0.00     0.003 A 
ENDROOT
TORSDOF 0
ENDMDL
