MODEL 1
REMARK minimizedAffinity -3.7607801
REMARK minimizedRMSD -1
REMARK  0 active torsions:
REMARK  status: ('A' for Active; 'I' for Inactive)
ROOT
ATOM      1  C4' PXY d   1       1.602  -2.838   1.145  0.00  0.00     0.077 C 
ATOM      2  C1' PXY d   1      -0.667   2.045  -0.960  0.00  0.00     0.077 C 
ATOM      3  C1  PXY d   1      -0.063   0.764  -0.418  0.00  0.00    -0.082 A 
ATOM      4  C2  PXY d   1      -0.794  -0.031   0.347  0.00  0.00     0.003 A 
ATOM      5  C3  PXY d   1      -0.254  -1.177   0.872  0.00  0.00     0.003 A 
ATOM      6  C4  PXY d   1       1.031  -1.539   0.568  0.00  0.00    -0.082 A 
ATOM      7  C5  PXY d   1       1.779  -0.739  -0.221  0.00  0.00     0.003 A 
ATOM      8  C6  PXY d   1       1.225   0.440  -0.710  0.00  0.00     0.003 A 
ENDROOT
TORSDOF 0
ENDMDL
