MODEL 1
REMARK minimizedAffinity 3.15296173
REMARK minimizedRMSD -1
REMARK  0 active torsions:
REMARK  status: ('A' for Active; 'I' for Inactive)
ROOT
ATOM      1  C4' PXY d   1      -1.678  -2.934   2.136  0.00  0.00     0.077 C 
ATOM      2  C1' PXY d   1      -0.144   0.794  -2.007  0.00  0.00     0.077 C 
ATOM      3  C1  PXY d   1      -0.550  -0.192  -0.930  0.00  0.00    -0.082 A 
ATOM      4  C2  PXY d   1      -0.860   0.250   0.279  0.00  0.00     0.003 A 
ATOM      5  C3  PXY d   1      -1.198  -0.631   1.273  0.00  0.00     0.003 A 
ATOM      6  C4  PXY d   1      -1.271  -1.973   1.015  0.00  0.00    -0.082 A 
ATOM      7  C5  PXY d   1      -0.967  -2.431  -0.218  0.00  0.00     0.003 A 
ATOM      8  C6  PXY d   1      -0.586  -1.524  -1.203  0.00  0.00     0.003 A 
ENDROOT
TORSDOF 0
ENDMDL
