MODEL 1
REMARK minimizedAffinity -4.51908493
REMARK minimizedRMSD -1
REMARK  0 active torsions:
REMARK  status: ('A' for Active; 'I' for Inactive)
ROOT
ATOM      1  C4' PXY d   1      -1.148   1.282  -1.044  0.00  0.00     0.077 C 
ATOM      2  C1' PXY d   1       1.490  -2.985   1.828  0.00  0.00     0.077 C 
ATOM      3  C1  PXY d   1       0.809  -1.861   1.072  0.00  0.00    -0.082 A 
ATOM      4  C2  PXY d   1      -0.432  -1.522   1.381  0.00  0.00     0.003 A 
ATOM      5  C3  PXY d   1      -1.073  -0.529   0.686  0.00  0.00     0.003 A 
ATOM      6  C4  PXY d   1      -0.419   0.159  -0.301  0.00  0.00    -0.082 A 
ATOM      7  C5  PXY d   1       0.851  -0.174  -0.615  0.00  0.00     0.003 A 
ATOM      8  C6  PXY d   1       1.470  -1.212   0.075  0.00  0.00     0.003 A 
ENDROOT
TORSDOF 0
ENDMDL
