MODEL 1
REMARK minimizedAffinity -3.32963228
REMARK minimizedRMSD -1
REMARK  0 active torsions:
REMARK  status: ('A' for Active; 'I' for Inactive)
ROOT
ATOM      1  C4' PXY d   1      -1.266   1.727  -0.996  0.00  0.00     0.077 C 
ATOM      2  C1' PXY d   1       1.389  -2.839   1.354  0.00  0.00     0.077 C 
ATOM      3  C1  PXY d   1       0.704  -1.636   0.736  0.00  0.00    -0.082 A 
ATOM      4  C2  PXY d   1      -0.556  -1.372   1.041  0.00  0.00     0.003 A 
ATOM      5  C3  PXY d   1      -1.200  -0.306   0.467  0.00  0.00     0.003 A 
ATOM      6  C4  PXY d   1      -0.532   0.529  -0.388  0.00  0.00    -0.082 A 
ATOM      7  C5  PXY d   1       0.757   0.272  -0.696  0.00  0.00     0.003 A 
ATOM      8  C6  PXY d   1       1.381  -0.838  -0.134  0.00  0.00     0.003 A 
ENDROOT
TORSDOF 0
ENDMDL
