MODEL 1
REMARK minimizedAffinity -4.05045271
REMARK minimizedRMSD -1
REMARK  0 active torsions:
REMARK  status: ('A' for Active; 'I' for Inactive)
ROOT
ATOM      1  C4' PXY d   1      -0.733   2.256  -1.116  0.00  0.00     0.077 C 
ATOM      2  C1' PXY d   1       1.576  -2.566   1.082  0.00  0.00     0.077 C 
ATOM      3  C1  PXY d   1       0.959  -1.307   0.506  0.00  0.00    -0.082 A 
ATOM      4  C2  PXY d   1       1.717  -0.453  -0.163  0.00  0.00     0.003 A 
ATOM      5  C3  PXY d   1       1.182   0.705  -0.663  0.00  0.00     0.003 A 
ATOM      6  C4  PXY d   1      -0.155   0.968  -0.524  0.00  0.00    -0.082 A 
ATOM      7  C5  PXY d   1      -0.937   0.097   0.147  0.00  0.00     0.003 A 
ATOM      8  C6  PXY d   1      -0.366  -1.054   0.683  0.00  0.00     0.003 A 
ENDROOT
TORSDOF 0
ENDMDL
