MODEL 1
REMARK minimizedAffinity -3.58864903
REMARK minimizedRMSD -1
REMARK  0 active torsions:
REMARK  status: ('A' for Active; 'I' for Inactive)
ROOT
ATOM      1  C4' PXY d   1      -1.433   2.192  -1.753  0.00  0.00     0.077 C 
ATOM      2  C1' PXY d   1       1.586  -1.810   1.124  0.00  0.00     0.077 C 
ATOM      3  C1  PXY d   1       0.783  -0.765   0.376  0.00  0.00    -0.082 A 
ATOM      4  C2  PXY d   1       1.239  -0.287  -0.771  0.00  0.00     0.003 A 
ATOM      5  C3  PXY d   1       0.542   0.682  -1.445  0.00  0.00     0.003 A 
ATOM      6  C4  PXY d   1      -0.661   1.128  -0.968  0.00  0.00    -0.082 A 
ATOM      7  C5  PXY d   1      -1.139   0.638   0.196  0.00  0.00     0.003 A 
ATOM      8  C6  PXY d   1      -0.396  -0.315   0.886  0.00  0.00     0.003 A 
ENDROOT
TORSDOF 0
ENDMDL
