MODEL 1
REMARK minimizedAffinity -5.91423845
REMARK minimizedRMSD -1
REMARK  0 active torsions:
REMARK  status: ('A' for Active; 'I' for Inactive)
ROOT
ATOM      1  C4' PXY d   1      -1.554   1.769  -1.178  0.00  0.00     0.077 C 
ATOM      2  C1' PXY d   1       1.759  -2.488   0.898  0.00  0.00     0.077 C 
ATOM      3  C1  PXY d   1       0.901  -1.364   0.352  0.00  0.00    -0.082 A 
ATOM      4  C2  PXY d   1      -0.381  -1.304   0.674  0.00  0.00     0.003 A 
ATOM      5  C3  PXY d   1      -1.179  -0.313   0.164  0.00  0.00     0.003 A 
ATOM      6  C4  PXY d   1      -0.648   0.657  -0.643  0.00  0.00    -0.082 A 
ATOM      7  C5  PXY d   1       0.662   0.609  -0.968  0.00  0.00     0.003 A 
ATOM      8  C6  PXY d   1       1.446  -0.429  -0.472  0.00  0.00     0.003 A 
ENDROOT
TORSDOF 0
ENDMDL
