MODEL 1
REMARK minimizedAffinity -3.13580632
REMARK minimizedRMSD -1
REMARK  0 active torsions:
REMARK  status: ('A' for Active; 'I' for Inactive)
ROOT
ATOM      1  C4' PXY d   1      -0.990   1.769  -0.502  0.00  0.00     0.077 C 
ATOM      2  C1' PXY d   1       1.570  -3.122   1.214  0.00  0.00     0.077 C 
ATOM      3  C1  PXY d   1       0.910  -1.834   0.762  0.00  0.00    -0.082 A 
ATOM      4  C2  PXY d   1      -0.320  -1.554   1.160  0.00  0.00     0.003 A 
ATOM      5  C3  PXY d   1      -0.943  -0.409   0.735  0.00  0.00     0.003 A 
ATOM      6  C4  PXY d   1      -0.281   0.485  -0.063  0.00  0.00    -0.082 A 
ATOM      7  C5  PXY d   1       0.978   0.212  -0.466  0.00  0.00     0.003 A 
ATOM      8  C6  PXY d   1       1.578  -0.976  -0.057  0.00  0.00     0.003 A 
ENDROOT
TORSDOF 0
ENDMDL
