MODEL 1
REMARK minimizedAffinity -3.93509889
REMARK minimizedRMSD -1
REMARK  0 active torsions:
REMARK  status: ('A' for Active; 'I' for Inactive)
ROOT
ATOM      1  C4' PXY d   1       1.430  -2.981   0.927  0.00  0.00     0.077 C 
ATOM      2  C1' PXY d   1      -0.689   2.110  -0.808  0.00  0.00     0.077 C 
ATOM      3  C1  PXY d   1      -0.124   0.775  -0.362  0.00  0.00    -0.082 A 
ATOM      4  C2  PXY d   1      -0.901  -0.082   0.279  0.00  0.00     0.003 A 
ATOM      5  C3  PXY d   1      -0.398  -1.280   0.718  0.00  0.00     0.003 A 
ATOM      6  C4  PXY d   1       0.900  -1.626   0.450  0.00  0.00    -0.082 A 
ATOM      7  C5  PXY d   1       1.696  -0.761  -0.213  0.00  0.00     0.003 A 
ATOM      8  C6  PXY d   1       1.177   0.467  -0.613  0.00  0.00     0.003 A 
ENDROOT
TORSDOF 0
ENDMDL
