MODEL 1
REMARK minimizedAffinity -5.47500038
REMARK minimizedRMSD -1
REMARK  0 active torsions:
REMARK  status: ('A' for Active; 'I' for Inactive)
ROOT
ATOM      1  C4' PXY d   1      -0.877   2.400  -1.524  0.00  0.00     0.077 C 
ATOM      2  C1' PXY d   1       1.738  -2.179   0.845  0.00  0.00     0.077 C 
ATOM      3  C1  PXY d   1       1.040  -0.983   0.227  0.00  0.00    -0.082 A 
ATOM      4  C2  PXY d   1       1.659  -0.273  -0.702  0.00  0.00     0.003 A 
ATOM      5  C3  PXY d   1       1.056   0.830  -1.249  0.00  0.00     0.003 A 
ATOM      6  C4  PXY d   1      -0.215   1.179  -0.879  0.00  0.00    -0.082 A 
ATOM      7  C5  PXY d   1      -0.857   0.454   0.061  0.00  0.00     0.003 A 
ATOM      8  C6  PXY d   1      -0.211  -0.638   0.633  0.00  0.00     0.003 A 
ENDROOT
TORSDOF 0
ENDMDL
