MODEL 1
REMARK minimizedAffinity -6.1362958
REMARK minimizedRMSD -1
REMARK  0 active torsions:
REMARK  status: ('A' for Active; 'I' for Inactive)
ROOT
ATOM      1  C4' PXY d   1       0.692  -3.911   2.880  0.00  0.00     0.077 C 
ATOM      2  C1' PXY d   1      -0.087   0.258  -1.048  0.00  0.00     0.077 C 
ATOM      3  C1  PXY d   1       0.114  -0.827  -0.008  0.00  0.00    -0.082 A 
ATOM      4  C2  PXY d   1       0.897  -1.857  -0.282  0.00  0.00     0.003 A 
ATOM      5  C3  PXY d   1       1.065  -2.864   0.635  0.00  0.00     0.003 A 
ATOM      6  C4  PXY d   1       0.467  -2.788   1.864  0.00  0.00    -0.082 A 
ATOM      7  C5  PXY d   1      -0.325  -1.734   2.155  0.00  0.00     0.003 A 
ATOM      8  C6  PXY d   1      -0.515  -0.744   1.195  0.00  0.00     0.003 A 
ENDROOT
TORSDOF 0
ENDMDL
