MODEL 1
REMARK minimizedAffinity -4.33332825
REMARK minimizedRMSD -1
REMARK  0 active torsions:
REMARK  status: ('A' for Active; 'I' for Inactive)
ROOT
ATOM      1  C4' PXY d   1      -1.761   1.326  -1.489  0.00  0.00     0.077 C 
ATOM      2  C1' PXY d   1       1.462  -2.812   0.941  0.00  0.00     0.077 C 
ATOM      3  C1  PXY d   1       0.607  -1.729   0.312  0.00  0.00    -0.082 A 
ATOM      4  C2  PXY d   1       0.857  -1.335  -0.926  0.00  0.00     0.003 A 
ATOM      5  C3  PXY d   1       0.114  -0.335  -1.499  0.00  0.00     0.003 A 
ATOM      6  C4  PXY d   1      -0.930   0.230  -0.817  0.00  0.00    -0.082 A 
ATOM      7  C5  PXY d   1      -1.199  -0.174   0.443  0.00  0.00     0.003 A 
ATOM      8  C6  PXY d   1      -0.406  -1.162   1.021  0.00  0.00     0.003 A 
ENDROOT
TORSDOF 0
ENDMDL
