MODEL 1
REMARK minimizedAffinity -0.739353776
REMARK minimizedRMSD -1
REMARK  0 active torsions:
REMARK  status: ('A' for Active; 'I' for Inactive)
ROOT
ATOM      1  C   UNL d   1      -2.645  -0.765   2.944  0.00  0.00    -0.002 A 
ATOM      2  C1  UNL d   1      -3.077  -1.337   1.755  0.00  0.00     0.010 A 
ATOM      3  C2  UNL d   1      -2.322  -1.205   0.588  0.00  0.00     0.041 A 
ATOM      4  C3  UNL d   1      -1.112  -0.484   0.637  0.00  0.00    -0.075 A 
ATOM      5  S   UNL d   1      -0.022  -0.194  -0.667  0.00  0.00     0.015 SA
ATOM      6  C4  UNL d   1       1.043   0.694   0.324  0.00  0.00     0.022 A 
ATOM      7  C5  UNL d   1       0.593   0.777   1.620  0.00  0.00     0.026 A 
ATOM      8  C6  UNL d   1      -0.656   0.099   1.822  0.00  0.00    -0.082 A 
ATOM      9  C7  UNL d   1      -1.445  -0.051   2.988  0.00  0.00     0.045 A 
ENDROOT
TORSDOF 0
ENDMDL
