MODEL 1
REMARK minimizedAffinity -2.79297447
REMARK minimizedRMSD -1
REMARK  0 active torsions:
REMARK  status: ('A' for Active; 'I' for Inactive)
ROOT
ATOM      1  C   UNL d   1      -1.102   1.317   2.474  0.00  0.00    -0.002 A 
ATOM      2  C1  UNL d   1       0.284   1.323   2.547  0.00  0.00     0.010 A 
ATOM      3  C2  UNL d   1       1.054   0.863   1.477  0.00  0.00     0.041 A 
ATOM      4  C3  UNL d   1       0.401   0.393   0.320  0.00  0.00    -0.075 A 
ATOM      5  S   UNL d   1       1.138  -0.217  -1.114  0.00  0.00     0.015 SA
ATOM      6  C4  UNL d   1      -0.370  -0.500  -1.858  0.00  0.00     0.022 A 
ATOM      7  C5  UNL d   1      -1.420  -0.144  -1.046  0.00  0.00     0.026 A 
ATOM      8  C6  UNL d   1      -0.993   0.378   0.223  0.00  0.00    -0.082 A 
ATOM      9  C7  UNL d   1      -1.746   0.850   1.325  0.00  0.00     0.045 A 
ENDROOT
TORSDOF 0
ENDMDL
