MODEL 1
REMARK minimizedAffinity -1.91846716
REMARK minimizedRMSD -1
REMARK  0 active torsions:
REMARK  status: ('A' for Active; 'I' for Inactive)
ROOT
ATOM      1  C   UNL d   1      -0.724   1.253   2.742  0.00  0.00    -0.002 A 
ATOM      2  C1  UNL d   1       0.656   1.170   2.865  0.00  0.00     0.010 A 
ATOM      3  C2  UNL d   1       1.427   0.603   1.848  0.00  0.00     0.041 A 
ATOM      4  C3  UNL d   1       0.782   0.118   0.693  0.00  0.00    -0.075 A 
ATOM      5  S   UNL d   1       1.521  -0.616  -0.680  0.00  0.00     0.015 SA
ATOM      6  C4  UNL d   1       0.023  -0.835  -1.463  0.00  0.00     0.022 A 
ATOM      7  C5  UNL d   1      -1.026  -0.366  -0.709  0.00  0.00     0.026 A 
ATOM      8  C6  UNL d   1      -0.607   0.191   0.546  0.00  0.00    -0.082 A 
ATOM      9  C7  UNL d   1      -1.360   0.771   1.595  0.00  0.00     0.045 A 
ENDROOT
TORSDOF 0
ENDMDL
