MODEL 1
REMARK minimizedAffinity -0.00639931858
REMARK minimizedRMSD -1
REMARK  0 active torsions:
REMARK  status: ('A' for Active; 'I' for Inactive)
ROOT
ATOM      1  C   UNL d   1       0.670   0.198  -1.236  0.00  0.00    -0.002 A 
ATOM      2  C1  UNL d   1      -0.423  -0.658  -1.221  0.00  0.00     0.010 A 
ATOM      3  C2  UNL d   1      -1.223  -0.768  -0.083  0.00  0.00     0.041 A 
ATOM      4  C3  UNL d   1      -0.905   0.005   1.052  0.00  0.00    -0.075 A 
ATOM      5  S   UNL d   1      -1.743   0.034   2.558  0.00  0.00     0.015 SA
ATOM      6  C4  UNL d   1      -0.671   1.184   3.217  0.00  0.00     0.022 A 
ATOM      7  C5  UNL d   1       0.309   1.547   2.324  0.00  0.00     0.026 A 
ATOM      8  C6  UNL d   1       0.190   0.874   1.061  0.00  0.00    -0.082 A 
ATOM      9  C7  UNL d   1       0.982   0.962  -0.109  0.00  0.00     0.045 A 
ENDROOT
TORSDOF 0
ENDMDL
