MODEL 1
REMARK minimizedAffinity -1.8516103
REMARK minimizedRMSD -1
REMARK  0 active torsions:
REMARK  status: ('A' for Active; 'I' for Inactive)
ROOT
ATOM      1  C   UNL d   1      -2.251   0.960   1.716  0.00  0.00    -0.002 A 
ATOM      2  C1  UNL d   1      -1.127   1.676   2.103  0.00  0.00     0.010 A 
ATOM      3  C2  UNL d   1       0.096   1.479   1.460  0.00  0.00     0.041 A 
ATOM      4  C3  UNL d   1       0.172   0.541   0.411  0.00  0.00    -0.075 A 
ATOM      5  S   UNL d   1       1.564   0.134  -0.521  0.00  0.00     0.015 SA
ATOM      6  C4  UNL d   1       0.699  -1.000  -1.455  0.00  0.00     0.022 A 
ATOM      7  C5  UNL d   1      -0.621  -1.079  -1.078  0.00  0.00     0.026 A 
ATOM      8  C6  UNL d   1      -0.947  -0.191   0.003  0.00  0.00    -0.082 A 
ATOM      9  C7  UNL d   1      -2.173   0.031   0.675  0.00  0.00     0.045 A 
ENDROOT
TORSDOF 0
ENDMDL
