MODEL 1
REMARK minimizedAffinity 0.0378248468
REMARK minimizedRMSD -1
REMARK  0 active torsions:
REMARK  status: ('A' for Active; 'I' for Inactive)
ROOT
ATOM      1  C   UNL d   1       0.126  -0.695   0.055  0.00  0.00    -0.002 A 
ATOM      2  C1  UNL d   1      -0.932   0.118  -0.328  0.00  0.00     0.010 A 
ATOM      3  C2  UNL d   1      -0.953   0.707  -1.594  0.00  0.00     0.041 A 
ATOM      4  C3  UNL d   1       0.117   0.463  -2.477  0.00  0.00    -0.075 A 
ATOM      5  S   UNL d   1       0.305   1.077  -4.077  0.00  0.00     0.015 SA
ATOM      6  C4  UNL d   1       1.794   0.275  -4.290  0.00  0.00     0.022 A 
ATOM      7  C5  UNL d   1       2.154  -0.449  -3.177  0.00  0.00     0.026 A 
ATOM      8  C6  UNL d   1       1.193  -0.353  -2.114  0.00  0.00    -0.082 A 
ATOM      9  C7  UNL d   1       1.185  -0.935  -0.824  0.00  0.00     0.045 A 
ENDROOT
TORSDOF 0
ENDMDL
