MODEL 1
REMARK minimizedAffinity 1.24172819
REMARK minimizedRMSD -1
REMARK  0 active torsions:
REMARK  status: ('A' for Active; 'I' for Inactive)
ROOT
ATOM      1  C   UNL d   1       2.249  -0.151   1.818  0.00  0.00    -0.002 A 
ATOM      2  C1  UNL d   1       1.177   0.552   2.351  0.00  0.00     0.010 A 
ATOM      3  C2  UNL d   1      -0.012   0.687   1.631  0.00  0.00     0.041 A 
ATOM      4  C3  UNL d   1      -0.107   0.097   0.356  0.00  0.00    -0.075 A 
ATOM      5  S   UNL d   1      -1.465   0.131  -0.706  0.00  0.00     0.015 SA
ATOM      6  C4  UNL d   1      -0.655  -0.788  -1.892  0.00  0.00     0.022 A 
ATOM      7  C5  UNL d   1       0.622  -1.120  -1.503  0.00  0.00     0.026 A 
ATOM      8  C6  UNL d   1       0.958  -0.617  -0.201  0.00  0.00    -0.082 A 
ATOM      9  C7  UNL d   1       2.150  -0.735   0.553  0.00  0.00     0.045 A 
ENDROOT
TORSDOF 0
ENDMDL
