MODEL 1
REMARK minimizedAffinity -0.300481498
REMARK minimizedRMSD -1
REMARK  0 active torsions:
REMARK  status: ('A' for Active; 'I' for Inactive)
ROOT
ATOM      1  C   UNL d   1      -0.785   1.242   2.060  0.00  0.00    -0.002 A 
ATOM      2  C1  UNL d   1      -1.773   0.917   1.142  0.00  0.00     0.010 A 
ATOM      3  C2  UNL d   1      -1.451   0.249  -0.042  0.00  0.00     0.041 A 
ATOM      4  C3  UNL d   1      -0.106  -0.091  -0.288  0.00  0.00    -0.075 A 
ATOM      5  S   UNL d   1       0.523  -0.910  -1.668  0.00  0.00     0.015 SA
ATOM      6  C4  UNL d   1       2.118  -0.849  -1.070  0.00  0.00     0.022 A 
ATOM      7  C5  UNL d   1       2.187  -0.221   0.151  0.00  0.00     0.026 A 
ATOM      8  C6  UNL d   1       0.907   0.225   0.622  0.00  0.00    -0.082 A 
ATOM      9  C7  UNL d   1       0.548   0.903   1.812  0.00  0.00     0.045 A 
ENDROOT
TORSDOF 0
ENDMDL
