MODEL 1
REMARK minimizedAffinity -2.47809815
REMARK minimizedRMSD -1
REMARK  0 active torsions:
REMARK  status: ('A' for Active; 'I' for Inactive)
ROOT
ATOM      1  C   UNL d   1       1.450  -1.183  -0.607  0.00  0.00    -0.002 A 
ATOM      2  C1  UNL d   1       2.065  -0.915   0.608  0.00  0.00     0.010 A 
ATOM      3  C2  UNL d   1       1.346  -0.337   1.656  0.00  0.00     0.041 A 
ATOM      4  C3  UNL d   1      -0.015  -0.032   1.462  0.00  0.00    -0.075 A 
ATOM      5  S   UNL d   1      -1.095   0.678   2.604  0.00  0.00     0.015 SA
ATOM      6  C4  UNL d   1      -2.398   0.641   1.506  0.00  0.00     0.022 A 
ATOM      7  C5  UNL d   1      -2.037   0.104   0.293  0.00  0.00     0.026 A 
ATOM      8  C6  UNL d   1      -0.657  -0.294   0.248  0.00  0.00    -0.082 A 
ATOM      9  C7  UNL d   1       0.099  -0.879  -0.796  0.00  0.00     0.045 A 
ENDROOT
TORSDOF 0
ENDMDL
