MODEL 1
REMARK minimizedAffinity -3.4827683
REMARK minimizedRMSD -1
REMARK  0 active torsions:
REMARK  status: ('A' for Active; 'I' for Inactive)
ROOT
ATOM      1  C   UNL d   1       0.049   1.676   2.346  0.00  0.00    -0.002 A 
ATOM      2  C1  UNL d   1      -1.269   1.329   2.609  0.00  0.00     0.010 A 
ATOM      3  C2  UNL d   1      -1.960   0.467   1.756  0.00  0.00     0.041 A 
ATOM      4  C3  UNL d   1      -1.297  -0.049   0.624  0.00  0.00    -0.075 A 
ATOM      5  S   UNL d   1      -1.943  -1.122  -0.560  0.00  0.00     0.015 SA
ATOM      6  C4  UNL d   1      -0.485  -1.148  -1.441  0.00  0.00     0.022 A 
ATOM      7  C5  UNL d   1       0.482  -0.361  -0.861  0.00  0.00     0.026 A 
ATOM      8  C6  UNL d   1       0.030   0.285   0.340  0.00  0.00    -0.082 A 
ATOM      9  C7  UNL d   1       0.703   1.162   1.223  0.00  0.00     0.045 A 
ENDROOT
TORSDOF 0
ENDMDL
