MODEL 1
REMARK minimizedAffinity -2.04594612
REMARK minimizedRMSD -1
REMARK  0 active torsions:
REMARK  status: ('A' for Active; 'I' for Inactive)
ROOT
ATOM      1  C   UNL d   1      -2.438   0.242   2.904  0.00  0.00    -0.002 A 
ATOM      2  C1  UNL d   1      -3.102  -0.418   1.880  0.00  0.00     0.010 A 
ATOM      3  C2  UNL d   1      -2.467  -0.655   0.659  0.00  0.00     0.041 A 
ATOM      4  C3  UNL d   1      -1.141  -0.213   0.483  0.00  0.00    -0.075 A 
ATOM      5  S   UNL d   1      -0.164  -0.393  -0.926  0.00  0.00     0.015 SA
ATOM      6  C4  UNL d   1       1.158   0.402  -0.202  0.00  0.00     0.022 A 
ATOM      7  C5  UNL d   1       0.878   0.802   1.084  0.00  0.00     0.026 A 
ATOM      8  C6  UNL d   1      -0.451   0.453   1.500  0.00  0.00    -0.082 A 
ATOM      9  C7  UNL d   1      -1.122   0.678   2.726  0.00  0.00     0.045 A 
ENDROOT
TORSDOF 0
ENDMDL
