MODEL 1
REMARK minimizedAffinity 6.74260092
REMARK minimizedRMSD -1
REMARK  1 active torsions:
REMARK  status: ('A' for Active; 'I' for Inactive)
REMARK    1  A    between atoms: N_2  and  C1_3 
ROOT
ATOM      1  C1  UNL d   1       3.378   1.384   0.759  0.00  0.00     0.143 A 
ATOM      2  C2  UNL d   1       4.489   2.128   0.348  0.00  0.00    -0.057 A 
ATOM      3  C3  UNL d   1       5.787   1.613   0.452  0.00  0.00     0.033 A 
ATOM      4  C4  UNL d   1       5.999   0.351   0.999  0.00  0.00    -0.042 A 
ATOM      5  C5  UNL d   1       4.912  -0.396   1.437  0.00  0.00     0.033 A 
ATOM      6  C6  UNL d   1       3.618   0.122   1.324  0.00  0.00    -0.057 A 
ENDROOT
BRANCH   1   7
ATOM      7  N   UNL d   1       2.072   1.880   0.773  0.00  0.00    -0.732 N 
ATOM      8  C   UNL d   1       1.207   1.647   1.909  0.00  0.00     0.284 C 
ATOM      9  H3  UNL d   1       2.009   2.819   0.388  0.00  0.00     0.395 HD
ENDBRANCH   1   7
TORSDOF 1
ENDMDL
