MODEL 1
REMARK minimizedAffinity 4.90225267
REMARK minimizedRMSD -1
REMARK  1 active torsions:
REMARK  status: ('A' for Active; 'I' for Inactive)
REMARK    1  A    between atoms: N_2  and  C1_3 
ROOT
ATOM      1  C1  UNL d   1      -1.011   1.567   2.503  0.00  0.00     0.143 A 
ATOM      2  C2  UNL d   1      -2.301   2.092   2.374  0.00  0.00    -0.057 A 
ATOM      3  C3  UNL d   1      -3.431   1.327   2.689  0.00  0.00     0.033 A 
ATOM      4  C4  UNL d   1      -3.291   0.010   3.112  0.00  0.00    -0.042 A 
ATOM      5  C5  UNL d   1      -2.019  -0.541   3.223  0.00  0.00     0.033 A 
ATOM      6  C6  UNL d   1      -0.894   0.230   2.914  0.00  0.00    -0.057 A 
ENDROOT
BRANCH   1   7
ATOM      7  N   UNL d   1       0.147   2.244   2.112  0.00  0.00    -0.732 N 
ATOM      8  C   UNL d   1       1.342   1.513   1.752  0.00  0.00     0.284 C 
ATOM      9  H3  UNL d   1      -0.053   3.038   1.507  0.00  0.00     0.395 HD
ENDBRANCH   1   7
TORSDOF 1
ENDMDL
