MODEL 1
REMARK minimizedAffinity 10.1478882
REMARK minimizedRMSD -1
REMARK  1 active torsions:
REMARK  status: ('A' for Active; 'I' for Inactive)
REMARK    1  A    between atoms: N_2  and  C1_3 
ROOT
ATOM      1  C1  UNL d   1       2.873   0.276   1.426  0.00  0.00     0.143 A 
ATOM      2  C2  UNL d   1       1.782  -0.136   2.199  0.00  0.00    -0.057 A 
ATOM      3  C3  UNL d   1       0.685   0.708   2.413  0.00  0.00     0.033 A 
ATOM      4  C4  UNL d   1       0.673   1.992   1.879  0.00  0.00    -0.042 A 
ATOM      5  C5  UNL d   1       1.757   2.431   1.128  0.00  0.00     0.033 A 
ATOM      6  C6  UNL d   1       2.847   1.582   0.913  0.00  0.00    -0.057 A 
ENDROOT
BRANCH   1   7
ATOM      7  N   UNL d   1       4.036  -0.480   1.258  0.00  0.00    -0.732 N 
ATOM      8  C   UNL d   1       4.967  -0.653   2.353  0.00  0.00     0.284 C 
ATOM      9  H3  UNL d   1       3.877  -1.323   0.711  0.00  0.00     0.395 HD
ENDBRANCH   1   7
TORSDOF 1
ENDMDL
