MODEL 1
REMARK minimizedAffinity -3.11812282
REMARK minimizedRMSD -1
REMARK  1 active torsions:
REMARK  status: ('A' for Active; 'I' for Inactive)
REMARK    1  A    between atoms: N_2  and  C1_3 
ROOT
ATOM      1  C1  UNL d   1       3.746   0.430   0.937  0.00  0.00     0.143 A 
ATOM      2  C2  UNL d   1       3.762   1.814   0.738  0.00  0.00    -0.057 A 
ATOM      3  C3  UNL d   1       4.883   2.583   1.076  0.00  0.00     0.033 A 
ATOM      4  C4  UNL d   1       6.000   1.982   1.647  0.00  0.00    -0.042 A 
ATOM      5  C5  UNL d   1       5.996   0.611   1.877  0.00  0.00     0.033 A 
ATOM      6  C6  UNL d   1       4.877  -0.152   1.531  0.00  0.00    -0.057 A 
ENDROOT
BRANCH   1   7
ATOM      7  N   UNL d   1       2.626  -0.375   0.713  0.00  0.00    -0.732 N 
ATOM      8  C   UNL d   1       1.293   0.187   0.758  0.00  0.00     0.284 C 
ATOM      9  H3  UNL d   1       2.771  -1.041  -0.042  0.00  0.00     0.395 HD
ENDBRANCH   1   7
TORSDOF 1
ENDMDL
