MODEL 1
REMARK minimizedAffinity -3.77622104
REMARK minimizedRMSD -1
REMARK  1 active torsions:
REMARK  status: ('A' for Active; 'I' for Inactive)
REMARK    1  A    between atoms: N_2  and  C1_3 
ROOT
ATOM      1  C1  UNL d   1      -5.165   3.445   4.775  0.00  0.00     0.143 A 
ATOM      2  C2  UNL d   1      -5.189   2.743   3.565  0.00  0.00    -0.057 A 
ATOM      3  C3  UNL d   1      -5.237   1.344   3.538  0.00  0.00     0.033 A 
ATOM      4  C4  UNL d   1      -5.233   0.619   4.725  0.00  0.00    -0.042 A 
ATOM      5  C5  UNL d   1      -5.184   1.294   5.939  0.00  0.00     0.033 A 
ATOM      6  C6  UNL d   1      -5.143   2.692   5.960  0.00  0.00    -0.057 A 
ENDROOT
BRANCH   1   7
ATOM      7  N   UNL d   1      -5.018   4.831   4.868  0.00  0.00    -0.732 N 
ATOM      8  C   UNL d   1      -5.986   5.717   4.258  0.00  0.00     0.284 C 
ATOM      9  H3  UNL d   1      -4.706   5.127   5.790  0.00  0.00     0.395 HD
ENDBRANCH   1   7
TORSDOF 1
ENDMDL
