MODEL 1
REMARK minimizedAffinity 5.39744997
REMARK minimizedRMSD -1
REMARK  1 active torsions:
REMARK  status: ('A' for Active; 'I' for Inactive)
REMARK    1  A    between atoms: N_2  and  C1_3 
ROOT
ATOM      1  C1  UNL d   1      -4.865   0.085   3.804  0.00  0.00     0.143 A 
ATOM      2  C2  UNL d   1      -5.051  -1.255   3.448  0.00  0.00    -0.057 A 
ATOM      3  C3  UNL d   1      -5.626  -2.170   4.338  0.00  0.00     0.033 A 
ATOM      4  C4  UNL d   1      -6.000  -1.766   5.615  0.00  0.00    -0.042 A 
ATOM      5  C5  UNL d   1      -5.801  -0.444   6.000  0.00  0.00     0.033 A 
ATOM      6  C6  UNL d   1      -5.233   0.466   5.104  0.00  0.00    -0.057 A 
ENDROOT
BRANCH   1   7
ATOM      7  N   UNL d   1      -4.209   1.020   3.000  0.00  0.00    -0.732 N 
ATOM      8  C   UNL d   1      -3.787   2.293   3.543  0.00  0.00     0.284 C 
ATOM      9  H3  UNL d   1      -3.530   0.589   2.377  0.00  0.00     0.395 HD
ENDBRANCH   1   7
TORSDOF 1
ENDMDL
