MODEL 1
REMARK minimizedAffinity 8.75221539
REMARK minimizedRMSD -1
REMARK  1 active torsions:
REMARK  status: ('A' for Active; 'I' for Inactive)
REMARK    1  A    between atoms: N_2  and  C1_3 
ROOT
ATOM      1  C1  UNL d   1      -1.895  -3.019  -1.625  0.00  0.00     0.143 A 
ATOM      2  C2  UNL d   1      -2.807  -2.868  -0.575  0.00  0.00    -0.057 A 
ATOM      3  C3  UNL d   1      -2.400  -2.975   0.761  0.00  0.00     0.033 A 
ATOM      4  C4  UNL d   1      -1.075  -3.266   1.069  0.00  0.00    -0.042 A 
ATOM      5  C5  UNL d   1      -0.157  -3.445   0.040  0.00  0.00     0.033 A 
ATOM      6  C6  UNL d   1      -0.568  -3.330  -1.291  0.00  0.00    -0.057 A 
ENDROOT
BRANCH   1   7
ATOM      7  N   UNL d   1      -2.258  -3.022  -2.975  0.00  0.00    -0.732 N 
ATOM      8  C   UNL d   1      -1.492  -3.778  -3.942  0.00  0.00     0.284 C 
ATOM      9  H3  UNL d   1      -3.265  -3.078  -3.106  0.00  0.00     0.395 HD
ENDBRANCH   1   7
TORSDOF 1
ENDMDL
