MODEL 1
REMARK minimizedAffinity 9.06732845
REMARK minimizedRMSD -1
REMARK  1 active torsions:
REMARK  status: ('A' for Active; 'I' for Inactive)
REMARK    1  A    between atoms: N_2  and  C1_3 
ROOT
ATOM      1  C1  UNL d   1      -1.176  -2.259  -3.608  0.00  0.00     0.143 A 
ATOM      2  C2  UNL d   1      -1.498  -1.872  -4.913  0.00  0.00    -0.057 A 
ATOM      3  C3  UNL d   1      -0.701  -2.250  -6.000  0.00  0.00     0.033 A 
ATOM      4  C4  UNL d   1       0.452  -3.001  -5.797  0.00  0.00    -0.042 A 
ATOM      5  C5  UNL d   1       0.805  -3.376  -4.505  0.00  0.00     0.033 A 
ATOM      6  C6  UNL d   1       0.002  -3.001  -3.424  0.00  0.00    -0.057 A 
ENDROOT
BRANCH   1   7
ATOM      7  N   UNL d   1      -1.874  -1.832  -2.475  0.00  0.00    -0.732 N 
ATOM      8  C   UNL d   1      -1.168  -1.501  -1.256  0.00  0.00     0.284 C 
ATOM      9  H3  UNL d   1      -2.631  -1.193  -2.704  0.00  0.00     0.395 HD
ENDBRANCH   1   7
TORSDOF 1
ENDMDL
