MODEL 1
REMARK minimizedAffinity 3.66892576
REMARK minimizedRMSD -1
REMARK  1 active torsions:
REMARK  status: ('A' for Active; 'I' for Inactive)
REMARK    1  A    between atoms: N_2  and  C1_3 
ROOT
ATOM      1  C1  UNL d   1      -3.316  -3.956  -2.373  0.00  0.00     0.143 A 
ATOM      2  C2  UNL d   1      -2.812  -3.207  -1.305  0.00  0.00    -0.057 A 
ATOM      3  C3  UNL d   1      -1.639  -2.453  -1.436  0.00  0.00     0.033 A 
ATOM      4  C4  UNL d   1      -0.932  -2.459  -2.634  0.00  0.00    -0.042 A 
ATOM      5  C5  UNL d   1      -1.400  -3.217  -3.701  0.00  0.00     0.033 A 
ATOM      6  C6  UNL d   1      -2.576  -3.962  -3.566  0.00  0.00    -0.057 A 
ENDROOT
BRANCH   1   7
ATOM      7  N   UNL d   1      -4.422  -4.804  -2.276  0.00  0.00    -0.732 N 
ATOM      8  C   UNL d   1      -5.601  -4.574  -3.083  0.00  0.00     0.284 C 
ATOM      9  H3  UNL d   1      -4.156  -5.783  -2.198  0.00  0.00     0.395 HD
ENDBRANCH   1   7
TORSDOF 1
ENDMDL
