MODEL 1
REMARK minimizedAffinity 11.1497583
REMARK minimizedRMSD -1
REMARK  1 active torsions:
REMARK  status: ('A' for Active; 'I' for Inactive)
REMARK    1  A    between atoms: N_2  and  C1_3 
ROOT
ATOM      1  C1  UNL d   1      -1.328  -2.618  -0.169  0.00  0.00     0.143 A 
ATOM      2  C2  UNL d   1      -0.838  -2.561  -1.478  0.00  0.00    -0.057 A 
ATOM      3  C3  UNL d   1      -1.688  -2.719  -2.580  0.00  0.00     0.033 A 
ATOM      4  C4  UNL d   1      -3.044  -2.967  -2.389  0.00  0.00    -0.042 A 
ATOM      5  C5  UNL d   1      -3.549  -3.052  -1.097  0.00  0.00     0.033 A 
ATOM      6  C6  UNL d   1      -2.696  -2.887  -0.001  0.00  0.00    -0.057 A 
ENDROOT
BRANCH   1   7
ATOM      7  N   UNL d   1      -0.518  -2.568   0.968  0.00  0.00    -0.732 N 
ATOM      8  C   UNL d   1      -1.102  -2.613   2.291  0.00  0.00     0.284 C 
ATOM      9  H3  UNL d   1       0.328  -3.124   0.867  0.00  0.00     0.395 HD
ENDBRANCH   1   7
TORSDOF 1
ENDMDL
