MODEL 1
REMARK minimizedAffinity 6.56362963
REMARK minimizedRMSD -1
REMARK  1 active torsions:
REMARK  status: ('A' for Active; 'I' for Inactive)
REMARK    1  A    between atoms: N_2  and  C1_3 
ROOT
ATOM      1  C1  UNL d   1      -1.788  -3.260  -0.996  0.00  0.00     0.143 A 
ATOM      2  C2  UNL d   1      -2.110  -2.089  -1.691  0.00  0.00    -0.057 A 
ATOM      3  C3  UNL d   1      -2.158  -2.065  -3.090  0.00  0.00     0.033 A 
ATOM      4  C4  UNL d   1      -1.855  -3.208  -3.822  0.00  0.00    -0.042 A 
ATOM      5  C5  UNL d   1      -1.508  -4.377  -3.153  0.00  0.00     0.033 A 
ATOM      6  C6  UNL d   1      -1.468  -4.396  -1.756  0.00  0.00    -0.057 A 
ENDROOT
BRANCH   1   7
ATOM      7  N   UNL d   1      -1.627  -3.322   0.390  0.00  0.00    -0.732 N 
ATOM      8  C   UNL d   1      -0.305  -3.325   0.980  0.00  0.00     0.284 C 
ATOM      9  H3  UNL d   1      -2.302  -2.745   0.886  0.00  0.00     0.395 HD
ENDBRANCH   1   7
TORSDOF 1
ENDMDL
