MODEL 1
REMARK minimizedAffinity -3.0987196
REMARK minimizedRMSD -1
REMARK  1 active torsions:
REMARK  status: ('A' for Active; 'I' for Inactive)
REMARK    1  A    between atoms: C3_4  and  O_7 
ROOT
ATOM      1  C   UNL d   1       0.049  -0.777   0.902  0.00  0.00    -0.033 A 
ATOM      2  C1  UNL d   1       1.426  -0.559   0.827  0.00  0.00     0.039 A 
ATOM      3  C2  UNL d   1       2.271  -1.572   0.369  0.00  0.00    -0.080 A 
ATOM      4  C3  UNL d   1       1.728  -2.796  -0.011  0.00  0.00     0.150 A 
ATOM      5  C4  UNL d   1       0.356  -3.018   0.058  0.00  0.00    -0.007 A 
ATOM      6  C5  UNL d   1      -0.486  -2.006   0.516  0.00  0.00     0.039 A 
ENDROOT
BRANCH   4   7
ATOM      7  O   UNL d   1       2.513  -3.816  -0.460  0.00  0.00    -0.526 OA
ATOM      8  H5  UNL d   1       3.440  -3.528  -0.426  0.00  0.00     0.418 HD
ENDBRANCH   4   7
TORSDOF 1
ENDMDL
