MODEL 1
REMARK minimizedAffinity -2.73591375
REMARK minimizedRMSD -1
REMARK  1 active torsions:
REMARK  status: ('A' for Active; 'I' for Inactive)
REMARK    1  A    between atoms: C3_4  and  O_7 
ROOT
ATOM      1  C   UNL d   1       4.738   6.000   1.431  0.00  0.00    -0.033 A 
ATOM      2  C1  UNL d   1       3.732   5.035   1.505  0.00  0.00     0.039 A 
ATOM      3  C2  UNL d   1       3.613   4.069   0.503  0.00  0.00    -0.080 A 
ATOM      4  C3  UNL d   1       4.505   4.080  -0.565  0.00  0.00     0.150 A 
ATOM      5  C4  UNL d   1       5.512   5.036  -0.644  0.00  0.00    -0.007 A 
ATOM      6  C5  UNL d   1       5.629   6.000   0.357  0.00  0.00     0.039 A 
ENDROOT
BRANCH   4   7
ATOM      7  O   UNL d   1       4.426   3.161  -1.569  0.00  0.00    -0.526 OA
ATOM      8  H5  UNL d   1       3.665   2.582  -1.396  0.00  0.00     0.418 HD
ENDBRANCH   4   7
TORSDOF 1
ENDMDL
