MODEL 1
REMARK minimizedAffinity -1.45051622
REMARK minimizedRMSD -1
REMARK  1 active torsions:
REMARK  status: ('A' for Active; 'I' for Inactive)
REMARK    1  A    between atoms: C3_4  and  O_7 
ROOT
ATOM      1  C   UNL d   1       4.296   5.029   1.489  0.00  0.00    -0.033 A 
ATOM      2  C1  UNL d   1       5.260   5.754   0.785  0.00  0.00     0.039 A 
ATOM      3  C2  UNL d   1       5.678   5.322  -0.475  0.00  0.00    -0.080 A 
ATOM      4  C3  UNL d   1       5.124   4.167  -1.021  0.00  0.00     0.150 A 
ATOM      5  C4  UNL d   1       4.161   3.443  -0.327  0.00  0.00    -0.007 A 
ATOM      6  C5  UNL d   1       3.745   3.874   0.932  0.00  0.00     0.039 A 
ENDROOT
BRANCH   4   7
ATOM      7  O   UNL d   1       5.504   3.705  -2.245  0.00  0.00    -0.526 OA
ATOM      8  H5  UNL d   1       6.197   4.290  -2.594  0.00  0.00     0.418 HD
ENDBRANCH   4   7
TORSDOF 1
ENDMDL
