MODEL 1
REMARK minimizedAffinity -2.60813308
REMARK minimizedRMSD -1
REMARK  1 active torsions:
REMARK  status: ('A' for Active; 'I' for Inactive)
REMARK    1  A    between atoms: C3_4  and  O_7 
ROOT
ATOM      1  C   UNL d   1       1.319  -0.290   1.115  0.00  0.00    -0.033 A 
ATOM      2  C1  UNL d   1       1.974  -1.247   0.336  0.00  0.00     0.039 A 
ATOM      3  C2  UNL d   1       1.286  -2.378  -0.106  0.00  0.00    -0.080 A 
ATOM      4  C3  UNL d   1      -0.054  -2.540   0.235  0.00  0.00     0.150 A 
ATOM      5  C4  UNL d   1      -0.713  -1.589   1.007  0.00  0.00    -0.007 A 
ATOM      6  C5  UNL d   1      -0.024  -0.461   1.449  0.00  0.00     0.039 A 
ENDROOT
BRANCH   4   7
ATOM      7  O   UNL d   1      -0.766  -3.630  -0.170  0.00  0.00    -0.526 OA
ATOM      8  H5  UNL d   1      -0.174  -4.216  -0.671  0.00  0.00     0.418 HD
ENDBRANCH   4   7
TORSDOF 1
ENDMDL
