MODEL 1
REMARK minimizedAffinity -2.86257672
REMARK minimizedRMSD -1
REMARK  1 active torsions:
REMARK  status: ('A' for Active; 'I' for Inactive)
REMARK    1  A    between atoms: C3_4  and  O_7 
ROOT
ATOM      1  C   UNL d   1       1.006   0.095   0.765  0.00  0.00    -0.033 A 
ATOM      2  C1  UNL d   1       1.671  -0.684  -0.184  0.00  0.00     0.039 A 
ATOM      3  C2  UNL d   1       1.301  -2.015  -0.380  0.00  0.00    -0.080 A 
ATOM      4  C3  UNL d   1       0.265  -2.555   0.378  0.00  0.00     0.150 A 
ATOM      5  C4  UNL d   1      -0.403  -1.784   1.323  0.00  0.00    -0.007 A 
ATOM      6  C5  UNL d   1      -0.032  -0.455   1.518  0.00  0.00     0.039 A 
ENDROOT
BRANCH   4   7
ATOM      7  O   UNL d   1      -0.128  -3.852   0.226  0.00  0.00    -0.526 OA
ATOM      8  H5  UNL d   1       0.442  -4.270  -0.441  0.00  0.00     0.418 HD
ENDBRANCH   4   7
TORSDOF 1
ENDMDL
