MODEL 1
REMARK minimizedAffinity 0.52719599
REMARK minimizedRMSD -1
REMARK  1 active torsions:
REMARK  status: ('A' for Active; 'I' for Inactive)
REMARK    1  A    between atoms: C3_4  and  O_7 
ROOT
ATOM      1  C   UNL d   1      -2.282   1.865   1.626  0.00  0.00    -0.033 A 
ATOM      2  C1  UNL d   1      -3.072   2.625   0.761  0.00  0.00     0.039 A 
ATOM      3  C2  UNL d   1      -3.556   2.062  -0.421  0.00  0.00    -0.080 A 
ATOM      4  C3  UNL d   1      -3.245   0.741  -0.727  0.00  0.00     0.150 A 
ATOM      5  C4  UNL d   1      -2.461  -0.024   0.131  0.00  0.00    -0.007 A 
ATOM      6  C5  UNL d   1      -1.978   0.540   1.311  0.00  0.00     0.039 A 
ENDROOT
BRANCH   4   7
ATOM      7  O   UNL d   1      -3.690   0.150  -1.872  0.00  0.00    -0.526 OA
ATOM      8  H5  UNL d   1      -4.195   0.806  -2.381  0.00  0.00     0.418 HD
ENDBRANCH   4   7
TORSDOF 1
ENDMDL
