MODEL 1
REMARK minimizedAffinity -3.45920038
REMARK minimizedRMSD -1
REMARK  1 active torsions:
REMARK  status: ('A' for Active; 'I' for Inactive)
REMARK    1  A    between atoms: C3_4  and  O_7 
ROOT
ATOM      1  C   UNL d   1       0.181  -0.448   0.651  0.00  0.00    -0.033 A 
ATOM      2  C1  UNL d   1       1.546  -0.449   0.357  0.00  0.00     0.039 A 
ATOM      3  C2  UNL d   1       2.186  -1.641   0.010  0.00  0.00    -0.080 A 
ATOM      4  C3  UNL d   1       1.450  -2.822  -0.041  0.00  0.00     0.150 A 
ATOM      5  C4  UNL d   1       0.089  -2.827   0.246  0.00  0.00    -0.007 A 
ATOM      6  C5  UNL d   1      -0.547  -1.636   0.594  0.00  0.00     0.039 A 
ENDROOT
BRANCH   4   7
ATOM      7  O   UNL d   1       2.032  -4.010  -0.371  0.00  0.00    -0.526 OA
ATOM      8  H5  UNL d   1       2.981  -3.858  -0.515  0.00  0.00     0.418 HD
ENDBRANCH   4   7
TORSDOF 1
ENDMDL
