MODEL 1
REMARK minimizedAffinity -2.38475299
REMARK minimizedRMSD -1
REMARK  1 active torsions:
REMARK  status: ('A' for Active; 'I' for Inactive)
REMARK    1  A    between atoms: C3_4  and  O_7 
ROOT
ATOM      1  C   UNL d   1       1.990  -2.947  -0.463  0.00  0.00    -0.033 A 
ATOM      2  C1  UNL d   1       0.652  -3.264  -0.222  0.00  0.00     0.039 A 
ATOM      3  C2  UNL d   1      -0.129  -2.437   0.587  0.00  0.00    -0.080 A 
ATOM      4  C3  UNL d   1       0.438  -1.295   1.147  0.00  0.00     0.150 A 
ATOM      5  C4  UNL d   1       1.770  -0.971   0.908  0.00  0.00    -0.007 A 
ATOM      6  C5  UNL d   1       2.548  -1.799   0.101  0.00  0.00     0.039 A 
ENDROOT
BRANCH   4   7
ATOM      7  O   UNL d   1      -0.283  -0.460   1.947  0.00  0.00    -0.526 OA
ATOM      8  H5  UNL d   1      -1.178  -0.825   2.046  0.00  0.00     0.418 HD
ENDBRANCH   4   7
TORSDOF 1
ENDMDL
