MODEL 1
REMARK minimizedAffinity -2.83828115
REMARK minimizedRMSD -1
REMARK  1 active torsions:
REMARK  status: ('A' for Active; 'I' for Inactive)
REMARK    1  A    between atoms: C3_4  and  O_7 
ROOT
ATOM      1  C   UNL d   1      -0.431  -0.552   0.955  0.00  0.00    -0.033 A 
ATOM      2  C1  UNL d   1      -1.027  -1.813   1.005  0.00  0.00     0.039 A 
ATOM      3  C2  UNL d   1      -0.369  -2.921   0.469  0.00  0.00    -0.080 A 
ATOM      4  C3  UNL d   1       0.885  -2.755  -0.113  0.00  0.00     0.150 A 
ATOM      5  C4  UNL d   1       1.488  -1.502  -0.163  0.00  0.00    -0.007 A 
ATOM      6  C5  UNL d   1       0.828  -0.397   0.372  0.00  0.00     0.039 A 
ENDROOT
BRANCH   4   7
ATOM      7  O   UNL d   1       1.565  -3.806  -0.653  0.00  0.00    -0.526 OA
ATOM      8  H5  UNL d   1       1.014  -4.603  -0.572  0.00  0.00     0.418 HD
ENDBRANCH   4   7
TORSDOF 1
ENDMDL
