MODEL 1
REMARK minimizedAffinity 0.687127888
REMARK minimizedRMSD -1
REMARK  1 active torsions:
REMARK  status: ('A' for Active; 'I' for Inactive)
REMARK    1  A    between atoms: C3_4  and  O_7 
ROOT
ATOM      1  C   UNL d   1       2.797   4.610   0.343  0.00  0.00    -0.033 A 
ATOM      2  C1  UNL d   1       2.381   5.519   1.317  0.00  0.00     0.039 A 
ATOM      3  C2  UNL d   1       3.291   5.999   2.261  0.00  0.00    -0.080 A 
ATOM      4  C3  UNL d   1       4.612   5.563   2.219  0.00  0.00     0.150 A 
ATOM      5  C4  UNL d   1       5.034   4.660   1.249  0.00  0.00    -0.007 A 
ATOM      6  C5  UNL d   1       4.124   4.181   0.308  0.00  0.00     0.039 A 
ENDROOT
BRANCH   4   7
ATOM      7  O   UNL d   1       5.535   5.999   3.122  0.00  0.00    -0.526 OA
ATOM      8  H5  UNL d   1       5.094   6.596   3.749  0.00  0.00     0.418 HD
ENDBRANCH   4   7
TORSDOF 1
ENDMDL
