MODEL 1
REMARK minimizedAffinity -2.66809487
REMARK minimizedRMSD -1
REMARK  1 active torsions:
REMARK  status: ('A' for Active; 'I' for Inactive)
REMARK    1  A    between atoms: C3_4  and  O_7 
ROOT
ATOM      1  C   UNL d   1      -0.270  -0.744   0.777  0.00  0.00    -0.033 A 
ATOM      2  C1  UNL d   1      -0.610  -1.972   0.206  0.00  0.00     0.039 A 
ATOM      3  C2  UNL d   1       0.391  -2.853  -0.207  0.00  0.00    -0.080 A 
ATOM      4  C3  UNL d   1       1.726  -2.496  -0.042  0.00  0.00     0.150 A 
ATOM      5  C4  UNL d   1       2.073  -1.277   0.530  0.00  0.00    -0.007 A 
ATOM      6  C5  UNL d   1       1.072  -0.397   0.941  0.00  0.00     0.039 A 
ENDROOT
BRANCH   4   7
ATOM      7  O   UNL d   1       2.738  -3.321  -0.435  0.00  0.00    -0.526 OA
ATOM      8  H5  UNL d   1       2.349  -4.115  -0.839  0.00  0.00     0.418 HD
ENDBRANCH   4   7
TORSDOF 1
ENDMDL
