MODEL 1
REMARK minimizedAffinity -3.64481974
REMARK minimizedRMSD -1
REMARK  1 active torsions:
REMARK  status: ('A' for Active; 'I' for Inactive)
REMARK    1  A    between atoms: C3_4  and  O_7 
ROOT
ATOM      1  C   UNL d   1       0.187  -0.634   0.695  0.00  0.00    -0.033 A 
ATOM      2  C1  UNL d   1       1.540  -0.435   0.411  0.00  0.00     0.039 A 
ATOM      3  C2  UNL d   1       2.338  -1.512   0.020  0.00  0.00    -0.080 A 
ATOM      4  C3  UNL d   1       1.773  -2.780  -0.083  0.00  0.00     0.150 A 
ATOM      5  C4  UNL d   1       0.425  -2.984   0.194  0.00  0.00    -0.007 A 
ATOM      6  C5  UNL d   1      -0.370  -1.908   0.585  0.00  0.00     0.039 A 
ENDROOT
BRANCH   4   7
ATOM      7  O   UNL d   1       2.513  -3.862  -0.456  0.00  0.00    -0.526 OA
ATOM      8  H5  UNL d   1       3.432  -3.575  -0.588  0.00  0.00     0.418 HD
ENDBRANCH   4   7
TORSDOF 1
ENDMDL
