MODEL 1
REMARK minimizedAffinity 2.49728227
REMARK minimizedRMSD -1
REMARK  1 active torsions:
REMARK  status: ('A' for Active; 'I' for Inactive)
REMARK    1  A    between atoms: C3_4  and  O_7 
ROOT
ATOM      1  C   UNL d   1       0.167  -2.597  -1.390  0.00  0.00    -0.033 A 
ATOM      2  C1  UNL d   1      -0.821  -2.639  -0.404  0.00  0.00     0.039 A 
ATOM      3  C2  UNL d   1      -0.666  -1.905   0.774  0.00  0.00    -0.080 A 
ATOM      4  C3  UNL d   1       0.479  -1.133   0.952  0.00  0.00     0.150 A 
ATOM      5  C4  UNL d   1       1.465  -1.083  -0.028  0.00  0.00    -0.007 A 
ATOM      6  C5  UNL d   1       1.309  -1.818  -1.203  0.00  0.00     0.039 A 
ENDROOT
BRANCH   4   7
ATOM      7  O   UNL d   1       0.676  -0.403   2.087  0.00  0.00    -0.526 OA
ATOM      8  H5  UNL d   1      -0.073  -0.557   2.686  0.00  0.00     0.418 HD
ENDBRANCH   4   7
TORSDOF 1
ENDMDL
