MODEL 1
REMARK minimizedAffinity 2.59254074
REMARK minimizedRMSD -1
REMARK  1 active torsions:
REMARK  status: ('A' for Active; 'I' for Inactive)
REMARK    1  A    between atoms: C3_4  and  O_7 
ROOT
ATOM      1  C   UNL d   1       3.331   5.870   2.810  0.00  0.00    -0.033 A 
ATOM      2  C1  UNL d   1       2.765   5.931   1.535  0.00  0.00     0.039 A 
ATOM      3  C2  UNL d   1       3.585   5.937   0.405  0.00  0.00    -0.080 A 
ATOM      4  C3  UNL d   1       4.967   5.880   0.563  0.00  0.00     0.150 A 
ATOM      5  C4  UNL d   1       5.537   5.815   1.830  0.00  0.00    -0.007 A 
ATOM      6  C5  UNL d   1       4.717   5.810   2.957  0.00  0.00     0.039 A 
ENDROOT
BRANCH   4   7
ATOM      7  O   UNL d   1       5.808   5.888  -0.510  0.00  0.00    -0.526 OA
ATOM      8  H5  UNL d   1       5.275   5.965  -1.319  0.00  0.00     0.418 HD
ENDBRANCH   4   7
TORSDOF 1
ENDMDL
