MODEL 1
REMARK minimizedAffinity 15.5308237
REMARK minimizedRMSD -1
REMARK  0 active torsions:
REMARK  status: ('A' for Active; 'I' for Inactive)
ROOT
ATOM      1  C   UNL d   1       1.980   1.083  -1.377  0.00  0.00     0.124 A 
ATOM      2  C1  UNL d   1       1.529  -0.162  -0.961  0.00  0.00     0.062 A 
ATOM      3  C2  UNL d   1       2.386  -1.028  -0.288  0.00  0.00     0.162 A 
ATOM      4  C3  UNL d   1       3.703  -0.652  -0.026  0.00  0.00    -0.034 A 
ATOM      5  C4  UNL d   1       4.150   0.601  -0.448  0.00  0.00     0.162 A 
ATOM      6  C5  UNL d   1       3.290   1.463  -1.120  0.00  0.00     0.062 A 
ATOM      7  F   UNL d   1       3.728   2.666  -1.521  0.00  0.00    -0.097 F 
ATOM      8  F1  UNL d   1       5.411   0.995  -0.212  0.00  0.00    -0.096 F 
ATOM      9  I   UNL d   1       4.988  -1.944   0.980  0.00  0.00    -0.060 I 
ATOM     10  F2  UNL d   1       1.923  -2.225   0.102  0.00  0.00    -0.096 F 
ATOM     11  F3  UNL d   1       0.265  -0.532  -1.209  0.00  0.00    -0.097 F 
ATOM     12  F4  UNL d   1       1.154   1.914  -2.025  0.00  0.00    -0.092 F 
ENDROOT
TORSDOF 0
ENDMDL
