MODEL 1
REMARK minimizedAffinity 9.90413189
REMARK minimizedRMSD -1
REMARK  0 active torsions:
REMARK  status: ('A' for Active; 'I' for Inactive)
ROOT
ATOM      1  C   UNL d   1       0.887  -1.964   1.162  0.00  0.00     0.124 A 
ATOM      2  C1  UNL d   1       0.338  -0.901   0.460  0.00  0.00     0.062 A 
ATOM      3  C2  UNL d   1      -0.752  -0.208   0.977  0.00  0.00     0.162 A 
ATOM      4  C3  UNL d   1      -1.302  -0.577   2.205  0.00  0.00    -0.034 A 
ATOM      5  C4  UNL d   1      -0.745  -1.648   2.906  0.00  0.00     0.162 A 
ATOM      6  C5  UNL d   1       0.345  -2.337   2.384  0.00  0.00     0.062 A 
ATOM      7  F   UNL d   1       0.873  -3.365   3.064  0.00  0.00    -0.097 F 
ATOM      8  F1  UNL d   1      -1.249  -2.029   4.089  0.00  0.00    -0.096 F 
ATOM      9  I   UNL d   1      -2.933   0.456   2.982  0.00  0.00    -0.060 I 
ATOM     10  F2  UNL d   1      -1.262   0.816   0.277  0.00  0.00    -0.096 F 
ATOM     11  F3  UNL d   1       0.860  -0.539  -0.721  0.00  0.00    -0.097 F 
ATOM     12  F4  UNL d   1       1.936  -2.630   0.662  0.00  0.00    -0.092 F 
ENDROOT
TORSDOF 0
ENDMDL
