MODEL 1
REMARK minimizedAffinity 14.1444616
REMARK minimizedRMSD -1
REMARK  0 active torsions:
REMARK  status: ('A' for Active; 'I' for Inactive)
ROOT
ATOM      1  C   UNL d   1      -1.203  -2.850   3.274  0.00  0.00     0.124 A 
ATOM      2  C1  UNL d   1      -1.432  -1.520   2.950  0.00  0.00     0.062 A 
ATOM      3  C2  UNL d   1      -0.544  -0.838   2.123  0.00  0.00     0.162 A 
ATOM      4  C3  UNL d   1       0.582  -1.485   1.614  0.00  0.00    -0.034 A 
ATOM      5  C4  UNL d   1       0.806  -2.823   1.945  0.00  0.00     0.162 A 
ATOM      6  C5  UNL d   1      -0.085  -3.500   2.771  0.00  0.00     0.062 A 
ATOM      7  F   UNL d   1       0.138  -4.785   3.084  0.00  0.00    -0.097 F 
ATOM      8  F1  UNL d   1       1.878  -3.475   1.472  0.00  0.00    -0.096 F 
ATOM      9  I   UNL d   1       1.912  -0.469   0.377  0.00  0.00    -0.060 I 
ATOM     10  F2  UNL d   1      -0.790   0.447   1.826  0.00  0.00    -0.096 F 
ATOM     11  F3  UNL d   1      -2.512  -0.889   3.435  0.00  0.00    -0.097 F 
ATOM     12  F4  UNL d   1      -2.059  -3.503   4.070  0.00  0.00    -0.092 F 
ENDROOT
TORSDOF 0
ENDMDL
