MODEL 1
REMARK minimizedAffinity 9.66197014
REMARK minimizedRMSD -1
REMARK  0 active torsions:
REMARK  status: ('A' for Active; 'I' for Inactive)
ROOT
ATOM      1  C   UNL d   1      -5.066  -1.022  -3.608  0.00  0.00     0.124 A 
ATOM      2  C1  UNL d   1      -5.116  -0.006  -4.553  0.00  0.00     0.062 A 
ATOM      3  C2  UNL d   1      -4.256   1.083  -4.456  0.00  0.00     0.162 A 
ATOM      4  C3  UNL d   1      -3.336   1.163  -3.410  0.00  0.00    -0.034 A 
ATOM      5  C4  UNL d   1      -3.291   0.138  -2.464  0.00  0.00     0.162 A 
ATOM      6  C5  UNL d   1      -4.154  -0.949  -2.565  0.00  0.00     0.062 A 
ATOM      7  F   UNL d   1      -4.103  -1.930  -1.652  0.00  0.00    -0.097 F 
ATOM      8  F1  UNL d   1      -2.419   0.182  -1.446  0.00  0.00    -0.096 F 
ATOM      9  I   UNL d   1      -2.048   2.791  -3.262  0.00  0.00    -0.060 I 
ATOM     10  F2  UNL d   1      -4.327   2.050  -5.383  0.00  0.00    -0.096 F 
ATOM     11  F3  UNL d   1      -5.997  -0.074  -5.561  0.00  0.00    -0.097 F 
ATOM     12  F4  UNL d   1      -5.896  -2.069  -3.704  0.00  0.00    -0.092 F 
ENDROOT
TORSDOF 0
ENDMDL
