MODEL 1
REMARK minimizedAffinity 5.11497641
REMARK minimizedRMSD -1
REMARK  0 active torsions:
REMARK  status: ('A' for Active; 'I' for Inactive)
ROOT
ATOM      1  C   UNL d   1      -0.160  -3.757   2.924  0.00  0.00     0.124 A 
ATOM      2  C1  UNL d   1       0.655  -3.251   1.921  0.00  0.00     0.062 A 
ATOM      3  C2  UNL d   1       0.412  -1.986   1.394  0.00  0.00     0.162 A 
ATOM      4  C3  UNL d   1      -0.650  -1.217   1.869  0.00  0.00    -0.034 A 
ATOM      5  C4  UNL d   1      -1.466  -1.733   2.877  0.00  0.00     0.162 A 
ATOM      6  C5  UNL d   1      -1.220  -2.998   3.401  0.00  0.00     0.062 A 
ATOM      7  F   UNL d   1      -2.008  -3.485   4.370  0.00  0.00    -0.097 F 
ATOM      8  F1  UNL d   1      -2.496  -1.020   3.357  0.00  0.00    -0.096 F 
ATOM      9  I   UNL d   1      -1.016   0.675   1.083  0.00  0.00    -0.060 I 
ATOM     10  F2  UNL d   1       1.216  -1.522   0.425  0.00  0.00    -0.096 F 
ATOM     11  F3  UNL d   1       1.678  -3.982   1.458  0.00  0.00    -0.097 F 
ATOM     12  F4  UNL d   1       0.075  -4.975   3.429  0.00  0.00    -0.092 F 
ENDROOT
TORSDOF 0
ENDMDL
