MODEL 1
REMARK minimizedAffinity 10.8687868
REMARK minimizedRMSD -1
REMARK  0 active torsions:
REMARK  status: ('A' for Active; 'I' for Inactive)
ROOT
ATOM      1  C   UNL d   1      -1.965  -0.577   0.225  0.00  0.00     0.124 A 
ATOM      2  C1  UNL d   1      -1.311  -0.693  -0.993  0.00  0.00     0.062 A 
ATOM      3  C2  UNL d   1       0.046  -0.400  -1.090  0.00  0.00     0.162 A 
ATOM      4  C3  UNL d   1       0.759   0.012   0.036  0.00  0.00    -0.034 A 
ATOM      5  C4  UNL d   1       0.094   0.128   1.258  0.00  0.00     0.162 A 
ATOM      6  C5  UNL d   1      -1.262  -0.167   1.349  0.00  0.00     0.062 A 
ATOM      7  F   UNL d   1      -1.892  -0.054   2.528  0.00  0.00    -0.097 F 
ATOM      8  F1  UNL d   1       0.749   0.521   2.360  0.00  0.00    -0.096 F 
ATOM      9  I   UNL d   1       2.789   0.452  -0.105  0.00  0.00    -0.060 I 
ATOM     10  F2  UNL d   1       0.653  -0.521  -2.280  0.00  0.00    -0.096 F 
ATOM     11  F3  UNL d   1      -1.988  -1.088  -2.081  0.00  0.00    -0.097 F 
ATOM     12  F4  UNL d   1      -3.271  -0.859   0.315  0.00  0.00    -0.092 F 
ENDROOT
TORSDOF 0
ENDMDL
