MODEL 1
REMARK minimizedAffinity -5.20155859
REMARK minimizedRMSD -1
REMARK  1 active torsions:
REMARK  status: ('A' for Active; 'I' for Inactive)
REMARK    1  A    between atoms: C1_2  and  C2_3 
ROOT
ATOM      1  C2  UNL d   1       0.133   0.461  -0.200  0.00  0.00    -0.076 A 
ATOM      2  C3  UNL d   1      -0.225  -0.236   0.967  0.00  0.00     0.004 A 
ATOM      3  C4  UNL d   1      -1.053   0.347   1.925  0.00  0.00    -0.003 A 
ATOM      4  C5  UNL d   1      -1.537   1.636   1.731  0.00  0.00     0.000 A 
ATOM      5  C6  UNL d   1      -1.207   2.335   0.571  0.00  0.00     0.000 A 
ATOM      6  C7  UNL d   1      -0.387   1.757  -0.412  0.00  0.00    -0.073 A 
ATOM      7  C8  UNL d   1      -0.057   2.559  -1.642  0.00  0.00     0.078 C 
ENDROOT
BRANCH   1   8
ATOM      8  C1  UNL d   1       1.056  -0.211  -1.191  0.00  0.00     0.053 C 
ATOM      9  C   UNL d   1       0.913  -1.725  -1.186  0.00  0.00     0.018 C 
ENDBRANCH   1   8
TORSDOF 1
ENDMDL
