MODEL 1
REMARK minimizedAffinity -5.3710866
REMARK minimizedRMSD -1
REMARK  1 active torsions:
REMARK  status: ('A' for Active; 'I' for Inactive)
REMARK    1  A    between atoms: C1_2  and  C2_3 
ROOT
ATOM      1  C2  UNL d   1       0.142   0.557  -0.069  0.00  0.00    -0.076 A 
ATOM      2  C3  UNL d   1      -0.583   1.597  -0.677  0.00  0.00     0.004 A 
ATOM      3  C4  UNL d   1      -1.655   2.202  -0.024  0.00  0.00    -0.003 A 
ATOM      4  C5  UNL d   1      -2.018   1.779   1.250  0.00  0.00     0.000 A 
ATOM      5  C6  UNL d   1      -1.299   0.761   1.876  0.00  0.00     0.000 A 
ATOM      6  C7  UNL d   1      -0.206   0.151   1.237  0.00  0.00    -0.073 A 
ATOM      7  C8  UNL d   1       0.531  -0.945   1.957  0.00  0.00     0.078 C 
ENDROOT
BRANCH   1   8
ATOM      8  C1  UNL d   1       1.277  -0.080  -0.837  0.00  0.00     0.053 C 
ATOM      9  C   UNL d   1       0.812  -1.229  -1.718  0.00  0.00     0.018 C 
ENDBRANCH   1   8
TORSDOF 1
ENDMDL
