MODEL 1
REMARK minimizedAffinity 1.4773581
REMARK minimizedRMSD -1
REMARK  1 active torsions:
REMARK  status: ('A' for Active; 'I' for Inactive)
REMARK    1  A    between atoms: C1_2  and  C2_3 
ROOT
ATOM      1  C2  UNL d   1      -1.137   0.902   0.029  0.00  0.00    -0.076 A 
ATOM      2  C3  UNL d   1      -0.914  -0.251   0.801  0.00  0.00     0.004 A 
ATOM      3  C4  UNL d   1       0.185  -1.074   0.562  0.00  0.00    -0.003 A 
ATOM      4  C5  UNL d   1       1.080  -0.757  -0.454  0.00  0.00     0.000 A 
ATOM      5  C6  UNL d   1       0.884   0.393  -1.219  0.00  0.00     0.000 A 
ATOM      6  C7  UNL d   1      -0.210   1.242  -0.980  0.00  0.00    -0.073 A 
ATOM      7  C8  UNL d   1      -0.375   2.465  -1.839  0.00  0.00     0.078 C 
ENDROOT
BRANCH   1   8
ATOM      8  C1  UNL d   1      -2.361   1.742   0.317  0.00  0.00     0.053 C 
ATOM      9  C   UNL d   1      -2.302   2.408   1.683  0.00  0.00     0.018 C 
ENDBRANCH   1   8
TORSDOF 1
ENDMDL
