MODEL 1
REMARK minimizedAffinity -3.60062385
REMARK minimizedRMSD -1
REMARK  1 active torsions:
REMARK  status: ('A' for Active; 'I' for Inactive)
REMARK    1  A    between atoms: C1_2  and  C2_3 
ROOT
ATOM      1  C2  UNL d   1      -0.743   1.997  -0.352  0.00  0.00    -0.076 A 
ATOM      2  C3  UNL d   1       0.010   0.825  -0.534  0.00  0.00     0.004 A 
ATOM      3  C4  UNL d   1       0.197  -0.078   0.512  0.00  0.00    -0.003 A 
ATOM      4  C5  UNL d   1      -0.368   0.178   1.757  0.00  0.00     0.000 A 
ATOM      5  C6  UNL d   1      -1.133   1.327   1.950  0.00  0.00     0.000 A 
ATOM      6  C7  UNL d   1      -1.345   2.239   0.902  0.00  0.00    -0.073 A 
ATOM      7  C8  UNL d   1      -2.174   3.466   1.168  0.00  0.00     0.078 C 
ENDROOT
BRANCH   1   8
ATOM      8  C1  UNL d   1      -0.889   2.952  -1.515  0.00  0.00     0.053 C 
ATOM      9  C   UNL d   1       0.443   3.535  -1.961  0.00  0.00     0.018 C 
ENDBRANCH   1   8
TORSDOF 1
ENDMDL
