MODEL 1
REMARK minimizedAffinity -1.9314208
REMARK minimizedRMSD -1
REMARK  1 active torsions:
REMARK  status: ('A' for Active; 'I' for Inactive)
REMARK    1  A    between atoms: C1_2  and  C2_3 
ROOT
ATOM      1  C2  UNL d   1      -0.962   0.979  -0.121  0.00  0.00    -0.076 A 
ATOM      2  C3  UNL d   1      -0.711  -0.277   0.457  0.00  0.00     0.004 A 
ATOM      3  C4  UNL d   1       0.356  -1.064   0.027  0.00  0.00    -0.003 A 
ATOM      4  C5  UNL d   1       1.190  -0.607  -0.988  0.00  0.00     0.000 A 
ATOM      5  C6  UNL d   1       0.966   0.645  -1.560  0.00  0.00     0.000 A 
ATOM      6  C7  UNL d   1      -0.095   1.458  -1.127  0.00  0.00    -0.073 A 
ATOM      7  C8  UNL d   1      -0.294   2.797  -1.783  0.00  0.00     0.078 C 
ENDROOT
BRANCH   1   8
ATOM      8  C1  UNL d   1      -2.151   1.777   0.367  0.00  0.00     0.053 C 
ATOM      9  C   UNL d   1      -1.882   2.470   1.694  0.00  0.00     0.018 C 
ENDBRANCH   1   8
TORSDOF 1
ENDMDL
