MODEL 1
REMARK minimizedAffinity -3.51900601
REMARK minimizedRMSD -1
REMARK  1 active torsions:
REMARK  status: ('A' for Active; 'I' for Inactive)
REMARK    1  A    between atoms: C1_2  and  C2_3 
ROOT
ATOM      1  C2  UNL d   1      -0.419  -0.027   0.409  0.00  0.00    -0.076 A 
ATOM      2  C3  UNL d   1       0.551  -0.862   0.989  0.00  0.00     0.004 A 
ATOM      3  C4  UNL d   1       0.885  -0.745   2.337  0.00  0.00    -0.003 A 
ATOM      4  C5  UNL d   1       0.253   0.209   3.127  0.00  0.00     0.000 A 
ATOM      5  C6  UNL d   1      -0.724   1.034   2.572  0.00  0.00     0.000 A 
ATOM      6  C7  UNL d   1      -1.084   0.918   1.219  0.00  0.00    -0.073 A 
ATOM      7  C8  UNL d   1      -2.141   1.838   0.671  0.00  0.00     0.078 C 
ENDROOT
BRANCH   1   8
ATOM      8  C1  UNL d   1      -0.720  -0.182  -1.065  0.00  0.00     0.053 C 
ATOM      9  C   UNL d   1      -0.023  -1.387  -1.678  0.00  0.00     0.018 C 
ENDBRANCH   1   8
TORSDOF 1
ENDMDL
