MODEL 1
REMARK minimizedAffinity -3.50156665
REMARK minimizedRMSD -1
REMARK  1 active torsions:
REMARK  status: ('A' for Active; 'I' for Inactive)
REMARK    1  A    between atoms: C1_2  and  C2_3 
ROOT
ATOM      1  C2  UNL d   1       0.387  -0.226  -0.055  0.00  0.00    -0.076 A 
ATOM      2  C3  UNL d   1      -0.100  -0.915   1.069  0.00  0.00     0.004 A 
ATOM      3  C4  UNL d   1      -0.991  -0.309   1.952  0.00  0.00    -0.003 A 
ATOM      4  C5  UNL d   1      -1.412   0.997   1.725  0.00  0.00     0.000 A 
ATOM      5  C6  UNL d   1      -0.953   1.690   0.605  0.00  0.00     0.000 A 
ATOM      6  C7  UNL d   1      -0.067   1.087  -0.304  0.00  0.00    -0.073 A 
ATOM      7  C8  UNL d   1       0.401   1.883  -1.492  0.00  0.00     0.078 C 
ENDROOT
BRANCH   1   8
ATOM      8  C1  UNL d   1       1.373  -0.926  -0.963  0.00  0.00     0.053 C 
ATOM      9  C   UNL d   1       0.694  -1.865  -1.948  0.00  0.00     0.018 C 
ENDBRANCH   1   8
TORSDOF 1
ENDMDL
