MODEL 1
REMARK minimizedAffinity -4.30155897
REMARK minimizedRMSD -1
REMARK  1 active torsions:
REMARK  status: ('A' for Active; 'I' for Inactive)
REMARK    1  A    between atoms: C1_2  and  C2_3 
ROOT
ATOM      1  C2  UNL d   1      -0.750   0.141   0.018  0.00  0.00    -0.076 A 
ATOM      2  C3  UNL d   1      -1.729   1.010  -0.494  0.00  0.00     0.004 A 
ATOM      3  C4  UNL d   1      -2.218   2.069   0.268  0.00  0.00    -0.003 A 
ATOM      4  C5  UNL d   1      -1.734   2.278   1.555  0.00  0.00     0.000 A 
ATOM      5  C6  UNL d   1      -0.750   1.437   2.073  0.00  0.00     0.000 A 
ATOM      6  C7  UNL d   1      -0.235   0.374   1.311  0.00  0.00    -0.073 A 
ATOM      7  C8  UNL d   1       0.822  -0.506   1.922  0.00  0.00     0.078 C 
ENDROOT
BRANCH   1   8
ATOM      8  C1  UNL d   1      -0.278  -1.007  -0.845  0.00  0.00     0.053 C 
ATOM      9  C   UNL d   1       1.052  -0.718  -1.523  0.00  0.00     0.018 C 
ENDBRANCH   1   8
TORSDOF 1
ENDMDL
