MODEL 1
REMARK minimizedAffinity -5.149158
REMARK minimizedRMSD -1
REMARK  1 active torsions:
REMARK  status: ('A' for Active; 'I' for Inactive)
REMARK    1  A    between atoms: C1_2  and  C2_3 
ROOT
ATOM      1  C2  UNL d   1       0.038   0.229   0.215  0.00  0.00    -0.076 A 
ATOM      2  C3  UNL d   1      -0.053  -0.434   1.451  0.00  0.00     0.004 A 
ATOM      3  C4  UNL d   1      -1.019  -0.074   2.389  0.00  0.00    -0.003 A 
ATOM      4  C5  UNL d   1      -1.911   0.955   2.106  0.00  0.00     0.000 A 
ATOM      5  C6  UNL d   1      -1.847   1.611   0.877  0.00  0.00     0.000 A 
ATOM      6  C7  UNL d   1      -0.889   1.250  -0.086  0.00  0.00    -0.073 A 
ATOM      7  C8  UNL d   1      -0.861   1.996  -1.392  0.00  0.00     0.078 C 
ENDROOT
BRANCH   1   8
ATOM      8  C1  UNL d   1       1.124  -0.186  -0.752  0.00  0.00     0.053 C 
ATOM      9  C   UNL d   1       0.785  -1.472  -1.491  0.00  0.00     0.018 C 
ENDBRANCH   1   8
TORSDOF 1
ENDMDL
