MODEL 1
REMARK minimizedAffinity -4.82709503
REMARK minimizedRMSD -1
REMARK  1 active torsions:
REMARK  status: ('A' for Active; 'I' for Inactive)
REMARK    1  A    between atoms: C1_2  and  C2_3 
ROOT
ATOM      1  C2  UNL d   1       0.163   0.884   0.241  0.00  0.00    -0.076 A 
ATOM      2  C3  UNL d   1      -0.405   0.019   1.193  0.00  0.00     0.004 A 
ATOM      3  C4  UNL d   1      -1.252   0.504   2.187  0.00  0.00    -0.003 A 
ATOM      4  C5  UNL d   1      -1.546   1.862   2.247  0.00  0.00     0.000 A 
ATOM      5  C6  UNL d   1      -1.005   2.732   1.300  0.00  0.00     0.000 A 
ATOM      6  C7  UNL d   1      -0.162   2.257   0.281  0.00  0.00    -0.073 A 
ATOM      7  C8  UNL d   1       0.398   3.241  -0.710  0.00  0.00     0.078 C 
ENDROOT
BRANCH   1   8
ATOM      8  C1  UNL d   1       1.096   0.305  -0.798  0.00  0.00     0.053 C 
ATOM      9  C   UNL d   1       0.986  -1.208  -0.901  0.00  0.00     0.018 C 
ENDBRANCH   1   8
TORSDOF 1
ENDMDL
