MODEL 1
REMARK minimizedAffinity -1.14646101
REMARK minimizedRMSD -1
REMARK  1 active torsions:
REMARK  status: ('A' for Active; 'I' for Inactive)
REMARK    1  A    between atoms: C1_2  and  C2_3 
ROOT
ATOM      1  C2  UNL d   1       0.221  -0.726   0.294  0.00  0.00    -0.076 A 
ATOM      2  C3  UNL d   1      -0.237   0.102  -0.745  0.00  0.00     0.004 A 
ATOM      3  C4  UNL d   1      -1.013   1.228  -0.476  0.00  0.00    -0.003 A 
ATOM      4  C5  UNL d   1      -1.342   1.545   0.837  0.00  0.00     0.000 A 
ATOM      5  C6  UNL d   1      -0.881   0.746   1.882  0.00  0.00     0.000 A 
ATOM      6  C7  UNL d   1      -0.084  -0.384   1.629  0.00  0.00    -0.073 A 
ATOM      7  C8  UNL d   1       0.380  -1.215   2.794  0.00  0.00     0.078 C 
ENDROOT
BRANCH   1   8
ATOM      8  C1  UNL d   1       1.036  -1.950  -0.060  0.00  0.00     0.053 C 
ATOM      9  C   UNL d   1       0.562  -2.614  -1.343  0.00  0.00     0.018 C 
ENDBRANCH   1   8
TORSDOF 1
ENDMDL
