MODEL 1
REMARK minimizedAffinity 7.86939096
REMARK minimizedRMSD -1
REMARK  0 active torsions:
REMARK  status: ('A' for Active; 'I' for Inactive)
ROOT
ATOM      1  C   UNL d   1       1.842  -3.300   5.145  0.00  0.00     0.077 C 
ATOM      2  C1  UNL d   1       1.577  -2.049   4.361  0.00  0.00    -0.074 A 
ATOM      3  C2  UNL d   1       2.310  -0.882   4.601  0.00  0.00    -0.005 A 
ATOM      4  C3  UNL d   1       2.059   0.272   3.858  0.00  0.00     0.006 A 
ATOM      5  C4  UNL d   1       1.073   0.270   2.870  0.00  0.00    -0.005 A 
ATOM      6  C5  UNL d   1       0.331  -0.887   2.616  0.00  0.00    -0.074 A 
ATOM      7  C6  UNL d   1      -0.725  -0.909   1.550  0.00  0.00     0.077 C 
ATOM      8  C7  UNL d   1       0.594  -2.044   3.362  0.00  0.00    -0.001 A 
ENDROOT
TORSDOF 0
ENDMDL
