MODEL 1
REMARK minimizedAffinity 6.47669601
REMARK minimizedRMSD -1
REMARK  0 active torsions:
REMARK  status: ('A' for Active; 'I' for Inactive)
ROOT
ATOM      1  C   UNL d   1       1.077  -2.728   4.725  0.00  0.00     0.077 C 
ATOM      2  C1  UNL d   1       0.567  -1.542   3.962  0.00  0.00    -0.074 A 
ATOM      3  C2  UNL d   1       1.401  -0.455   3.681  0.00  0.00    -0.005 A 
ATOM      4  C3  UNL d   1       0.914   0.637   2.962  0.00  0.00     0.006 A 
ATOM      5  C4  UNL d   1      -0.408   0.653   2.517  0.00  0.00    -0.005 A 
ATOM      6  C5  UNL d   1      -1.257  -0.425   2.788  0.00  0.00    -0.074 A 
ATOM      7  C6  UNL d   1      -2.678  -0.428   2.309  0.00  0.00     0.077 C 
ATOM      8  C7  UNL d   1      -0.759  -1.522   3.505  0.00  0.00    -0.001 A 
ENDROOT
TORSDOF 0
ENDMDL
