MODEL 1
REMARK minimizedAffinity 7.14462805
REMARK minimizedRMSD -1
REMARK  0 active torsions:
REMARK  status: ('A' for Active; 'I' for Inactive)
ROOT
ATOM      1  C   UNL d   1      -1.453  -3.934  -5.361  0.00  0.00     0.077 C 
ATOM      2  C1  UNL d   1      -1.029  -2.739  -4.560  0.00  0.00    -0.074 A 
ATOM      3  C2  UNL d   1      -1.746  -2.342  -3.427  0.00  0.00    -0.005 A 
ATOM      4  C3  UNL d   1      -1.333  -1.234  -2.686  0.00  0.00     0.006 A 
ATOM      5  C4  UNL d   1      -0.202  -0.513  -3.071  0.00  0.00    -0.005 A 
ATOM      6  C5  UNL d   1       0.528  -0.896  -4.201  0.00  0.00    -0.074 A 
ATOM      7  C6  UNL d   1       1.751  -0.138  -4.623  0.00  0.00     0.077 C 
ATOM      8  C7  UNL d   1       0.111  -2.014  -4.936  0.00  0.00    -0.001 A 
ENDROOT
TORSDOF 0
ENDMDL
