MODEL 1
REMARK minimizedAffinity 10.6171541
REMARK minimizedRMSD -1
REMARK  0 active torsions:
REMARK  status: ('A' for Active; 'I' for Inactive)
ROOT
ATOM      1  C   UNL d   1       0.031   2.862   5.999  0.00  0.00     0.077 C 
ATOM      2  C1  UNL d   1      -0.185   2.032   4.768  0.00  0.00    -0.074 A 
ATOM      3  C2  UNL d   1      -1.000   2.489   3.727  0.00  0.00    -0.005 A 
ATOM      4  C3  UNL d   1      -1.184   1.711   2.585  0.00  0.00     0.006 A 
ATOM      5  C4  UNL d   1      -0.556   0.470   2.471  0.00  0.00    -0.005 A 
ATOM      6  C5  UNL d   1       0.264  -0.003   3.501  0.00  0.00    -0.074 A 
ATOM      7  C6  UNL d   1       0.954  -1.330   3.391  0.00  0.00     0.077 C 
ATOM      8  C7  UNL d   1       0.449   0.788   4.643  0.00  0.00    -0.001 A 
ENDROOT
TORSDOF 0
ENDMDL
