MODEL 1
REMARK minimizedAffinity 7.09752178
REMARK minimizedRMSD -1
REMARK  0 active torsions:
REMARK  status: ('A' for Active; 'I' for Inactive)
ROOT
ATOM      1  C   UNL d   1      -1.627  -1.643   2.175  0.00  0.00     0.077 C 
ATOM      2  C1  UNL d   1      -0.384  -1.325   2.951  0.00  0.00    -0.074 A 
ATOM      3  C2  UNL d   1       0.174  -0.043   2.922  0.00  0.00    -0.005 A 
ATOM      4  C3  UNL d   1       1.325   0.240   3.657  0.00  0.00     0.006 A 
ATOM      5  C4  UNL d   1       1.929  -0.754   4.427  0.00  0.00    -0.005 A 
ATOM      6  C5  UNL d   1       1.385  -2.042   4.469  0.00  0.00    -0.074 A 
ATOM      7  C6  UNL d   1       2.017  -3.120   5.300  0.00  0.00     0.077 C 
ATOM      8  C7  UNL d   1       0.225  -2.317   3.734  0.00  0.00    -0.001 A 
ENDROOT
TORSDOF 0
ENDMDL
