MODEL 1
REMARK minimizedAffinity 10.7115049
REMARK minimizedRMSD -1
REMARK  0 active torsions:
REMARK  status: ('A' for Active; 'I' for Inactive)
ROOT
ATOM      1  C   UNL d   1      -2.250  -4.485  -5.854  0.00  0.00     0.077 C 
ATOM      2  C1  UNL d   1      -0.876  -3.921  -5.646  0.00  0.00    -0.074 A 
ATOM      3  C2  UNL d   1       0.263  -4.653  -6.000  0.00  0.00    -0.005 A 
ATOM      4  C3  UNL d   1       1.534  -4.112  -5.809  0.00  0.00     0.006 A 
ATOM      5  C4  UNL d   1       1.680  -2.836  -5.263  0.00  0.00    -0.005 A 
ATOM      6  C5  UNL d   1       0.553  -2.089  -4.904  0.00  0.00    -0.074 A 
ATOM      7  C6  UNL d   1       0.692  -0.713  -4.325  0.00  0.00     0.077 C 
ATOM      8  C7  UNL d   1      -0.721  -2.637  -5.105  0.00  0.00    -0.001 A 
ENDROOT
TORSDOF 0
ENDMDL
