MODEL 1
REMARK minimizedAffinity 4.94892073
REMARK minimizedRMSD -1
REMARK  0 active torsions:
REMARK  status: ('A' for Active; 'I' for Inactive)
ROOT
ATOM      1  C   UNL d   1      -1.966  -0.671   1.994  0.00  0.00     0.077 C 
ATOM      2  C1  UNL d   1      -0.605  -0.582   2.620  0.00  0.00    -0.074 A 
ATOM      3  C2  UNL d   1       0.132   0.605   2.572  0.00  0.00    -0.005 A 
ATOM      4  C3  UNL d   1       1.392   0.675   3.167  0.00  0.00     0.006 A 
ATOM      5  C4  UNL d   1       1.926  -0.440   3.815  0.00  0.00    -0.005 A 
ATOM      6  C5  UNL d   1       1.202  -1.635   3.874  0.00  0.00    -0.074 A 
ATOM      7  C6  UNL d   1       1.757  -2.839   4.576  0.00  0.00     0.077 C 
ATOM      8  C7  UNL d   1      -0.066  -1.695   3.280  0.00  0.00    -0.001 A 
ENDROOT
TORSDOF 0
ENDMDL
