MODEL 1
REMARK minimizedAffinity 8.7352457
REMARK minimizedRMSD -1
REMARK  0 active torsions:
REMARK  status: ('A' for Active; 'I' for Inactive)
ROOT
ATOM      1  C2' OXE d   1      -5.999   4.502  -1.128  0.00  0.00     0.078 C 
ATOM      2  C1' OXE d   1      -5.296   4.198  -3.829  0.00  0.00     0.078 C 
ATOM      3  C1  OXE d   1      -4.519   3.406  -2.806  0.00  0.00    -0.078 A 
ATOM      4  C2  OXE d   1      -4.839   3.597  -1.483  0.00  0.00    -0.078 A 
ATOM      5  C3  OXE d   1      -4.192   2.851  -0.503  0.00  0.00     0.003 A 
ATOM      6  C4  OXE d   1      -3.113   2.023  -0.839  0.00  0.00    -0.002 A 
ATOM      7  C5  OXE d   1      -2.745   1.845  -2.177  0.00  0.00    -0.002 A 
ATOM      8  C6  OXE d   1      -3.464   2.495  -3.174  0.00  0.00     0.003 A 
ENDROOT
TORSDOF 0
ENDMDL
