MODEL 1
REMARK minimizedAffinity 3.67297983
REMARK minimizedRMSD -1
REMARK  0 active torsions:
REMARK  status: ('A' for Active; 'I' for Inactive)
ROOT
ATOM      1  C2' OXE d   1      -5.939  -2.070  -5.858  0.00  0.00     0.078 C 
ATOM      2  C1' OXE d   1      -3.863  -2.169  -3.971  0.00  0.00     0.078 C 
ATOM      3  C1  OXE d   1      -4.372  -3.476  -4.527  0.00  0.00    -0.078 A 
ATOM      4  C2  OXE d   1      -5.419  -3.420  -5.414  0.00  0.00    -0.078 A 
ATOM      5  C3  OXE d   1      -5.891  -4.593  -5.998  0.00  0.00     0.003 A 
ATOM      6  C4  OXE d   1      -5.412  -5.838  -5.575  0.00  0.00    -0.002 A 
ATOM      7  C5  OXE d   1      -4.372  -5.919  -4.642  0.00  0.00    -0.002 A 
ATOM      8  C6  OXE d   1      -3.814  -4.749  -4.141  0.00  0.00     0.003 A 
ENDROOT
TORSDOF 0
ENDMDL
