MODEL 1
REMARK minimizedAffinity -1.37473774
REMARK minimizedRMSD -1
REMARK  0 active torsions:
REMARK  status: ('A' for Active; 'I' for Inactive)
ROOT
ATOM      1  C2' OXE d   1       2.999   4.121  -2.586  0.00  0.00     0.078 C 
ATOM      2  C1' OXE d   1       5.263   5.643  -1.921  0.00  0.00     0.078 C 
ATOM      3  C1  OXE d   1       5.077   5.253  -3.366  0.00  0.00    -0.078 A 
ATOM      4  C2  OXE d   1       3.992   4.468  -3.674  0.00  0.00    -0.078 A 
ATOM      5  C3  OXE d   1       3.744   4.125  -5.001  0.00  0.00     0.003 A 
ATOM      6  C4  OXE d   1       4.672   4.442  -6.000  0.00  0.00    -0.002 A 
ATOM      7  C5  OXE d   1       5.805   5.206  -5.700  0.00  0.00    -0.002 A 
ATOM      8  C6  OXE d   1       6.000   5.655  -4.399  0.00  0.00     0.003 A 
ENDROOT
TORSDOF 0
ENDMDL
