MODEL 1
REMARK minimizedAffinity 5.52551985
REMARK minimizedRMSD -1
REMARK  0 active torsions:
REMARK  status: ('A' for Active; 'I' for Inactive)
ROOT
ATOM      1  C2' OXE d   1       0.233   0.133   2.135  0.00  0.00     0.078 C 
ATOM      2  C1' OXE d   1       2.410  -1.578   1.673  0.00  0.00     0.078 C 
ATOM      3  C1  OXE d   1       1.699  -1.687   2.999  0.00  0.00    -0.078 A 
ATOM      4  C2  OXE d   1       0.664  -0.814   3.234  0.00  0.00    -0.078 A 
ATOM      5  C3  OXE d   1      -0.061  -0.909   4.419  0.00  0.00     0.003 A 
ATOM      6  C4  OXE d   1       0.350  -1.780   5.434  0.00  0.00    -0.002 A 
ATOM      7  C5  OXE d   1       1.426  -2.650   5.230  0.00  0.00    -0.002 A 
ATOM      8  C6  OXE d   1       2.083  -2.646   4.005  0.00  0.00     0.003 A 
ENDROOT
TORSDOF 0
ENDMDL
