MODEL 1
REMARK minimizedAffinity 1.0557363
REMARK minimizedRMSD -1
REMARK  0 active torsions:
REMARK  status: ('A' for Active; 'I' for Inactive)
ROOT
ATOM      1  C2' OXE d   1       2.745   4.894  -2.510  0.00  0.00     0.078 C 
ATOM      2  C1' OXE d   1       5.210   6.000  -1.746  0.00  0.00     0.078 C 
ATOM      3  C1  OXE d   1       4.993   5.707  -3.209  0.00  0.00    -0.078 A 
ATOM      4  C2  OXE d   1       3.803   5.123  -3.568  0.00  0.00    -0.078 A 
ATOM      5  C3  OXE d   1       3.530   4.883  -4.912  0.00  0.00     0.003 A 
ATOM      6  C4  OXE d   1       4.517   5.088  -5.883  0.00  0.00    -0.002 A 
ATOM      7  C5  OXE d   1       5.752   5.645  -5.534  0.00  0.00    -0.002 A 
ATOM      8  C6  OXE d   1       5.989   6.000  -4.210  0.00  0.00     0.003 A 
ENDROOT
TORSDOF 0
ENDMDL
