MODEL 1
REMARK minimizedAffinity 1.7460953
REMARK minimizedRMSD -1
REMARK  0 active torsions:
REMARK  status: ('A' for Active; 'I' for Inactive)
ROOT
ATOM      1  C2' OXE d   1       2.990   4.080  -2.233  0.00  0.00     0.078 C 
ATOM      2  C1' OXE d   1       4.860   6.000  -1.398  0.00  0.00     0.078 C 
ATOM      3  C1  OXE d   1       4.948   5.504  -2.819  0.00  0.00    -0.078 A 
ATOM      4  C2  OXE d   1       4.059   4.530  -3.206  0.00  0.00    -0.078 A 
ATOM      5  C3  OXE d   1       4.062   4.077  -4.522  0.00  0.00     0.003 A 
ATOM      6  C4  OXE d   1       5.060   4.492  -5.412  0.00  0.00    -0.002 A 
ATOM      7  C5  OXE d   1       6.000   5.454  -5.027  0.00  0.00    -0.002 A 
ATOM      8  C6  OXE d   1       5.932   6.000  -3.750  0.00  0.00     0.003 A 
ENDROOT
TORSDOF 0
ENDMDL
