MODEL 1
REMARK minimizedAffinity 11.8698473
REMARK minimizedRMSD -1
REMARK  0 active torsions:
REMARK  status: ('A' for Active; 'I' for Inactive)
ROOT
ATOM      1  C2' OXE d   1      -4.991   2.683  -4.230  0.00  0.00     0.078 C 
ATOM      2  C1' OXE d   1      -3.481   2.932  -1.876  0.00  0.00     0.078 C 
ATOM      3  C1  OXE d   1      -3.956   1.554  -2.265  0.00  0.00    -0.078 A 
ATOM      4  C2  OXE d   1      -4.734   1.449  -3.393  0.00  0.00    -0.078 A 
ATOM      5  C3  OXE d   1      -5.153   0.194  -3.826  0.00  0.00     0.003 A 
ATOM      6  C4  OXE d   1      -4.919  -0.942  -3.041  0.00  0.00    -0.002 A 
ATOM      7  C5  OXE d   1      -4.164  -0.850  -1.868  0.00  0.00    -0.002 A 
ATOM      8  C6  OXE d   1      -3.640   0.381  -1.489  0.00  0.00     0.003 A 
ENDROOT
TORSDOF 0
ENDMDL
