MODEL 1
REMARK minimizedAffinity 3.6450665
REMARK minimizedRMSD -1
REMARK  0 active torsions:
REMARK  status: ('A' for Active; 'I' for Inactive)
ROOT
ATOM      1  C2' OXE d   1       3.056   4.252  -1.899  0.00  0.00     0.078 C 
ATOM      2  C1' OXE d   1       5.188   5.948  -1.224  0.00  0.00     0.078 C 
ATOM      3  C1  OXE d   1       5.060   5.518  -2.664  0.00  0.00    -0.078 A 
ATOM      4  C2  OXE d   1       4.041   4.651  -2.977  0.00  0.00    -0.078 A 
ATOM      5  C3  OXE d   1       3.845   4.266  -4.300  0.00  0.00     0.003 A 
ATOM      6  C4  OXE d   1       4.766   4.631  -5.289  0.00  0.00    -0.002 A 
ATOM      7  C5  OXE d   1       5.834   5.482  -4.984  0.00  0.00    -0.002 A 
ATOM      8  C6  OXE d   1       5.970   5.968  -3.688  0.00  0.00     0.003 A 
ENDROOT
TORSDOF 0
ENDMDL
