MODEL 1
REMARK minimizedAffinity 10.2943411
REMARK minimizedRMSD -1
REMARK  0 active torsions:
REMARK  status: ('A' for Active; 'I' for Inactive)
ROOT
ATOM      1  C2' OXE d   1       2.853   3.387  -1.428  0.00  0.00     0.078 C 
ATOM      2  C1' OXE d   1       2.659   0.991  -2.877  0.00  0.00     0.078 C 
ATOM      3  C1  OXE d   1       2.808   0.897  -1.379  0.00  0.00    -0.078 A 
ATOM      4  C2  OXE d   1       2.949   2.073  -0.683  0.00  0.00    -0.078 A 
ATOM      5  C3  OXE d   1       3.034   2.046   0.706  0.00  0.00     0.003 A 
ATOM      6  C4  OXE d   1       3.131   0.827   1.387  0.00  0.00    -0.002 A 
ATOM      7  C5  OXE d   1       3.030  -0.384   0.693  0.00  0.00    -0.002 A 
ATOM      8  C6  OXE d   1       2.825  -0.365  -0.683  0.00  0.00     0.003 A 
ENDROOT
TORSDOF 0
ENDMDL
