MODEL 1
REMARK minimizedAffinity 11.9608955
REMARK minimizedRMSD -1
REMARK  0 active torsions:
REMARK  status: ('A' for Active; 'I' for Inactive)
ROOT
ATOM      1  C2' OXE d   1      -3.001   2.620  -1.397  0.00  0.00     0.078 C 
ATOM      2  C1' OXE d   1      -2.080   1.822   1.132  0.00  0.00     0.078 C 
ATOM      3  C1  OXE d   1      -3.468   2.405   1.041  0.00  0.00    -0.078 A 
ATOM      4  C2  OXE d   1      -3.893   2.836  -0.193  0.00  0.00    -0.078 A 
ATOM      5  C3  OXE d   1      -5.185   3.332  -0.343  0.00  0.00     0.003 A 
ATOM      6  C4  OXE d   1      -6.000   3.537   0.777  0.00  0.00    -0.002 A 
ATOM      7  C5  OXE d   1      -5.571   3.142   2.049  0.00  0.00    -0.002 A 
ATOM      8  C6  OXE d   1      -4.328   2.537   2.191  0.00  0.00     0.003 A 
ENDROOT
TORSDOF 0
ENDMDL
