MODEL 1
REMARK minimizedAffinity -1.67286062
REMARK minimizedRMSD -1
REMARK  0 active torsions:
REMARK  status: ('A' for Active; 'I' for Inactive)
ROOT
ATOM      1  C   UNL d   1      -0.875  -0.873   2.396  0.00  0.00    -0.002 A 
ATOM      2  C1  UNL d   1       0.492  -1.101   2.346  0.00  0.00     0.010 A 
ATOM      3  C2  UNL d   1       1.234  -0.726   1.224  0.00  0.00     0.041 A 
ATOM      4  C3  UNL d   1       0.572  -0.109   0.144  0.00  0.00    -0.075 A 
ATOM      5  S   UNL d   1       1.276   0.436  -1.332  0.00  0.00     0.015 SA
ATOM      6  C4  UNL d   1      -0.222   0.986  -1.930  0.00  0.00     0.022 A 
ATOM      7  C5  UNL d   1      -1.245   0.767  -1.038  0.00  0.00     0.026 A 
ATOM      8  C6  UNL d   1      -0.804   0.132   0.172  0.00  0.00    -0.082 A 
ATOM      9  C7  UNL d   1      -1.529  -0.261   1.323  0.00  0.00     0.045 A 
ENDROOT
TORSDOF 0
ENDMDL
