MODEL 1
REMARK minimizedAffinity -2.38418937
REMARK minimizedRMSD -1
REMARK  0 active torsions:
REMARK  status: ('A' for Active; 'I' for Inactive)
ROOT
ATOM      1  C   UNL d   1      -0.333  -0.513   2.442  0.00  0.00    -0.002 A 
ATOM      2  C1  UNL d   1       0.705  -1.388   2.153  0.00  0.00     0.010 A 
ATOM      3  C2  UNL d   1       1.222  -1.474   0.860  0.00  0.00     0.041 A 
ATOM      4  C3  UNL d   1       0.676  -0.656  -0.149  0.00  0.00    -0.075 A 
ATOM      5  S   UNL d   1       1.152  -0.589  -1.805  0.00  0.00     0.015 SA
ATOM      6  C4  UNL d   1      -0.011   0.603  -2.168  0.00  0.00     0.022 A 
ATOM      7  C5  UNL d   1      -0.752   0.954  -1.065  0.00  0.00     0.026 A 
ATOM      8  C6  UNL d   1      -0.368   0.234   0.118  0.00  0.00    -0.082 A 
ATOM      9  C7  UNL d   1      -0.872   0.297   1.439  0.00  0.00     0.045 A 
ENDROOT
TORSDOF 0
ENDMDL
