MODEL 1
REMARK minimizedAffinity -1.97547233
REMARK minimizedRMSD -1
REMARK  0 active torsions:
REMARK  status: ('A' for Active; 'I' for Inactive)
ROOT
ATOM      1  C   UNL d   1       0.232  -0.957   2.792  0.00  0.00    -0.002 A 
ATOM      2  C1  UNL d   1       1.441  -1.266   2.184  0.00  0.00     0.010 A 
ATOM      3  C2  UNL d   1       1.663  -0.947   0.843  0.00  0.00     0.041 A 
ATOM      4  C3  UNL d   1       0.641  -0.305   0.117  0.00  0.00    -0.075 A 
ATOM      5  S   UNL d   1       0.689   0.181  -1.537  0.00  0.00     0.015 SA
ATOM      6  C4  UNL d   1      -0.894   0.811  -1.475  0.00  0.00     0.022 A 
ATOM      7  C5  UNL d   1      -1.460   0.661  -0.231  0.00  0.00     0.026 A 
ATOM      8  C6  UNL d   1      -0.585   0.016   0.707  0.00  0.00    -0.082 A 
ATOM      9  C7  UNL d   1      -0.780  -0.321   2.068  0.00  0.00     0.045 A 
ENDROOT
TORSDOF 0
ENDMDL
