MODEL 1
REMARK minimizedAffinity -2.09979701
REMARK minimizedRMSD -1
REMARK  0 active torsions:
REMARK  status: ('A' for Active; 'I' for Inactive)
ROOT
ATOM      1  C   UNL d   1       1.033  -1.373   3.299  0.00  0.00    -0.002 A 
ATOM      2  C1  UNL d   1       2.044  -0.674   2.654  0.00  0.00     0.010 A 
ATOM      3  C2  UNL d   1       1.794  -0.016   1.448  0.00  0.00     0.041 A 
ATOM      4  C3  UNL d   1       0.499  -0.071   0.897  0.00  0.00    -0.075 A 
ATOM      5  S   UNL d   1      -0.039   0.659  -0.569  0.00  0.00     0.015 SA
ATOM      6  C4  UNL d   1      -1.623   0.062  -0.373  0.00  0.00     0.022 A 
ATOM      7  C5  UNL d   1      -1.756  -0.679   0.778  0.00  0.00     0.026 A 
ATOM      8  C6  UNL d   1      -0.535  -0.767   1.529  0.00  0.00    -0.082 A 
ATOM      9  C7  UNL d   1      -0.250  -1.425   2.750  0.00  0.00     0.045 A 
ENDROOT
TORSDOF 0
ENDMDL
