MODEL 1
REMARK minimizedAffinity -0.893791378
REMARK minimizedRMSD -1
REMARK  0 active torsions:
REMARK  status: ('A' for Active; 'I' for Inactive)
ROOT
ATOM      1  C   UNL d   1       0.234   0.080   2.855  0.00  0.00    -0.002 A 
ATOM      2  C1  UNL d   1       1.507  -0.459   2.738  0.00  0.00     0.010 A 
ATOM      3  C2  UNL d   1       1.986  -0.888   1.498  0.00  0.00     0.041 A 
ATOM      4  C3  UNL d   1       1.155  -0.764   0.367  0.00  0.00    -0.075 A 
ATOM      5  S   UNL d   1       1.529  -1.221  -1.253  0.00  0.00     0.015 SA
ATOM      6  C4  UNL d   1       0.008  -0.712  -1.827  0.00  0.00     0.022 A 
ATOM      7  C5  UNL d   1      -0.779  -0.202  -0.821  0.00  0.00     0.026 A 
ATOM      8  C6  UNL d   1      -0.131  -0.224   0.460  0.00  0.00    -0.082 A 
ATOM      9  C7  UNL d   1      -0.587   0.201   1.731  0.00  0.00     0.045 A 
ENDROOT
TORSDOF 0
ENDMDL
