MODEL 1
REMARK minimizedAffinity -1.39189076
REMARK minimizedRMSD -1
REMARK  0 active torsions:
REMARK  status: ('A' for Active; 'I' for Inactive)
ROOT
ATOM      1  C   UNL d   1      -0.626  -0.215   2.718  0.00  0.00    -0.002 A 
ATOM      2  C1  UNL d   1       0.638  -0.721   2.988  0.00  0.00     0.010 A 
ATOM      3  C2  UNL d   1       1.521  -1.019   1.949  0.00  0.00     0.041 A 
ATOM      4  C3  UNL d   1       1.110  -0.796   0.620  0.00  0.00    -0.075 A 
ATOM      5  S   UNL d   1       2.024  -1.087  -0.813  0.00  0.00     0.015 SA
ATOM      6  C4  UNL d   1       0.758  -0.546  -1.818  0.00  0.00     0.022 A 
ATOM      7  C5  UNL d   1      -0.342  -0.150  -1.095  0.00  0.00     0.026 A 
ATOM      8  C6  UNL d   1      -0.157  -0.287   0.322  0.00  0.00    -0.082 A 
ATOM      9  C7  UNL d   1      -1.030   0.004   1.398  0.00  0.00     0.045 A 
ENDROOT
TORSDOF 0
ENDMDL
