MODEL 1
REMARK minimizedAffinity -2.96931577
REMARK minimizedRMSD -1
REMARK  0 active torsions:
REMARK  status: ('A' for Active; 'I' for Inactive)
ROOT
ATOM      1  C   UNL d   1       0.515   0.108   2.903  0.00  0.00    -0.002 A 
ATOM      2  C1  UNL d   1      -0.759  -0.434   2.796  0.00  0.00     0.010 A 
ATOM      3  C2  UNL d   1      -1.326  -0.672   1.543  0.00  0.00     0.041 A 
ATOM      4  C3  UNL d   1      -0.585  -0.355   0.387  0.00  0.00    -0.075 A 
ATOM      5  S   UNL d   1      -1.077  -0.561  -1.252  0.00  0.00     0.015 SA
ATOM      6  C4  UNL d   1       0.391   0.064  -1.849  0.00  0.00     0.022 A 
ATOM      7  C5  UNL d   1       1.248   0.427  -0.837  0.00  0.00     0.026 A 
ATOM      8  C6  UNL d   1       0.699   0.191   0.469  0.00  0.00    -0.082 A 
ATOM      9  C7  UNL d   1       1.247   0.421   1.754  0.00  0.00     0.045 A 
ENDROOT
TORSDOF 0
ENDMDL
