MODEL 1
REMARK minimizedAffinity 2.46027708
REMARK minimizedRMSD -1
REMARK  0 active torsions:
REMARK  status: ('A' for Active; 'I' for Inactive)
ROOT
ATOM      1  C   UNL d   1       0.530  -2.275  -3.450  0.00  0.00    -0.002 A 
ATOM      2  C1  UNL d   1       1.656  -1.471  -3.341  0.00  0.00     0.010 A 
ATOM      3  C2  UNL d   1       1.689  -0.415  -2.427  0.00  0.00     0.041 A 
ATOM      4  C3  UNL d   1       0.562  -0.181  -1.615  0.00  0.00    -0.075 A 
ATOM      5  S   UNL d   1       0.377   1.052  -0.425  0.00  0.00     0.015 SA
ATOM      6  C4  UNL d   1      -1.201   0.540  -0.032  0.00  0.00     0.022 A 
ATOM      7  C5  UNL d   1      -1.592  -0.544  -0.782  0.00  0.00     0.026 A 
ATOM      8  C6  UNL d   1      -0.583  -0.978  -1.706  0.00  0.00    -0.082 A 
ATOM      9  C7  UNL d   1      -0.586  -2.039  -2.643  0.00  0.00     0.045 A 
ENDROOT
TORSDOF 0
ENDMDL
