MODEL 1
REMARK minimizedAffinity -1.35626113
REMARK minimizedRMSD -1
REMARK  0 active torsions:
REMARK  status: ('A' for Active; 'I' for Inactive)
ROOT
ATOM      1  C   UNL d   1      -1.028  -0.804   2.151  0.00  0.00    -0.002 A 
ATOM      2  C1  UNL d   1      -2.276  -0.463   1.650  0.00  0.00     0.010 A 
ATOM      3  C2  UNL d   1      -2.422  -0.059   0.321  0.00  0.00     0.041 A 
ATOM      4  C3  UNL d   1      -1.281  -0.006  -0.504  0.00  0.00    -0.075 A 
ATOM      5  S   UNL d   1      -1.220   0.458  -2.163  0.00  0.00     0.015 SA
ATOM      6  C4  UNL d   1       0.465   0.213  -2.246  0.00  0.00     0.022 A 
ATOM      7  C5  UNL d   1       0.984  -0.212  -1.046  0.00  0.00     0.026 A 
ATOM      8  C6  UNL d   1      -0.014  -0.346  -0.022  0.00  0.00    -0.082 A 
ATOM      9  C7  UNL d   1       0.101  -0.750   1.330  0.00  0.00     0.045 A 
ENDROOT
TORSDOF 0
ENDMDL
