MODEL 1
REMARK minimizedAffinity -3.34258914
REMARK minimizedRMSD -1
REMARK  0 active torsions:
REMARK  status: ('A' for Active; 'I' for Inactive)
ROOT
ATOM      1  C   UNL d   1       1.070  -0.556   2.922  0.00  0.00    -0.002 A 
ATOM      2  C1  UNL d   1      -0.282  -0.763   3.158  0.00  0.00     0.010 A 
ATOM      3  C2  UNL d   1      -1.217  -0.583   2.136  0.00  0.00     0.041 A 
ATOM      4  C3  UNL d   1      -0.766  -0.190   0.861  0.00  0.00    -0.075 A 
ATOM      5  S   UNL d   1      -1.729   0.090  -0.541  0.00  0.00     0.015 SA
ATOM      6  C4  UNL d   1      -0.369   0.490  -1.487  0.00  0.00     0.022 A 
ATOM      7  C5  UNL d   1       0.800   0.417  -0.766  0.00  0.00     0.026 A 
ATOM      8  C6  UNL d   1       0.590   0.024   0.599  0.00  0.00    -0.082 A 
ATOM      9  C7  UNL d   1       1.513  -0.166   1.655  0.00  0.00     0.045 A 
ENDROOT
TORSDOF 0
ENDMDL
