MODEL 1
REMARK minimizedAffinity -3.43431497
REMARK minimizedRMSD -1
REMARK  0 active torsions:
REMARK  status: ('A' for Active; 'I' for Inactive)
ROOT
ATOM      1  C   UNL d   1       0.422  -0.710   3.072  0.00  0.00    -0.002 A 
ATOM      2  C1  UNL d   1      -0.961  -0.811   3.108  0.00  0.00     0.010 A 
ATOM      3  C2  UNL d   1      -1.731  -0.426   2.009  0.00  0.00     0.041 A 
ATOM      4  C3  UNL d   1      -1.080   0.066   0.860  0.00  0.00    -0.075 A 
ATOM      5  S   UNL d   1      -1.818   0.596  -0.605  0.00  0.00     0.015 SA
ATOM      6  C4  UNL d   1      -0.314   0.969  -1.315  0.00  0.00     0.022 A 
ATOM      7  C5  UNL d   1       0.736   0.702  -0.468  0.00  0.00     0.026 A 
ATOM      8  C6  UNL d   1       0.312   0.176   0.799  0.00  0.00    -0.082 A 
ATOM      9  C7  UNL d   1       1.064  -0.221   1.930  0.00  0.00     0.045 A 
ENDROOT
TORSDOF 0
ENDMDL
