MODEL 1
REMARK minimizedAffinity -2.56464672
REMARK minimizedRMSD -1
REMARK  0 active torsions:
REMARK  status: ('A' for Active; 'I' for Inactive)
ROOT
ATOM      1  C   UNL d   1      -1.115   1.186  -1.280  0.00  0.00    -0.002 A 
ATOM      2  C1  UNL d   1      -2.231   1.059  -0.465  0.00  0.00     0.010 A 
ATOM      3  C2  UNL d   1      -2.102   0.608   0.850  0.00  0.00     0.041 A 
ATOM      4  C3  UNL d   1      -0.821   0.287   1.338  0.00  0.00    -0.075 A 
ATOM      5  S   UNL d   1      -0.422  -0.283   2.916  0.00  0.00     0.015 SA
ATOM      6  C4  UNL d   1       1.240  -0.371   2.545  0.00  0.00     0.022 A 
ATOM      7  C5  UNL d   1       1.501   0.021   1.254  0.00  0.00     0.026 A 
ATOM      8  C6  UNL d   1       0.318   0.407   0.537  0.00  0.00    -0.082 A 
ATOM      9  C7  UNL d   1       0.155   0.866  -0.792  0.00  0.00     0.045 A 
ENDROOT
TORSDOF 0
ENDMDL
