MODEL 1
REMARK minimizedAffinity -3.39037943
REMARK minimizedRMSD -1
REMARK  0 active torsions:
REMARK  status: ('A' for Active; 'I' for Inactive)
ROOT
ATOM      1  C   UNL d   1      -2.677  -1.033   3.053  0.00  0.00    -0.002 A 
ATOM      2  C1  UNL d   1      -2.690  -1.353   1.703  0.00  0.00     0.010 A 
ATOM      3  C2  UNL d   1      -1.642  -0.957   0.869  0.00  0.00     0.041 A 
ATOM      4  C3  UNL d   1      -0.570  -0.229   1.422  0.00  0.00    -0.075 A 
ATOM      5  S   UNL d   1       0.823   0.360   0.593  0.00  0.00     0.015 SA
ATOM      6  C4  UNL d   1       1.468   1.050   2.012  0.00  0.00     0.022 A 
ATOM      7  C5  UNL d   1       0.653   0.845   3.101  0.00  0.00     0.026 A 
ATOM      8  C6  UNL d   1      -0.534   0.104   2.779  0.00  0.00    -0.082 A 
ATOM      9  C7  UNL d   1      -1.612  -0.310   3.597  0.00  0.00     0.045 A 
ENDROOT
TORSDOF 0
ENDMDL
