MODEL 1
REMARK minimizedAffinity 1.34142852
REMARK minimizedRMSD -1
REMARK  0 active torsions:
REMARK  status: ('A' for Active; 'I' for Inactive)
ROOT
ATOM      1  C   UNL d   1      -1.571  -0.104   3.954  0.00  0.00    -0.002 A 
ATOM      2  C1  UNL d   1      -0.878   1.090   3.820  0.00  0.00     0.010 A 
ATOM      3  C2  UNL d   1      -0.431   1.516   2.568  0.00  0.00     0.041 A 
ATOM      4  C3  UNL d   1      -0.696   0.713   1.441  0.00  0.00    -0.075 A 
ATOM      5  S   UNL d   1      -0.246   1.033  -0.192  0.00  0.00     0.015 SA
ATOM      6  C4  UNL d   1      -0.964  -0.408  -0.751  0.00  0.00     0.022 A 
ATOM      7  C5  UNL d   1      -1.537  -1.128   0.270  0.00  0.00     0.026 A 
ATOM      8  C6  UNL d   1      -1.393  -0.494   1.550  0.00  0.00    -0.082 A 
ATOM      9  C7  UNL d   1      -1.832  -0.898   2.834  0.00  0.00     0.045 A 
ENDROOT
TORSDOF 0
ENDMDL
