MODEL 1
REMARK minimizedAffinity -3.77837706
REMARK minimizedRMSD -1
REMARK  0 active torsions:
REMARK  status: ('A' for Active; 'I' for Inactive)
ROOT
ATOM      1  C   UNL d   1      -1.852  -0.293   3.064  0.00  0.00    -0.002 A 
ATOM      2  C1  UNL d   1      -2.951   0.148   2.340  0.00  0.00     0.010 A 
ATOM      3  C2  UNL d   1      -2.863   0.340   0.960  0.00  0.00     0.041 A 
ATOM      4  C3  UNL d   1      -1.639   0.077   0.313  0.00  0.00    -0.075 A 
ATOM      5  S   UNL d   1      -1.297   0.240  -1.369  0.00  0.00     0.015 SA
ATOM      6  C4  UNL d   1       0.315  -0.273  -1.167  0.00  0.00     0.022 A 
ATOM      7  C5  UNL d   1       0.603  -0.566   0.145  0.00  0.00     0.026 A 
ATOM      8  C6  UNL d   1      -0.519  -0.369   1.019  0.00  0.00    -0.082 A 
ATOM      9  C7  UNL d   1      -0.641  -0.553   2.418  0.00  0.00     0.045 A 
ENDROOT
TORSDOF 0
ENDMDL
