MODEL 1
REMARK minimizedAffinity -4.87883568
REMARK minimizedRMSD -1
REMARK  0 active torsions:
REMARK  status: ('A' for Active; 'I' for Inactive)
ROOT
ATOM      1  C   UNL d   1      -2.830   0.505   0.050  0.00  0.00    -0.002 A 
ATOM      2  C1  UNL d   1      -1.924   0.611  -0.996  0.00  0.00     0.010 A 
ATOM      3  C2  UNL d   1      -0.550   0.610  -0.748  0.00  0.00     0.041 A 
ATOM      4  C3  UNL d   1      -0.098   0.498   0.582  0.00  0.00    -0.075 A 
ATOM      5  S   UNL d   1       1.539   0.474   1.124  0.00  0.00     0.015 SA
ATOM      6  C4  UNL d   1       1.073   0.321   2.757  0.00  0.00     0.022 A 
ATOM      7  C5  UNL d   1      -0.293   0.288   2.903  0.00  0.00     0.026 A 
ATOM      8  C6  UNL d   1      -0.991   0.389   1.651  0.00  0.00    -0.082 A 
ATOM      9  C7  UNL d   1      -2.378   0.393   1.367  0.00  0.00     0.045 A 
ENDROOT
TORSDOF 0
ENDMDL
