MODEL 1
REMARK minimizedAffinity -2.5351665
REMARK minimizedRMSD -1
REMARK  0 active torsions:
REMARK  status: ('A' for Active; 'I' for Inactive)
ROOT
ATOM      1  C   UNL d   1      -3.121   0.966   1.964  0.00  0.00     0.077 C 
ATOM      2  C1  UNL d   1      -1.730   0.598   1.542  0.00  0.00    -0.074 A 
ATOM      3  C2  UNL d   1      -0.704   0.468   2.483  0.00  0.00    -0.005 A 
ATOM      4  C3  UNL d   1       0.583   0.116   2.076  0.00  0.00     0.006 A 
ATOM      5  C4  UNL d   1       0.856  -0.110   0.726  0.00  0.00    -0.005 A 
ATOM      6  C5  UNL d   1      -0.158   0.014  -0.229  0.00  0.00    -0.074 A 
ATOM      7  C6  UNL d   1       0.116  -0.234  -1.682  0.00  0.00     0.077 C 
ATOM      8  C7  UNL d   1      -1.450   0.362   0.189  0.00  0.00    -0.001 A 
ENDROOT
TORSDOF 0
ENDMDL
