MODEL 1
REMARK minimizedAffinity -3.72662735
REMARK minimizedRMSD -1
REMARK  0 active torsions:
REMARK  status: ('A' for Active; 'I' for Inactive)
ROOT
ATOM      1  C   UNL d   1       1.886   0.332   0.371  0.00  0.00     0.077 C 
ATOM      2  C1  UNL d   1       0.402   0.386   0.584  0.00  0.00    -0.074 A 
ATOM      3  C2  UNL d   1      -0.481   0.356  -0.500  0.00  0.00    -0.005 A 
ATOM      4  C3  UNL d   1      -1.859   0.397  -0.285  0.00  0.00     0.006 A 
ATOM      5  C4  UNL d   1      -2.366   0.468   1.013  0.00  0.00    -0.005 A 
ATOM      6  C5  UNL d   1      -1.498   0.498   2.109  0.00  0.00    -0.074 A 
ATOM      7  C6  UNL d   1      -2.026   0.564   3.511  0.00  0.00     0.077 C 
ATOM      8  C7  UNL d   1      -0.115   0.449   1.886  0.00  0.00    -0.001 A 
ENDROOT
TORSDOF 0
ENDMDL
