MODEL 1
REMARK minimizedAffinity -1.69450104
REMARK minimizedRMSD -1
REMARK  0 active torsions:
REMARK  status: ('A' for Active; 'I' for Inactive)
ROOT
ATOM      1  C   UNL d   1      -0.030   0.327  -1.610  0.00  0.00     0.077 C 
ATOM      2  C1  UNL d   1      -0.215   0.351  -0.122  0.00  0.00    -0.074 A 
ATOM      3  C2  UNL d   1       0.858   0.101   0.740  0.00  0.00    -0.005 A 
ATOM      4  C3  UNL d   1       0.673   0.136   2.122  0.00  0.00     0.006 A 
ATOM      5  C4  UNL d   1      -0.585   0.420   2.655  0.00  0.00    -0.005 A 
ATOM      6  C5  UNL d   1      -1.669   0.674   1.809  0.00  0.00    -0.074 A 
ATOM      7  C6  UNL d   1      -3.025   0.991   2.366  0.00  0.00     0.077 C 
ATOM      8  C7  UNL d   1      -1.473   0.644   0.422  0.00  0.00    -0.001 A 
ENDROOT
TORSDOF 0
ENDMDL
