MODEL 1
REMARK minimizedAffinity -2.97174454
REMARK minimizedRMSD -1
REMARK  0 active torsions:
REMARK  status: ('A' for Active; 'I' for Inactive)
ROOT
ATOM      1  C   UNL d   1       0.195  -0.537  -3.492  0.00  0.00     0.077 C 
ATOM      2  C1  UNL d   1       0.754  -0.717  -2.112  0.00  0.00    -0.074 A 
ATOM      3  C2  UNL d   1       1.834  -1.575  -1.880  0.00  0.00    -0.005 A 
ATOM      4  C3  UNL d   1       2.348  -1.725  -0.592  0.00  0.00     0.006 A 
ATOM      5  C4  UNL d   1       1.789  -1.020   0.474  0.00  0.00    -0.005 A 
ATOM      6  C5  UNL d   1       0.710  -0.157   0.261  0.00  0.00    -0.074 A 
ATOM      7  C6  UNL d   1       0.104   0.615   1.395  0.00  0.00     0.077 C 
ATOM      8  C7  UNL d   1       0.203  -0.006  -1.037  0.00  0.00    -0.001 A 
ENDROOT
TORSDOF 0
ENDMDL
