MODEL 1
REMARK minimizedAffinity -3.11319137
REMARK minimizedRMSD -1
REMARK  0 active torsions:
REMARK  status: ('A' for Active; 'I' for Inactive)
ROOT
ATOM      1  C   UNL d   1       0.797  -1.810   1.138  0.00  0.00     0.077 C 
ATOM      2  C1  UNL d   1       0.690  -1.002  -0.121  0.00  0.00    -0.074 A 
ATOM      3  C2  UNL d   1       0.301   0.340  -0.083  0.00  0.00    -0.005 A 
ATOM      4  C3  UNL d   1       0.214   1.081  -1.261  0.00  0.00     0.006 A 
ATOM      5  C4  UNL d   1       0.515   0.488  -2.488  0.00  0.00    -0.005 A 
ATOM      6  C5  UNL d   1       0.907  -0.853  -2.546  0.00  0.00    -0.074 A 
ATOM      7  C6  UNL d   1       1.244  -1.504  -3.855  0.00  0.00     0.077 C 
ATOM      8  C7  UNL d   1       0.998  -1.589  -1.356  0.00  0.00    -0.001 A 
ENDROOT
TORSDOF 0
ENDMDL
