MODEL 1
REMARK minimizedAffinity 0.380379587
REMARK minimizedRMSD -1
REMARK  0 active torsions:
REMARK  status: ('A' for Active; 'I' for Inactive)
ROOT
ATOM      1  C   UNL d   1      -2.069   1.131   2.567  0.00  0.00     0.077 C 
ATOM      2  C1  UNL d   1      -0.774   0.702   1.942  0.00  0.00    -0.074 A 
ATOM      3  C2  UNL d   1       0.386   0.570   2.712  0.00  0.00    -0.005 A 
ATOM      4  C3  UNL d   1       1.581   0.161   2.119  0.00  0.00     0.006 A 
ATOM      5  C4  UNL d   1       1.627  -0.119   0.753  0.00  0.00    -0.005 A 
ATOM      6  C5  UNL d   1       0.476   0.006  -0.033  0.00  0.00    -0.074 A 
ATOM      7  C6  UNL d   1       0.506  -0.300  -1.500  0.00  0.00     0.077 C 
ATOM      8  C7  UNL d   1      -0.722   0.411   0.572  0.00  0.00    -0.001 A 
ENDROOT
TORSDOF 0
ENDMDL
