MODEL 1
REMARK minimizedAffinity -4.47965145
REMARK minimizedRMSD -1
REMARK  0 active torsions:
REMARK  status: ('A' for Active; 'I' for Inactive)
ROOT
ATOM      1  C   UNL d   1       0.722   0.345  -1.365  0.00  0.00     0.077 C 
ATOM      2  C1  UNL d   1       0.156   0.411   0.023  0.00  0.00    -0.074 A 
ATOM      3  C2  UNL d   1       0.987   0.313   1.144  0.00  0.00    -0.005 A 
ATOM      4  C3  UNL d   1       0.447   0.386   2.428  0.00  0.00     0.006 A 
ATOM      5  C4  UNL d   1      -0.927   0.557   2.604  0.00  0.00    -0.005 A 
ATOM      6  C5  UNL d   1      -1.773   0.658   1.495  0.00  0.00    -0.074 A 
ATOM      7  C6  UNL d   1      -3.251   0.851   1.666  0.00  0.00     0.077 C 
ATOM      8  C7  UNL d   1      -1.222   0.591   0.208  0.00  0.00    -0.001 A 
ENDROOT
TORSDOF 0
ENDMDL
