MODEL 1
REMARK minimizedAffinity -0.471527696
REMARK minimizedRMSD -1
REMARK  0 active torsions:
REMARK  status: ('A' for Active; 'I' for Inactive)
ROOT
ATOM      1  C   UNL d   1       0.202   0.242  -1.358  0.00  0.00     0.077 C 
ATOM      2  C1  UNL d   1       0.180   0.234   0.142  0.00  0.00    -0.074 A 
ATOM      3  C2  UNL d   1       1.335  -0.055   0.876  0.00  0.00    -0.005 A 
ATOM      4  C3  UNL d   1       1.302  -0.049   2.270  0.00  0.00     0.006 A 
ATOM      5  C4  UNL d   1       0.115   0.244   2.944  0.00  0.00    -0.005 A 
ATOM      6  C5  UNL d   1      -1.050   0.536   2.226  0.00  0.00    -0.074 A 
ATOM      7  C6  UNL d   1      -2.331   0.863   2.934  0.00  0.00     0.077 C 
ATOM      8  C7  UNL d   1      -1.006   0.535   0.825  0.00  0.00    -0.001 A 
ENDROOT
TORSDOF 0
ENDMDL
