MODEL 1
REMARK minimizedAffinity -0.794519365
REMARK minimizedRMSD -1
REMARK  0 active torsions:
REMARK  status: ('A' for Active; 'I' for Inactive)
ROOT
ATOM      1  C   UNL d   1       1.494  -0.028   2.103  0.00  0.00     0.077 C 
ATOM      2  C1  UNL d   1       0.736   0.112   0.817  0.00  0.00    -0.074 A 
ATOM      3  C2  UNL d   1      -0.447   0.855   0.757  0.00  0.00    -0.005 A 
ATOM      4  C3  UNL d   1      -1.136   0.984  -0.449  0.00  0.00     0.006 A 
ATOM      5  C4  UNL d   1      -0.649   0.372  -1.605  0.00  0.00    -0.005 A 
ATOM      6  C5  UNL d   1       0.532  -0.374  -1.564  0.00  0.00    -0.074 A 
ATOM      7  C6  UNL d   1       1.074  -1.030  -2.800  0.00  0.00     0.077 C 
ATOM      8  C7  UNL d   1       1.223  -0.493  -0.350  0.00  0.00    -0.001 A 
ENDROOT
TORSDOF 0
ENDMDL
