MODEL 1
REMARK minimizedAffinity -4.87907314
REMARK minimizedRMSD -1
REMARK  0 active torsions:
REMARK  status: ('A' for Active; 'I' for Inactive)
ROOT
ATOM      1  C   UNL d   1      -3.325   0.814   2.125  0.00  0.00     0.077 C 
ATOM      2  C1  UNL d   1      -1.900   0.525   1.758  0.00  0.00    -0.074 A 
ATOM      3  C2  UNL d   1      -0.936   0.294   2.745  0.00  0.00    -0.005 A 
ATOM      4  C3  UNL d   1       0.383   0.017   2.388  0.00  0.00     0.006 A 
ATOM      5  C4  UNL d   1       0.752  -0.032   1.043  0.00  0.00    -0.005 A 
ATOM      6  C5  UNL d   1      -0.198   0.195   0.042  0.00  0.00    -0.074 A 
ATOM      7  C6  UNL d   1       0.179   0.136  -1.408  0.00  0.00     0.077 C 
ATOM      8  C7  UNL d   1      -1.524   0.466   0.409  0.00  0.00    -0.001 A 
ENDROOT
TORSDOF 0
ENDMDL
