MODEL 1
REMARK minimizedAffinity -2.79998016
REMARK minimizedRMSD -1
REMARK  0 active torsions:
REMARK  status: ('A' for Active; 'I' for Inactive)
ROOT
ATOM      1  C   UNL d   1      -3.188   0.789   1.259  0.00  0.00     0.077 C 
ATOM      2  C1  UNL d   1      -1.712   0.547   1.141  0.00  0.00    -0.074 A 
ATOM      3  C2  UNL d   1      -0.903   0.474   2.280  0.00  0.00    -0.005 A 
ATOM      4  C3  UNL d   1       0.466   0.239   2.155  0.00  0.00     0.006 A 
ATOM      5  C4  UNL d   1       1.039   0.075   0.894  0.00  0.00    -0.005 A 
ATOM      6  C5  UNL d   1       0.246   0.144  -0.256  0.00  0.00    -0.074 A 
ATOM      7  C6  UNL d   1       0.844  -0.039  -1.619  0.00  0.00     0.077 C 
ATOM      8  C7  UNL d   1      -1.130   0.374  -0.122  0.00  0.00    -0.001 A 
ENDROOT
TORSDOF 0
ENDMDL
