MODEL 1
REMARK minimizedAffinity -1.8338027
REMARK minimizedRMSD -1
REMARK  0 active torsions:
REMARK  status: ('A' for Active; 'I' for Inactive)
ROOT
ATOM      1  C   UNL d   1       1.427  -0.161   1.323  0.00  0.00     0.077 C 
ATOM      2  C1  UNL d   1       0.857  -0.156  -0.064  0.00  0.00    -0.074 A 
ATOM      3  C2  UNL d   1      -0.095   0.795  -0.446  0.00  0.00    -0.005 A 
ATOM      4  C3  UNL d   1      -0.610   0.793  -1.742  0.00  0.00     0.006 A 
ATOM      5  C4  UNL d   1      -0.179  -0.158  -2.668  0.00  0.00    -0.005 A 
ATOM      6  C5  UNL d   1       0.773  -1.116  -2.304  0.00  0.00    -0.074 A 
ATOM      7  C6  UNL d   1       1.255  -2.138  -3.290  0.00  0.00     0.077 C 
ATOM      8  C7  UNL d   1       1.291  -1.103  -1.002  0.00  0.00    -0.001 A 
ENDROOT
TORSDOF 0
ENDMDL
