MODEL 1
REMARK minimizedAffinity -4.56646538
REMARK minimizedRMSD -1
REMARK  0 active torsions:
REMARK  status: ('A' for Active; 'I' for Inactive)
ROOT
ATOM      1  C   UNL d   1       0.297  -0.002  -1.367  0.00  0.00     0.077 C 
ATOM      2  C1  UNL d   1      -0.072   0.136   0.080  0.00  0.00    -0.074 A 
ATOM      3  C2  UNL d   1       0.904   0.070   1.080  0.00  0.00    -0.005 A 
ATOM      4  C3  UNL d   1       0.546   0.209   2.421  0.00  0.00     0.006 A 
ATOM      5  C4  UNL d   1      -0.787   0.416   2.775  0.00  0.00    -0.005 A 
ATOM      6  C5  UNL d   1      -1.776   0.486   1.789  0.00  0.00    -0.074 A 
ATOM      7  C6  UNL d   1      -3.213   0.718   2.152  0.00  0.00     0.077 C 
ATOM      8  C7  UNL d   1      -1.409   0.352   0.443  0.00  0.00    -0.001 A 
ENDROOT
TORSDOF 0
ENDMDL
