MODEL 1
REMARK minimizedAffinity -1.34638941
REMARK minimizedRMSD -1
REMARK  0 active torsions:
REMARK  status: ('A' for Active; 'I' for Inactive)
ROOT
ATOM      1  C   UNL d   1       1.489  -0.419   1.403  0.00  0.00     0.077 C 
ATOM      2  C1  UNL d   1       0.864  -0.219   0.054  0.00  0.00    -0.074 A 
ATOM      3  C2  UNL d   1      -0.013   0.844  -0.181  0.00  0.00    -0.005 A 
ATOM      4  C3  UNL d   1      -0.579   1.023  -1.444  0.00  0.00     0.006 A 
ATOM      5  C4  UNL d   1      -0.275   0.141  -2.481  0.00  0.00    -0.005 A 
ATOM      6  C5  UNL d   1       0.601  -0.928  -2.265  0.00  0.00    -0.074 A 
ATOM      7  C6  UNL d   1       0.947  -1.879  -3.371  0.00  0.00     0.077 C 
ATOM      8  C7  UNL d   1       1.171  -1.096  -0.995  0.00  0.00    -0.001 A 
ENDROOT
TORSDOF 0
ENDMDL
