MODEL 1
REMARK minimizedAffinity 7.1145401
REMARK minimizedRMSD -1
REMARK  0 active torsions:
REMARK  status: ('A' for Active; 'I' for Inactive)
ROOT
ATOM      1  O1  BZF d   1       2.173  -1.642   3.125  0.00  0.00    -0.204 OA
ATOM      2  C2  BZF d   1       1.784  -2.192   4.331  0.00  0.00     0.174 A 
ATOM      3  C3  BZF d   1       0.466  -2.000   4.541  0.00  0.00    -0.012 A 
ATOM      4  C3A BZF d   1      -0.016  -1.366   3.352  0.00  0.00    -0.107 A 
ATOM      5  C4  BZF d   1      -1.249  -0.936   2.951  0.00  0.00     0.055 A 
ATOM      6  C5  BZF d   1      -1.369  -0.292   1.761  0.00  0.00    -0.016 A 
ATOM      7  C6  BZF d   1      -0.278  -0.055   0.950  0.00  0.00     0.022 A 
ATOM      8  C7  BZF d   1       0.964  -0.467   1.303  0.00  0.00     0.029 A 
ATOM      9  C7A BZF d   1       1.083  -1.148   2.490  0.00  0.00     0.058 A 
ENDROOT
TORSDOF 0
ENDMDL
