MODEL 1
REMARK minimizedAffinity 1.77726245
REMARK minimizedRMSD -1
REMARK  0 active torsions:
REMARK  status: ('A' for Active; 'I' for Inactive)
ROOT
ATOM      1  O1  BZF d   1      -1.104   1.176   2.390  0.00  0.00    -0.204 OA
ATOM      2  C2  BZF d   1      -0.951   0.066   3.198  0.00  0.00     0.174 A 
ATOM      3  C3  BZF d   1      -1.348  -1.052   2.556  0.00  0.00    -0.012 A 
ATOM      4  C3A BZF d   1      -1.689  -0.625   1.233  0.00  0.00    -0.107 A 
ATOM      5  C4  BZF d   1      -2.137  -1.280   0.122  0.00  0.00     0.055 A 
ATOM      6  C5  BZF d   1      -2.446  -0.560  -0.989  0.00  0.00    -0.016 A 
ATOM      7  C6  BZF d   1      -2.323   0.813  -1.022  0.00  0.00     0.022 A 
ATOM      8  C7  BZF d   1      -1.878   1.507   0.055  0.00  0.00     0.029 A 
ATOM      9  C7A BZF d   1      -1.534   0.779   1.168  0.00  0.00     0.058 A 
ENDROOT
TORSDOF 0
ENDMDL
