MODEL 1
REMARK minimizedAffinity 4.76255703
REMARK minimizedRMSD -1
REMARK  0 active torsions:
REMARK  status: ('A' for Active; 'I' for Inactive)
ROOT
ATOM      1  O1  BZF d   1       1.255  -5.168  -5.999  0.00  0.00    -0.204 OA
ATOM      2  C2  BZF d   1       2.614  -4.920  -5.987  0.00  0.00     0.174 A 
ATOM      3  C3  BZF d   1       3.101  -4.987  -4.731  0.00  0.00    -0.012 A 
ATOM      4  C3A BZF d   1       1.994  -5.388  -3.919  0.00  0.00    -0.107 A 
ATOM      5  C4  BZF d   1       1.852  -5.640  -2.584  0.00  0.00     0.055 A 
ATOM      6  C5  BZF d   1       0.619  -5.940  -2.097  0.00  0.00    -0.016 A 
ATOM      7  C6  BZF d   1      -0.492  -5.991  -2.913  0.00  0.00     0.022 A 
ATOM      8  C7  BZF d   1      -0.399  -5.753  -4.244  0.00  0.00     0.029 A 
ATOM      9  C7A BZF d   1       0.850  -5.482  -4.745  0.00  0.00     0.058 A 
ENDROOT
TORSDOF 0
ENDMDL
