MODEL 1
REMARK minimizedAffinity 6.67643452
REMARK minimizedRMSD -1
REMARK  0 active torsions:
REMARK  status: ('A' for Active; 'I' for Inactive)
ROOT
ATOM      1  O1  BZF d   1       2.392  -1.653   3.896  0.00  0.00    -0.204 OA
ATOM      2  C2  BZF d   1       1.845  -2.092   5.087  0.00  0.00     0.174 A 
ATOM      3  C3  BZF d   1       0.520  -1.843   5.125  0.00  0.00    -0.012 A 
ATOM      4  C3A BZF d   1       0.203  -1.293   3.843  0.00  0.00    -0.107 A 
ATOM      5  C4  BZF d   1      -0.957  -0.860   3.268  0.00  0.00     0.055 A 
ATOM      6  C5  BZF d   1      -0.914  -0.310   2.026  0.00  0.00    -0.016 A 
ATOM      7  C6  BZF d   1       0.271  -0.172   1.334  0.00  0.00     0.022 A 
ATOM      8  C7  BZF d   1       1.447  -0.592   1.861  0.00  0.00     0.029 A 
ATOM      9  C7A BZF d   1       1.402  -1.178   3.102  0.00  0.00     0.058 A 
ENDROOT
TORSDOF 0
ENDMDL
