MODEL 1
REMARK minimizedAffinity 1.30084002
REMARK minimizedRMSD -1
REMARK  0 active torsions:
REMARK  status: ('A' for Active; 'I' for Inactive)
ROOT
ATOM      1  O1  BZF d   1      -0.327  -5.995  -4.689  0.00  0.00    -0.204 OA
ATOM      2  C2  BZF d   1       0.172  -5.924  -5.976  0.00  0.00     0.174 A 
ATOM      3  C3  BZF d   1       1.339  -5.249  -5.999  0.00  0.00    -0.012 A 
ATOM      4  C3A BZF d   1       1.632  -4.955  -4.630  0.00  0.00    -0.107 A 
ATOM      5  C4  BZF d   1       2.665  -4.316  -4.007  0.00  0.00     0.055 A 
ATOM      6  C5  BZF d   1       2.613  -4.132  -2.661  0.00  0.00    -0.016 A 
ATOM      7  C6  BZF d   1       1.542  -4.568  -1.910  0.00  0.00     0.022 A 
ATOM      8  C7  BZF d   1       0.495  -5.212  -2.482  0.00  0.00     0.029 A 
ATOM      9  C7A BZF d   1       0.561  -5.429  -3.837  0.00  0.00     0.058 A 
ENDROOT
TORSDOF 0
ENDMDL
