MODEL 1
REMARK minimizedAffinity 3.13026118
REMARK minimizedRMSD -1
REMARK  0 active torsions:
REMARK  status: ('A' for Active; 'I' for Inactive)
ROOT
ATOM      1  O1  BZF d   1       2.350  -1.028   4.667  0.00  0.00    -0.204 OA
ATOM      2  C2  BZF d   1       2.591  -1.994   5.624  0.00  0.00     0.174 A 
ATOM      3  C3  BZF d   1       1.563  -2.863   5.697  0.00  0.00    -0.012 A 
ATOM      4  C3A BZF d   1       0.660  -2.466   4.660  0.00  0.00    -0.107 A 
ATOM      5  C4  BZF d   1      -0.538  -2.952   4.221  0.00  0.00     0.055 A 
ATOM      6  C5  BZF d   1      -1.198  -2.290   3.234  0.00  0.00    -0.016 A 
ATOM      7  C6  BZF d   1      -0.692  -1.138   2.669  0.00  0.00     0.022 A 
ATOM      8  C7  BZF d   1       0.496  -0.621   3.067  0.00  0.00     0.029 A 
ATOM      9  C7A BZF d   1       1.181  -1.306   4.041  0.00  0.00     0.058 A 
ENDROOT
TORSDOF 0
ENDMDL
