MODEL 1
REMARK minimizedAffinity -0.792593002
REMARK minimizedRMSD -1
REMARK  0 active torsions:
REMARK  status: ('A' for Active; 'I' for Inactive)
ROOT
ATOM      1  O1  BZF d   1       2.025  -1.404   3.083  0.00  0.00    -0.204 OA
ATOM      2  C2  BZF d   1       1.655  -1.782   4.359  0.00  0.00     0.174 A 
ATOM      3  C3  BZF d   1       0.392  -1.392   4.627  0.00  0.00    -0.012 A 
ATOM      4  C3A BZF d   1      -0.087  -0.810   3.411  0.00  0.00    -0.107 A 
ATOM      5  C4  BZF d   1      -1.279  -0.254   3.043  0.00  0.00     0.055 A 
ATOM      6  C5  BZF d   1      -1.399   0.290   1.803  0.00  0.00    -0.016 A 
ATOM      7  C6  BZF d   1      -0.349   0.299   0.909  0.00  0.00     0.022 A 
ATOM      8  C7  BZF d   1       0.851  -0.245   1.228  0.00  0.00     0.029 A 
ATOM      9  C7A BZF d   1       0.966  -0.825   2.468  0.00  0.00     0.058 A 
ENDROOT
TORSDOF 0
ENDMDL
