MODEL 1
REMARK minimizedAffinity 2.75109172
REMARK minimizedRMSD -1
REMARK  0 active torsions:
REMARK  status: ('A' for Active; 'I' for Inactive)
ROOT
ATOM      1  O1  BZF d   1       2.270  -1.534   3.243  0.00  0.00    -0.204 OA
ATOM      2  C2  BZF d   1       1.751  -2.225   4.321  0.00  0.00     0.174 A 
ATOM      3  C3  BZF d   1       0.407  -2.118   4.355  0.00  0.00    -0.012 A 
ATOM      4  C3A BZF d   1       0.057  -1.386   3.176  0.00  0.00    -0.107 A 
ATOM      5  C4  BZF d   1      -1.131  -0.975   2.644  0.00  0.00     0.055 A 
ATOM      6  C5  BZF d   1      -1.123  -0.215   1.517  0.00  0.00    -0.016 A 
ATOM      7  C6  BZF d   1       0.054   0.156   0.900  0.00  0.00     0.022 A 
ATOM      8  C7  BZF d   1       1.258  -0.232   1.388  0.00  0.00     0.029 A 
ATOM      9  C7A BZF d   1       1.251  -1.027   2.508  0.00  0.00     0.058 A 
ENDROOT
TORSDOF 0
ENDMDL
