MODEL 1
REMARK minimizedAffinity -0.957230568
REMARK minimizedRMSD -1
REMARK  2 active torsions:
REMARK  status: ('A' for Active; 'I' for Inactive)
REMARK    1  A    between atoms: C2'_3  and  C1'_4 
REMARK    2  A    between atoms: C1'_4  and  C1_5 
ROOT
ATOM      1  C1  I4B d   1      -1.443   5.961  -3.250  0.00  0.00    -0.075 A 
ATOM      2  C2  I4B d   1      -1.779   5.940  -1.919  0.00  0.00     0.003 A 
ATOM      3  C3  I4B d   1      -3.140   5.933  -1.528  0.00  0.00     0.002 A 
ATOM      4  C4  I4B d   1      -4.125   5.999  -2.492  0.00  0.00    -0.004 A 
ATOM      5  C5  I4B d   1      -3.782   5.997  -3.841  0.00  0.00     0.002 A 
ATOM      6  C6  I4B d   1      -2.433   5.965  -4.224  0.00  0.00     0.003 A 
ENDROOT
BRANCH   1   7
ATOM      7  C1' I4B d   1       0.004   6.000  -3.627  0.00  0.00     0.060 C 
BRANCH   7   8
ATOM      8  C2' I4B d   1       0.092   5.997  -5.140  0.00  0.00    -0.013 C 
ATOM      9  C4' I4B d   1       1.525   5.967  -5.603  0.00  0.00     0.013 C 
ATOM     10  C3' I4B d   1      -0.665   4.806  -5.646  0.00  0.00     0.013 C 
ENDBRANCH   7   8
ENDBRANCH   1   7
TORSDOF 2
ENDMDL
