MODEL 1
REMARK minimizedAffinity 6.04624701
REMARK minimizedRMSD -1
REMARK  2 active torsions:
REMARK  status: ('A' for Active; 'I' for Inactive)
REMARK    1  A    between atoms: C2'_3  and  C1'_4 
REMARK    2  A    between atoms: C1'_4  and  C1_5 
ROOT
ATOM      1  C1  I4B d   1       2.352   4.866  -5.664  0.00  0.00    -0.075 A 
ATOM      2  C2  I4B d   1       3.064   5.991  -5.998  0.00  0.00     0.003 A 
ATOM      3  C3  I4B d   1       4.475   6.000  -5.887  0.00  0.00     0.002 A 
ATOM      4  C4  I4B d   1       5.125   4.887  -5.392  0.00  0.00    -0.004 A 
ATOM      5  C5  I4B d   1       4.404   3.740  -5.076  0.00  0.00     0.002 A 
ATOM      6  C6  I4B d   1       3.009   3.724  -5.224  0.00  0.00     0.003 A 
ENDROOT
BRANCH   1   7
ATOM      7  C1' I4B d   1       0.859   4.902  -5.762  0.00  0.00     0.060 C 
BRANCH   7   8
ATOM      8  C2' I4B d   1       0.351   5.935  -4.777  0.00  0.00    -0.013 C 
ATOM      9  C4' I4B d   1      -1.154   5.987  -4.769  0.00  0.00     0.013 C 
ATOM     10  C3' I4B d   1       0.888   5.585  -3.421  0.00  0.00     0.013 C 
ENDBRANCH   7   8
ENDBRANCH   1   7
TORSDOF 2
ENDMDL
