MODEL 1
REMARK minimizedAffinity 6.9781518
REMARK minimizedRMSD -1
REMARK  2 active torsions:
REMARK  status: ('A' for Active; 'I' for Inactive)
REMARK    1  A    between atoms: C2'_3  and  C1'_4 
REMARK    2  A    between atoms: C1'_4  and  C1_5 
ROOT
ATOM      1  C1  I4B d   1       0.536   5.356  -4.901  0.00  0.00    -0.075 A 
ATOM      2  C2  I4B d   1       0.714   4.109  -4.355  0.00  0.00     0.003 A 
ATOM      3  C3  I4B d   1       1.969   3.460  -4.455  0.00  0.00     0.002 A 
ATOM      4  C4  I4B d   1       2.996   4.068  -5.147  0.00  0.00    -0.004 A 
ATOM      5  C5  I4B d   1       2.820   5.342  -5.680  0.00  0.00     0.002 A 
ATOM      6  C6  I4B d   1       1.587   5.996  -5.546  0.00  0.00     0.003 A 
ENDROOT
BRANCH   1   7
ATOM      7  C1' I4B d   1      -0.811   5.999  -4.806  0.00  0.00     0.060 C 
BRANCH   7   8
ATOM      8  C2' I4B d   1      -1.524   5.413  -3.604  0.00  0.00    -0.013 C 
ATOM      9  C4' I4B d   1      -1.000   5.999  -2.320  0.00  0.00     0.013 C 
ATOM     10  C3' I4B d   1      -2.992   5.678  -3.762  0.00  0.00     0.013 C 
ENDBRANCH   7   8
ENDBRANCH   1   7
TORSDOF 2
ENDMDL
