MODEL 1
REMARK minimizedAffinity 3.82519674
REMARK minimizedRMSD -1
REMARK  2 active torsions:
REMARK  status: ('A' for Active; 'I' for Inactive)
REMARK    1  A    between atoms: C2'_3  and  C1'_4 
REMARK    2  A    between atoms: C1'_4  and  C1_5 
ROOT
ATOM      1  C1  I4B d   1       0.648   0.990   1.041  0.00  0.00    -0.075 A 
ATOM      2  C2  I4B d   1       0.358  -0.206   0.432  0.00  0.00     0.003 A 
ATOM      3  C3  I4B d   1      -0.631  -1.061   0.976  0.00  0.00     0.002 A 
ATOM      4  C4  I4B d   1      -1.264  -0.708   2.150  0.00  0.00    -0.004 A 
ATOM      5  C5  I4B d   1      -0.984   0.515   2.754  0.00  0.00     0.002 A 
ATOM      6  C6  I4B d   1      -0.031   1.375   2.189  0.00  0.00     0.003 A 
ENDROOT
BRANCH   1   7
ATOM      7  C1' I4B d   1       1.721   1.854   0.458  0.00  0.00     0.060 C 
BRANCH   7   8
ATOM      8  C2' I4B d   1       1.204   3.277   0.418  0.00  0.00    -0.013 C 
ATOM      9  C4' I4B d   1      -0.120   3.356  -0.295  0.00  0.00     0.013 C 
ATOM     10  C3' I4B d   1       1.088   3.767   1.831  0.00  0.00     0.013 C 
ENDBRANCH   7   8
ENDBRANCH   1   7
TORSDOF 2
ENDMDL
