MODEL 1
REMARK minimizedAffinity 10.5048227
REMARK minimizedRMSD -1
REMARK  2 active torsions:
REMARK  status: ('A' for Active; 'I' for Inactive)
REMARK    1  A    between atoms: C2'_3  and  C1'_4 
REMARK    2  A    between atoms: C1'_4  and  C1_5 
ROOT
ATOM      1  C1  I4B d   1      -0.190  -0.721   1.145  0.00  0.00    -0.075 A 
ATOM      2  C2  I4B d   1      -0.159   0.410   1.923  0.00  0.00     0.003 A 
ATOM      3  C3  I4B d   1       0.691   1.489   1.578  0.00  0.00     0.002 A 
ATOM      4  C4  I4B d   1       1.524   1.375   0.485  0.00  0.00    -0.004 A 
ATOM      5  C5  I4B d   1       1.475   0.237  -0.315  0.00  0.00     0.002 A 
ATOM      6  C6  I4B d   1       0.604  -0.813   0.010  0.00  0.00     0.003 A 
ENDROOT
BRANCH   1   7
ATOM      7  C1' I4B d   1      -1.074  -1.854   1.557  0.00  0.00     0.060 C 
BRANCH   7   8
ATOM      8  C2' I4B d   1      -0.771  -3.034   0.656  0.00  0.00    -0.013 C 
ATOM      9  C4' I4B d   1       0.070  -4.061   1.367  0.00  0.00     0.013 C 
ATOM     10  C3' I4B d   1      -2.076  -3.621   0.206  0.00  0.00     0.013 C 
ENDBRANCH   7   8
ENDBRANCH   1   7
TORSDOF 2
ENDMDL
