MODEL 1
REMARK minimizedAffinity 0.247399107
REMARK minimizedRMSD -1
REMARK  2 active torsions:
REMARK  status: ('A' for Active; 'I' for Inactive)
REMARK    1  A    between atoms: C2'_3  and  C1'_4 
REMARK    2  A    between atoms: C1'_4  and  C1_5 
ROOT
ATOM      1  C1  I4B d   1       0.193   0.193   0.419  0.00  0.00    -0.075 A 
ATOM      2  C2  I4B d   1       0.973  -0.150  -0.657  0.00  0.00     0.003 A 
ATOM      3  C3  I4B d   1       1.984   0.728  -1.114  0.00  0.00     0.002 A 
ATOM      4  C4  I4B d   1       2.147   1.954  -0.502  0.00  0.00    -0.004 A 
ATOM      5  C5  I4B d   1       1.371   2.292   0.603  0.00  0.00     0.002 A 
ATOM      6  C6  I4B d   1       0.396   1.401   1.074  0.00  0.00     0.003 A 
ENDROOT
BRANCH   1   7
ATOM      7  C1' I4B d   1      -0.888  -0.744   0.854  0.00  0.00     0.060 C 
BRANCH   7   8
ATOM      8  C2' I4B d   1      -1.747  -0.025   1.875  0.00  0.00    -0.013 C 
ATOM      9  C4' I4B d   1      -2.897   0.687   1.214  0.00  0.00     0.013 C 
ATOM     10  C3' I4B d   1      -2.235  -1.038   2.866  0.00  0.00     0.013 C 
ENDBRANCH   7   8
ENDBRANCH   1   7
TORSDOF 2
ENDMDL
