MODEL 1
REMARK minimizedAffinity -0.143725082
REMARK minimizedRMSD -1
REMARK  2 active torsions:
REMARK  status: ('A' for Active; 'I' for Inactive)
REMARK    1  A    between atoms: C2'_3  and  C1'_4 
REMARK    2  A    between atoms: C1'_4  and  C1_5 
ROOT
ATOM      1  C1  I4B d   1       0.565   0.472  -0.092  0.00  0.00    -0.075 A 
ATOM      2  C2  I4B d   1       0.412   1.805   0.200  0.00  0.00     0.003 A 
ATOM      3  C3  I4B d   1       1.549   2.626   0.398  0.00  0.00     0.002 A 
ATOM      4  C4  I4B d   1       2.809   2.067   0.346  0.00  0.00    -0.004 A 
ATOM      5  C5  I4B d   1       2.963   0.720   0.027  0.00  0.00     0.002 A 
ATOM      6  C6  I4B d   1       1.835  -0.079  -0.205  0.00  0.00     0.003 A 
ENDROOT
BRANCH   1   7
ATOM      7  C1' I4B d   1      -0.657  -0.373  -0.262  0.00  0.00     0.060 C 
BRANCH   7   8
ATOM      8  C2' I4B d   1      -0.583  -1.508   0.738  0.00  0.00    -0.013 C 
ATOM      9  C4' I4B d   1      -1.079  -1.074   2.092  0.00  0.00     0.013 C 
ATOM     10  C3' I4B d   1      -1.395  -2.650   0.204  0.00  0.00     0.013 C 
ENDBRANCH   7   8
ENDBRANCH   1   7
TORSDOF 2
ENDMDL
