MODEL 1
REMARK minimizedAffinity -0.170909986
REMARK minimizedRMSD -1
REMARK  2 active torsions:
REMARK  status: ('A' for Active; 'I' for Inactive)
REMARK    1  A    between atoms: C2'_3  and  C1'_4 
REMARK    2  A    between atoms: C1'_4  and  C1_5 
ROOT
ATOM      1  C1  I4B d   1      -1.355   5.979  -3.348  0.00  0.00    -0.075 A 
ATOM      2  C2  I4B d   1      -2.392   6.000  -4.247  0.00  0.00     0.003 A 
ATOM      3  C3  I4B d   1      -3.732   5.985  -3.790  0.00  0.00     0.002 A 
ATOM      4  C4  I4B d   1      -3.987   5.899  -2.436  0.00  0.00    -0.004 A 
ATOM      5  C5  I4B d   1      -2.935   5.901  -1.525  0.00  0.00     0.002 A 
ATOM      6  C6  I4B d   1      -1.610   5.954  -1.983  0.00  0.00     0.003 A 
ENDROOT
BRANCH   1   7
ATOM      7  C1' I4B d   1       0.048   5.962  -3.867  0.00  0.00     0.060 C 
BRANCH   7   8
ATOM      8  C2' I4B d   1      -0.013   5.996  -5.380  0.00  0.00    -0.013 C 
ATOM      9  C4' I4B d   1       1.351   5.794  -5.986  0.00  0.00     0.013 C 
ATOM     10  C3' I4B d   1      -0.968   4.931  -5.829  0.00  0.00     0.013 C 
ENDBRANCH   7   8
ENDBRANCH   1   7
TORSDOF 2
ENDMDL
