MODEL 1
REMARK minimizedAffinity 8.0528841
REMARK minimizedRMSD -1
REMARK  2 active torsions:
REMARK  status: ('A' for Active; 'I' for Inactive)
REMARK    1  A    between atoms: C2'_3  and  C1'_4 
REMARK    2  A    between atoms: C1'_4  and  C1_5 
ROOT
ATOM      1  C1  I4B d   1       0.776   1.866   1.612  0.00  0.00    -0.075 A 
ATOM      2  C2  I4B d   1       0.861   0.559   1.200  0.00  0.00     0.003 A 
ATOM      3  C3  I4B d   1       1.118   0.256  -0.159  0.00  0.00     0.002 A 
ATOM      4  C4  I4B d   1       1.232   1.282  -1.075  0.00  0.00    -0.004 A 
ATOM      5  C5  I4B d   1       1.168   2.607  -0.651  0.00  0.00     0.002 A 
ATOM      6  C6  I4B d   1       0.951   2.901   0.703  0.00  0.00     0.003 A 
ENDROOT
BRANCH   1   7
ATOM      7  C1' I4B d   1       0.470   2.149   3.049  0.00  0.00     0.060 C 
BRANCH   7   8
ATOM      8  C2' I4B d   1       0.177   0.830   3.733  0.00  0.00    -0.013 C 
ATOM      9  C4' I4B d   1       0.360   0.937   5.224  0.00  0.00     0.013 C 
ATOM     10  C3' I4B d   1      -1.226   0.431   3.387  0.00  0.00     0.013 C 
ENDBRANCH   7   8
ENDBRANCH   1   7
TORSDOF 2
ENDMDL
