MODEL 1
REMARK minimizedAffinity 1.00314164
REMARK minimizedRMSD -1
REMARK  2 active torsions:
REMARK  status: ('A' for Active; 'I' for Inactive)
REMARK    1  A    between atoms: C2'_3  and  C1'_4 
REMARK    2  A    between atoms: C1'_4  and  C1_5 
ROOT
ATOM      1  C1  I4B d   1      -0.186   0.998   0.758  0.00  0.00    -0.075 A 
ATOM      2  C2  I4B d   1      -0.254   2.224   0.145  0.00  0.00     0.003 A 
ATOM      3  C3  I4B d   1       0.924   2.984  -0.060  0.00  0.00     0.002 A 
ATOM      4  C4  I4B d   1       2.131   2.505   0.404  0.00  0.00    -0.004 A 
ATOM      5  C5  I4B d   1       2.201   1.251   1.005  0.00  0.00     0.002 A 
ATOM      6  C6  I4B d   1       1.037   0.487   1.172  0.00  0.00     0.003 A 
ENDROOT
BRANCH   1   7
ATOM      7  C1' I4B d   1      -1.454   0.237   0.989  0.00  0.00     0.060 C 
BRANCH   7   8
ATOM      8  C2' I4B d   1      -1.734   0.238   2.478  0.00  0.00    -0.013 C 
ATOM      9  C4' I4B d   1      -2.922   1.102   2.808  0.00  0.00     0.013 C 
ATOM     10  C3' I4B d   1      -1.960  -1.180   2.907  0.00  0.00     0.013 C 
ENDBRANCH   7   8
ENDBRANCH   1   7
TORSDOF 2
ENDMDL
