MODEL 1
REMARK minimizedAffinity 2.4077754
REMARK minimizedRMSD -1
REMARK  2 active torsions:
REMARK  status: ('A' for Active; 'I' for Inactive)
REMARK    1  A    between atoms: C2'_3  and  C1'_4 
REMARK    2  A    between atoms: C1'_4  and  C1_5 
ROOT
ATOM      1  C1  I4B d   1      -0.136   1.324   1.985  0.00  0.00    -0.075 A 
ATOM      2  C2  I4B d   1       0.434   2.532   1.669  0.00  0.00     0.003 A 
ATOM      3  C3  I4B d   1       1.411   2.613   0.647  0.00  0.00     0.002 A 
ATOM      4  C4  I4B d   1       1.821   1.462   0.007  0.00  0.00    -0.004 A 
ATOM      5  C5  I4B d   1       1.225   0.242   0.313  0.00  0.00     0.002 A 
ATOM      6  C6  I4B d   1       0.231   0.174   1.300  0.00  0.00     0.003 A 
ENDROOT
BRANCH   1   7
ATOM      7  C1' I4B d   1      -1.141   1.270   3.092  0.00  0.00     0.060 C 
BRANCH   7   8
ATOM      8  C2' I4B d   1      -2.308   0.426   2.622  0.00  0.00    -0.013 C 
ATOM      9  C4' I4B d   1      -2.296  -0.933   3.272  0.00  0.00     0.013 C 
ATOM     10  C3' I4B d   1      -3.573   1.167   2.940  0.00  0.00     0.013 C 
ENDBRANCH   7   8
ENDBRANCH   1   7
TORSDOF 2
ENDMDL
