MODEL 1
REMARK minimizedAffinity 9.6424017
REMARK minimizedRMSD -1
REMARK  2 active torsions:
REMARK  status: ('A' for Active; 'I' for Inactive)
REMARK    1  A    between atoms: C2'_3  and  C1'_4 
REMARK    2  A    between atoms: C1'_4  and  C1_5 
ROOT
ATOM      1  C1  I4B d   1      -1.814  -0.436  -0.319  0.00  0.00    -0.075 A 
ATOM      2  C2  I4B d   1      -2.531   0.476   0.414  0.00  0.00     0.003 A 
ATOM      3  C3  I4B d   1      -1.879   1.296   1.367  0.00  0.00     0.002 A 
ATOM      4  C4  I4B d   1      -0.526   1.137   1.587  0.00  0.00    -0.004 A 
ATOM      5  C5  I4B d   1       0.204   0.228   0.827  0.00  0.00     0.002 A 
ATOM      6  C6  I4B d   1      -0.441  -0.555  -0.141  0.00  0.00     0.003 A 
ENDROOT
BRANCH   1   7
ATOM      7  C1' I4B d   1      -2.540  -1.309  -1.292  0.00  0.00     0.060 C 
BRANCH   7   8
ATOM      8  C2' I4B d   1      -3.390  -2.283  -0.502  0.00  0.00    -0.013 C 
ATOM      9  C4' I4B d   1      -4.430  -2.933  -1.376  0.00  0.00     0.013 C 
ATOM     10  C3' I4B d   1      -2.477  -3.306   0.106  0.00  0.00     0.013 C 
ENDBRANCH   7   8
ENDBRANCH   1   7
TORSDOF 2
ENDMDL
