MODEL 1
REMARK minimizedAffinity 5.53209591
REMARK minimizedRMSD -1
REMARK  2 active torsions:
REMARK  status: ('A' for Active; 'I' for Inactive)
REMARK    1  A    between atoms: C2'_3  and  C1'_4 
REMARK    2  A    between atoms: C1'_4  and  C1_5 
ROOT
ATOM      1  C1  I4B d   1       0.525   0.670   0.944  0.00  0.00    -0.075 A 
ATOM      2  C2  I4B d   1       0.125  -0.494   0.337  0.00  0.00     0.003 A 
ATOM      3  C3  I4B d   1      -0.927  -1.262   0.892  0.00  0.00     0.002 A 
ATOM      4  C4  I4B d   1      -1.513  -0.859   2.074  0.00  0.00    -0.004 A 
ATOM      5  C5  I4B d   1      -1.122   0.334   2.676  0.00  0.00     0.002 A 
ATOM      6  C6  I4B d   1      -0.105   1.110   2.101  0.00  0.00     0.003 A 
ENDROOT
BRANCH   1   7
ATOM      7  C1' I4B d   1       1.661   1.440   0.348  0.00  0.00     0.060 C 
BRANCH   7   8
ATOM      8  C2' I4B d   1       1.146   2.814  -0.030  0.00  0.00    -0.013 C 
ATOM      9  C4' I4B d   1       1.718   3.877   0.871  0.00  0.00     0.013 C 
ATOM     10  C3' I4B d   1       1.510   3.067  -1.463  0.00  0.00     0.013 C 
ENDBRANCH   7   8
ENDBRANCH   1   7
TORSDOF 2
ENDMDL
