MODEL 1
REMARK minimizedAffinity 7.64332581
REMARK minimizedRMSD -1
REMARK  2 active torsions:
REMARK  status: ('A' for Active; 'I' for Inactive)
REMARK    1  A    between atoms: C2'_3  and  C1'_4 
REMARK    2  A    between atoms: C1'_4  and  C1_5 
ROOT
ATOM      1  C1  I4B d   1      -4.175  -2.416  -0.512  0.00  0.00    -0.075 A 
ATOM      2  C2  I4B d   1      -3.751  -1.671   0.560  0.00  0.00     0.003 A 
ATOM      3  C3  I4B d   1      -3.556  -0.275   0.424  0.00  0.00     0.002 A 
ATOM      4  C4  I4B d   1      -3.746   0.322  -0.805  0.00  0.00    -0.004 A 
ATOM      5  C5  I4B d   1      -4.197  -0.431  -1.885  0.00  0.00     0.002 A 
ATOM      6  C6  I4B d   1      -4.425  -1.807  -1.735  0.00  0.00     0.003 A 
ENDROOT
BRANCH   1   7
ATOM      7  C1' I4B d   1      -4.340  -3.893  -0.343  0.00  0.00     0.060 C 
BRANCH   7   8
ATOM      8  C2' I4B d   1      -3.068  -4.563  -0.823  0.00  0.00    -0.013 C 
ATOM      9  C4' I4B d   1      -1.969  -4.443   0.200  0.00  0.00     0.013 C 
ATOM     10  C3' I4B d   1      -3.383  -6.000  -1.113  0.00  0.00     0.013 C 
ENDBRANCH   7   8
ENDBRANCH   1   7
TORSDOF 2
ENDMDL
