MODEL 1
REMARK minimizedAffinity -1.50075924
REMARK minimizedRMSD -1
REMARK  0 active torsions:
REMARK  status: ('A' for Active; 'I' for Inactive)
ROOT
ATOM      1  N1  IND d   1       0.326   3.753  -2.207  0.00  0.00    -0.196 N 
ATOM      2  C2  IND d   1       0.638   5.030  -1.829  0.00  0.00     0.054 A 
ATOM      3  C3  IND d   1       0.762   5.105  -0.484  0.00  0.00    -0.031 A 
ATOM      4  C4  IND d   1       0.598   3.237   1.280  0.00  0.00     0.051 A 
ATOM      5  C5  IND d   1       0.295   1.912   1.421  0.00  0.00    -0.031 A 
ATOM      6  C6  IND d   1      -0.017   1.116   0.338  0.00  0.00     0.015 A 
ATOM      7  C7  IND d   1      -0.026   1.616  -0.934  0.00  0.00    -0.016 A 
ATOM      8  C8  IND d   1       0.274   2.963  -1.080  0.00  0.00    -0.047 A 
ATOM      9  C9  IND d   1       0.550   3.785   0.020  0.00  0.00    -0.096 A 
ATOM     10  HN1 IND d   1       0.187   3.489  -3.013  0.00  0.00     0.298 HD
ENDROOT
TORSDOF 0
ENDMDL
