MODEL 1
REMARK minimizedAffinity -1.73070335
REMARK minimizedRMSD -1
REMARK  0 active torsions:
REMARK  status: ('A' for Active; 'I' for Inactive)
ROOT
ATOM      1  N1  IND d   1       1.004   2.377   1.453  0.00  0.00    -0.196 N 
ATOM      2  C2  IND d   1       1.752   3.284   2.152  0.00  0.00     0.054 A 
ATOM      3  C3  IND d   1       1.836   4.449   1.471  0.00  0.00    -0.031 A 
ATOM      4  C4  IND d   1       0.740   5.121  -0.760  0.00  0.00     0.051 A 
ATOM      5  C5  IND d   1      -0.004   4.617  -1.789  0.00  0.00    -0.031 A 
ATOM      6  C6  IND d   1      -0.462   3.316  -1.789  0.00  0.00     0.015 A 
ATOM      7  C7  IND d   1      -0.201   2.469  -0.750  0.00  0.00    -0.016 A 
ATOM      8  C8  IND d   1       0.561   2.975   0.294  0.00  0.00    -0.047 A 
ATOM      9  C9  IND d   1       1.064   4.282   0.280  0.00  0.00    -0.096 A 
ATOM     10  HN1 IND d   1       0.839   1.569   1.697  0.00  0.00     0.298 HD
ENDROOT
TORSDOF 0
ENDMDL
