MODEL 1
REMARK minimizedAffinity 4.53100634
REMARK minimizedRMSD -1
REMARK  0 active torsions:
REMARK  status: ('A' for Active; 'I' for Inactive)
ROOT
ATOM      1  N1  IND d   1       0.982   1.888   1.954  0.00  0.00    -0.196 N 
ATOM      2  C2  IND d   1       1.844   2.740   2.588  0.00  0.00     0.054 A 
ATOM      3  C3  IND d   1       2.092   3.820   1.814  0.00  0.00    -0.031 A 
ATOM      4  C4  IND d   1       1.114   4.445  -0.484  0.00  0.00     0.051 A 
ATOM      5  C5  IND d   1       0.314   3.963  -1.481  0.00  0.00    -0.031 A 
ATOM      6  C6  IND d   1      -0.320   2.741  -1.381  0.00  0.00     0.015 A 
ATOM      7  C7  IND d   1      -0.185   1.958  -0.270  0.00  0.00    -0.016 A 
ATOM      8  C8  IND d   1       0.633   2.441   0.742  0.00  0.00    -0.047 A 
ATOM      9  C9  IND d   1       1.312   3.661   0.628  0.00  0.00    -0.096 A 
ATOM     10  HN1 IND d   1       0.705   1.135   2.261  0.00  0.00     0.298 HD
ENDROOT
TORSDOF 0
ENDMDL
