MODEL 1
REMARK minimizedAffinity 16.0472984
REMARK minimizedRMSD -1
REMARK  0 active torsions:
REMARK  status: ('A' for Active; 'I' for Inactive)
ROOT
ATOM      1  N1  IND d   1      -3.690  -2.172   1.920  0.00  0.00    -0.196 N 
ATOM      2  C2  IND d   1      -3.155  -3.274   2.526  0.00  0.00     0.054 A 
ATOM      3  C3  IND d   1      -3.592  -3.368   3.802  0.00  0.00    -0.031 A 
ATOM      4  C4  IND d   1      -5.270  -1.882   5.070  0.00  0.00     0.051 A 
ATOM      5  C5  IND d   1      -6.000  -0.734   4.945  0.00  0.00    -0.031 A 
ATOM      6  C6  IND d   1      -6.000   0.008   3.781  0.00  0.00     0.015 A 
ATOM      7  C7  IND d   1      -5.275  -0.380   2.690  0.00  0.00    -0.016 A 
ATOM      8  C8  IND d   1      -4.527  -1.542   2.815  0.00  0.00    -0.047 A 
ATOM      9  C9  IND d   1      -4.489  -2.275   4.008  0.00  0.00    -0.096 A 
ATOM     10  HN1 IND d   1      -3.531  -1.915   1.115  0.00  0.00     0.298 HD
ENDROOT
TORSDOF 0
ENDMDL
