MODEL 1
REMARK minimizedAffinity 6.70538807
REMARK minimizedRMSD -1
REMARK  0 active torsions:
REMARK  status: ('A' for Active; 'I' for Inactive)
ROOT
ATOM      1  N1  IND d   1      -1.178   2.659   0.855  0.00  0.00    -0.196 N 
ATOM      2  C2  IND d   1      -0.359   1.564   0.842  0.00  0.00     0.054 A 
ATOM      3  C3  IND d   1       0.666   1.755  -0.019  0.00  0.00    -0.031 A 
ATOM      4  C4  IND d   1       1.251   3.825  -1.433  0.00  0.00     0.051 A 
ATOM      5  C5  IND d   1       0.779   5.060  -1.782  0.00  0.00    -0.031 A 
ATOM      6  C6  IND d   1      -0.391   5.568  -1.257  0.00  0.00     0.015 A 
ATOM      7  C7  IND d   1      -1.131   4.862  -0.351  0.00  0.00    -0.016 A 
ATOM      8  C8  IND d   1      -0.659   3.606   0.001  0.00  0.00    -0.047 A 
ATOM      9  C9  IND d   1       0.506   3.067  -0.561  0.00  0.00    -0.096 A 
ATOM     10  HN1 IND d   1      -1.897   2.741   1.320  0.00  0.00     0.298 HD
ENDROOT
TORSDOF 0
ENDMDL
