MODEL 1
REMARK minimizedAffinity 5.96708107
REMARK minimizedRMSD -1
REMARK  0 active torsions:
REMARK  status: ('A' for Active; 'I' for Inactive)
ROOT
ATOM      1  N1  IND d   1       1.086   2.673  -0.541  0.00  0.00    -0.196 N 
ATOM      2  C2  IND d   1       0.200   3.046  -1.513  0.00  0.00     0.054 A 
ATOM      3  C3  IND d   1      -1.015   2.501  -1.276  0.00  0.00    -0.031 A 
ATOM      4  C4  IND d   1      -1.800   1.049   0.699  0.00  0.00     0.051 A 
ATOM      5  C5  IND d   1      -1.340   0.414   1.818  0.00  0.00    -0.031 A 
ATOM      6  C6  IND d   1      -0.022   0.503   2.218  0.00  0.00     0.015 A 
ATOM      7  C7  IND d   1       0.886   1.243   1.516  0.00  0.00    -0.016 A 
ATOM      8  C8  IND d   1       0.425   1.884   0.375  0.00  0.00    -0.047 A 
ATOM      9  C9  IND d   1      -0.902   1.763  -0.059  0.00  0.00    -0.096 A 
ATOM     10  HN1 IND d   1       1.916   2.893  -0.507  0.00  0.00     0.298 HD
ENDROOT
TORSDOF 0
ENDMDL
