MODEL 1
REMARK minimizedAffinity 7.74841928
REMARK minimizedRMSD -1
REMARK  0 active torsions:
REMARK  status: ('A' for Active; 'I' for Inactive)
ROOT
ATOM      1  N1  IND d   1       1.743   2.718   1.899  0.00  0.00    -0.196 N 
ATOM      2  C2  IND d   1       0.834   1.708   2.048  0.00  0.00     0.054 A 
ATOM      3  C3  IND d   1       0.057   1.608   0.947  0.00  0.00    -0.031 A 
ATOM      4  C4  IND d   1       0.169   2.931  -1.259  0.00  0.00     0.051 A 
ATOM      5  C5  IND d   1       0.810   3.981  -1.854  0.00  0.00    -0.031 A 
ATOM      6  C6  IND d   1       1.817   4.676  -1.217  0.00  0.00     0.015 A 
ATOM      7  C7  IND d   1       2.230   4.338   0.041  0.00  0.00    -0.016 A 
ATOM      8  C8  IND d   1       1.577   3.277   0.651  0.00  0.00    -0.047 A 
ATOM      9  C9  IND d   1       0.525   2.595   0.026  0.00  0.00    -0.096 A 
ATOM     10  HN1 IND d   1       2.322   2.963   2.486  0.00  0.00     0.298 HD
ENDROOT
TORSDOF 0
ENDMDL
