MODEL 1
REMARK minimizedAffinity 4.39592505
REMARK minimizedRMSD -1
REMARK  0 active torsions:
REMARK  status: ('A' for Active; 'I' for Inactive)
ROOT
ATOM      1  N1  IND d   1       1.543   4.538  -0.447  0.00  0.00    -0.196 N 
ATOM      2  C2  IND d   1       0.719   4.831  -1.497  0.00  0.00     0.054 A 
ATOM      3  C3  IND d   1      -0.250   3.894  -1.610  0.00  0.00    -0.031 A 
ATOM      4  C4  IND d   1      -0.734   1.853  -0.118  0.00  0.00     0.051 A 
ATOM      5  C5  IND d   1      -0.233   1.152   0.943  0.00  0.00    -0.031 A 
ATOM      6  C6  IND d   1       0.906   1.553   1.610  0.00  0.00     0.015 A 
ATOM      7  C7  IND d   1       1.584   2.682   1.247  0.00  0.00    -0.016 A 
ATOM      8  C8  IND d   1       1.083   3.393   0.165  0.00  0.00    -0.047 A 
ATOM      9  C9  IND d   1      -0.049   2.967  -0.542  0.00  0.00    -0.096 A 
ATOM     10  HN1 IND d   1       2.232   4.993  -0.208  0.00  0.00     0.298 HD
ENDROOT
TORSDOF 0
ENDMDL
