MODEL 1
REMARK minimizedAffinity 1.59311128
REMARK minimizedRMSD -1
REMARK  0 active torsions:
REMARK  status: ('A' for Active; 'I' for Inactive)
ROOT
ATOM      1  N1  IND d   1       1.349   4.261  -0.606  0.00  0.00    -0.196 N 
ATOM      2  C2  IND d   1       0.349   4.746  -1.401  0.00  0.00     0.054 A 
ATOM      3  C3  IND d   1      -0.731   3.936  -1.345  0.00  0.00    -0.031 A 
ATOM      4  C4  IND d   1      -1.115   1.816   0.065  0.00  0.00     0.051 A 
ATOM      5  C5  IND d   1      -0.477   0.960   0.918  0.00  0.00    -0.031 A 
ATOM      6  C6  IND d   1       0.828   1.167   1.318  0.00  0.00     0.015 A 
ATOM      7  C7  IND d   1       1.543   2.247   0.885  0.00  0.00    -0.016 A 
ATOM      8  C8  IND d   1       0.900   3.115   0.013  0.00  0.00    -0.047 A 
ATOM      9  C9  IND d   1      -0.409   2.888  -0.429  0.00  0.00    -0.096 A 
ATOM     10  HN1 IND d   1       2.128   4.612  -0.508  0.00  0.00     0.298 HD
ENDROOT
TORSDOF 0
ENDMDL
