MODEL 1
REMARK minimizedAffinity 8.01056671
REMARK minimizedRMSD -1
REMARK  0 active torsions:
REMARK  status: ('A' for Active; 'I' for Inactive)
ROOT
ATOM      1  C   UNL d   1       3.337   2.710   4.394  0.00  0.00     0.023 A 
ATOM      2  C1  UNL d   1       3.864   3.426   3.319  0.00  0.00     0.003 A 
ATOM      3  C2  UNL d   1       3.252   3.358   2.066  0.00  0.00     0.048 A 
ATOM      4  C3  UNL d   1       2.113   2.573   1.894  0.00  0.00     0.023 A 
ATOM      5  C4  UNL d   1       1.582   1.855   2.966  0.00  0.00     0.048 A 
ATOM      6  C5  UNL d   1       2.197   1.925   4.218  0.00  0.00     0.003 A 
ATOM      7  I   UNL d   1       1.201   2.470   0.029  0.00  0.00    -0.146 I 
ENDROOT
TORSDOF 0
ENDMDL
