MODEL 1
REMARK minimizedAffinity 6.75327826
REMARK minimizedRMSD -1
REMARK  0 active torsions:
REMARK  status: ('A' for Active; 'I' for Inactive)
ROOT
ATOM      1  C   UNL d   1       5.989   0.947  -5.983  0.00  0.00     0.023 A 
ATOM      2  C1  UNL d   1       5.998  -0.140  -5.109  0.00  0.00     0.003 A 
ATOM      3  C2  UNL d   1       5.998   0.072  -3.729  0.00  0.00     0.048 A 
ATOM      4  C3  UNL d   1       5.987   1.374  -3.230  0.00  0.00     0.023 A 
ATOM      5  C4  UNL d   1       5.977   2.465  -4.101  0.00  0.00     0.048 A 
ATOM      6  C5  UNL d   1       5.979   2.247  -5.480  0.00  0.00     0.003 A 
ATOM      7  I   UNL d   1       5.986   1.692  -1.176  0.00  0.00    -0.146 I 
ENDROOT
TORSDOF 0
ENDMDL
