MODEL 1
REMARK minimizedAffinity 10.7036238
REMARK minimizedRMSD -1
REMARK  0 active torsions:
REMARK  status: ('A' for Active; 'I' for Inactive)
ROOT
ATOM      1  C   UNL d   1      -2.763  -5.104   4.393  0.00  0.00     0.023 A 
ATOM      2  C1  UNL d   1      -3.318  -6.000   3.479  0.00  0.00     0.003 A 
ATOM      3  C2  UNL d   1      -3.083  -5.840   2.112  0.00  0.00     0.048 A 
ATOM      4  C3  UNL d   1      -2.292  -4.782   1.665  0.00  0.00     0.023 A 
ATOM      5  C4  UNL d   1      -1.734  -3.884   2.576  0.00  0.00     0.048 A 
ATOM      6  C5  UNL d   1      -1.972  -4.047   3.942  0.00  0.00     0.003 A 
ATOM      7  I   UNL d   1      -1.941  -4.542  -0.369  0.00  0.00    -0.146 I 
ENDROOT
TORSDOF 0
ENDMDL
