MODEL 1
REMARK minimizedAffinity 8.94983959
REMARK minimizedRMSD -1
REMARK  0 active torsions:
REMARK  status: ('A' for Active; 'I' for Inactive)
ROOT
ATOM      1  C   UNL d   1       4.867   1.245   4.951  0.00  0.00     0.023 A 
ATOM      2  C1  UNL d   1       5.941   1.786   5.658  0.00  0.00     0.003 A 
ATOM      3  C2  UNL d   1       5.963   3.150   5.959  0.00  0.00     0.048 A 
ATOM      4  C3  UNL d   1       4.908   3.965   5.551  0.00  0.00     0.023 A 
ATOM      5  C4  UNL d   1       3.831   3.427   4.844  0.00  0.00     0.048 A 
ATOM      6  C5  UNL d   1       3.814   2.064   4.545  0.00  0.00     0.003 A 
ATOM      7  I   UNL d   1       4.939   5.995   5.999  0.00  0.00    -0.146 I 
ENDROOT
TORSDOF 0
ENDMDL
