MODEL 1
REMARK minimizedAffinity 5.45198822
REMARK minimizedRMSD -1
REMARK  0 active torsions:
REMARK  status: ('A' for Active; 'I' for Inactive)
ROOT
ATOM      1  C   UNL d   1      -4.455  -1.959   3.676  0.00  0.00     0.023 A 
ATOM      2  C1  UNL d   1      -4.471  -0.734   3.009  0.00  0.00     0.003 A 
ATOM      3  C2  UNL d   1      -3.349  -0.315   2.291  0.00  0.00     0.048 A 
ATOM      4  C3  UNL d   1      -2.216  -1.126   2.242  0.00  0.00     0.023 A 
ATOM      5  C4  UNL d   1      -2.196  -2.353   2.908  0.00  0.00     0.048 A 
ATOM      6  C5  UNL d   1      -3.320  -2.767   3.626  0.00  0.00     0.003 A 
ATOM      7  I   UNL d   1      -0.546  -0.504   1.173  0.00  0.00    -0.146 I 
ENDROOT
TORSDOF 0
ENDMDL
