MODEL 1
REMARK minimizedAffinity 6.34809065
REMARK minimizedRMSD -1
REMARK  0 active torsions:
REMARK  status: ('A' for Active; 'I' for Inactive)
ROOT
ATOM      1  C   UNL d   1       4.520   1.131  -5.684  0.00  0.00     0.023 A 
ATOM      2  C1  UNL d   1       3.295   1.784  -5.550  0.00  0.00     0.003 A 
ATOM      3  C2  UNL d   1       3.231   3.176  -5.639  0.00  0.00     0.048 A 
ATOM      4  C3  UNL d   1       4.396   3.909  -5.864  0.00  0.00     0.023 A 
ATOM      5  C4  UNL d   1       5.624   3.259  -6.000  0.00  0.00     0.048 A 
ATOM      6  C5  UNL d   1       5.683   1.868  -5.909  0.00  0.00     0.003 A 
ATOM      7  I   UNL d   1       4.303   5.981  -5.997  0.00  0.00    -0.146 I 
ENDROOT
TORSDOF 0
ENDMDL
