MODEL 1
REMARK minimizedAffinity 0.162490129
REMARK minimizedRMSD -1
REMARK  0 active torsions:
REMARK  status: ('A' for Active; 'I' for Inactive)
ROOT
ATOM      1  C   UNL d   1       5.999   5.214  -6.000  0.00  0.00     0.023 A 
ATOM      2  C1  UNL d   1       4.939   5.988  -5.528  0.00  0.00     0.003 A 
ATOM      3  C2  UNL d   1       3.780   5.372  -5.052  0.00  0.00     0.048 A 
ATOM      4  C3  UNL d   1       3.689   3.980  -5.048  0.00  0.00     0.023 A 
ATOM      5  C4  UNL d   1       4.748   3.202  -5.518  0.00  0.00     0.048 A 
ATOM      6  C5  UNL d   1       5.904   3.823  -5.995  0.00  0.00     0.003 A 
ATOM      7  I   UNL d   1       1.966   3.060  -4.340  0.00  0.00    -0.146 I 
ENDROOT
TORSDOF 0
ENDMDL
