MODEL 1
REMARK minimizedAffinity 7.38709068
REMARK minimizedRMSD -1
REMARK  0 active torsions:
REMARK  status: ('A' for Active; 'I' for Inactive)
ROOT
ATOM      1  C   UNL d   1       4.444   5.242   5.998  0.00  0.00     0.023 A 
ATOM      2  C1  UNL d   1       5.434   5.997   5.370  0.00  0.00     0.003 A 
ATOM      3  C2  UNL d   1       5.711   5.800   4.016  0.00  0.00     0.048 A 
ATOM      4  C3  UNL d   1       4.994   4.847   3.295  0.00  0.00     0.023 A 
ATOM      5  C4  UNL d   1       4.001   4.089   3.919  0.00  0.00     0.048 A 
ATOM      6  C5  UNL d   1       3.729   4.288   5.273  0.00  0.00     0.003 A 
ATOM      7  I   UNL d   1       5.404   4.552   1.279  0.00  0.00    -0.146 I 
ENDROOT
TORSDOF 0
ENDMDL
