MODEL 1
REMARK minimizedAffinity 5.26963425
REMARK minimizedRMSD -1
REMARK  0 active torsions:
REMARK  status: ('A' for Active; 'I' for Inactive)
ROOT
ATOM      1  C   UNL d   1       5.246   4.875   0.478  0.00  0.00     0.023 A 
ATOM      2  C1  UNL d   1       5.000   3.642  -0.126  0.00  0.00     0.003 A 
ATOM      3  C2  UNL d   1       4.022   3.531  -1.117  0.00  0.00     0.048 A 
ATOM      4  C3  UNL d   1       3.296   4.658  -1.500  0.00  0.00     0.023 A 
ATOM      5  C4  UNL d   1       3.540   5.894  -0.899  0.00  0.00     0.048 A 
ATOM      6  C5  UNL d   1       4.518   6.000   0.092  0.00  0.00     0.003 A 
ATOM      7  I   UNL d   1       1.840   4.497  -2.975  0.00  0.00    -0.146 I 
ENDROOT
TORSDOF 0
ENDMDL
