MODEL 1
REMARK minimizedAffinity 10.5370073
REMARK minimizedRMSD -1
REMARK  0 active torsions:
REMARK  status: ('A' for Active; 'I' for Inactive)
ROOT
ATOM      1  C   UNL d   1       5.718   4.834   6.000  0.00  0.00     0.023 A 
ATOM      2  C1  UNL d   1       6.000   3.649   5.320  0.00  0.00     0.003 A 
ATOM      3  C2  UNL d   1       5.012   3.034   4.547  0.00  0.00     0.048 A 
ATOM      4  C3  UNL d   1       3.746   3.611   4.457  0.00  0.00     0.023 A 
ATOM      5  C4  UNL d   1       3.460   4.796   5.136  0.00  0.00     0.048 A 
ATOM      6  C5  UNL d   1       4.450   5.407   5.908  0.00  0.00     0.003 A 
ATOM      7  I   UNL d   1       2.275   2.698   3.307  0.00  0.00    -0.146 I 
ENDROOT
TORSDOF 0
ENDMDL
