MODEL 1
REMARK minimizedAffinity 9.71438789
REMARK minimizedRMSD -1
REMARK  0 active torsions:
REMARK  status: ('A' for Active; 'I' for Inactive)
ROOT
ATOM      1  C   UNL d   1       3.244   3.419   2.100  0.00  0.00     0.023 A 
ATOM      2  C1  UNL d   1       4.116   4.497   1.943  0.00  0.00     0.003 A 
ATOM      3  C2  UNL d   1       4.713   5.082   3.061  0.00  0.00     0.048 A 
ATOM      4  C3  UNL d   1       4.437   4.583   4.333  0.00  0.00     0.023 A 
ATOM      5  C4  UNL d   1       3.566   3.504   4.495  0.00  0.00     0.048 A 
ATOM      6  C5  UNL d   1       2.970   2.923   3.374  0.00  0.00     0.003 A 
ATOM      7  I   UNL d   1       5.325   5.451   5.999  0.00  0.00    -0.146 I 
ENDROOT
TORSDOF 0
ENDMDL
