MODEL 1
REMARK minimizedAffinity 5.03388596
REMARK minimizedRMSD -1
REMARK  0 active torsions:
REMARK  status: ('A' for Active; 'I' for Inactive)
ROOT
ATOM      1  C   UNL d   1       0.898   3.081   2.478  0.00  0.00     0.023 A 
ATOM      2  C1  UNL d   1       0.102   2.214   3.226  0.00  0.00     0.003 A 
ATOM      3  C2  UNL d   1      -1.178   1.879   2.782  0.00  0.00     0.048 A 
ATOM      4  C3  UNL d   1      -1.657   2.415   1.587  0.00  0.00     0.023 A 
ATOM      5  C4  UNL d   1      -0.865   3.283   0.834  0.00  0.00     0.048 A 
ATOM      6  C5  UNL d   1       0.415   3.615   1.283  0.00  0.00     0.003 A 
ATOM      7  I   UNL d   1      -3.563   1.919   0.922  0.00  0.00    -0.146 I 
ENDROOT
TORSDOF 0
ENDMDL
