MODEL 1
REMARK minimizedAffinity 9.62712765
REMARK minimizedRMSD -1
REMARK  0 active torsions:
REMARK  status: ('A' for Active; 'I' for Inactive)
ROOT
ATOM      1  C   UNL d   1       2.758  -0.798  -0.940  0.00  0.00     0.124 A 
ATOM      2  C1  UNL d   1       2.247  -1.901  -0.270  0.00  0.00     0.062 A 
ATOM      3  C2  UNL d   1       1.238  -1.740   0.675  0.00  0.00     0.162 A 
ATOM      4  C3  UNL d   1       0.732  -0.470   0.956  0.00  0.00    -0.034 A 
ATOM      5  C4  UNL d   1       1.252   0.634   0.279  0.00  0.00     0.162 A 
ATOM      6  C5  UNL d   1       2.261   0.468  -0.665  0.00  0.00     0.062 A 
ATOM      7  F   UNL d   1       2.753   1.535  -1.311  0.00  0.00    -0.097 F 
ATOM      8  F1  UNL d   1       0.789   1.869   0.524  0.00  0.00    -0.096 F 
ATOM      9  I   UNL d   1      -0.777  -0.225   2.368  0.00  0.00    -0.060 I 
ATOM     10  F2  UNL d   1       0.762  -2.823   1.308  0.00  0.00    -0.096 F 
ATOM     11  F3  UNL d   1       2.726  -3.125  -0.533  0.00  0.00    -0.097 F 
ATOM     12  F4  UNL d   1       3.730  -0.956  -1.848  0.00  0.00    -0.092 F 
ENDROOT
TORSDOF 0
ENDMDL
