MODEL 1
REMARK minimizedAffinity 2.97672057
REMARK minimizedRMSD -1
REMARK  0 active torsions:
REMARK  status: ('A' for Active; 'I' for Inactive)
ROOT
ATOM      1  C   UNL d   1       3.292  -0.236  -1.391  0.00  0.00     0.124 A 
ATOM      2  C1  UNL d   1       2.835  -1.416  -0.820  0.00  0.00     0.062 A 
ATOM      3  C2  UNL d   1       1.955  -1.377   0.258  0.00  0.00     0.162 A 
ATOM      4  C3  UNL d   1       1.525  -0.154   0.771  0.00  0.00    -0.034 A 
ATOM      5  C4  UNL d   1       1.989   1.029   0.192  0.00  0.00     0.162 A 
ATOM      6  C5  UNL d   1       2.869   0.985  -0.885  0.00  0.00     0.062 A 
ATOM      7  F   UNL d   1       3.309   2.125  -1.435  0.00  0.00    -0.097 F 
ATOM      8  F1  UNL d   1       1.596   2.222   0.661  0.00  0.00    -0.096 F 
ATOM      9  I   UNL d   1       0.209  -0.091   2.383  0.00  0.00    -0.060 I 
ATOM     10  F2  UNL d   1       1.530  -2.533   0.790  0.00  0.00    -0.096 F 
ATOM     11  F3  UNL d   1       3.243  -2.597  -1.307  0.00  0.00    -0.097 F 
ATOM     12  F4  UNL d   1       4.139  -0.276  -2.427  0.00  0.00    -0.092 F 
ENDROOT
TORSDOF 0
ENDMDL
