MODEL 1
REMARK minimizedAffinity 9.6972084
REMARK minimizedRMSD -1
REMARK  0 active torsions:
REMARK  status: ('A' for Active; 'I' for Inactive)
ROOT
ATOM      1  C   UNL d   1       1.139  -1.731   0.570  0.00  0.00     0.124 A 
ATOM      2  C1  UNL d   1       0.658  -0.434   0.455  0.00  0.00     0.062 A 
ATOM      3  C2  UNL d   1       1.454   0.561  -0.104  0.00  0.00     0.162 A 
ATOM      4  C3  UNL d   1       2.740   0.263  -0.554  0.00  0.00    -0.034 A 
ATOM      5  C4  UNL d   1       3.217  -1.043  -0.435  0.00  0.00     0.162 A 
ATOM      6  C5  UNL d   1       2.418  -2.034   0.125  0.00  0.00     0.062 A 
ATOM      7  F   UNL d   1       2.885  -3.287   0.234  0.00  0.00    -0.097 F 
ATOM      8  F1  UNL d   1       4.449  -1.364  -0.858  0.00  0.00    -0.096 F 
ATOM      9  I   UNL d   1       3.933   1.749  -1.391  0.00  0.00    -0.060 I 
ATOM     10  F2  UNL d   1       0.962   1.805  -0.202  0.00  0.00    -0.096 F 
ATOM     11  F3  UNL d   1      -0.578  -0.139   0.886  0.00  0.00    -0.097 F 
ATOM     12  F4  UNL d   1       0.371  -2.687   1.109  0.00  0.00    -0.092 F 
ENDROOT
TORSDOF 0
ENDMDL
