MODEL 1
REMARK minimizedAffinity -1.03135157
REMARK minimizedRMSD -1
REMARK  0 active torsions:
REMARK  status: ('A' for Active; 'I' for Inactive)
ROOT
ATOM      1  C   UNL d   1       0.695   0.281   0.653  0.00  0.00     0.124 A 
ATOM      2  C1  UNL d   1       1.173  -1.021   0.614  0.00  0.00     0.062 A 
ATOM      3  C2  UNL d   1       2.234  -1.352  -0.225  0.00  0.00     0.162 A 
ATOM      4  C3  UNL d   1       2.824  -0.379  -1.031  0.00  0.00    -0.034 A 
ATOM      5  C4  UNL d   1       2.336   0.929  -0.987  0.00  0.00     0.162 A 
ATOM      6  C5  UNL d   1       1.276   1.254  -0.147  0.00  0.00     0.062 A 
ATOM      7  F   UNL d   1       0.815   2.513  -0.111  0.00  0.00    -0.097 F 
ATOM      8  F1  UNL d   1       2.880   1.889  -1.749  0.00  0.00    -0.096 F 
ATOM      9  I   UNL d   1       4.410  -0.870  -2.286  0.00  0.00    -0.060 I 
ATOM     10  F2  UNL d   1       2.676  -2.618  -0.242  0.00  0.00    -0.096 F 
ATOM     11  F3  UNL d   1       0.613  -1.964   1.385  0.00  0.00    -0.097 F 
ATOM     12  F4  UNL d   1      -0.327   0.597   1.460  0.00  0.00    -0.092 F 
ENDROOT
TORSDOF 0
ENDMDL
