MODEL 1
REMARK minimizedAffinity 2.97784638
REMARK minimizedRMSD -1
REMARK  0 active torsions:
REMARK  status: ('A' for Active; 'I' for Inactive)
ROOT
ATOM      1  C   UNL d   1       1.337   0.262   0.512  0.00  0.00     0.124 A 
ATOM      2  C1  UNL d   1       2.018   1.350  -0.016  0.00  0.00     0.062 A 
ATOM      3  C2  UNL d   1       3.042   1.155  -0.938  0.00  0.00     0.162 A 
ATOM      4  C3  UNL d   1       3.391  -0.134  -1.339  0.00  0.00    -0.034 A 
ATOM      5  C4  UNL d   1       2.703  -1.224  -0.804  0.00  0.00     0.162 A 
ATOM      6  C5  UNL d   1       1.680  -1.024   0.118  0.00  0.00     0.062 A 
ATOM      7  F   UNL d   1       1.023  -2.077   0.626  0.00  0.00    -0.097 F 
ATOM      8  F1  UNL d   1       3.013  -2.477  -1.168  0.00  0.00    -0.096 F 
ATOM      9  I   UNL d   1       4.922  -0.430  -2.718  0.00  0.00    -0.060 I 
ATOM     10  F2  UNL d   1       3.683   2.225  -1.431  0.00  0.00    -0.096 F 
ATOM     11  F3  UNL d   1       1.689   2.593   0.364  0.00  0.00    -0.097 F 
ATOM     12  F4  UNL d   1       0.353   0.452   1.400  0.00  0.00    -0.092 F 
ENDROOT
TORSDOF 0
ENDMDL
