MODEL 1
REMARK minimizedAffinity -3.91472244
REMARK minimizedRMSD -1
REMARK  0 active torsions:
REMARK  status: ('A' for Active; 'I' for Inactive)
ROOT
ATOM      1  C   UNL d   1       3.077  -0.503  -1.052  0.00  0.00     0.124 A 
ATOM      2  C1  UNL d   1       2.584   0.748  -0.709  0.00  0.00     0.062 A 
ATOM      3  C2  UNL d   1       1.517   0.860   0.178  0.00  0.00     0.162 A 
ATOM      4  C3  UNL d   1       0.937  -0.282   0.729  0.00  0.00    -0.034 A 
ATOM      5  C4  UNL d   1       1.438  -1.537   0.378  0.00  0.00     0.162 A 
ATOM      6  C5  UNL d   1       2.504  -1.644  -0.509  0.00  0.00     0.062 A 
ATOM      7  F   UNL d   1       2.980  -2.854  -0.839  0.00  0.00    -0.097 F 
ATOM      8  F1  UNL d   1       0.903  -2.656   0.890  0.00  0.00    -0.096 F 
ATOM      9  I   UNL d   1      -0.659  -0.118   2.056  0.00  0.00    -0.060 I 
ATOM     10  F2  UNL d   1       1.061   2.082   0.492  0.00  0.00    -0.096 F 
ATOM     11  F3  UNL d   1       3.135   1.851  -1.234  0.00  0.00    -0.097 F 
ATOM     12  F4  UNL d   1       4.103  -0.609  -1.907  0.00  0.00    -0.092 F 
ENDROOT
TORSDOF 0
ENDMDL
