MODEL 1
REMARK minimizedAffinity 4.97759867
REMARK minimizedRMSD -1
REMARK  0 active torsions:
REMARK  status: ('A' for Active; 'I' for Inactive)
ROOT
ATOM      1  C   UNL d   1       0.660  -0.251   0.785  0.00  0.00     0.124 A 
ATOM      2  C1  UNL d   1       1.134  -1.549   0.651  0.00  0.00     0.062 A 
ATOM      3  C2  UNL d   1       2.338  -1.790  -0.003  0.00  0.00     0.162 A 
ATOM      4  C3  UNL d   1       3.079  -0.731  -0.528  0.00  0.00    -0.034 A 
ATOM      5  C4  UNL d   1       2.596   0.571  -0.390  0.00  0.00     0.162 A 
ATOM      6  C5  UNL d   1       1.392   0.808   0.264  0.00  0.00     0.062 A 
ATOM      7  F   UNL d   1       0.936   2.062   0.393  0.00  0.00    -0.097 F 
ATOM      8  F1  UNL d   1       3.283   1.613  -0.883  0.00  0.00    -0.096 F 
ATOM      9  I   UNL d   1       4.880  -1.089  -1.507  0.00  0.00    -0.060 I 
ATOM     10  F2  UNL d   1       2.771  -3.055  -0.118  0.00  0.00    -0.096 F 
ATOM     11  F3  UNL d   1       0.429  -2.573   1.152  0.00  0.00    -0.097 F 
ATOM     12  F4  UNL d   1      -0.499  -0.021   1.414  0.00  0.00    -0.092 F 
ENDROOT
TORSDOF 0
ENDMDL
