MODEL 1
REMARK minimizedAffinity 14.3458624
REMARK minimizedRMSD -1
REMARK  0 active torsions:
REMARK  status: ('A' for Active; 'I' for Inactive)
ROOT
ATOM      1  C   UNL d   1       0.664   0.475   1.054  0.00  0.00     0.124 A 
ATOM      2  C1  UNL d   1       1.549   1.439   0.593  0.00  0.00     0.062 A 
ATOM      3  C2  UNL d   1       2.668   1.065  -0.146  0.00  0.00     0.162 A 
ATOM      4  C3  UNL d   1       2.907  -0.280  -0.430  0.00  0.00    -0.034 A 
ATOM      5  C4  UNL d   1       2.012  -1.244   0.038  0.00  0.00     0.162 A 
ATOM      6  C5  UNL d   1       0.896  -0.865   0.777  0.00  0.00     0.062 A 
ATOM      7  F   UNL d   1       0.041  -1.798   1.222  0.00  0.00    -0.097 F 
ATOM      8  F1  UNL d   1       2.212  -2.545  -0.216  0.00  0.00    -0.096 F 
ATOM      9  I   UNL d   1       4.579  -0.843  -1.535  0.00  0.00    -0.060 I 
ATOM     10  F2  UNL d   1       3.507   2.018  -0.580  0.00  0.00    -0.096 F 
ATOM     11  F3  UNL d   1       1.328   2.734   0.860  0.00  0.00    -0.097 F 
ATOM     12  F4  UNL d   1      -0.411   0.837   1.766  0.00  0.00    -0.092 F 
ENDROOT
TORSDOF 0
ENDMDL
