MODEL 1
REMARK minimizedAffinity 7.21878004
REMARK minimizedRMSD -1
REMARK  0 active torsions:
REMARK  status: ('A' for Active; 'I' for Inactive)
ROOT
ATOM      1  C   UNL d   1       0.515   0.207   1.112  0.00  0.00     0.124 A 
ATOM      2  C1  UNL d   1       1.527   1.151   1.007  0.00  0.00     0.062 A 
ATOM      3  C2  UNL d   1       2.649   0.890   0.226  0.00  0.00     0.162 A 
ATOM      4  C3  UNL d   1       2.765  -0.320  -0.458  0.00  0.00    -0.034 A 
ATOM      5  C4  UNL d   1       1.743  -1.265  -0.346  0.00  0.00     0.162 A 
ATOM      6  C5  UNL d   1       0.624  -1.000   0.436  0.00  0.00     0.062 A 
ATOM      7  F   UNL d   1      -0.353  -1.913   0.537  0.00  0.00    -0.097 F 
ATOM      8  F1  UNL d   1       1.822  -2.439  -0.990  0.00  0.00    -0.096 F 
ATOM      9  I   UNL d   1       4.441  -0.714  -1.627  0.00  0.00    -0.060 I 
ATOM     10  F2  UNL d   1       3.612   1.820   0.142  0.00  0.00    -0.096 F 
ATOM     11  F3  UNL d   1       1.425   2.317   1.660  0.00  0.00    -0.097 F 
ATOM     12  F4  UNL d   1      -0.563   0.460   1.866  0.00  0.00    -0.092 F 
ENDROOT
TORSDOF 0
ENDMDL
