MODEL 1
REMARK minimizedAffinity -1.57342315
REMARK minimizedRMSD -1
REMARK  0 active torsions:
REMARK  status: ('A' for Active; 'I' for Inactive)
ROOT
ATOM      1  C   UNL d   1       1.090  -0.279   0.234  0.00  0.00     0.124 A 
ATOM      2  C1  UNL d   1       1.594   0.857  -0.384  0.00  0.00     0.062 A 
ATOM      3  C2  UNL d   1       2.697   0.763  -1.229  0.00  0.00     0.162 A 
ATOM      4  C3  UNL d   1       3.302  -0.472  -1.460  0.00  0.00    -0.034 A 
ATOM      5  C4  UNL d   1       2.790  -1.610  -0.834  0.00  0.00     0.162 A 
ATOM      6  C5  UNL d   1       1.688  -1.511   0.009  0.00  0.00     0.062 A 
ATOM      7  F   UNL d   1       1.202  -2.609   0.606  0.00  0.00    -0.097 F 
ATOM      8  F1  UNL d   1       3.348  -2.813  -1.035  0.00  0.00    -0.096 F 
ATOM      9  I   UNL d   1       4.951  -0.617  -2.722  0.00  0.00    -0.060 I 
ATOM     10  F2  UNL d   1       3.163   1.876  -1.813  0.00  0.00    -0.096 F 
ATOM     11  F3  UNL d   1       1.019   2.048  -0.168  0.00  0.00    -0.097 F 
ATOM     12  F4  UNL d   1       0.030  -0.186   1.047  0.00  0.00    -0.092 F 
ENDROOT
TORSDOF 0
ENDMDL
