MODEL 1
REMARK minimizedAffinity 15.082077
REMARK minimizedRMSD -1
REMARK  0 active torsions:
REMARK  status: ('A' for Active; 'I' for Inactive)
ROOT
ATOM      1  C   UNL d   1       2.410  -1.884  -0.110  0.00  0.00     0.124 A 
ATOM      2  C1  UNL d   1       3.311  -0.979  -0.653  0.00  0.00     0.062 A 
ATOM      3  C2  UNL d   1       3.157   0.386  -0.426  0.00  0.00     0.162 A 
ATOM      4  C3  UNL d   1       2.096   0.854   0.350  0.00  0.00    -0.034 A 
ATOM      5  C4  UNL d   1       1.193  -0.062   0.892  0.00  0.00     0.162 A 
ATOM      6  C5  UNL d   1       1.352  -1.425   0.661  0.00  0.00     0.062 A 
ATOM      7  F   UNL d   1       0.480  -2.298   1.187  0.00  0.00    -0.097 F 
ATOM      8  F1  UNL d   1       0.161   0.354   1.642  0.00  0.00    -0.096 F 
ATOM      9  I   UNL d   1       1.861   2.893   0.692  0.00  0.00    -0.060 I 
ATOM     10  F2  UNL d   1       4.043   1.238  -0.963  0.00  0.00    -0.096 F 
ATOM     11  F3  UNL d   1       4.334  -1.419  -1.400  0.00  0.00    -0.097 F 
ATOM     12  F4  UNL d   1       2.561  -3.196  -0.332  0.00  0.00    -0.092 F 
ENDROOT
TORSDOF 0
ENDMDL
