MODEL 1
REMARK minimizedAffinity 14.9750643
REMARK minimizedRMSD -1
REMARK  0 active torsions:
REMARK  status: ('A' for Active; 'I' for Inactive)
ROOT
ATOM      1  C   UNL d   1       4.915   0.273  -2.622  0.00  0.00     0.124 A 
ATOM      2  C1  UNL d   1       4.698  -1.015  -2.154  0.00  0.00     0.062 A 
ATOM      3  C2  UNL d   1       3.574  -1.300  -1.383  0.00  0.00     0.162 A 
ATOM      4  C3  UNL d   1       2.658  -0.294  -1.077  0.00  0.00    -0.034 A 
ATOM      5  C4  UNL d   1       2.884   1.000  -1.551  0.00  0.00     0.162 A 
ATOM      6  C5  UNL d   1       4.008   1.279  -2.321  0.00  0.00     0.062 A 
ATOM      7  F   UNL d   1       4.217   2.525  -2.772  0.00  0.00    -0.097 F 
ATOM      8  F1  UNL d   1       2.023   1.991  -1.275  0.00  0.00    -0.096 F 
ATOM      9  I   UNL d   1       0.976  -0.715   0.074  0.00  0.00    -0.060 I 
ATOM     10  F2  UNL d   1       3.389  -2.553  -0.944  0.00  0.00    -0.096 F 
ATOM     11  F3  UNL d   1       5.573  -1.989  -2.443  0.00  0.00    -0.097 F 
ATOM     12  F4  UNL d   1       5.998   0.544  -3.362  0.00  0.00    -0.092 F 
ENDROOT
TORSDOF 0
ENDMDL
