MODEL 1
REMARK minimizedAffinity 5.17393064
REMARK minimizedRMSD -1
REMARK  0 active torsions:
REMARK  status: ('A' for Active; 'I' for Inactive)
ROOT
ATOM      1  C   UNL d   1       1.275   0.355   0.392  0.00  0.00     0.124 A 
ATOM      2  C1  UNL d   1       1.658  -0.946   0.095  0.00  0.00     0.062 A 
ATOM      3  C2  UNL d   1       2.770  -1.182  -0.707  0.00  0.00     0.162 A 
ATOM      4  C3  UNL d   1       3.510  -0.115  -1.217  0.00  0.00    -0.034 A 
ATOM      5  C4  UNL d   1       3.118   1.191  -0.914  0.00  0.00     0.162 A 
ATOM      6  C5  UNL d   1       2.005   1.421  -0.112  0.00  0.00     0.062 A 
ATOM      7  F   UNL d   1       1.637   2.679   0.174  0.00  0.00    -0.097 F 
ATOM      8  F1  UNL d   1       3.807   2.240  -1.388  0.00  0.00    -0.096 F 
ATOM      9  I   UNL d   1       5.174  -0.464  -2.416  0.00  0.00    -0.060 I 
ATOM     10  F2  UNL d   1       3.117  -2.449  -0.978  0.00  0.00    -0.096 F 
ATOM     11  F3  UNL d   1       0.953  -1.978   0.580  0.00  0.00    -0.097 F 
ATOM     12  F4  UNL d   1       0.203   0.579   1.164  0.00  0.00    -0.092 F 
ENDROOT
TORSDOF 0
ENDMDL
