MODEL 1
REMARK minimizedAffinity 5.85505962
REMARK minimizedRMSD -1
REMARK  0 active torsions:
REMARK  status: ('A' for Active; 'I' for Inactive)
ROOT
ATOM      1  C   UNL d   1       0.948   0.126   0.453  0.00  0.00     0.124 A 
ATOM      2  C1  UNL d   1       1.299  -1.174   0.114  0.00  0.00     0.062 A 
ATOM      3  C2  UNL d   1       2.407  -1.412  -0.694  0.00  0.00     0.162 A 
ATOM      4  C3  UNL d   1       3.173  -0.347  -1.169  0.00  0.00    -0.034 A 
ATOM      5  C4  UNL d   1       2.814   0.957  -0.825  0.00  0.00     0.162 A 
ATOM      6  C5  UNL d   1       1.706   1.190  -0.017  0.00  0.00     0.062 A 
ATOM      7  F   UNL d   1       1.368   2.446   0.309  0.00  0.00    -0.097 F 
ATOM      8  F1  UNL d   1       3.528   2.004  -1.265  0.00  0.00    -0.096 F 
ATOM      9  I   UNL d   1       4.830  -0.699  -2.378  0.00  0.00    -0.060 I 
ATOM     10  F2  UNL d   1       2.723  -2.677  -1.005  0.00  0.00    -0.096 F 
ATOM     11  F3  UNL d   1       0.569  -2.203   0.566  0.00  0.00    -0.097 F 
ATOM     12  F4  UNL d   1      -0.118   0.352   1.230  0.00  0.00    -0.092 F 
ENDROOT
TORSDOF 0
ENDMDL
