MODEL 1
REMARK minimizedAffinity 1.25651789
REMARK minimizedRMSD -1
REMARK  0 active torsions:
REMARK  status: ('A' for Active; 'I' for Inactive)
ROOT
ATOM      1  C   UNL d   1       1.098   0.158   0.498  0.00  0.00     0.124 A 
ATOM      2  C1  UNL d   1       1.440  -1.134   0.123  0.00  0.00     0.062 A 
ATOM      3  C2  UNL d   1       2.539  -1.355  -0.703  0.00  0.00     0.162 A 
ATOM      4  C3  UNL d   1       3.305  -0.282  -1.158  0.00  0.00    -0.034 A 
ATOM      5  C4  UNL d   1       2.954   1.015  -0.776  0.00  0.00     0.162 A 
ATOM      6  C5  UNL d   1       1.855   1.231   0.049  0.00  0.00     0.062 A 
ATOM      7  F   UNL d   1       1.526   2.479   0.410  0.00  0.00    -0.097 F 
ATOM      8  F1  UNL d   1       3.669   2.069  -1.196  0.00  0.00    -0.096 F 
ATOM      9  I   UNL d   1       4.948  -0.609  -2.392  0.00  0.00    -0.060 I 
ATOM     10  F2  UNL d   1       2.846  -2.614  -1.050  0.00  0.00    -0.096 F 
ATOM     11  F3  UNL d   1       0.709  -2.172   0.555  0.00  0.00    -0.097 F 
ATOM     12  F4  UNL d   1       0.040   0.368   1.291  0.00  0.00    -0.092 F 
ENDROOT
TORSDOF 0
ENDMDL
