MODEL 1
REMARK minimizedAffinity 16.5168781
REMARK minimizedRMSD -1
REMARK  2 active torsions:
REMARK  status: ('A' for Active; 'I' for Inactive)
REMARK    1  A    between atoms: C2'_3  and  C1'_4 
REMARK    2  A    between atoms: C1'_4  and  C1_5 
ROOT
ATOM      1  C1  I4B d   1       3.622  -3.725   0.207  0.00  0.00    -0.075 A 
ATOM      2  C2  I4B d   1       3.382  -5.070   0.340  0.00  0.00     0.003 A 
ATOM      3  C3  I4B d   1       4.453  -5.995   0.285  0.00  0.00     0.002 A 
ATOM      4  C4  I4B d   1       5.734  -5.538   0.048  0.00  0.00    -0.004 A 
ATOM      5  C5  I4B d   1       5.978  -4.172  -0.063  0.00  0.00     0.002 A 
ATOM      6  C6  I4B d   1       4.918  -3.259   0.029  0.00  0.00     0.003 A 
ENDROOT
BRANCH   1   7
ATOM      7  C1' I4B d   1       2.463  -2.780   0.236  0.00  0.00     0.060 C 
BRANCH   7   8
ATOM      8  C2' I4B d   1       2.721  -1.694  -0.789  0.00  0.00    -0.013 C 
ATOM      9  C4' I4B d   1       1.719  -1.756  -1.912  0.00  0.00     0.013 C 
ATOM     10  C3' I4B d   1       2.665  -0.371  -0.086  0.00  0.00     0.013 C 
ENDBRANCH   7   8
ENDBRANCH   1   7
TORSDOF 2
ENDMDL
