MODEL 1
REMARK minimizedAffinity 9.00569916
REMARK minimizedRMSD -1
REMARK  2 active torsions:
REMARK  status: ('A' for Active; 'I' for Inactive)
REMARK    1  A    between atoms: C2'_3  and  C1'_4 
REMARK    2  A    between atoms: C1'_4  and  C1_5 
ROOT
ATOM      1  C1  I4B d   1       2.160  -0.878  -3.073  0.00  0.00    -0.075 A 
ATOM      2  C2  I4B d   1       1.601  -2.003  -2.519  0.00  0.00     0.003 A 
ATOM      3  C3  I4B d   1       1.512  -2.136  -1.112  0.00  0.00     0.002 A 
ATOM      4  C4  I4B d   1       2.037  -1.150  -0.302  0.00  0.00    -0.004 A 
ATOM      5  C5  I4B d   1       2.583  -0.000  -0.865  0.00  0.00     0.002 A 
ATOM      6  C6  I4B d   1       2.635   0.143  -2.259  0.00  0.00     0.003 A 
ENDROOT
BRANCH   1   7
ATOM      7  C1' I4B d   1       2.268  -0.785  -4.562  0.00  0.00     0.060 C 
BRANCH   7   8
ATOM      8  C2' I4B d   1       2.758  -2.123  -5.079  0.00  0.00    -0.013 C 
ATOM      9  C4' I4B d   1       1.746  -2.756  -5.997  0.00  0.00     0.013 C 
ATOM     10  C3' I4B d   1       4.063  -1.897  -5.783  0.00  0.00     0.013 C 
ENDBRANCH   7   8
ENDBRANCH   1   7
TORSDOF 2
ENDMDL
