MODEL 1
REMARK minimizedAffinity 21.7104759
REMARK minimizedRMSD -1
REMARK  2 active torsions:
REMARK  status: ('A' for Active; 'I' for Inactive)
REMARK    1  A    between atoms: C2'_3  and  C1'_4 
REMARK    2  A    between atoms: C1'_4  and  C1_5 
ROOT
ATOM      1  C1  I4B d   1      -4.119   1.177   3.630  0.00  0.00    -0.075 A 
ATOM      2  C2  I4B d   1      -5.078   2.146   3.473  0.00  0.00     0.003 A 
ATOM      3  C3  I4B d   1      -5.226   3.166   4.444  0.00  0.00     0.002 A 
ATOM      4  C4  I4B d   1      -4.433   3.150   5.573  0.00  0.00    -0.004 A 
ATOM      5  C5  I4B d   1      -3.446   2.180   5.719  0.00  0.00     0.002 A 
ATOM      6  C6  I4B d   1      -3.279   1.194   4.735  0.00  0.00     0.003 A 
ENDROOT
BRANCH   1   7
ATOM      7  C1' I4B d   1      -4.013   0.095   2.601  0.00  0.00     0.060 C 
BRANCH   7   8
ATOM      8  C2' I4B d   1      -4.803  -1.099   3.097  0.00  0.00    -0.013 C 
ATOM      9  C4' I4B d   1      -5.673  -1.667   2.006  0.00  0.00     0.013 C 
ATOM     10  C3' I4B d   1      -3.829  -2.122   3.600  0.00  0.00     0.013 C 
ENDBRANCH   7   8
ENDBRANCH   1   7
TORSDOF 2
ENDMDL
