MODEL 1
REMARK minimizedAffinity 11.9177122
REMARK minimizedRMSD -1
REMARK  2 active torsions:
REMARK  status: ('A' for Active; 'I' for Inactive)
REMARK    1  A    between atoms: C2'_3  and  C1'_4 
REMARK    2  A    between atoms: C1'_4  and  C1_5 
ROOT
ATOM      1  C1  I4B d   1       1.798   1.378   0.034  0.00  0.00    -0.075 A 
ATOM      2  C2  I4B d   1       1.659   0.013   0.078  0.00  0.00     0.003 A 
ATOM      3  C3  I4B d   1       1.849  -0.761  -1.092  0.00  0.00     0.002 A 
ATOM      4  C4  I4B d   1       2.125  -0.129  -2.287  0.00  0.00    -0.004 A 
ATOM      5  C5  I4B d   1       2.288   1.253  -2.325  0.00  0.00     0.002 A 
ATOM      6  C6  I4B d   1       2.136   2.010  -1.155  0.00  0.00     0.003 A 
ENDROOT
BRANCH   1   7
ATOM      7  C1' I4B d   1       1.558   2.167   1.282  0.00  0.00     0.060 C 
BRANCH   7   8
ATOM      8  C2' I4B d   1       0.676   1.341   2.195  0.00  0.00    -0.013 C 
ATOM      9  C4' I4B d   1       1.297   1.184   3.558  0.00  0.00     0.013 C 
ATOM     10  C3' I4B d   1      -0.661   2.016   2.283  0.00  0.00     0.013 C 
ENDBRANCH   7   8
ENDBRANCH   1   7
TORSDOF 2
ENDMDL
