MODEL 1
REMARK minimizedAffinity 22.3889236
REMARK minimizedRMSD -1
REMARK  2 active torsions:
REMARK  status: ('A' for Active; 'I' for Inactive)
REMARK    1  A    between atoms: C2'_3  and  C1'_4 
REMARK    2  A    between atoms: C1'_4  and  C1_5 
ROOT
ATOM      1  C1  I4B d   1       3.014   0.415  -0.510  0.00  0.00    -0.075 A 
ATOM      2  C2  I4B d   1       2.703   0.746   0.785  0.00  0.00     0.003 A 
ATOM      3  C3  I4B d   1       3.356   1.830   1.421  0.00  0.00     0.002 A 
ATOM      4  C4  I4B d   1       4.343   2.519   0.746  0.00  0.00    -0.004 A 
ATOM      5  C5  I4B d   1       4.641   2.196  -0.575  0.00  0.00     0.002 A 
ATOM      6  C6  I4B d   1       3.964   1.146  -1.211  0.00  0.00     0.003 A 
ENDROOT
BRANCH   1   7
ATOM      7  C1' I4B d   1       2.329  -0.756  -1.139  0.00  0.00     0.060 C 
BRANCH   7   8
ATOM      8  C2' I4B d   1       1.789  -0.314  -2.484  0.00  0.00    -0.013 C 
ATOM      9  C4' I4B d   1       2.470  -1.043  -3.612  0.00  0.00     0.013 C 
ATOM     10  C3' I4B d   1       0.310  -0.562  -2.494  0.00  0.00     0.013 C 
ENDBRANCH   7   8
ENDBRANCH   1   7
TORSDOF 2
ENDMDL
