MODEL 1
REMARK minimizedAffinity 23.9259281
REMARK minimizedRMSD -1
REMARK  2 active torsions:
REMARK  status: ('A' for Active; 'I' for Inactive)
REMARK    1  A    between atoms: C2'_3  and  C1'_4 
REMARK    2  A    between atoms: C1'_4  and  C1_5 
ROOT
ATOM      1  C1  I4B d   1      -3.860   2.205   3.538  0.00  0.00    -0.075 A 
ATOM      2  C2  I4B d   1      -4.043   0.948   3.019  0.00  0.00     0.003 A 
ATOM      3  C3  I4B d   1      -3.016   0.332   2.262  0.00  0.00     0.002 A 
ATOM      4  C4  I4B d   1      -1.850   1.026   2.009  0.00  0.00    -0.004 A 
ATOM      5  C5  I4B d   1      -1.657   2.291   2.555  0.00  0.00     0.002 A 
ATOM      6  C6  I4B d   1      -2.663   2.880   3.335  0.00  0.00     0.003 A 
ENDROOT
BRANCH   1   7
ATOM      7  C1' I4B d   1      -4.977   2.838   4.304  0.00  0.00     0.060 C 
BRANCH   7   8
ATOM      8  C2' I4B d   1      -4.519   3.016   5.737  0.00  0.00    -0.013 C 
ATOM      9  C4' I4B d   1      -3.229   2.282   5.992  0.00  0.00     0.013 C 
ATOM     10  C3' I4B d   1      -4.365   4.486   5.995  0.00  0.00     0.013 C 
ENDBRANCH   7   8
ENDBRANCH   1   7
TORSDOF 2
ENDMDL
