MODEL 1
REMARK minimizedAffinity 18.2169495
REMARK minimizedRMSD -1
REMARK  2 active torsions:
REMARK  status: ('A' for Active; 'I' for Inactive)
REMARK    1  A    between atoms: C2'_3  and  C1'_4 
REMARK    2  A    between atoms: C1'_4  and  C1_5 
ROOT
ATOM      1  C1  I4B d   1       0.689   3.612   1.564  0.00  0.00    -0.075 A 
ATOM      2  C2  I4B d   1      -0.356   3.019   2.227  0.00  0.00     0.003 A 
ATOM      3  C3  I4B d   1      -0.142   1.847   2.992  0.00  0.00     0.002 A 
ATOM      4  C4  I4B d   1       1.114   1.277   3.025  0.00  0.00    -0.004 A 
ATOM      5  C5  I4B d   1       2.178   1.892   2.370  0.00  0.00     0.002 A 
ATOM      6  C6  I4B d   1       1.967   3.074   1.645  0.00  0.00     0.003 A 
ENDROOT
BRANCH   1   7
ATOM      7  C1' I4B d   1       0.421   4.830   0.738  0.00  0.00     0.060 C 
BRANCH   7   8
ATOM      8  C2' I4B d   1       1.616   5.054  -0.166  0.00  0.00    -0.013 C 
ATOM      9  C4' I4B d   1       1.193   5.594  -1.506  0.00  0.00     0.013 C 
ATOM     10  C3' I4B d   1       2.551   6.000   0.528  0.00  0.00     0.013 C 
ENDBRANCH   7   8
ENDBRANCH   1   7
TORSDOF 2
ENDMDL
