MODEL 1
REMARK minimizedAffinity 18.905407
REMARK minimizedRMSD -1
REMARK  2 active torsions:
REMARK  status: ('A' for Active; 'I' for Inactive)
REMARK    1  A    between atoms: C2'_3  and  C1'_4 
REMARK    2  A    between atoms: C1'_4  and  C1_5 
ROOT
ATOM      1  C1  I4B d   1      -3.330   1.598   3.718  0.00  0.00    -0.075 A 
ATOM      2  C2  I4B d   1      -3.107   1.633   5.072  0.00  0.00     0.003 A 
ATOM      3  C3  I4B d   1      -4.084   2.176   5.941  0.00  0.00     0.002 A 
ATOM      4  C4  I4B d   1      -5.238   2.716   5.413  0.00  0.00    -0.004 A 
ATOM      5  C5  I4B d   1      -5.472   2.659   4.042  0.00  0.00     0.002 A 
ATOM      6  C6  I4B d   1      -4.518   2.085   3.190  0.00  0.00     0.003 A 
ENDROOT
BRANCH   1   7
ATOM      7  C1' I4B d   1      -2.263   1.046   2.826  0.00  0.00     0.060 C 
BRANCH   7   8
ATOM      8  C2' I4B d   1      -0.953   1.709   3.200  0.00  0.00    -0.013 C 
ATOM      9  C4' I4B d   1       0.192   0.734   3.127  0.00  0.00     0.013 C 
ATOM     10  C3' I4B d   1      -0.738   2.867   2.272  0.00  0.00     0.013 C 
ENDBRANCH   7   8
ENDBRANCH   1   7
TORSDOF 2
ENDMDL
