MODEL 1
REMARK minimizedAffinity 8.84637451
REMARK minimizedRMSD -1
REMARK  2 active torsions:
REMARK  status: ('A' for Active; 'I' for Inactive)
REMARK    1  A    between atoms: C2'_3  and  C1'_4 
REMARK    2  A    between atoms: C1'_4  and  C1_5 
ROOT
ATOM      1  C1  I4B d   1       2.247  -1.006  -0.584  0.00  0.00    -0.075 A 
ATOM      2  C2  I4B d   1       2.829  -2.089   0.026  0.00  0.00     0.003 A 
ATOM      3  C3  I4B d   1       2.857  -3.345  -0.627  0.00  0.00     0.002 A 
ATOM      4  C4  I4B d   1       2.252  -3.484  -1.859  0.00  0.00    -0.004 A 
ATOM      5  C5  I4B d   1       1.683  -2.379  -2.486  0.00  0.00     0.002 A 
ATOM      6  C6  I4B d   1       1.691  -1.129  -1.850  0.00  0.00     0.003 A 
ENDROOT
BRANCH   1   7
ATOM      7  C1' I4B d   1       2.206   0.298   0.149  0.00  0.00     0.060 C 
BRANCH   7   8
ATOM      8  C2' I4B d   1       3.592   0.907   0.095  0.00  0.00    -0.013 C 
ATOM      9  C4' I4B d   1       3.697   1.926  -1.009  0.00  0.00     0.013 C 
ATOM     10  C3' I4B d   1       3.877   1.526   1.431  0.00  0.00     0.013 C 
ENDBRANCH   7   8
ENDBRANCH   1   7
TORSDOF 2
ENDMDL
