MODEL 1
REMARK minimizedAffinity 13.9333124
REMARK minimizedRMSD -1
REMARK  2 active torsions:
REMARK  status: ('A' for Active; 'I' for Inactive)
REMARK    1  A    between atoms: C2'_3  and  C1'_4 
REMARK    2  A    between atoms: C1'_4  and  C1_5 
ROOT
ATOM      1  C1  I4B d   1       1.913  -0.462  -0.498  0.00  0.00    -0.075 A 
ATOM      2  C2  I4B d   1       1.450  -0.586  -1.784  0.00  0.00     0.003 A 
ATOM      3  C3  I4B d   1       1.318  -1.867  -2.373  0.00  0.00     0.002 A 
ATOM      4  C4  I4B d   1       1.705  -2.985  -1.663  0.00  0.00    -0.004 A 
ATOM      5  C5  I4B d   1       2.152  -2.859  -0.351  0.00  0.00     0.002 A 
ATOM      6  C6  I4B d   1       2.245  -1.591   0.240  0.00  0.00     0.003 A 
ENDROOT
BRANCH   1   7
ATOM      7  C1' I4B d   1       2.071   0.908   0.082  0.00  0.00     0.060 C 
BRANCH   7   8
ATOM      8  C2' I4B d   1       3.527   1.090   0.457  0.00  0.00    -0.013 C 
ATOM      9  C4' I4B d   1       4.326   1.630  -0.700  0.00  0.00     0.013 C 
ATOM     10  C3' I4B d   1       3.589   2.016   1.636  0.00  0.00     0.013 C 
ENDBRANCH   7   8
ENDBRANCH   1   7
TORSDOF 2
ENDMDL
