MODEL 1
REMARK minimizedAffinity 1.78845656
REMARK minimizedRMSD -1
REMARK  2 active torsions:
REMARK  status: ('A' for Active; 'I' for Inactive)
REMARK    1  A    between atoms: C2'_3  and  C1'_4 
REMARK    2  A    between atoms: C1'_4  and  C1_5 
ROOT
ATOM      1  C1  I4B d   1      -3.089  -5.035  -5.122  0.00  0.00    -0.075 A 
ATOM      2  C2  I4B d   1      -3.038  -4.645  -3.807  0.00  0.00     0.003 A 
ATOM      3  C3  I4B d   1      -1.888  -4.918  -3.026  0.00  0.00     0.002 A 
ATOM      4  C4  I4B d   1      -0.841  -5.624  -3.583  0.00  0.00    -0.004 A 
ATOM      5  C5  I4B d   1      -0.885  -5.998  -4.922  0.00  0.00     0.002 A 
ATOM      6  C6  I4B d   1      -2.011  -5.691  -5.701  0.00  0.00     0.003 A 
ENDROOT
BRANCH   1   7
ATOM      7  C1' I4B d   1      -4.331  -4.759  -5.907  0.00  0.00     0.060 C 
BRANCH   7   8
ATOM      8  C2' I4B d   1      -4.501  -3.256  -6.000  0.00  0.00    -0.013 C 
ATOM      9  C4' I4B d   1      -5.957  -2.870  -5.986  0.00  0.00     0.013 C 
ATOM     10  C3' I4B d   1      -3.765  -2.635  -4.850  0.00  0.00     0.013 C 
ENDBRANCH   7   8
ENDBRANCH   1   7
TORSDOF 2
ENDMDL
