MODEL 1
REMARK minimizedAffinity 14.7132263
REMARK minimizedRMSD -1
REMARK  2 active torsions:
REMARK  status: ('A' for Active; 'I' for Inactive)
REMARK    1  A    between atoms: C2'_3  and  C1'_4 
REMARK    2  A    between atoms: C1'_4  and  C1_5 
ROOT
ATOM      1  C1  I4B d   1       2.747   0.229  -1.186  0.00  0.00    -0.075 A 
ATOM      2  C2  I4B d   1       2.012   0.563  -0.076  0.00  0.00     0.003 A 
ATOM      3  C3  I4B d   1       2.567   1.401   0.921  0.00  0.00     0.002 A 
ATOM      4  C4  I4B d   1       3.870   1.838   0.792  0.00  0.00    -0.004 A 
ATOM      5  C5  I4B d   1       4.606   1.517  -0.344  0.00  0.00     0.002 A 
ATOM      6  C6  I4B d   1       4.037   0.717  -1.346  0.00  0.00     0.003 A 
ENDROOT
BRANCH   1   7
ATOM      7  C1' I4B d   1       2.141  -0.685  -2.203  0.00  0.00     0.060 C 
BRANCH   7   8
ATOM      8  C2' I4B d   1       1.321   0.158  -3.159  0.00  0.00    -0.013 C 
ATOM      9  C4' I4B d   1       1.665  -0.152  -4.592  0.00  0.00     0.013 C 
ATOM     10  C3' I4B d   1      -0.129  -0.106  -2.881  0.00  0.00     0.013 C 
ENDBRANCH   7   8
ENDBRANCH   1   7
TORSDOF 2
ENDMDL
