MODEL 1
REMARK minimizedAffinity 13.7766819
REMARK minimizedRMSD -1
REMARK  2 active torsions:
REMARK  status: ('A' for Active; 'I' for Inactive)
REMARK    1  A    between atoms: C2'_3  and  C1'_4 
REMARK    2  A    between atoms: C1'_4  and  C1_5 
ROOT
ATOM      1  C1  I4B d   1      -3.352   1.447   3.626  0.00  0.00    -0.075 A 
ATOM      2  C2  I4B d   1      -3.016   1.176   4.929  0.00  0.00     0.003 A 
ATOM      3  C3  I4B d   1      -3.872   1.575   5.983  0.00  0.00     0.002 A 
ATOM      4  C4  I4B d   1      -5.022   2.283   5.695  0.00  0.00    -0.004 A 
ATOM      5  C5  I4B d   1      -5.372   2.537   4.372  0.00  0.00     0.002 A 
ATOM      6  C6  I4B d   1      -4.538   2.106   3.330  0.00  0.00     0.003 A 
ENDROOT
BRANCH   1   7
ATOM      7  C1' I4B d   1      -2.409   1.040   2.538  0.00  0.00     0.060 C 
BRANCH   7   8
ATOM      8  C2' I4B d   1      -1.008   1.430   2.966  0.00  0.00    -0.013 C 
ATOM      9  C4' I4B d   1       0.032   0.701   2.156  0.00  0.00     0.013 C 
ATOM     10  C3' I4B d   1      -0.873   2.915   2.809  0.00  0.00     0.013 C 
ENDBRANCH   7   8
ENDBRANCH   1   7
TORSDOF 2
ENDMDL
