MODEL 1
REMARK minimizedAffinity -2.05578089
REMARK minimizedRMSD -1
REMARK  1 active torsions:
REMARK  status: ('A' for Active; 'I' for Inactive)
REMARK    1  A    between atoms: C1_2  and  C2_3 
ROOT
ATOM      1  C2  UNL d   1      -0.501  -0.465   2.533  0.00  0.00    -0.076 A 
ATOM      2  C3  UNL d   1      -1.584  -1.072   3.192  0.00  0.00     0.004 A 
ATOM      3  C4  UNL d   1      -1.392  -2.178   4.019  0.00  0.00    -0.003 A 
ATOM      4  C5  UNL d   1      -0.114  -2.694   4.201  0.00  0.00     0.000 A 
ATOM      5  C6  UNL d   1       0.975  -2.093   3.569  0.00  0.00     0.000 A 
ATOM      6  C7  UNL d   1       0.801  -0.968   2.745  0.00  0.00    -0.073 A 
ATOM      7  C8  UNL d   1       2.009  -0.363   2.083  0.00  0.00     0.078 C 
ENDROOT
BRANCH   1   8
ATOM      8  C1  UNL d   1      -0.774   0.715   1.628  0.00  0.00     0.053 C 
ATOM      9  C   UNL d   1      -1.432   0.306   0.319  0.00  0.00     0.018 C 
ENDBRANCH   1   8
TORSDOF 1
ENDMDL
