MODEL 1
REMARK minimizedAffinity -0.580317318
REMARK minimizedRMSD -1
REMARK  1 active torsions:
REMARK  status: ('A' for Active; 'I' for Inactive)
REMARK    1  A    between atoms: C1_2  and  C2_3 
ROOT
ATOM      1  C2  UNL d   1       0.288  -1.222   3.323  0.00  0.00    -0.076 A 
ATOM      2  C3  UNL d   1      -1.099  -0.996   3.368  0.00  0.00     0.004 A 
ATOM      3  C4  UNL d   1      -1.724  -0.183   2.424  0.00  0.00    -0.003 A 
ATOM      4  C5  UNL d   1      -0.973   0.416   1.419  0.00  0.00     0.000 A 
ATOM      5  C6  UNL d   1       0.401   0.189   1.349  0.00  0.00     0.000 A 
ATOM      6  C7  UNL d   1       1.044  -0.641   2.283  0.00  0.00    -0.073 A 
ATOM      7  C8  UNL d   1       2.530  -0.846   2.163  0.00  0.00     0.078 C 
ENDROOT
BRANCH   1   8
ATOM      8  C1  UNL d   1       0.915  -2.091   4.389  0.00  0.00     0.053 C 
ATOM      9  C   UNL d   1       1.306  -1.302   5.629  0.00  0.00     0.018 C 
ENDBRANCH   1   8
TORSDOF 1
ENDMDL
