MODEL 1
REMARK minimizedAffinity 3.43076849
REMARK minimizedRMSD -1
REMARK  1 active torsions:
REMARK  status: ('A' for Active; 'I' for Inactive)
REMARK    1  A    between atoms: C1_2  and  C2_3 
ROOT
ATOM      1  C2  UNL d   1      -0.362  -1.157   2.662  0.00  0.00    -0.076 A 
ATOM      2  C3  UNL d   1       0.942  -0.664   2.477  0.00  0.00     0.004 A 
ATOM      3  C4  UNL d   1       2.033  -1.273   3.094  0.00  0.00    -0.003 A 
ATOM      4  C5  UNL d   1       1.839  -2.385   3.906  0.00  0.00     0.000 A 
ATOM      5  C6  UNL d   1       0.554  -2.898   4.087  0.00  0.00     0.000 A 
ATOM      6  C7  UNL d   1      -0.555  -2.305   3.459  0.00  0.00    -0.073 A 
ATOM      7  C8  UNL d   1      -1.918  -2.896   3.694  0.00  0.00     0.078 C 
ENDROOT
BRANCH   1   8
ATOM      8  C1  UNL d   1      -1.509  -0.438   1.989  0.00  0.00     0.053 C 
ATOM      9  C   UNL d   1      -1.524   1.051   2.295  0.00  0.00     0.018 C 
ENDBRANCH   1   8
TORSDOF 1
ENDMDL
