MODEL 1
REMARK minimizedAffinity 5.47738361
REMARK minimizedRMSD -1
REMARK  1 active torsions:
REMARK  status: ('A' for Active; 'I' for Inactive)
REMARK    1  A    between atoms: C1_2  and  C2_3 
ROOT
ATOM      1  C2  UNL d   1      -0.551  -4.056  -4.328  0.00  0.00    -0.076 A 
ATOM      2  C3  UNL d   1      -0.254  -3.501  -3.072  0.00  0.00     0.004 A 
ATOM      3  C4  UNL d   1       0.538  -4.188  -2.153  0.00  0.00    -0.003 A 
ATOM      4  C5  UNL d   1       1.046  -5.441  -2.476  0.00  0.00     0.000 A 
ATOM      5  C6  UNL d   1       0.776  -6.000  -3.725  0.00  0.00     0.000 A 
ATOM      6  C7  UNL d   1      -0.007  -5.313  -4.669  0.00  0.00    -0.073 A 
ATOM      7  C8  UNL d   1      -0.272  -5.965  -5.999  0.00  0.00     0.078 C 
ENDROOT
BRANCH   1   8
ATOM      8  C1  UNL d   1      -1.437  -3.277  -5.273  0.00  0.00     0.053 C 
ATOM      9  C   UNL d   1      -1.647  -1.839  -4.823  0.00  0.00     0.018 C 
ENDBRANCH   1   8
TORSDOF 1
ENDMDL
