MODEL 1
REMARK minimizedAffinity 8.43020535
REMARK minimizedRMSD -1
REMARK  1 active torsions:
REMARK  status: ('A' for Active; 'I' for Inactive)
REMARK    1  A    between atoms: C1_2  and  C2_3 
ROOT
ATOM      1  C2  UNL d   1      -0.666  -3.680  -4.192  0.00  0.00    -0.076 A 
ATOM      2  C3  UNL d   1      -0.646  -4.140  -5.520  0.00  0.00     0.004 A 
ATOM      3  C4  UNL d   1       0.063  -5.287  -5.872  0.00  0.00    -0.003 A 
ATOM      4  C5  UNL d   1       0.763  -5.994  -4.900  0.00  0.00     0.000 A 
ATOM      5  C6  UNL d   1       0.739  -5.563  -3.574  0.00  0.00     0.000 A 
ATOM      6  C7  UNL d   1       0.016  -4.417  -3.201  0.00  0.00    -0.073 A 
ATOM      7  C8  UNL d   1       0.030  -3.993  -1.757  0.00  0.00     0.078 C 
ENDROOT
BRANCH   1   8
ATOM      8  C1  UNL d   1      -1.430  -2.414  -3.876  0.00  0.00     0.053 C 
ATOM      9  C   UNL d   1      -1.506  -1.467  -5.063  0.00  0.00     0.018 C 
ENDBRANCH   1   8
TORSDOF 1
ENDMDL
