MODEL 1
REMARK minimizedAffinity -0.37031433
REMARK minimizedRMSD -1
REMARK  1 active torsions:
REMARK  status: ('A' for Active; 'I' for Inactive)
REMARK    1  A    between atoms: C1_2  and  C2_3 
ROOT
ATOM      1  C2  UNL d   1       1.308  -1.917   4.074  0.00  0.00    -0.076 A 
ATOM      2  C3  UNL d   1       0.339  -2.303   3.131  0.00  0.00     0.004 A 
ATOM      3  C4  UNL d   1      -0.155  -1.394   2.197  0.00  0.00    -0.003 A 
ATOM      4  C5  UNL d   1       0.313  -0.084   2.191  0.00  0.00     0.000 A 
ATOM      5  C6  UNL d   1       1.286   0.311   3.107  0.00  0.00     0.000 A 
ATOM      6  C7  UNL d   1       1.807  -0.597   4.045  0.00  0.00    -0.073 A 
ATOM      7  C8  UNL d   1       2.851  -0.116   5.014  0.00  0.00     0.078 C 
ENDROOT
BRANCH   1   8
ATOM      8  C1  UNL d   1       1.787  -2.939   5.080  0.00  0.00     0.053 C 
ATOM      9  C   UNL d   1       3.181  -3.458   4.766  0.00  0.00     0.018 C 
ENDBRANCH   1   8
TORSDOF 1
ENDMDL
