MODEL 1
REMARK minimizedAffinity -1.42430067
REMARK minimizedRMSD -1
REMARK  1 active torsions:
REMARK  status: ('A' for Active; 'I' for Inactive)
REMARK    1  A    between atoms: C3_4  and  O_7 
ROOT
ATOM      1  C   UNL d   1       2.064  -2.458  -0.469  0.00  0.00    -0.033 A 
ATOM      2  C1  UNL d   1       0.861  -2.031  -1.034  0.00  0.00     0.039 A 
ATOM      3  C2  UNL d   1       0.399  -0.734  -0.800  0.00  0.00    -0.080 A 
ATOM      4  C3  UNL d   1       1.150   0.125  -0.002  0.00  0.00     0.150 A 
ATOM      5  C4  UNL d   1       2.352  -0.293   0.561  0.00  0.00    -0.007 A 
ATOM      6  C5  UNL d   1       2.810  -1.589   0.327  0.00  0.00     0.039 A 
ENDROOT
BRANCH   4   7
ATOM      7  O   UNL d   1       0.738   1.398   0.259  0.00  0.00    -0.526 OA
ATOM      8  H5  UNL d   1      -0.122   1.537  -0.172  0.00  0.00     0.418 HD
ENDBRANCH   4   7
TORSDOF 1
ENDMDL
