MODEL 1
REMARK minimizedAffinity 1.15055048
REMARK minimizedRMSD -1
REMARK  1 active torsions:
REMARK  status: ('A' for Active; 'I' for Inactive)
REMARK    1  A    between atoms: C3_4  and  O_7 
ROOT
ATOM      1  C   UNL d   1       2.567  -1.837   0.779  0.00  0.00    -0.033 A 
ATOM      2  C1  UNL d   1       1.710  -1.613  -0.300  0.00  0.00     0.039 A 
ATOM      3  C2  UNL d   1       1.250  -0.323  -0.572  0.00  0.00    -0.080 A 
ATOM      4  C3  UNL d   1       1.653   0.732   0.242  0.00  0.00     0.150 A 
ATOM      5  C4  UNL d   1       2.509   0.516   1.317  0.00  0.00    -0.007 A 
ATOM      6  C5  UNL d   1       2.967  -0.772   1.587  0.00  0.00     0.039 A 
ENDROOT
BRANCH   4   7
ATOM      7  O   UNL d   1       1.226   2.008   0.019  0.00  0.00    -0.526 OA
ATOM      8  H5  UNL d   1       0.618   2.000  -0.739  0.00  0.00     0.418 HD
ENDBRANCH   4   7
TORSDOF 1
ENDMDL
