MODEL 1
REMARK minimizedAffinity -0.574598908
REMARK minimizedRMSD -1
REMARK  1 active torsions:
REMARK  status: ('A' for Active; 'I' for Inactive)
REMARK    1  A    between atoms: C3_4  and  O_7 
ROOT
ATOM      1  C   UNL d   1       2.817   2.440   3.697  0.00  0.00    -0.033 A 
ATOM      2  C1  UNL d   1       4.054   2.351   3.054  0.00  0.00     0.039 A 
ATOM      3  C2  UNL d   1       5.051   3.290   3.322  0.00  0.00    -0.080 A 
ATOM      4  C3  UNL d   1       4.801   4.312   4.234  0.00  0.00     0.150 A 
ATOM      5  C4  UNL d   1       3.573   4.405   4.881  0.00  0.00    -0.007 A 
ATOM      6  C5  UNL d   1       2.578   3.466   4.612  0.00  0.00     0.039 A 
ENDROOT
BRANCH   4   7
ATOM      7  O   UNL d   1       5.742   5.254   4.525  0.00  0.00    -0.526 OA
ATOM      8  H5  UNL d   1       6.529   5.080   3.982  0.00  0.00     0.418 HD
ENDBRANCH   4   7
TORSDOF 1
ENDMDL
