MODEL 1
REMARK minimizedAffinity 5.15694666
REMARK minimizedRMSD -1
REMARK  1 active torsions:
REMARK  status: ('A' for Active; 'I' for Inactive)
REMARK    1  A    between atoms: C3_4  and  O_7 
ROOT
ATOM      1  C   UNL d   1       0.738   2.944   2.423  0.00  0.00    -0.033 A 
ATOM      2  C1  UNL d   1       0.554   1.954   3.391  0.00  0.00     0.039 A 
ATOM      3  C2  UNL d   1      -0.712   1.401   3.595  0.00  0.00    -0.080 A 
ATOM      4  C3  UNL d   1      -1.783   1.845   2.826  0.00  0.00     0.150 A 
ATOM      5  C4  UNL d   1      -1.607   2.827   1.857  0.00  0.00    -0.007 A 
ATOM      6  C5  UNL d   1      -0.342   3.379   1.655  0.00  0.00     0.039 A 
ENDROOT
BRANCH   4   7
ATOM      7  O   UNL d   1      -3.038   1.338   2.992  0.00  0.00    -0.526 OA
ATOM      8  H5  UNL d   1      -3.015   0.689   3.715  0.00  0.00     0.418 HD
ENDBRANCH   4   7
TORSDOF 1
ENDMDL
