MODEL 1
REMARK minimizedAffinity -0.421175152
REMARK minimizedRMSD -1
REMARK  1 active torsions:
REMARK  status: ('A' for Active; 'I' for Inactive)
REMARK    1  A    between atoms: C3_4  and  O_7 
ROOT
ATOM      1  C   UNL d   1       6.000   6.000   0.365  0.00  0.00    -0.033 A 
ATOM      2  C1  UNL d   1       5.988   5.823  -1.020  0.00  0.00     0.039 A 
ATOM      3  C2  UNL d   1       5.968   4.536  -1.561  0.00  0.00    -0.080 A 
ATOM      4  C3  UNL d   1       5.960   3.436  -0.708  0.00  0.00     0.150 A 
ATOM      5  C4  UNL d   1       5.969   3.605   0.673  0.00  0.00    -0.007 A 
ATOM      6  C5  UNL d   1       5.989   4.891   1.211  0.00  0.00     0.039 A 
ENDROOT
BRANCH   4   7
ATOM      7  O   UNL d   1       5.946   2.161  -1.189  0.00  0.00    -0.526 OA
ATOM      8  H5  UNL d   1       5.971   2.198  -2.160  0.00  0.00     0.418 HD
ENDBRANCH   4   7
TORSDOF 1
ENDMDL
