MODEL 1
REMARK minimizedAffinity -3.42522407
REMARK minimizedRMSD -1
REMARK  1 active torsions:
REMARK  status: ('A' for Active; 'I' for Inactive)
REMARK    1  A    between atoms: C3_4  and  O_7 
ROOT
ATOM      1  C   UNL d   1       1.910  -2.763  -1.782  0.00  0.00    -0.033 A 
ATOM      2  C1  UNL d   1       1.889  -2.048  -0.583  0.00  0.00     0.039 A 
ATOM      3  C2  UNL d   1       2.657  -0.890  -0.445  0.00  0.00    -0.080 A 
ATOM      4  C3  UNL d   1       3.441  -0.459  -1.511  0.00  0.00     0.150 A 
ATOM      5  C4  UNL d   1       3.464  -1.165  -2.710  0.00  0.00    -0.007 A 
ATOM      6  C5  UNL d   1       2.697  -2.321  -2.846  0.00  0.00     0.039 A 
ENDROOT
BRANCH   4   7
ATOM      7  O   UNL d   1       4.211   0.662  -1.422  0.00  0.00    -0.526 OA
ATOM      8  H5  UNL d   1       4.117   1.030  -0.527  0.00  0.00     0.418 HD
ENDBRANCH   4   7
TORSDOF 1
ENDMDL
