MODEL 1
REMARK minimizedAffinity -1.96784031
REMARK minimizedRMSD -1
REMARK  1 active torsions:
REMARK  status: ('A' for Active; 'I' for Inactive)
REMARK    1  A    between atoms: C3_4  and  O_7 
ROOT
ATOM      1  C   UNL d   1       1.318  -2.570  -1.203  0.00  0.00    -0.033 A 
ATOM      2  C1  UNL d   1      -0.004  -2.138  -1.317  0.00  0.00     0.039 A 
ATOM      3  C2  UNL d   1      -0.353  -0.842  -0.932  0.00  0.00    -0.080 A 
ATOM      4  C3  UNL d   1       0.630   0.011  -0.437  0.00  0.00     0.150 A 
ATOM      5  C4  UNL d   1       1.950  -0.412  -0.325  0.00  0.00    -0.007 A 
ATOM      6  C5  UNL d   1       2.296  -1.707  -0.708  0.00  0.00     0.039 A 
ENDROOT
BRANCH   4   7
ATOM      7  O   UNL d   1       0.337   1.283  -0.045  0.00  0.00    -0.526 OA
ATOM      8  H5  UNL d   1      -0.618   1.426  -0.152  0.00  0.00     0.418 HD
ENDBRANCH   4   7
TORSDOF 1
ENDMDL
