MODEL 1
REMARK minimizedAffinity 7.75111151
REMARK minimizedRMSD -1
REMARK  1 active torsions:
REMARK  status: ('A' for Active; 'I' for Inactive)
REMARK    1  A    between atoms: C3_4  and  O_7 
ROOT
ATOM      1  C   UNL d   1      -1.012  -0.612  -1.586  0.00  0.00    -0.033 A 
ATOM      2  C1  UNL d   1      -0.751  -1.947  -1.900  0.00  0.00     0.039 A 
ATOM      3  C2  UNL d   1       0.387  -2.576  -1.392  0.00  0.00    -0.080 A 
ATOM      4  C3  UNL d   1       1.254  -1.860  -0.571  0.00  0.00     0.150 A 
ATOM      5  C4  UNL d   1       0.998  -0.531  -0.251  0.00  0.00    -0.007 A 
ATOM      6  C5  UNL d   1      -0.138   0.096  -0.760  0.00  0.00     0.039 A 
ENDROOT
BRANCH   4   7
ATOM      7  O   UNL d   1       2.380  -2.430  -0.055  0.00  0.00    -0.526 OA
ATOM      8  H5  UNL d   1       2.442  -3.342  -0.384  0.00  0.00     0.418 HD
ENDBRANCH   4   7
TORSDOF 1
ENDMDL
