MODEL 1
REMARK minimizedAffinity 5.17520523
REMARK minimizedRMSD -1
REMARK  1 active torsions:
REMARK  status: ('A' for Active; 'I' for Inactive)
REMARK    1  A    between atoms: C1_2  and  C2_3 
ROOT
ATOM      1  C2  UNL d   1       1.605  -2.277   1.739  0.00  0.00    -0.077 A 
ATOM      2  C3  UNL d   1       2.422  -3.293   2.257  0.00  0.00     0.002 A 
ATOM      3  C4  UNL d   1       3.783  -3.329   1.951  0.00  0.00     0.002 A 
ATOM      4  C5  UNL d   1       4.341  -2.351   1.130  0.00  0.00    -0.004 A 
ATOM      5  C6  UNL d   1       3.537  -1.338   0.608  0.00  0.00     0.002 A 
ATOM      6  C7  UNL d   1       2.176  -1.301   0.912  0.00  0.00     0.002 A 
ENDROOT
BRANCH   1   7
ATOM      7  C1  UNL d   1       0.146  -2.208   2.107  0.00  0.00     0.055 C 
ATOM      8  C   UNL d   1      -0.073  -1.338   3.336  0.00  0.00     0.019 C 
ENDBRANCH   1   7
TORSDOF 1
ENDMDL
