MODEL 1
REMARK minimizedAffinity 2.21011996
REMARK minimizedRMSD -1
REMARK  1 active torsions:
REMARK  status: ('A' for Active; 'I' for Inactive)
REMARK    1  A    between atoms: C1_2  and  C2_3 
ROOT
ATOM      1  C2  UNL d   1       1.496  -2.403   2.197  0.00  0.00    -0.077 A 
ATOM      2  C3  UNL d   1       1.506  -3.805   2.182  0.00  0.00     0.002 A 
ATOM      3  C4  UNL d   1       2.063  -4.496   1.104  0.00  0.00     0.002 A 
ATOM      4  C5  UNL d   1       2.618  -3.794   0.036  0.00  0.00    -0.004 A 
ATOM      5  C6  UNL d   1       2.611  -2.400   0.040  0.00  0.00     0.002 A 
ATOM      6  C7  UNL d   1       2.053  -1.707   1.116  0.00  0.00     0.002 A 
ENDROOT
BRANCH   1   7
ATOM      7  C1  UNL d   1       0.940  -1.656   3.381  0.00  0.00     0.055 C 
ATOM      8  C   UNL d   1      -0.496  -1.216   3.133  0.00  0.00     0.019 C 
ENDBRANCH   1   7
TORSDOF 1
ENDMDL
