MODEL 1
REMARK minimizedAffinity 5.24442577
REMARK minimizedRMSD -1
REMARK  1 active torsions:
REMARK  status: ('A' for Active; 'I' for Inactive)
REMARK    1  A    between atoms: C1_2  and  C2_3 
ROOT
ATOM      1  C2  UNL d   1       0.614  -2.230   2.197  0.00  0.00    -0.077 A 
ATOM      2  C3  UNL d   1      -0.476  -2.241   1.315  0.00  0.00     0.002 A 
ATOM      3  C4  UNL d   1      -1.661  -1.583   1.649  0.00  0.00     0.002 A 
ATOM      4  C5  UNL d   1      -1.766  -0.906   2.862  0.00  0.00    -0.004 A 
ATOM      5  C6  UNL d   1      -0.689  -0.892   3.747  0.00  0.00     0.002 A 
ATOM      6  C7  UNL d   1       0.496  -1.550   3.415  0.00  0.00     0.002 A 
ENDROOT
BRANCH   1   7
ATOM      7  C1  UNL d   1       1.910  -2.898   1.817  0.00  0.00     0.055 C 
ATOM      8  C   UNL d   1       1.672  -4.083   0.893  0.00  0.00     0.019 C 
ENDBRANCH   1   7
TORSDOF 1
ENDMDL
