MODEL 1
REMARK minimizedAffinity 0.448699504
REMARK minimizedRMSD -1
REMARK  1 active torsions:
REMARK  status: ('A' for Active; 'I' for Inactive)
REMARK    1  A    between atoms: C1_2  and  C2_3 
ROOT
ATOM      1  C2  UNL d   1       0.442  -2.849   2.874  0.00  0.00    -0.077 A 
ATOM      2  C3  UNL d   1       1.698  -2.920   2.255  0.00  0.00     0.002 A 
ATOM      3  C4  UNL d   1       2.118  -4.103   1.644  0.00  0.00     0.002 A 
ATOM      4  C5  UNL d   1       1.288  -5.221   1.641  0.00  0.00    -0.004 A 
ATOM      5  C6  UNL d   1       0.037  -5.161   2.256  0.00  0.00     0.002 A 
ATOM      6  C7  UNL d   1      -0.384  -3.980   2.868  0.00  0.00     0.002 A 
ENDROOT
BRANCH   1   7
ATOM      7  C1  UNL d   1      -0.033  -1.560   3.491  0.00  0.00     0.055 C 
ATOM      8  C   UNL d   1      -1.546  -1.425   3.396  0.00  0.00     0.019 C 
ENDBRANCH   1   7
TORSDOF 1
ENDMDL
