MODEL 1
REMARK minimizedAffinity -1.12976384
REMARK minimizedRMSD -1
REMARK  1 active torsions:
REMARK  status: ('A' for Active; 'I' for Inactive)
REMARK    1  A    between atoms: C1_2  and  C2_3 
ROOT
ATOM      1  C2  UNL d   1      -0.756  -1.037   2.546  0.00  0.00    -0.077 A 
ATOM      2  C3  UNL d   1      -1.417  -1.257   1.329  0.00  0.00     0.002 A 
ATOM      3  C4  UNL d   1      -2.704  -0.756   1.124  0.00  0.00     0.002 A 
ATOM      4  C5  UNL d   1      -3.339  -0.029   2.129  0.00  0.00    -0.004 A 
ATOM      5  C6  UNL d   1      -2.691   0.194   3.343  0.00  0.00     0.002 A 
ATOM      6  C7  UNL d   1      -1.405  -0.307   3.550  0.00  0.00     0.002 A 
ENDROOT
BRANCH   1   7
ATOM      7  C1  UNL d   1       0.651  -1.533   2.751  0.00  0.00     0.055 C 
ATOM      8  C   UNL d   1       1.154  -2.291   1.531  0.00  0.00     0.019 C 
ENDBRANCH   1   7
TORSDOF 1
ENDMDL
