MODEL 1
REMARK minimizedAffinity -0.170760199
REMARK minimizedRMSD -1
REMARK  3 active torsions:
REMARK  status: ('A' for Active; 'I' for Inactive)
REMARK    1  A    between atoms: C3'_2  and  C2'_3 
REMARK    2  A    between atoms: C2'_3  and  C1'_4 
REMARK    3  A    between atoms: C1'_4  and  C1_5 
ROOT
ATOM      1  C1  N4B d   1       1.897   1.328   1.084  0.00  0.00    -0.075 A 
ATOM      2  C2  N4B d   1       2.821   2.114   1.806  0.00  0.00     0.002 A 
ATOM      3  C3  N4B d   1       2.404   3.268   2.425  0.00  0.00     0.002 A 
ATOM      4  C4  N4B d   1       1.079   3.662   2.320  0.00  0.00    -0.004 A 
ATOM      5  C5  N4B d   1       0.188   2.884   1.642  0.00  0.00     0.002 A 
ATOM      6  C6  N4B d   1       0.591   1.720   1.018  0.00  0.00     0.002 A 
ENDROOT
BRANCH   1   7
ATOM      7  C1' N4B d   1       2.322   0.104   0.319  0.00  0.00     0.057 C 
BRANCH   7   8
ATOM      8  C2' N4B d   1       1.836   0.221  -1.123  0.00  0.00     0.009 C 
BRANCH   8   9
ATOM      9  C3' N4B d   1       2.986   0.180  -2.115  0.00  0.00     0.004 C 
ATOM     10  C4' N4B d   1       3.186  -1.179  -2.716  0.00  0.00     0.003 C 
ENDBRANCH   8   9
ENDBRANCH   7   8
ENDBRANCH   1   7
TORSDOF 3
ENDMDL
