MODEL 1
REMARK minimizedAffinity 1.84069729
REMARK minimizedRMSD -1
REMARK  3 active torsions:
REMARK  status: ('A' for Active; 'I' for Inactive)
REMARK    1  A    between atoms: C3'_2  and  C2'_3 
REMARK    2  A    between atoms: C2'_3  and  C1'_4 
REMARK    3  A    between atoms: C1'_4  and  C1_5 
ROOT
ATOM      1  C1  N4B d   1       2.457   0.893   0.065  0.00  0.00    -0.075 A 
ATOM      2  C2  N4B d   1       1.939  -0.420   0.096  0.00  0.00     0.002 A 
ATOM      3  C3  N4B d   1       1.999  -1.209  -1.027  0.00  0.00     0.002 A 
ATOM      4  C4  N4B d   1       2.553  -0.701  -2.192  0.00  0.00    -0.004 A 
ATOM      5  C5  N4B d   1       3.075   0.559  -2.207  0.00  0.00     0.002 A 
ATOM      6  C6  N4B d   1       3.024   1.362  -1.085  0.00  0.00     0.002 A 
ENDROOT
BRANCH   1   7
ATOM      7  C1' N4B d   1       2.336   1.823   1.241  0.00  0.00     0.057 C 
BRANCH   7   8
ATOM      8  C2' N4B d   1       3.695   1.945   1.924  0.00  0.00     0.009 C 
BRANCH   8   9
ATOM      9  C3' N4B d   1       4.005   3.379   2.320  0.00  0.00     0.004 C 
ATOM     10  C4' N4B d   1       5.477   3.658   2.384  0.00  0.00     0.003 C 
ENDBRANCH   8   9
ENDBRANCH   7   8
ENDBRANCH   1   7
TORSDOF 3
ENDMDL
