MODEL 1
REMARK minimizedAffinity 1.16527843
REMARK minimizedRMSD -1
REMARK  3 active torsions:
REMARK  status: ('A' for Active; 'I' for Inactive)
REMARK    1  A    between atoms: C3'_2  and  C2'_3 
REMARK    2  A    between atoms: C2'_3  and  C1'_4 
REMARK    3  A    between atoms: C1'_4  and  C1_5 
ROOT
ATOM      1  C1  N4B d   1      -0.070   0.556   0.720  0.00  0.00    -0.075 A 
ATOM      2  C2  N4B d   1       0.203   1.879   1.132  0.00  0.00     0.002 A 
ATOM      3  C3  N4B d   1      -0.811   2.803   1.194  0.00  0.00     0.002 A 
ATOM      4  C4  N4B d   1      -2.098   2.433   0.831  0.00  0.00    -0.004 A 
ATOM      5  C5  N4B d   1      -2.358   1.147   0.459  0.00  0.00     0.002 A 
ATOM      6  C6  N4B d   1      -1.349   0.207   0.396  0.00  0.00     0.002 A 
ENDROOT
BRANCH   1   7
ATOM      7  C1' N4B d   1       1.021  -0.466   0.555  0.00  0.00     0.057 C 
BRANCH   7   8
ATOM      8  C2' N4B d   1       2.292   0.231   0.079  0.00  0.00     0.009 C 
BRANCH   8   9
ATOM      9  C3' N4B d   1       2.345   0.345  -1.435  0.00  0.00     0.004 C 
ATOM     10  C4' N4B d   1       3.077  -0.795  -2.077  0.00  0.00     0.003 C 
ENDBRANCH   8   9
ENDBRANCH   7   8
ENDBRANCH   1   7
TORSDOF 3
ENDMDL
