MODEL 1
REMARK minimizedAffinity 4.1734004
REMARK minimizedRMSD -1
REMARK  3 active torsions:
REMARK  status: ('A' for Active; 'I' for Inactive)
REMARK    1  A    between atoms: C3'_2  and  C2'_3 
REMARK    2  A    between atoms: C2'_3  and  C1'_4 
REMARK    3  A    between atoms: C1'_4  and  C1_5 
ROOT
ATOM      1  C1  N4B d   1      -1.598  -1.782  -0.888  0.00  0.00    -0.075 A 
ATOM      2  C2  N4B d   1      -2.655  -0.925  -1.263  0.00  0.00     0.002 A 
ATOM      3  C3  N4B d   1      -2.809   0.289  -0.640  0.00  0.00     0.002 A 
ATOM      4  C4  N4B d   1      -1.933   0.657   0.370  0.00  0.00    -0.004 A 
ATOM      5  C5  N4B d   1      -0.899  -0.166   0.710  0.00  0.00     0.002 A 
ATOM      6  C6  N4B d   1      -0.730  -1.387   0.089  0.00  0.00     0.002 A 
ENDROOT
BRANCH   1   7
ATOM      7  C1' N4B d   1      -1.441  -3.156  -1.481  0.00  0.00     0.057 C 
BRANCH   7   8
ATOM      8  C2' N4B d   1      -2.042  -4.185  -0.528  0.00  0.00     0.009 C 
BRANCH   8   9
ATOM      9  C3' N4B d   1      -3.457  -4.569  -0.927  0.00  0.00     0.004 C 
ATOM     10  C4' N4B d   1      -4.314  -4.929   0.249  0.00  0.00     0.003 C 
ENDBRANCH   8   9
ENDBRANCH   7   8
ENDBRANCH   1   7
TORSDOF 3
ENDMDL
