MODEL 1
REMARK minimizedAffinity 5.09290218
REMARK minimizedRMSD -1
REMARK  3 active torsions:
REMARK  status: ('A' for Active; 'I' for Inactive)
REMARK    1  A    between atoms: C3'_2  and  C2'_3 
REMARK    2  A    between atoms: C2'_3  and  C1'_4 
REMARK    3  A    between atoms: C1'_4  and  C1_5 
ROOT
ATOM      1  C1  N4B d   1       2.572   2.195   0.494  0.00  0.00    -0.075 A 
ATOM      2  C2  N4B d   1       1.396   1.573   0.021  0.00  0.00     0.002 A 
ATOM      3  C3  N4B d   1       1.464   0.668  -1.010  0.00  0.00     0.002 A 
ATOM      4  C4  N4B d   1       2.690   0.384  -1.593  0.00  0.00    -0.004 A 
ATOM      5  C5  N4B d   1       3.825   0.969  -1.114  0.00  0.00     0.002 A 
ATOM      6  C6  N4B d   1       3.772   1.878  -0.076  0.00  0.00     0.002 A 
ENDROOT
BRANCH   1   7
ATOM      7  C1' N4B d   1       2.537   3.254   1.561  0.00  0.00     0.057 C 
BRANCH   7   8
ATOM      8  C2' N4B d   1       3.559   4.337   1.226  0.00  0.00     0.009 C 
BRANCH   8   9
ATOM      9  C3' N4B d   1       3.302   5.620   1.998  0.00  0.00     0.004 C 
ATOM     10  C4' N4B d   1       4.446   6.000   2.889  0.00  0.00     0.003 C 
ENDBRANCH   8   9
ENDBRANCH   7   8
ENDBRANCH   1   7
TORSDOF 3
ENDMDL
