MODEL 1
REMARK minimizedAffinity 5.04885387
REMARK minimizedRMSD -1
REMARK  3 active torsions:
REMARK  status: ('A' for Active; 'I' for Inactive)
REMARK    1  A    between atoms: C3'_2  and  C2'_3 
REMARK    2  A    between atoms: C2'_3  and  C1'_4 
REMARK    3  A    between atoms: C1'_4  and  C1_5 
ROOT
ATOM      1  C1  N4B d   1       0.344   1.339   0.079  0.00  0.00    -0.075 A 
ATOM      2  C2  N4B d   1      -1.002   1.765   0.073  0.00  0.00     0.002 A 
ATOM      3  C3  N4B d   1      -1.374   2.876   0.790  0.00  0.00     0.002 A 
ATOM      4  C4  N4B d   1      -0.425   3.562   1.532  0.00  0.00    -0.004 A 
ATOM      5  C5  N4B d   1       0.878   3.159   1.513  0.00  0.00     0.002 A 
ATOM      6  C6  N4B d   1       1.267   2.046   0.793  0.00  0.00     0.002 A 
ENDROOT
BRANCH   1   7
ATOM      7  C1' N4B d   1       0.782   0.081  -0.621  0.00  0.00     0.057 C 
BRANCH   7   8
ATOM      8  C2' N4B d   1       2.294   0.118  -0.817  0.00  0.00     0.009 C 
BRANCH   8   9
ATOM      9  C3' N4B d   1       2.674   0.245  -2.282  0.00  0.00     0.004 C 
ATOM     10  C4' N4B d   1       2.809  -1.084  -2.965  0.00  0.00     0.003 C 
ENDBRANCH   8   9
ENDBRANCH   7   8
ENDBRANCH   1   7
TORSDOF 3
ENDMDL
