MODEL 1
REMARK minimizedAffinity 0.0233450383
REMARK minimizedRMSD -1
REMARK  3 active torsions:
REMARK  status: ('A' for Active; 'I' for Inactive)
REMARK    1  A    between atoms: C3'_2  and  C2'_3 
REMARK    2  A    between atoms: C2'_3  and  C1'_4 
REMARK    3  A    between atoms: C1'_4  and  C1_5 
ROOT
ATOM      1  C1  N4B d   1      -2.488   0.809   0.824  0.00  0.00    -0.075 A 
ATOM      2  C2  N4B d   1      -2.207   2.191   0.752  0.00  0.00     0.002 A 
ATOM      3  C3  N4B d   1      -0.905   2.627   0.740  0.00  0.00     0.002 A 
ATOM      4  C4  N4B d   1       0.128   1.704   0.818  0.00  0.00    -0.004 A 
ATOM      5  C5  N4B d   1      -0.152   0.370   0.862  0.00  0.00     0.002 A 
ATOM      6  C6  N4B d   1      -1.456  -0.083   0.870  0.00  0.00     0.002 A 
ENDROOT
BRANCH   1   7
ATOM      7  C1' N4B d   1      -3.896   0.289   0.926  0.00  0.00     0.057 C 
BRANCH   7   8
ATOM      8  C2' N4B d   1      -4.035  -0.535   2.202  0.00  0.00     0.009 C 
BRANCH   8   9
ATOM      9  C3' N4B d   1      -5.462  -0.540   2.723  0.00  0.00     0.004 C 
ATOM     10  C4' N4B d   1      -5.638  -1.419   3.926  0.00  0.00     0.003 C 
ENDBRANCH   8   9
ENDBRANCH   7   8
ENDBRANCH   1   7
TORSDOF 3
ENDMDL
