MODEL 1
REMARK minimizedAffinity 0.950052142
REMARK minimizedRMSD -1
REMARK  3 active torsions:
REMARK  status: ('A' for Active; 'I' for Inactive)
REMARK    1  A    between atoms: C3'_2  and  C2'_3 
REMARK    2  A    between atoms: C2'_3  and  C1'_4 
REMARK    3  A    between atoms: C1'_4  and  C1_5 
ROOT
ATOM      1  C1  N4B d   1       1.453   0.387  -0.293  0.00  0.00    -0.075 A 
ATOM      2  C2  N4B d   1       2.417  -0.527   0.184  0.00  0.00     0.002 A 
ATOM      3  C3  N4B d   1       3.369  -1.029  -0.669  0.00  0.00     0.002 A 
ATOM      4  C4  N4B d   1       3.366  -0.646  -2.002  0.00  0.00    -0.004 A 
ATOM      5  C5  N4B d   1       2.447   0.257  -2.449  0.00  0.00     0.002 A 
ATOM      6  C6  N4B d   1       1.486   0.772  -1.603  0.00  0.00     0.002 A 
ENDROOT
BRANCH   1   7
ATOM      7  C1' N4B d   1       0.339   0.896   0.581  0.00  0.00     0.057 C 
BRANCH   7   8
ATOM      8  C2' N4B d   1      -0.996   0.406   0.028  0.00  0.00     0.009 C 
BRANCH   8   9
ATOM      9  C3' N4B d   1      -2.147   1.307   0.441  0.00  0.00     0.004 C 
ATOM     10  C4' N4B d   1      -1.691   2.531   1.177  0.00  0.00     0.003 C 
ENDBRANCH   8   9
ENDBRANCH   7   8
ENDBRANCH   1   7
TORSDOF 3
ENDMDL
