MODEL 1
REMARK minimizedAffinity 12.2739754
REMARK minimizedRMSD -1
REMARK  3 active torsions:
REMARK  status: ('A' for Active; 'I' for Inactive)
REMARK    1  A    between atoms: C3'_2  and  C2'_3 
REMARK    2  A    between atoms: C2'_3  and  C1'_4 
REMARK    3  A    between atoms: C1'_4  and  C1_5 
ROOT
ATOM      1  C1  N4B d   1       2.177   0.106  -1.216  0.00  0.00    -0.075 A 
ATOM      2  C2  N4B d   1       2.232   1.326  -0.507  0.00  0.00     0.002 A 
ATOM      3  C3  N4B d   1       1.799   1.383   0.795  0.00  0.00     0.002 A 
ATOM      4  C4  N4B d   1       1.292   0.243   1.400  0.00  0.00    -0.004 A 
ATOM      5  C5  N4B d   1       1.266  -0.937   0.716  0.00  0.00     0.002 A 
ATOM      6  C6  N4B d   1       1.702  -1.011  -0.591  0.00  0.00     0.002 A 
ENDROOT
BRANCH   1   7
ATOM      7  C1' N4B d   1       2.559   0.013  -2.668  0.00  0.00     0.057 C 
BRANCH   7   8
ATOM      8  C2' N4B d   1       1.897   1.155  -3.434  0.00  0.00     0.009 C 
BRANCH   8   9
ATOM      9  C3' N4B d   1       0.418   1.274  -3.110  0.00  0.00     0.004 C 
ATOM     10  C4' N4B d   1      -0.087   2.682  -3.210  0.00  0.00     0.003 C 
ENDBRANCH   8   9
ENDBRANCH   7   8
ENDBRANCH   1   7
TORSDOF 3
ENDMDL
