MODEL 1
REMARK minimizedAffinity 3.24221802
REMARK minimizedRMSD -1
REMARK  3 active torsions:
REMARK  status: ('A' for Active; 'I' for Inactive)
REMARK    1  A    between atoms: C3'_2  and  C2'_3 
REMARK    2  A    between atoms: C2'_3  and  C1'_4 
REMARK    3  A    between atoms: C1'_4  and  C1_5 
ROOT
ATOM      1  C1  N4B d   1       0.184   0.955   1.045  0.00  0.00    -0.075 A 
ATOM      2  C2  N4B d   1      -0.465   2.188   1.273  0.00  0.00     0.002 A 
ATOM      3  C3  N4B d   1      -1.834   2.236   1.370  0.00  0.00     0.002 A 
ATOM      4  C4  N4B d   1      -2.573   1.071   1.224  0.00  0.00    -0.004 A 
ATOM      5  C5  N4B d   1      -1.937  -0.120   1.029  0.00  0.00     0.002 A 
ATOM      6  C6  N4B d   1      -0.561  -0.183   0.934  0.00  0.00     0.002 A 
ENDROOT
BRANCH   1   7
ATOM      7  C1' N4B d   1       1.673   0.866   0.847  0.00  0.00     0.057 C 
BRANCH   7   8
ATOM      8  C2' N4B d   1       1.977  -0.216  -0.184  0.00  0.00     0.009 C 
BRANCH   8   9
ATOM      9  C3' N4B d   1       2.337   0.373  -1.537  0.00  0.00     0.004 C 
ATOM     10  C4' N4B d   1       2.737  -0.671  -2.537  0.00  0.00     0.003 C 
ENDBRANCH   8   9
ENDBRANCH   7   8
ENDBRANCH   1   7
TORSDOF 3
ENDMDL
