MODEL 1
REMARK minimizedAffinity 1.13068616
REMARK minimizedRMSD -1
REMARK  0 active torsions:
REMARK  status: ('A' for Active; 'I' for Inactive)
ROOT
ATOM      1  C   UNL d   1       2.537   5.243  -1.291  0.00  0.00     0.078 C 
ATOM      2  C1  UNL d   1       3.743   5.257  -0.400  0.00  0.00    -0.077 A 
ATOM      3  C2  UNL d   1       4.881   6.000  -0.738  0.00  0.00    -0.001 A 
ATOM      4  C3  UNL d   1       6.000   5.996   0.096  0.00  0.00     0.003 A 
ATOM      5  C4  UNL d   1       5.992   5.251   1.273  0.00  0.00    -0.005 A 
ATOM      6  C5  UNL d   1       4.866   4.507   1.617  0.00  0.00     0.003 A 
ATOM      7  C6  UNL d   1       3.746   4.509   0.784  0.00  0.00    -0.001 A 
ENDROOT
TORSDOF 0
ENDMDL
