MODEL 1
REMARK minimizedAffinity 12.1575804
REMARK minimizedRMSD -1
REMARK  0 active torsions:
REMARK  status: ('A' for Active; 'I' for Inactive)
ROOT
ATOM      1  C   UNL d   1      -1.838   0.271  -0.445  0.00  0.00     0.078 C 
ATOM      2  C1  UNL d   1      -0.666   0.663  -1.294  0.00  0.00    -0.077 A 
ATOM      3  C2  UNL d   1      -0.745   1.746  -2.177  0.00  0.00    -0.001 A 
ATOM      4  C3  UNL d   1       0.351   2.094  -2.968  0.00  0.00     0.003 A 
ATOM      5  C4  UNL d   1       1.535   1.363  -2.884  0.00  0.00    -0.005 A 
ATOM      6  C5  UNL d   1       1.622   0.282  -2.009  0.00  0.00     0.003 A 
ATOM      7  C6  UNL d   1       0.527  -0.067  -1.218  0.00  0.00    -0.001 A 
ENDROOT
TORSDOF 0
ENDMDL
