MODEL 1
REMARK minimizedAffinity 10.5767488
REMARK minimizedRMSD -1
REMARK  0 active torsions:
REMARK  status: ('A' for Active; 'I' for Inactive)
ROOT
ATOM      1  C   UNL d   1      -4.810   3.774   1.915  0.00  0.00     0.078 C 
ATOM      2  C1  UNL d   1      -4.292   2.498   2.508  0.00  0.00    -0.077 A 
ATOM      3  C2  UNL d   1      -2.959   2.384   2.921  0.00  0.00    -0.001 A 
ATOM      4  C3  UNL d   1      -2.487   1.187   3.462  0.00  0.00     0.003 A 
ATOM      5  C4  UNL d   1      -3.342   0.094   3.595  0.00  0.00    -0.005 A 
ATOM      6  C5  UNL d   1      -4.670   0.198   3.185  0.00  0.00     0.003 A 
ATOM      7  C6  UNL d   1      -5.143   1.394   2.643  0.00  0.00    -0.001 A 
ENDROOT
TORSDOF 0
ENDMDL
