MODEL 1
REMARK minimizedAffinity 0.753288269
REMARK minimizedRMSD -1
REMARK  0 active torsions:
REMARK  status: ('A' for Active; 'I' for Inactive)
ROOT
ATOM      1  C   UNL d   1       2.409   3.279  -2.579  0.00  0.00     0.078 C 
ATOM      2  C1  UNL d   1       1.966   1.886  -2.245  0.00  0.00    -0.077 A 
ATOM      3  C2  UNL d   1       2.844   0.973  -1.647  0.00  0.00    -0.001 A 
ATOM      4  C3  UNL d   1       2.421  -0.323  -1.351  0.00  0.00     0.003 A 
ATOM      5  C4  UNL d   1       1.119  -0.720  -1.650  0.00  0.00    -0.005 A 
ATOM      6  C5  UNL d   1       0.238   0.181  -2.247  0.00  0.00     0.003 A 
ATOM      7  C6  UNL d   1       0.660   1.478  -2.544  0.00  0.00    -0.001 A 
ENDROOT
TORSDOF 0
ENDMDL
