MODEL 1
REMARK minimizedAffinity 13.1142321
REMARK minimizedRMSD -1
REMARK  0 active torsions:
REMARK  status: ('A' for Active; 'I' for Inactive)
ROOT
ATOM      1  C   UNL d   1       1.831   0.960  -2.571  0.00  0.00     0.078 C 
ATOM      2  C1  UNL d   1       1.446  -0.474  -2.780  0.00  0.00    -0.077 A 
ATOM      3  C2  UNL d   1       0.635  -0.854  -3.857  0.00  0.00    -0.001 A 
ATOM      4  C3  UNL d   1       0.277  -2.191  -4.034  0.00  0.00     0.003 A 
ATOM      5  C4  UNL d   1       0.724  -3.160  -3.138  0.00  0.00    -0.005 A 
ATOM      6  C5  UNL d   1       1.530  -2.792  -2.063  0.00  0.00     0.003 A 
ATOM      7  C6  UNL d   1       1.889  -1.455  -1.884  0.00  0.00    -0.001 A 
ENDROOT
TORSDOF 0
ENDMDL
