MODEL 1
REMARK minimizedAffinity 10.5271816
REMARK minimizedRMSD -1
REMARK  0 active torsions:
REMARK  status: ('A' for Active; 'I' for Inactive)
ROOT
ATOM      1  C   UNL d   1      -5.488   4.495   3.008  0.00  0.00     0.078 C 
ATOM      2  C1  UNL d   1      -4.409   4.873   3.978  0.00  0.00    -0.077 A 
ATOM      3  C2  UNL d   1      -4.695   5.646   5.110  0.00  0.00    -0.001 A 
ATOM      4  C3  UNL d   1      -3.679   5.999   5.999  0.00  0.00     0.003 A 
ATOM      5  C4  UNL d   1      -2.369   5.584   5.766  0.00  0.00    -0.005 A 
ATOM      6  C5  UNL d   1      -2.074   4.816   4.641  0.00  0.00     0.003 A 
ATOM      7  C6  UNL d   1      -3.089   4.462   3.751  0.00  0.00    -0.001 A 
ENDROOT
TORSDOF 0
ENDMDL
