MODEL 1
REMARK minimizedAffinity 4.94933271
REMARK minimizedRMSD -1
REMARK  0 active torsions:
REMARK  status: ('A' for Active; 'I' for Inactive)
ROOT
ATOM      1  C   UNL d   1      -5.666  -0.596   1.875  0.00  0.00     0.078 C 
ATOM      2  C1  UNL d   1      -4.583  -0.373   2.888  0.00  0.00    -0.077 A 
ATOM      3  C2  UNL d   1      -3.761  -1.426   3.309  0.00  0.00    -0.001 A 
ATOM      4  C3  UNL d   1      -2.764  -1.205   4.260  0.00  0.00     0.003 A 
ATOM      5  C4  UNL d   1      -2.580   0.066   4.799  0.00  0.00    -0.005 A 
ATOM      6  C5  UNL d   1      -3.394   1.119   4.388  0.00  0.00     0.003 A 
ATOM      7  C6  UNL d   1      -4.392   0.901   3.437  0.00  0.00    -0.001 A 
ENDROOT
TORSDOF 0
ENDMDL
