MODEL 1
REMARK minimizedAffinity 4.52233267
REMARK minimizedRMSD -1
REMARK  0 active torsions:
REMARK  status: ('A' for Active; 'I' for Inactive)
ROOT
ATOM      1  C   UNL d   1       1.795   3.827  -0.266  0.00  0.00     0.078 C 
ATOM      2  C1  UNL d   1       1.519   2.929  -1.435  0.00  0.00    -0.077 A 
ATOM      3  C2  UNL d   1       2.078   3.189  -2.692  0.00  0.00    -0.001 A 
ATOM      4  C3  UNL d   1       1.805   2.350  -3.774  0.00  0.00     0.003 A 
ATOM      5  C4  UNL d   1       0.971   1.246  -3.609  0.00  0.00    -0.005 A 
ATOM      6  C5  UNL d   1       0.409   0.980  -2.363  0.00  0.00     0.003 A 
ATOM      7  C6  UNL d   1       0.681   1.818  -1.280  0.00  0.00    -0.001 A 
ENDROOT
TORSDOF 0
ENDMDL
