MODEL 1
REMARK minimizedAffinity 2.02219605
REMARK minimizedRMSD -1
REMARK  0 active torsions:
REMARK  status: ('A' for Active; 'I' for Inactive)
ROOT
ATOM      1  C   UNL d   1       0.866   1.124  -2.789  0.00  0.00     0.078 C 
ATOM      2  C1  UNL d   1       1.711   1.970  -3.694  0.00  0.00    -0.077 A 
ATOM      3  C2  UNL d   1       2.395   1.405  -4.778  0.00  0.00    -0.001 A 
ATOM      4  C3  UNL d   1       3.185   2.203  -5.606  0.00  0.00     0.003 A 
ATOM      5  C4  UNL d   1       3.300   3.570  -5.360  0.00  0.00    -0.005 A 
ATOM      6  C5  UNL d   1       2.624   4.140  -4.283  0.00  0.00     0.003 A 
ATOM      7  C6  UNL d   1       1.833   3.344  -3.454  0.00  0.00    -0.001 A 
ENDROOT
TORSDOF 0
ENDMDL
