MODEL 1
REMARK minimizedAffinity 2.40026617
REMARK minimizedRMSD -1
REMARK  0 active torsions:
REMARK  status: ('A' for Active; 'I' for Inactive)
ROOT
ATOM      1  C   UNL d   1       0.819   0.753  -2.715  0.00  0.00     0.078 C 
ATOM      2  C1  UNL d   1       1.877   1.735  -3.120  0.00  0.00    -0.077 A 
ATOM      3  C2  UNL d   1       2.823   1.413  -4.101  0.00  0.00    -0.001 A 
ATOM      4  C3  UNL d   1       3.809   2.333  -4.462  0.00  0.00     0.003 A 
ATOM      5  C4  UNL d   1       3.858   3.582  -3.845  0.00  0.00    -0.005 A 
ATOM      6  C5  UNL d   1       2.923   3.911  -2.867  0.00  0.00     0.003 A 
ATOM      7  C6  UNL d   1       1.937   2.992  -2.505  0.00  0.00    -0.001 A 
ENDROOT
TORSDOF 0
ENDMDL
