MODEL 1
REMARK minimizedAffinity 2.6697216
REMARK minimizedRMSD -1
REMARK  0 active torsions:
REMARK  status: ('A' for Active; 'I' for Inactive)
ROOT
ATOM      1  C   UNL d   1      -0.001   1.105  -1.443  0.00  0.00     0.078 C 
ATOM      2  C1  UNL d   1       1.215   1.095  -2.320  0.00  0.00    -0.077 A 
ATOM      3  C2  UNL d   1       2.302   0.259  -2.036  0.00  0.00    -0.001 A 
ATOM      4  C3  UNL d   1       3.432   0.267  -2.856  0.00  0.00     0.003 A 
ATOM      5  C4  UNL d   1       3.486   1.110  -3.964  0.00  0.00    -0.005 A 
ATOM      6  C5  UNL d   1       2.411   1.947  -4.253  0.00  0.00     0.003 A 
ATOM      7  C6  UNL d   1       1.280   1.941  -3.434  0.00  0.00    -0.001 A 
ENDROOT
TORSDOF 0
ENDMDL
