MODEL 1
REMARK minimizedAffinity 8.13010597
REMARK minimizedRMSD -1
REMARK  0 active torsions:
REMARK  status: ('A' for Active; 'I' for Inactive)
ROOT
ATOM      1  C   UNL d   1       0.029  -2.275  -3.061  0.00  0.00     0.078 C 
ATOM      2  C1  UNL d   1       0.428  -0.830  -3.006  0.00  0.00    -0.077 A 
ATOM      3  C2  UNL d   1       1.453  -0.333  -3.820  0.00  0.00    -0.001 A 
ATOM      4  C3  UNL d   1       1.820   1.011  -3.751  0.00  0.00     0.003 A 
ATOM      5  C4  UNL d   1       1.169   1.870  -2.868  0.00  0.00    -0.005 A 
ATOM      6  C5  UNL d   1       0.150   1.384  -2.052  0.00  0.00     0.003 A 
ATOM      7  C6  UNL d   1      -0.219   0.040  -2.120  0.00  0.00    -0.001 A 
ENDROOT
TORSDOF 0
ENDMDL
