MODEL 1
REMARK minimizedAffinity -3.03742433
REMARK minimizedRMSD -1
REMARK  1 active torsions:
REMARK  status: ('A' for Active; 'I' for Inactive)
REMARK    1  A    between atoms: C1_2  and  C2_3 
ROOT
ATOM      1  C2  UNL d   1      -1.072   2.905  -1.423  0.00  0.00    -0.076 A 
ATOM      2  C3  UNL d   1      -0.503   2.731  -0.150  0.00  0.00     0.004 A 
ATOM      3  C4  UNL d   1      -1.093   3.289   0.982  0.00  0.00    -0.003 A 
ATOM      4  C5  UNL d   1      -2.263   4.031   0.860  0.00  0.00     0.000 A 
ATOM      5  C6  UNL d   1      -2.851   4.199  -0.394  0.00  0.00     0.000 A 
ATOM      6  C7  UNL d   1      -2.277   3.629  -1.543  0.00  0.00    -0.073 A 
ATOM      7  C8  UNL d   1      -2.951   3.847  -2.870  0.00  0.00     0.078 C 
ENDROOT
BRANCH   1   8
ATOM      8  C1  UNL d   1      -0.372   2.298  -2.619  0.00  0.00     0.053 C 
ATOM      9  C   UNL d   1      -0.083   0.817  -2.435  0.00  0.00     0.018 C 
ENDBRANCH   1   8
TORSDOF 1
ENDMDL
