MODEL 1
REMARK minimizedAffinity 6.61269951
REMARK minimizedRMSD -1
REMARK  1 active torsions:
REMARK  status: ('A' for Active; 'I' for Inactive)
REMARK    1  A    between atoms: C1_2  and  C2_3 
ROOT
ATOM      1  C2  UNL d   1       0.170   1.446   2.617  0.00  0.00    -0.076 A 
ATOM      2  C3  UNL d   1      -0.884   1.149   3.499  0.00  0.00     0.004 A 
ATOM      3  C4  UNL d   1      -0.786   0.094   4.405  0.00  0.00    -0.003 A 
ATOM      4  C5  UNL d   1       0.368  -0.680   4.444  0.00  0.00     0.000 A 
ATOM      5  C6  UNL d   1       1.430  -0.389   3.590  0.00  0.00     0.000 A 
ATOM      6  C7  UNL d   1       1.354   0.681   2.682  0.00  0.00    -0.073 A 
ATOM      7  C8  UNL d   1       2.527   0.947   1.779  0.00  0.00     0.078 C 
ENDROOT
BRANCH   1   8
ATOM      8  C1  UNL d   1      -0.005   2.585   1.638  0.00  0.00     0.053 C 
ATOM      9  C   UNL d   1      -0.338   2.101   0.235  0.00  0.00     0.018 C 
ENDBRANCH   1   8
TORSDOF 1
ENDMDL
