MODEL 1
REMARK minimizedAffinity 4.62003183
REMARK minimizedRMSD -1
REMARK  1 active torsions:
REMARK  status: ('A' for Active; 'I' for Inactive)
REMARK    1  A    between atoms: C1_2  and  C2_3 
ROOT
ATOM      1  C2  UNL d   1      -0.360   1.030   2.995  0.00  0.00    -0.076 A 
ATOM      2  C3  UNL d   1       0.496   2.122   2.766  0.00  0.00     0.004 A 
ATOM      3  C4  UNL d   1       0.082   3.209   1.999  0.00  0.00    -0.003 A 
ATOM      4  C5  UNL d   1      -1.195   3.223   1.449  0.00  0.00     0.000 A 
ATOM      5  C6  UNL d   1      -2.063   2.157   1.680  0.00  0.00     0.000 A 
ATOM      6  C7  UNL d   1      -1.667   1.060   2.465  0.00  0.00    -0.073 A 
ATOM      7  C8  UNL d   1      -2.642  -0.065   2.677  0.00  0.00     0.078 C 
ENDROOT
BRANCH   1   8
ATOM      8  C1  UNL d   1       0.154  -0.134   3.812  0.00  0.00     0.053 C 
ATOM      9  C   UNL d   1       1.579  -0.519   3.447  0.00  0.00     0.018 C 
ENDBRANCH   1   8
TORSDOF 1
ENDMDL
