MODEL 1
REMARK minimizedAffinity 4.04283381
REMARK minimizedRMSD -1
REMARK  1 active torsions:
REMARK  status: ('A' for Active; 'I' for Inactive)
REMARK    1  A    between atoms: C1_2  and  C2_3 
ROOT
ATOM      1  C2  UNL d   1       0.431   1.387   0.025  0.00  0.00    -0.076 A 
ATOM      2  C3  UNL d   1       0.500   0.306  -0.871  0.00  0.00     0.004 A 
ATOM      3  C4  UNL d   1      -0.036   0.403  -2.154  0.00  0.00    -0.003 A 
ATOM      4  C5  UNL d   1      -0.649   1.583  -2.562  0.00  0.00     0.000 A 
ATOM      5  C6  UNL d   1      -0.710   2.671  -1.692  0.00  0.00     0.000 A 
ATOM      6  C7  UNL d   1      -0.160   2.596  -0.401  0.00  0.00    -0.073 A 
ATOM      7  C8  UNL d   1      -0.260   3.798   0.498  0.00  0.00     0.078 C 
ENDROOT
BRANCH   1   8
ATOM      8  C1  UNL d   1       1.006   1.214   1.413  0.00  0.00     0.053 C 
ATOM      9  C   UNL d   1      -0.063   1.243   2.494  0.00  0.00     0.018 C 
ENDBRANCH   1   8
TORSDOF 1
ENDMDL
