MODEL 1
REMARK minimizedAffinity 7.74528456
REMARK minimizedRMSD -1
REMARK  1 active torsions:
REMARK  status: ('A' for Active; 'I' for Inactive)
REMARK    1  A    between atoms: C1_2  and  C2_3 
ROOT
ATOM      1  C2  UNL d   1      -3.064   2.910  -2.146  0.00  0.00    -0.076 A 
ATOM      2  C3  UNL d   1      -1.676   2.833  -2.356  0.00  0.00     0.004 A 
ATOM      3  C4  UNL d   1      -0.990   1.631  -2.185  0.00  0.00    -0.003 A 
ATOM      4  C5  UNL d   1      -1.681   0.487  -1.802  0.00  0.00     0.000 A 
ATOM      5  C6  UNL d   1      -3.061   0.541  -1.607  0.00  0.00     0.000 A 
ATOM      6  C7  UNL d   1      -3.770   1.741  -1.791  0.00  0.00    -0.073 A 
ATOM      7  C8  UNL d   1      -5.256   1.743  -1.560  0.00  0.00     0.078 C 
ENDROOT
BRANCH   1   8
ATOM      8  C1  UNL d   1      -3.750   4.246  -2.320  0.00  0.00     0.053 C 
ATOM      9  C   UNL d   1      -3.945   4.615  -3.783  0.00  0.00     0.018 C 
ENDBRANCH   1   8
TORSDOF 1
ENDMDL
