MODEL 1
REMARK minimizedAffinity 0.777049601
REMARK minimizedRMSD -1
REMARK  1 active torsions:
REMARK  status: ('A' for Active; 'I' for Inactive)
REMARK    1  A    between atoms: C1_2  and  C2_3 
ROOT
ATOM      1  C2  UNL d   1      -1.107  -1.331  -1.902  0.00  0.00    -0.076 A 
ATOM      2  C3  UNL d   1       0.197  -0.888  -2.181  0.00  0.00     0.004 A 
ATOM      3  C4  UNL d   1       0.535   0.460  -2.077  0.00  0.00    -0.003 A 
ATOM      4  C5  UNL d   1      -0.427   1.388  -1.691  0.00  0.00     0.000 A 
ATOM      5  C6  UNL d   1      -1.722   0.964  -1.393  0.00  0.00     0.000 A 
ATOM      6  C7  UNL d   1      -2.074  -0.394  -1.478  0.00  0.00    -0.073 A 
ATOM      7  C8  UNL d   1      -3.487  -0.795  -1.151  0.00  0.00     0.078 C 
ENDROOT
BRANCH   1   8
ATOM      8  C1  UNL d   1      -1.422  -2.802  -2.058  0.00  0.00     0.053 C 
ATOM      9  C   UNL d   1      -0.373  -3.694  -1.412  0.00  0.00     0.018 C 
ENDBRANCH   1   8
TORSDOF 1
ENDMDL
