MODEL 1
REMARK minimizedAffinity -3.51830435
REMARK minimizedRMSD -1
REMARK  1 active torsions:
REMARK  status: ('A' for Active; 'I' for Inactive)
REMARK    1  A    between atoms: C1_2  and  C2_3 
ROOT
ATOM      1  C2  UNL d   1      -5.395  -0.629   3.740  0.00  0.00    -0.076 A 
ATOM      2  C3  UNL d   1      -5.317  -1.971   3.329  0.00  0.00     0.004 A 
ATOM      3  C4  UNL d   1      -5.490  -3.012   4.241  0.00  0.00    -0.003 A 
ATOM      4  C5  UNL d   1      -5.744  -2.727   5.578  0.00  0.00     0.000 A 
ATOM      5  C6  UNL d   1      -5.842  -1.401   5.999  0.00  0.00     0.000 A 
ATOM      6  C7  UNL d   1      -5.686  -0.340   5.090  0.00  0.00    -0.073 A 
ATOM      7  C8  UNL d   1      -5.795   1.070   5.601  0.00  0.00     0.078 C 
ENDROOT
BRANCH   1   8
ATOM      8  C1  UNL d   1      -5.171   0.457   2.712  0.00  0.00     0.053 C 
ATOM      9  C   UNL d   1      -5.873   0.165   1.394  0.00  0.00     0.018 C 
ENDBRANCH   1   8
TORSDOF 1
ENDMDL
