MODEL 1
REMARK minimizedAffinity 3.24105024
REMARK minimizedRMSD -1
REMARK  1 active torsions:
REMARK  status: ('A' for Active; 'I' for Inactive)
REMARK    1  A    between atoms: C1_2  and  C2_3 
ROOT
ATOM      1  C2  UNL d   1       4.189  -3.930  -1.616  0.00  0.00    -0.076 A 
ATOM      2  C3  UNL d   1       3.525  -3.980  -2.854  0.00  0.00     0.004 A 
ATOM      3  C4  UNL d   1       3.920  -4.878  -3.844  0.00  0.00    -0.003 A 
ATOM      4  C5  UNL d   1       4.985  -5.740  -3.613  0.00  0.00     0.000 A 
ATOM      5  C6  UNL d   1       5.645  -5.716  -2.384  0.00  0.00     0.000 A 
ATOM      6  C7  UNL d   1       5.249  -4.829  -1.369  0.00  0.00    -0.073 A 
ATOM      7  C8  UNL d   1       5.999  -4.841  -0.066  0.00  0.00     0.078 C 
ENDROOT
BRANCH   1   8
ATOM      8  C1  UNL d   1       3.734  -2.917  -0.590  0.00  0.00     0.053 C 
ATOM      9  C   UNL d   1       3.727  -1.497  -1.136  0.00  0.00     0.018 C 
ENDBRANCH   1   8
TORSDOF 1
ENDMDL
