MODEL 1
REMARK minimizedAffinity -2.59709954
REMARK minimizedRMSD -1
REMARK  1 active torsions:
REMARK  status: ('A' for Active; 'I' for Inactive)
REMARK    1  A    between atoms: C1_2  and  C2_3 
ROOT
ATOM      1  C2  UNL d   1       0.623   0.830   0.877  0.00  0.00    -0.076 A 
ATOM      2  C3  UNL d   1       0.660   1.657   2.013  0.00  0.00     0.004 A 
ATOM      3  C4  UNL d   1       0.665   3.045   1.891  0.00  0.00    -0.003 A 
ATOM      4  C5  UNL d   1       0.633   3.630   0.630  0.00  0.00     0.000 A 
ATOM      5  C6  UNL d   1       0.578   2.825  -0.508  0.00  0.00     0.000 A 
ATOM      6  C7  UNL d   1       0.556   1.424  -0.402  0.00  0.00    -0.073 A 
ATOM      7  C8  UNL d   1       0.502   0.605  -1.662  0.00  0.00     0.078 C 
ENDROOT
BRANCH   1   8
ATOM      8  C1  UNL d   1       0.647  -0.669   1.070  0.00  0.00     0.053 C 
ATOM      9  C   UNL d   1       2.002  -1.174   1.541  0.00  0.00     0.018 C 
ENDBRANCH   1   8
TORSDOF 1
ENDMDL
