MODEL 1
REMARK minimizedAffinity -2.19821048
REMARK minimizedRMSD -1
REMARK  1 active torsions:
REMARK  status: ('A' for Active; 'I' for Inactive)
REMARK    1  A    between atoms: C1_2  and  C2_3 
ROOT
ATOM      1  C2  UNL d   1      -0.022   0.727   0.116  0.00  0.00    -0.076 A 
ATOM      2  C3  UNL d   1      -0.569  -0.057   1.147  0.00  0.00     0.004 A 
ATOM      3  C4  UNL d   1      -1.309   0.524   2.175  0.00  0.00    -0.003 A 
ATOM      4  C5  UNL d   1      -1.515   1.900   2.188  0.00  0.00     0.000 A 
ATOM      5  C6  UNL d   1      -0.996   2.690   1.163  0.00  0.00     0.000 A 
ATOM      6  C7  UNL d   1      -0.261   2.118   0.111  0.00  0.00    -0.073 A 
ATOM      7  C8  UNL d   1       0.282   3.018  -0.965  0.00  0.00     0.078 C 
ENDROOT
BRANCH   1   8
ATOM      8  C1  UNL d   1       0.795   0.044  -0.958  0.00  0.00     0.053 C 
ATOM      9  C   UNL d   1       0.618  -1.467  -0.952  0.00  0.00     0.018 C 
ENDBRANCH   1   8
TORSDOF 1
ENDMDL
