MODEL 1
REMARK minimizedAffinity -1.42144406
REMARK minimizedRMSD -1
REMARK  1 active torsions:
REMARK  status: ('A' for Active; 'I' for Inactive)
REMARK    1  A    between atoms: C1_2  and  C2_3 
ROOT
ATOM      1  C2  UNL d   1       0.128  -1.404  -0.827  0.00  0.00    -0.076 A 
ATOM      2  C3  UNL d   1      -0.663  -2.566  -0.781  0.00  0.00     0.004 A 
ATOM      3  C4  UNL d   1      -0.366  -3.667  -1.582  0.00  0.00    -0.003 A 
ATOM      4  C5  UNL d   1       0.726  -3.626  -2.441  0.00  0.00     0.000 A 
ATOM      5  C6  UNL d   1       1.532  -2.489  -2.486  0.00  0.00     0.000 A 
ATOM      6  C7  UNL d   1       1.257  -1.375  -1.673  0.00  0.00    -0.073 A 
ATOM      7  C8  UNL d   1       2.156  -0.173  -1.767  0.00  0.00     0.078 C 
ENDROOT
BRANCH   1   8
ATOM      8  C1  UNL d   1      -0.258  -0.231   0.045  0.00  0.00     0.053 C 
ATOM      9  C   UNL d   1       0.104  -0.446   1.506  0.00  0.00     0.018 C 
ENDBRANCH   1   8
TORSDOF 1
ENDMDL
