MODEL 1
REMARK minimizedAffinity -1.81782413
REMARK minimizedRMSD -1
REMARK  1 active torsions:
REMARK  status: ('A' for Active; 'I' for Inactive)
REMARK    1  A    between atoms: C1_2  and  C2_3 
ROOT
ATOM      1  C2  UNL d   1       0.117   1.600  -0.320  0.00  0.00    -0.076 A 
ATOM      2  C3  UNL d   1       0.916   0.839  -1.191  0.00  0.00     0.004 A 
ATOM      3  C4  UNL d   1       1.236  -0.485  -0.898  0.00  0.00    -0.003 A 
ATOM      4  C5  UNL d   1       0.760  -1.071   0.270  0.00  0.00     0.000 A 
ATOM      5  C6  UNL d   1      -0.049  -0.337   1.136  0.00  0.00     0.000 A 
ATOM      6  C7  UNL d   1      -0.394   0.994   0.848  0.00  0.00    -0.073 A 
ATOM      7  C8  UNL d   1      -1.265   1.741   1.821  0.00  0.00     0.078 C 
ENDROOT
BRANCH   1   8
ATOM      8  C1  UNL d   1      -0.174   3.040  -0.676  0.00  0.00     0.053 C 
ATOM      9  C   UNL d   1       0.369   4.017   0.355  0.00  0.00     0.018 C 
ENDBRANCH   1   8
TORSDOF 1
ENDMDL
