MODEL 1
REMARK minimizedAffinity -5.14814138
REMARK minimizedRMSD -1
REMARK  1 active torsions:
REMARK  status: ('A' for Active; 'I' for Inactive)
REMARK    1  A    between atoms: C1_2  and  C2_3 
ROOT
ATOM      1  C2  UNL d   1      -0.317   1.051  -0.167  0.00  0.00    -0.076 A 
ATOM      2  C3  UNL d   1      -0.630   2.116  -1.029  0.00  0.00     0.004 A 
ATOM      3  C4  UNL d   1      -1.626   3.035  -0.702  0.00  0.00    -0.003 A 
ATOM      4  C5  UNL d   1      -2.325   2.904   0.493  0.00  0.00     0.000 A 
ATOM      5  C6  UNL d   1      -2.015   1.863   1.368  0.00  0.00     0.000 A 
ATOM      6  C7  UNL d   1      -1.003   0.938   1.061  0.00  0.00    -0.073 A 
ATOM      7  C8  UNL d   1      -0.716  -0.168   2.039  0.00  0.00     0.078 C 
ENDROOT
BRANCH   1   8
ATOM      8  C1  UNL d   1       0.754   0.070  -0.587  0.00  0.00     0.053 C 
ATOM      9  C   UNL d   1       0.302  -0.835  -1.722  0.00  0.00     0.018 C 
ENDBRANCH   1   8
TORSDOF 1
ENDMDL
