MODEL 1
REMARK minimizedAffinity -4.11872005
REMARK minimizedRMSD -1
REMARK  1 active torsions:
REMARK  status: ('A' for Active; 'I' for Inactive)
REMARK    1  A    between atoms: C1_2  and  C2_3 
ROOT
ATOM      1  C2  UNL d   1       0.175   0.696   0.047  0.00  0.00    -0.076 A 
ATOM      2  C3  UNL d   1      -0.453  -0.203   0.927  0.00  0.00     0.004 A 
ATOM      3  C4  UNL d   1      -1.326   0.251   1.914  0.00  0.00    -0.003 A 
ATOM      4  C5  UNL d   1      -1.585   1.612   2.037  0.00  0.00     0.000 A 
ATOM      5  C6  UNL d   1      -0.984   2.516   1.162  0.00  0.00     0.000 A 
ATOM      6  C7  UNL d   1      -0.115   2.073   0.151  0.00  0.00    -0.073 A 
ATOM      7  C8  UNL d   1       0.510   3.093  -0.762  0.00  0.00     0.078 C 
ENDROOT
BRANCH   1   8
ATOM      8  C1  UNL d   1       1.133   0.148  -0.986  0.00  0.00     0.053 C 
ATOM      9  C   UNL d   1       0.844  -1.304  -1.338  0.00  0.00     0.018 C 
ENDBRANCH   1   8
TORSDOF 1
ENDMDL
