MODEL 1
REMARK minimizedAffinity -3.72971296
REMARK minimizedRMSD -1
REMARK  1 active torsions:
REMARK  status: ('A' for Active; 'I' for Inactive)
REMARK    1  A    between atoms: C1_2  and  C2_3 
ROOT
ATOM      1  C2  UNL d   1      -0.587   2.026   1.145  0.00  0.00    -0.076 A 
ATOM      2  C3  UNL d   1      -0.220   0.765   1.647  0.00  0.00     0.004 A 
ATOM      3  C4  UNL d   1       0.089  -0.287   0.786  0.00  0.00    -0.003 A 
ATOM      4  C5  UNL d   1       0.037  -0.095  -0.590  0.00  0.00     0.000 A 
ATOM      5  C6  UNL d   1      -0.307   1.155  -1.105  0.00  0.00     0.000 A 
ATOM      6  C7  UNL d   1      -0.606   2.230  -0.251  0.00  0.00    -0.073 A 
ATOM      7  C8  UNL d   1      -0.978   3.554  -0.861  0.00  0.00     0.078 C 
ENDROOT
BRANCH   1   8
ATOM      8  C1  UNL d   1      -0.938   3.122   2.126  0.00  0.00     0.053 C 
ATOM      9  C   UNL d   1       0.089   3.258   3.240  0.00  0.00     0.018 C 
ENDBRANCH   1   8
TORSDOF 1
ENDMDL
