MODEL 1
REMARK minimizedAffinity -6.46057034
REMARK minimizedRMSD -1
REMARK  1 active torsions:
REMARK  status: ('A' for Active; 'I' for Inactive)
REMARK    1  A    between atoms: C1_2  and  C2_3 
ROOT
ATOM      1  C2  UNL d   1      -0.767   0.925   0.787  0.00  0.00    -0.076 A 
ATOM      2  C3  UNL d   1      -1.890   1.514   1.393  0.00  0.00     0.004 A 
ATOM      3  C4  UNL d   1      -2.198   2.857   1.180  0.00  0.00    -0.003 A 
ATOM      4  C5  UNL d   1      -1.388   3.632   0.358  0.00  0.00     0.000 A 
ATOM      5  C6  UNL d   1      -0.280   3.060  -0.265  0.00  0.00     0.000 A 
ATOM      6  C7  UNL d   1       0.036   1.704  -0.075  0.00  0.00    -0.073 A 
ATOM      7  C8  UNL d   1       1.247   1.140  -0.767  0.00  0.00     0.078 C 
ENDROOT
BRANCH   1   8
ATOM      8  C1  UNL d   1      -0.467  -0.528   1.076  0.00  0.00     0.053 C 
ATOM      9  C   UNL d   1       0.029  -0.750   2.496  0.00  0.00     0.018 C 
ENDBRANCH   1   8
TORSDOF 1
ENDMDL
