MODEL 1
REMARK minimizedAffinity -6.43361759
REMARK minimizedRMSD -1
REMARK  1 active torsions:
REMARK  status: ('A' for Active; 'I' for Inactive)
REMARK    1  A    between atoms: C1_2  and  C2_3 
ROOT
ATOM      1  C2  UNL d   1       0.038   1.400   0.132  0.00  0.00    -0.076 A 
ATOM      2  C3  UNL d   1       0.203   2.507  -0.719  0.00  0.00     0.004 A 
ATOM      3  C4  UNL d   1      -0.679   3.585  -0.673  0.00  0.00    -0.003 A 
ATOM      4  C5  UNL d   1      -1.739   3.575   0.227  0.00  0.00     0.000 A 
ATOM      5  C6  UNL d   1      -1.907   2.493   1.091  0.00  0.00     0.000 A 
ATOM      6  C7  UNL d   1      -1.018   1.405   1.068  0.00  0.00    -0.073 A 
ATOM      7  C8  UNL d   1      -1.250   0.262   2.018  0.00  0.00     0.078 C 
ENDROOT
BRANCH   1   8
ATOM      8  C1  UNL d   1       1.010   0.247   0.017  0.00  0.00     0.053 C 
ATOM      9  C   UNL d   1       0.481  -0.875  -0.863  0.00  0.00     0.018 C 
ENDBRANCH   1   8
TORSDOF 1
ENDMDL
