MODEL 1
REMARK minimizedAffinity 0.737032712
REMARK minimizedRMSD -1
REMARK  0 active torsions:
REMARK  status: ('A' for Active; 'I' for Inactive)
ROOT
ATOM      1  C   UNL d   1       1.973   4.385   1.451  0.00  0.00     0.023 A 
ATOM      2  C1  UNL d   1       1.502   3.207   2.032  0.00  0.00     0.003 A 
ATOM      3  C2  UNL d   1       0.684   2.344   1.300  0.00  0.00     0.048 A 
ATOM      4  C3  UNL d   1       0.341   2.664  -0.013  0.00  0.00     0.023 A 
ATOM      5  C4  UNL d   1       0.811   3.841  -0.599  0.00  0.00     0.048 A 
ATOM      6  C5  UNL d   1       1.627   4.701   0.137  0.00  0.00     0.003 A 
ATOM      7  I   UNL d   1      -0.876   1.381  -1.105  0.00  0.00    -0.146 I 
ENDROOT
TORSDOF 0
ENDMDL
