MODEL 1
REMARK minimizedAffinity 6.68189716
REMARK minimizedRMSD -1
REMARK  0 active torsions:
REMARK  status: ('A' for Active; 'I' for Inactive)
ROOT
ATOM      1  C   UNL d   1       0.718   2.264  -0.785  0.00  0.00     0.023 A 
ATOM      2  C1  UNL d   1       1.391   3.350  -1.346  0.00  0.00     0.003 A 
ATOM      3  C2  UNL d   1       0.670   4.423  -1.875  0.00  0.00     0.048 A 
ATOM      4  C3  UNL d   1      -0.723   4.404  -1.838  0.00  0.00     0.023 A 
ATOM      5  C4  UNL d   1      -1.401   3.320  -1.277  0.00  0.00     0.048 A 
ATOM      6  C5  UNL d   1      -0.676   2.250  -0.751  0.00  0.00     0.003 A 
ATOM      7  I   UNL d   1      -1.799   6.000  -2.624  0.00  0.00    -0.146 I 
ENDROOT
TORSDOF 0
ENDMDL
