MODEL 1
REMARK minimizedAffinity -1.07174814
REMARK minimizedRMSD -1
REMARK  0 active torsions:
REMARK  status: ('A' for Active; 'I' for Inactive)
ROOT
ATOM      1  C   UNL d   1       0.640   2.362   1.112  0.00  0.00     0.023 A 
ATOM      2  C1  UNL d   1       1.480   3.461   1.291  0.00  0.00     0.003 A 
ATOM      3  C2  UNL d   1       1.472   4.506   0.365  0.00  0.00     0.048 A 
ATOM      4  C3  UNL d   1       0.620   4.446  -0.738  0.00  0.00     0.023 A 
ATOM      5  C4  UNL d   1      -0.223   3.348  -0.921  0.00  0.00     0.048 A 
ATOM      6  C5  UNL d   1      -0.210   2.305   0.008  0.00  0.00     0.003 A 
ATOM      7  I   UNL d   1       0.605   6.000  -2.117  0.00  0.00    -0.146 I 
ENDROOT
TORSDOF 0
ENDMDL
