MODEL 1
REMARK minimizedAffinity 0.0920673758
REMARK minimizedRMSD -1
REMARK  0 active torsions:
REMARK  status: ('A' for Active; 'I' for Inactive)
ROOT
ATOM      1  C   UNL d   1       3.762  -4.946  -3.381  0.00  0.00     0.023 A 
ATOM      2  C1  UNL d   1       3.956  -3.609  -3.726  0.00  0.00     0.003 A 
ATOM      3  C2  UNL d   1       4.073  -2.639  -2.729  0.00  0.00     0.048 A 
ATOM      4  C3  UNL d   1       3.997  -3.013  -1.388  0.00  0.00     0.023 A 
ATOM      5  C4  UNL d   1       3.804  -4.351  -1.037  0.00  0.00     0.048 A 
ATOM      6  C5  UNL d   1       3.686  -5.317  -2.038  0.00  0.00     0.003 A 
ATOM      7  I   UNL d   1       4.171  -1.571   0.099  0.00  0.00    -0.146 I 
ENDROOT
TORSDOF 0
ENDMDL
