MODEL 1
REMARK minimizedAffinity 2.47998023
REMARK minimizedRMSD -1
REMARK  0 active torsions:
REMARK  status: ('A' for Active; 'I' for Inactive)
ROOT
ATOM      1  C   UNL d   1       0.648   1.561   3.080  0.00  0.00     0.023 A 
ATOM      2  C1  UNL d   1      -0.541   1.614   2.352  0.00  0.00     0.003 A 
ATOM      3  C2  UNL d   1      -0.613   2.376   1.185  0.00  0.00     0.048 A 
ATOM      4  C3  UNL d   1       0.507   3.082   0.750  0.00  0.00     0.023 A 
ATOM      5  C4  UNL d   1       1.700   3.032   1.474  0.00  0.00     0.048 A 
ATOM      6  C5  UNL d   1       1.767   2.269   2.641  0.00  0.00     0.003 A 
ATOM      7  I   UNL d   1       0.402   4.218  -0.988  0.00  0.00    -0.146 I 
ENDROOT
TORSDOF 0
ENDMDL
