MODEL 1
REMARK minimizedAffinity 3.78786469
REMARK minimizedRMSD -1
REMARK  0 active torsions:
REMARK  status: ('A' for Active; 'I' for Inactive)
ROOT
ATOM      1  C   UNL d   1       0.142   0.373   2.039  0.00  0.00     0.023 A 
ATOM      2  C1  UNL d   1       0.200   0.479   0.649  0.00  0.00     0.003 A 
ATOM      3  C2  UNL d   1       0.286   1.736   0.046  0.00  0.00     0.048 A 
ATOM      4  C3  UNL d   1       0.315   2.882   0.839  0.00  0.00     0.023 A 
ATOM      5  C4  UNL d   1       0.258   2.782   2.230  0.00  0.00     0.048 A 
ATOM      6  C5  UNL d   1       0.171   1.523   2.829  0.00  0.00     0.003 A 
ATOM      7  I   UNL d   1       0.444   4.754  -0.056  0.00  0.00    -0.146 I 
ENDROOT
TORSDOF 0
ENDMDL
