MODEL 1
REMARK minimizedAffinity -3.58919835
REMARK minimizedRMSD -1
REMARK  0 active torsions:
REMARK  status: ('A' for Active; 'I' for Inactive)
ROOT
ATOM      1  C   UNL d   1      -0.540   0.769  -0.014  0.00  0.00     0.172 C 
ATOM      2  N   UNL d   1      -0.667   2.199  -0.176  0.00  0.00    -0.070 N 
ATOM      3  C1  UNL d   1      -0.908   3.098   0.827  0.00  0.00    -0.004 A 
ATOM      4  C2  UNL d   1      -0.957   4.355   0.265  0.00  0.00    -0.047 A 
ATOM      5  C3  UNL d   1      -0.740   4.206  -1.125  0.00  0.00    -0.047 A 
ATOM      6  C4  UNL d   1      -0.563   2.861  -1.371  0.00  0.00    -0.004 A 
ENDROOT
TORSDOF 0
ENDMDL
