MODEL 1
REMARK minimizedAffinity -2.2168088
REMARK minimizedRMSD -1
REMARK  0 active torsions:
REMARK  status: ('A' for Active; 'I' for Inactive)
ROOT
ATOM      1  C   UNL d   1       0.539  -0.680  -0.455  0.00  0.00     0.172 C 
ATOM      2  N   UNL d   1      -0.205   0.550  -0.590  0.00  0.00    -0.070 N 
ATOM      3  C1  UNL d   1      -0.239   1.344  -1.705  0.00  0.00    -0.004 A 
ATOM      4  C2  UNL d   1      -1.059   2.418  -1.432  0.00  0.00    -0.047 A 
ATOM      5  C3  UNL d   1      -1.532   2.264  -0.108  0.00  0.00    -0.047 A 
ATOM      6  C4  UNL d   1      -0.988   1.099   0.390  0.00  0.00    -0.004 A 
ENDROOT
TORSDOF 0
ENDMDL
