MODEL 1
REMARK minimizedAffinity -3.05630994
REMARK minimizedRMSD -1
REMARK  0 active torsions:
REMARK  status: ('A' for Active; 'I' for Inactive)
ROOT
ATOM      1  C   UNL d   1      -0.068   0.137   1.138  0.00  0.00     0.172 C 
ATOM      2  N   UNL d   1      -0.517   1.493   0.929  0.00  0.00    -0.070 N 
ATOM      3  C1  UNL d   1      -0.683   2.101  -0.287  0.00  0.00    -0.004 A 
ATOM      4  C2  UNL d   1      -1.123   3.387  -0.060  0.00  0.00    -0.047 A 
ATOM      5  C3  UNL d   1      -1.223   3.559   1.342  0.00  0.00    -0.047 A 
ATOM      6  C4  UNL d   1      -0.842   2.371   1.929  0.00  0.00    -0.004 A 
ENDROOT
TORSDOF 0
ENDMDL
