MODEL 1
REMARK minimizedAffinity -4.27700281
REMARK minimizedRMSD -1
REMARK  0 active torsions:
REMARK  status: ('A' for Active; 'I' for Inactive)
ROOT
ATOM      1  C   UNL d   1       0.069  -0.206  -0.499  0.00  0.00     0.172 C 
ATOM      2  N   UNL d   1      -0.360   0.973   0.215  0.00  0.00    -0.070 N 
ATOM      3  C1  UNL d   1      -1.012   2.045  -0.332  0.00  0.00    -0.004 A 
ATOM      4  C2  UNL d   1      -1.245   2.957   0.675  0.00  0.00    -0.047 A 
ATOM      5  C3  UNL d   1      -0.714   2.414   1.869  0.00  0.00    -0.047 A 
ATOM      6  C4  UNL d   1      -0.172   1.185   1.556  0.00  0.00    -0.004 A 
ENDROOT
TORSDOF 0
ENDMDL
