MODEL 1
REMARK minimizedAffinity -3.91487122
REMARK minimizedRMSD -1
REMARK  0 active torsions:
REMARK  status: ('A' for Active; 'I' for Inactive)
ROOT
ATOM      1  C   UNL d   1       0.123  -0.229  -0.755  0.00  0.00     0.172 C 
ATOM      2  N   UNL d   1      -0.312   0.783   0.179  0.00  0.00    -0.070 N 
ATOM      3  C1  UNL d   1      -0.958   1.946  -0.147  0.00  0.00    -0.004 A 
ATOM      4  C2  UNL d   1      -1.199   2.636   1.021  0.00  0.00    -0.047 A 
ATOM      5  C3  UNL d   1      -0.680   1.863   2.086  0.00  0.00    -0.047 A 
ATOM      6  C4  UNL d   1      -0.136   0.721   1.536  0.00  0.00    -0.004 A 
ENDROOT
TORSDOF 0
ENDMDL
