MODEL 1
REMARK minimizedAffinity -3.0961225
REMARK minimizedRMSD -1
REMARK  0 active torsions:
REMARK  status: ('A' for Active; 'I' for Inactive)
ROOT
ATOM      1  O1  BZF d   1      -1.708  -2.192  -1.933  0.00  0.00    -0.204 OA
ATOM      2  C2  BZF d   1      -2.641  -1.544  -2.720  0.00  0.00     0.174 A 
ATOM      3  C3  BZF d   1      -2.439  -0.211  -2.702  0.00  0.00    -0.012 A 
ATOM      4  C3A BZF d   1      -1.253  -0.020  -1.924  0.00  0.00    -0.107 A 
ATOM      5  C4  BZF d   1      -0.537   1.084  -1.559  0.00  0.00     0.055 A 
ATOM      6  C5  BZF d   1       0.532   0.934  -0.734  0.00  0.00    -0.016 A 
ATOM      7  C6  BZF d   1       0.910  -0.301  -0.251  0.00  0.00     0.022 A 
ATOM      8  C7  BZF d   1       0.233  -1.426  -0.589  0.00  0.00     0.029 A 
ATOM      9  C7A BZF d   1      -0.828  -1.283  -1.450  0.00  0.00     0.058 A 
ENDROOT
TORSDOF 0
ENDMDL
