MODEL 1
REMARK minimizedAffinity 1.90042114
REMARK minimizedRMSD -1
REMARK  0 active torsions:
REMARK  status: ('A' for Active; 'I' for Inactive)
ROOT
ATOM      1  O1  BZF d   1      -3.996   5.964  -3.982  0.00  0.00    -0.204 OA
ATOM      2  C2  BZF d   1      -4.581   5.971  -2.730  0.00  0.00     0.174 A 
ATOM      3  C3  BZF d   1      -3.641   5.930  -1.763  0.00  0.00    -0.012 A 
ATOM      4  C3A BZF d   1      -2.389   5.988  -2.453  0.00  0.00    -0.107 A 
ATOM      5  C4  BZF d   1      -1.088   5.999  -2.037  0.00  0.00     0.055 A 
ATOM      6  C5  BZF d   1      -0.097   5.987  -2.967  0.00  0.00    -0.016 A 
ATOM      7  C6  BZF d   1      -0.371   5.959  -4.319  0.00  0.00     0.022 A 
ATOM      8  C7  BZF d   1      -1.646   5.953  -4.779  0.00  0.00     0.029 A 
ATOM      9  C7A BZF d   1      -2.649   5.998  -3.843  0.00  0.00     0.058 A 
ENDROOT
TORSDOF 0
ENDMDL
