MODEL 1
REMARK minimizedAffinity 7.91994047
REMARK minimizedRMSD -1
REMARK  0 active torsions:
REMARK  status: ('A' for Active; 'I' for Inactive)
ROOT
ATOM      1  O1  BZF d   1       4.897   4.125  -5.035  0.00  0.00    -0.204 OA
ATOM      2  C2  BZF d   1       4.820   3.054  -4.166  0.00  0.00     0.174 A 
ATOM      3  C3  BZF d   1       3.551   2.866  -3.749  0.00  0.00    -0.012 A 
ATOM      4  C3A BZF d   1       2.772   3.826  -4.470  0.00  0.00    -0.107 A 
ATOM      5  C4  BZF d   1       1.440   4.122  -4.499  0.00  0.00     0.055 A 
ATOM      6  C5  BZF d   1       1.012   5.166  -5.256  0.00  0.00    -0.016 A 
ATOM      7  C6  BZF d   1       1.888   5.938  -5.990  0.00  0.00     0.022 A 
ATOM      8  C7  BZF d   1       3.219   5.680  -5.996  0.00  0.00     0.029 A 
ATOM      9  C7A BZF d   1       3.650   4.605  -5.258  0.00  0.00     0.058 A 
ENDROOT
TORSDOF 0
ENDMDL
