MODEL 1
REMARK minimizedAffinity 1.23147821
REMARK minimizedRMSD -1
REMARK  0 active torsions:
REMARK  status: ('A' for Active; 'I' for Inactive)
ROOT
ATOM      1  O1  BZF d   1      -1.837   6.000  -2.111  0.00  0.00    -0.204 OA
ATOM      2  C2  BZF d   1      -3.029   5.982  -2.809  0.00  0.00     0.174 A 
ATOM      3  C3  BZF d   1      -2.805   5.998  -4.139  0.00  0.00    -0.012 A 
ATOM      4  C3A BZF d   1      -1.383   5.934  -4.282  0.00  0.00    -0.107 A 
ATOM      5  C4  BZF d   1      -0.549   5.901  -5.362  0.00  0.00     0.055 A 
ATOM      6  C5  BZF d   1       0.795   5.914  -5.160  0.00  0.00    -0.016 A 
ATOM      7  C6  BZF d   1       1.338   5.964  -3.892  0.00  0.00     0.022 A 
ATOM      8  C7  BZF d   1       0.551   5.993  -2.790  0.00  0.00     0.029 A 
ATOM      9  C7A BZF d   1      -0.808   5.947  -2.990  0.00  0.00     0.058 A 
ENDROOT
TORSDOF 0
ENDMDL
