MODEL 1
REMARK minimizedAffinity -3.67208695
REMARK minimizedRMSD -1
REMARK  0 active torsions:
REMARK  status: ('A' for Active; 'I' for Inactive)
ROOT
ATOM      1  O1  BZF d   1      -0.600   5.932  -5.842  0.00  0.00    -0.204 OA
ATOM      2  C2  BZF d   1       0.781   5.929  -5.789  0.00  0.00     0.174 A 
ATOM      3  C3  BZF d   1       1.211   6.000  -4.513  0.00  0.00    -0.012 A 
ATOM      4  C3A BZF d   1       0.025   5.956  -3.714  0.00  0.00    -0.107 A 
ATOM      5  C4  BZF d   1      -0.200   5.975  -2.367  0.00  0.00     0.055 A 
ATOM      6  C5  BZF d   1      -1.481   5.994  -1.912  0.00  0.00    -0.016 A 
ATOM      7  C6  BZF d   1      -2.558   6.000  -2.774  0.00  0.00     0.022 A 
ATOM      8  C7  BZF d   1      -2.384   5.976  -4.118  0.00  0.00     0.029 A 
ATOM      9  C7A BZF d   1      -1.092   5.924  -4.580  0.00  0.00     0.058 A 
ENDROOT
TORSDOF 0
ENDMDL
