MODEL 1
REMARK minimizedAffinity 6.401752
REMARK minimizedRMSD -1
REMARK  0 active torsions:
REMARK  status: ('A' for Active; 'I' for Inactive)
ROOT
ATOM      1  O1  BZF d   1       0.511   0.752   2.857  0.00  0.00    -0.204 OA
ATOM      2  C2  BZF d   1      -0.436  -0.255   2.846  0.00  0.00     0.174 A 
ATOM      3  C3  BZF d   1      -0.714  -0.637   1.583  0.00  0.00    -0.012 A 
ATOM      4  C3A BZF d   1       0.178   0.118   0.757  0.00  0.00    -0.107 A 
ATOM      5  C4  BZF d   1       0.392   0.169  -0.591  0.00  0.00     0.055 A 
ATOM      6  C5  BZF d   1       1.285   1.067  -1.084  0.00  0.00    -0.016 A 
ATOM      7  C6  BZF d   1       1.976   1.931  -0.261  0.00  0.00     0.022 A 
ATOM      8  C7  BZF d   1       1.801   1.914   1.083  0.00  0.00     0.029 A 
ATOM      9  C7A BZF d   1       0.923   0.986   1.588  0.00  0.00     0.058 A 
ENDROOT
TORSDOF 0
ENDMDL
