MODEL 1
REMARK minimizedAffinity 8.32377148
REMARK minimizedRMSD -1
REMARK  0 active torsions:
REMARK  status: ('A' for Active; 'I' for Inactive)
ROOT
ATOM      1  O1  BZF d   1       0.637  -0.450   2.009  0.00  0.00    -0.204 OA
ATOM      2  C2  BZF d   1      -0.172  -1.454   1.512  0.00  0.00     0.174 A 
ATOM      3  C3  BZF d   1      -0.331  -1.324   0.179  0.00  0.00    -0.012 A 
ATOM      4  C3A BZF d   1       0.500  -0.220  -0.193  0.00  0.00    -0.107 A 
ATOM      5  C4  BZF d   1       0.778   0.385  -1.385  0.00  0.00     0.055 A 
ATOM      6  C5  BZF d   1       1.575   1.486  -1.397  0.00  0.00    -0.016 A 
ATOM      7  C6  BZF d   1       2.105   2.011  -0.236  0.00  0.00     0.022 A 
ATOM      8  C7  BZF d   1       1.861   1.442   0.969  0.00  0.00     0.029 A 
ATOM      9  C7A BZF d   1       1.084   0.310   0.981  0.00  0.00     0.058 A 
ENDROOT
TORSDOF 0
ENDMDL
