MODEL 1
REMARK minimizedAffinity 7.1059947
REMARK minimizedRMSD -1
REMARK  0 active torsions:
REMARK  status: ('A' for Active; 'I' for Inactive)
ROOT
ATOM      1  O1  BZF d   1       0.349  -1.120   0.655  0.00  0.00    -0.204 OA
ATOM      2  C2  BZF d   1       0.113  -0.848   1.989  0.00  0.00     0.174 A 
ATOM      3  C3  BZF d   1       0.366   0.448   2.265  0.00  0.00    -0.012 A 
ATOM      4  C3A BZF d   1       0.697   1.043   1.006  0.00  0.00    -0.107 A 
ATOM      5  C4  BZF d   1       1.029   2.311   0.626  0.00  0.00     0.055 A 
ATOM      6  C5  BZF d   1       1.367   2.546  -0.669  0.00  0.00    -0.016 A 
ATOM      7  C6  BZF d   1       1.387   1.536  -1.608  0.00  0.00     0.022 A 
ATOM      8  C7  BZF d   1       1.060   0.262  -1.280  0.00  0.00     0.029 A 
ATOM      9  C7A BZF d   1       0.686   0.028   0.021  0.00  0.00     0.058 A 
ENDROOT
TORSDOF 0
ENDMDL
