MODEL 1
REMARK minimizedAffinity -1.21866775
REMARK minimizedRMSD -1
REMARK  0 active torsions:
REMARK  status: ('A' for Active; 'I' for Inactive)
ROOT
ATOM      1  O1  BZF d   1      -3.956   5.968  -4.179  0.00  0.00    -0.204 OA
ATOM      2  C2  BZF d   1      -4.252   5.989  -2.829  0.00  0.00     0.174 A 
ATOM      3  C3  BZF d   1      -3.124   5.949  -2.091  0.00  0.00    -0.012 A 
ATOM      4  C3A BZF d   1      -2.053   5.993  -3.039  0.00  0.00    -0.107 A 
ATOM      5  C4  BZF d   1      -0.693   5.998  -2.918  0.00  0.00     0.055 A 
ATOM      6  C5  BZF d   1       0.070   5.972  -4.042  0.00  0.00    -0.016 A 
ATOM      7  C6  BZF d   1      -0.493   5.936  -5.301  0.00  0.00     0.022 A 
ATOM      8  C7  BZF d   1      -1.838   5.935  -5.471  0.00  0.00     0.029 A 
ATOM      9  C7A BZF d   1      -2.611   5.995  -4.338  0.00  0.00     0.058 A 
ENDROOT
TORSDOF 0
ENDMDL
