MODEL 1
REMARK minimizedAffinity -1.59235489
REMARK minimizedRMSD -1
REMARK  0 active torsions:
REMARK  status: ('A' for Active; 'I' for Inactive)
ROOT
ATOM      1  O1  BZF d   1       2.796   0.664   2.567  0.00  0.00    -0.204 OA
ATOM      2  C2  BZF d   1       3.924   1.402   2.266  0.00  0.00     0.174 A 
ATOM      3  C3  BZF d   1       3.682   2.251   1.246  0.00  0.00    -0.012 A 
ATOM      4  C3A BZF d   1       2.291   2.095   0.948  0.00  0.00    -0.107 A 
ATOM      5  C4  BZF d   1       1.454   2.679   0.041  0.00  0.00     0.055 A 
ATOM      6  C5  BZF d   1       0.167   2.250  -0.042  0.00  0.00    -0.016 A 
ATOM      7  C6  BZF d   1      -0.314   1.237   0.762  0.00  0.00     0.022 A 
ATOM      8  C7  BZF d   1       0.478   0.631   1.680  0.00  0.00     0.029 A 
ATOM      9  C7A BZF d   1       1.770   1.084   1.789  0.00  0.00     0.058 A 
ENDROOT
TORSDOF 0
ENDMDL
