MODEL 1
REMARK minimizedAffinity -3.60343218
REMARK minimizedRMSD -1
REMARK  0 active torsions:
REMARK  status: ('A' for Active; 'I' for Inactive)
ROOT
ATOM      1  O1  BZF d   1      -0.360   5.969  -5.430  0.00  0.00    -0.204 OA
ATOM      2  C2  BZF d   1       0.976   5.954  -5.078  0.00  0.00     0.174 A 
ATOM      3  C3  BZF d   1       1.119   5.998  -3.738  0.00  0.00    -0.012 A 
ATOM      4  C3A BZF d   1      -0.213   5.951  -3.216  0.00  0.00    -0.107 A 
ATOM      5  C4  BZF d   1      -0.725   5.948  -1.950  0.00  0.00     0.055 A 
ATOM      6  C5  BZF d   1      -2.074   5.969  -1.784  0.00  0.00    -0.016 A 
ATOM      7  C6  BZF d   1      -2.938   6.000  -2.859  0.00  0.00     0.022 A 
ATOM      8  C7  BZF d   1      -2.476   5.999  -4.133  0.00  0.00     0.029 A 
ATOM      9  C7A BZF d   1      -1.115   5.943  -4.305  0.00  0.00     0.058 A 
ENDROOT
TORSDOF 0
ENDMDL
