MODEL 1
REMARK minimizedAffinity 0.653695107
REMARK minimizedRMSD -1
REMARK  0 active torsions:
REMARK  status: ('A' for Active; 'I' for Inactive)
ROOT
ATOM      1  O1  BZF d   1      -2.420   5.933  -4.462  0.00  0.00    -0.204 OA
ATOM      2  C2  BZF d   1      -1.237   5.930  -3.748  0.00  0.00     0.174 A 
ATOM      3  C3  BZF d   1      -1.478   5.999  -2.423  0.00  0.00    -0.012 A 
ATOM      4  C3A BZF d   1      -2.903   5.955  -2.296  0.00  0.00    -0.107 A 
ATOM      5  C4  BZF d   1      -3.751   5.973  -1.226  0.00  0.00     0.055 A 
ATOM      6  C5  BZF d   1      -5.092   5.992  -1.447  0.00  0.00    -0.016 A 
ATOM      7  C6  BZF d   1      -5.618   6.000  -2.722  0.00  0.00     0.022 A 
ATOM      8  C7  BZF d   1      -4.816   5.977  -3.815  0.00  0.00     0.029 A 
ATOM      9  C7A BZF d   1      -3.461   5.925  -3.595  0.00  0.00     0.058 A 
ENDROOT
TORSDOF 0
ENDMDL
