MODEL 1
REMARK minimizedAffinity 0.550321579
REMARK minimizedRMSD -1
REMARK  0 active torsions:
REMARK  status: ('A' for Active; 'I' for Inactive)
ROOT
ATOM      1  O1  BZF d   1       1.631   5.957  -3.013  0.00  0.00    -0.204 OA
ATOM      2  C2  BZF d   1       1.813   5.952  -4.382  0.00  0.00     0.174 A 
ATOM      3  C3  BZF d   1       0.627   5.910  -5.023  0.00  0.00    -0.012 A 
ATOM      4  C3A BZF d   1      -0.360   5.980  -3.990  0.00  0.00    -0.107 A 
ATOM      5  C4  BZF d   1      -1.726   5.995  -3.996  0.00  0.00     0.055 A 
ATOM      6  C5  BZF d   1      -2.392   5.995  -2.811  0.00  0.00    -0.016 A 
ATOM      7  C6  BZF d   1      -1.725   5.975  -1.604  0.00  0.00     0.022 A 
ATOM      8  C7  BZF d   1      -0.371   5.965  -1.547  0.00  0.00     0.029 A 
ATOM      9  C7A BZF d   1       0.305   5.998  -2.742  0.00  0.00     0.058 A 
ENDROOT
TORSDOF 0
ENDMDL
