MODEL 1
REMARK minimizedAffinity 2.11557078
REMARK minimizedRMSD -1
REMARK  0 active torsions:
REMARK  status: ('A' for Active; 'I' for Inactive)
ROOT
ATOM      1  O1  BZF d   1      -3.507  -3.224  -2.594  0.00  0.00    -0.204 OA
ATOM      2  C2  BZF d   1      -3.282  -1.891  -2.311  0.00  0.00     0.174 A 
ATOM      3  C3  BZF d   1      -3.804  -1.561  -1.112  0.00  0.00    -0.012 A 
ATOM      4  C3A BZF d   1      -4.311  -2.785  -0.573  0.00  0.00    -0.107 A 
ATOM      5  C4  BZF d   1      -4.933  -3.109   0.599  0.00  0.00     0.055 A 
ATOM      6  C5  BZF d   1      -5.369  -4.382   0.786  0.00  0.00    -0.016 A 
ATOM      7  C6  BZF d   1      -5.203  -5.355  -0.178  0.00  0.00     0.022 A 
ATOM      8  C7  BZF d   1      -4.588  -5.083  -1.354  0.00  0.00     0.029 A 
ATOM      9  C7A BZF d   1      -4.118  -3.805  -1.533  0.00  0.00     0.058 A 
ENDROOT
TORSDOF 0
ENDMDL
