MODEL 1
REMARK minimizedAffinity 3.06390905
REMARK minimizedRMSD -1
REMARK  0 active torsions:
REMARK  status: ('A' for Active; 'I' for Inactive)
ROOT
ATOM      1  O1  BZF d   1       1.221   1.554  -2.088  0.00  0.00    -0.204 OA
ATOM      2  C2  BZF d   1       0.769   0.367  -2.633  0.00  0.00     0.174 A 
ATOM      3  C3  BZF d   1       0.493  -0.529  -1.664  0.00  0.00    -0.012 A 
ATOM      4  C3A BZF d   1       0.703   0.170  -0.434  0.00  0.00    -0.107 A 
ATOM      5  C4  BZF d   1       0.577  -0.182   0.880  0.00  0.00     0.055 A 
ATOM      6  C5  BZF d   1       0.930   0.711   1.840  0.00  0.00    -0.016 A 
ATOM      7  C6  BZF d   1       1.418   1.962   1.524  0.00  0.00     0.022 A 
ATOM      8  C7  BZF d   1       1.556   2.359   0.235  0.00  0.00     0.029 A 
ATOM      9  C7A BZF d   1       1.169   1.470  -0.737  0.00  0.00     0.058 A 
ENDROOT
TORSDOF 0
ENDMDL
