MODEL 1
REMARK minimizedAffinity 1.32798016
REMARK minimizedRMSD -1
REMARK  0 active torsions:
REMARK  status: ('A' for Active; 'I' for Inactive)
ROOT
ATOM      1  O1  BZF d   1      -0.990   0.588   3.815  0.00  0.00    -0.204 OA
ATOM      2  C2  BZF d   1      -2.063  -0.281   3.759  0.00  0.00     0.174 A 
ATOM      3  C3  BZF d   1      -2.246  -0.736   2.503  0.00  0.00    -0.012 A 
ATOM      4  C3A BZF d   1      -1.167  -0.184   1.742  0.00  0.00    -0.107 A 
ATOM      5  C4  BZF d   1      -0.793  -0.285   0.433  0.00  0.00     0.055 A 
ATOM      6  C5  BZF d   1       0.270   0.437  -0.009  0.00  0.00    -0.016 A 
ATOM      7  C6  BZF d   1       0.978   1.273   0.829  0.00  0.00     0.022 A 
ATOM      8  C7  BZF d   1       0.648   1.402   2.138  0.00  0.00     0.029 A 
ATOM      9  C7A BZF d   1      -0.405   0.648   2.594  0.00  0.00     0.058 A 
ENDROOT
TORSDOF 0
ENDMDL
