MODEL 1
REMARK minimizedAffinity 3.32498193
REMARK minimizedRMSD -1
REMARK  0 active torsions:
REMARK  status: ('A' for Active; 'I' for Inactive)
ROOT
ATOM      1  O1  BZF d   1       1.091  -1.097  -1.188  0.00  0.00    -0.204 OA
ATOM      2  C2  BZF d   1       1.430  -0.596  -2.430  0.00  0.00     0.174 A 
ATOM      3  C3  BZF d   1       1.676   0.729  -2.360  0.00  0.00    -0.012 A 
ATOM      4  C3A BZF d   1       1.569   1.059  -0.972  0.00  0.00    -0.107 A 
ATOM      5  C4  BZF d   1       1.721   2.219  -0.269  0.00  0.00     0.055 A 
ATOM      6  C5  BZF d   1       1.474   2.218   1.068  0.00  0.00    -0.016 A 
ATOM      7  C6  BZF d   1       1.070   1.078   1.731  0.00  0.00     0.022 A 
ATOM      8  C7  BZF d   1       0.911  -0.098   1.077  0.00  0.00     0.029 A 
ATOM      9  C7A BZF d   1       1.191  -0.108  -0.268  0.00  0.00     0.058 A 
ENDROOT
TORSDOF 0
ENDMDL
