MODEL 1
REMARK minimizedAffinity -4.39949846
REMARK minimizedRMSD -1
REMARK  0 active torsions:
REMARK  status: ('A' for Active; 'I' for Inactive)
ROOT
ATOM      1  O1  BZF d   1      -0.192   5.277  -5.202  0.00  0.00    -0.204 OA
ATOM      2  C2  BZF d   1       0.750   5.264  -4.191  0.00  0.00     0.174 A 
ATOM      3  C3  BZF d   1       0.179   5.539  -3.001  0.00  0.00    -0.012 A 
ATOM      4  C3A BZF d   1      -1.222   5.644  -3.271  0.00  0.00    -0.107 A 
ATOM      5  C4  BZF d   1      -2.314   5.888  -2.488  0.00  0.00     0.055 A 
ATOM      6  C5  BZF d   1      -3.535   6.000  -3.074  0.00  0.00    -0.016 A 
ATOM      7  C6  BZF d   1      -3.700   5.878  -4.438  0.00  0.00     0.022 A 
ATOM      8  C7  BZF d   1      -2.648   5.631  -5.255  0.00  0.00     0.029 A 
ATOM      9  C7A BZF d   1      -1.417   5.485  -4.663  0.00  0.00     0.058 A 
ENDROOT
TORSDOF 0
ENDMDL
