MODEL 1
REMARK minimizedAffinity -3.70594263
REMARK minimizedRMSD -1
REMARK  0 active torsions:
REMARK  status: ('A' for Active; 'I' for Inactive)
ROOT
ATOM      1  C1  BNZ d   1      -1.248  -0.106   0.583  0.00  0.00     0.000 A 
ATOM      2  C2  BNZ d   1      -1.896  -0.207   1.785  0.00  0.00     0.000 A 
ATOM      3  C3  BNZ d   1      -1.210  -0.100   2.962  0.00  0.00     0.000 A 
ATOM      4  C4  BNZ d   1       0.128   0.067   2.936  0.00  0.00     0.000 A 
ATOM      5  C5  BNZ d   1       0.798   0.161   1.733  0.00  0.00     0.000 A 
ATOM      6  C6  BNZ d   1       0.098   0.092   0.550  0.00  0.00     0.000 A 
ENDROOT
TORSDOF 0
ENDMDL
