MODEL 1
REMARK minimizedAffinity -3.6555748
REMARK minimizedRMSD -1
REMARK  0 active torsions:
REMARK  status: ('A' for Active; 'I' for Inactive)
ROOT
ATOM      1  C1  BNZ d   1      -0.941  -0.297  -0.252  0.00  0.00     0.000 A 
ATOM      2  C2  BNZ d   1      -1.463  -0.644   0.965  0.00  0.00     0.000 A 
ATOM      3  C3  BNZ d   1      -0.875  -0.223   2.125  0.00  0.00     0.000 A 
ATOM      4  C4  BNZ d   1       0.256   0.510   2.067  0.00  0.00     0.000 A 
ATOM      5  C5  BNZ d   1       0.800   0.861   0.847  0.00  0.00     0.000 A 
ATOM      6  C6  BNZ d   1       0.183   0.468  -0.319  0.00  0.00     0.000 A 
ENDROOT
TORSDOF 0
ENDMDL
