MODEL 1
REMARK minimizedAffinity -3.21593213
REMARK minimizedRMSD -1
REMARK  0 active torsions:
REMARK  status: ('A' for Active; 'I' for Inactive)
ROOT
ATOM      1  C1  BNZ d   1       0.992   0.393   0.855  0.00  0.00     0.000 A 
ATOM      2  C2  BNZ d   1       0.285   0.523  -0.310  0.00  0.00     0.000 A 
ATOM      3  C3  BNZ d   1      -1.080   0.454  -0.312  0.00  0.00     0.000 A 
ATOM      4  C4  BNZ d   1      -1.733   0.215   0.843  0.00  0.00     0.000 A 
ATOM      5  C5  BNZ d   1      -1.034   0.072   2.025  0.00  0.00     0.000 A 
ATOM      6  C6  BNZ d   1       0.338   0.181   2.029  0.00  0.00     0.000 A 
ENDROOT
TORSDOF 0
ENDMDL
