MODEL 1
REMARK minimizedAffinity -4.94815731
REMARK minimizedRMSD -1
REMARK  0 active torsions:
REMARK  status: ('A' for Active; 'I' for Inactive)
ROOT
ATOM      1  C1  BNZ d   1       0.620   0.426   0.155  0.00  0.00     0.000 A 
ATOM      2  C2  BNZ d   1       0.378  -0.154   1.372  0.00  0.00     0.000 A 
ATOM      3  C3  BNZ d   1      -0.901  -0.365   1.805  0.00  0.00     0.000 A 
ATOM      4  C4  BNZ d   1      -1.935   0.040   1.039  0.00  0.00     0.000 A 
ATOM      5  C5  BNZ d   1      -1.708   0.634  -0.186  0.00  0.00     0.000 A 
ATOM      6  C6  BNZ d   1      -0.419   0.810  -0.636  0.00  0.00     0.000 A 
ENDROOT
TORSDOF 0
ENDMDL
