MODEL 1
REMARK minimizedAffinity -5.07231617
REMARK minimizedRMSD -1
REMARK  0 active torsions:
REMARK  status: ('A' for Active; 'I' for Inactive)
ROOT
ATOM      1  C1  BNZ d   1      -1.611  -0.766   1.512  0.00  0.00     0.000 A 
ATOM      2  C2  BNZ d   1      -1.041  -0.202   0.402  0.00  0.00     0.000 A 
ATOM      3  C3  BNZ d   1       0.234   0.289   0.442  0.00  0.00     0.000 A 
ATOM      4  C4  BNZ d   1       0.923   0.251   1.601  0.00  0.00     0.000 A 
ATOM      5  C5  BNZ d   1       0.359  -0.307   2.731  0.00  0.00     0.000 A 
ATOM      6  C6  BNZ d   1      -0.911  -0.835   2.677  0.00  0.00     0.000 A 
ENDROOT
TORSDOF 0
ENDMDL
