MODEL 1
REMARK minimizedAffinity -3.65810466
REMARK minimizedRMSD -1
REMARK  0 active torsions:
REMARK  status: ('A' for Active; 'I' for Inactive)
ROOT
ATOM      1  C1  BNZ d   1       0.120   0.775  -0.912  0.00  0.00     0.000 A 
ATOM      2  C2  BNZ d   1      -0.992   0.438  -0.187  0.00  0.00     0.000 A 
ATOM      3  C3  BNZ d   1      -0.877  -0.043   1.087  0.00  0.00     0.000 A 
ATOM      4  C4  BNZ d   1       0.349  -0.223   1.620  0.00  0.00     0.000 A 
ATOM      5  C5  BNZ d   1       1.479   0.104   0.899  0.00  0.00     0.000 A 
ATOM      6  C6  BNZ d   1       1.359   0.624  -0.370  0.00  0.00     0.000 A 
ENDROOT
TORSDOF 0
ENDMDL
