MODEL 1
REMARK minimizedAffinity -4.37098503
REMARK minimizedRMSD -1
REMARK  0 active torsions:
REMARK  status: ('A' for Active; 'I' for Inactive)
ROOT
ATOM      1  C1  BNZ d   1      -0.185   0.174   0.323  0.00  0.00     0.000 A 
ATOM      2  C2  BNZ d   1       0.481   0.333   1.508  0.00  0.00     0.000 A 
ATOM      3  C3  BNZ d   1      -0.144   0.092   2.700  0.00  0.00     0.000 A 
ATOM      4  C4  BNZ d   1      -1.444  -0.267   2.706  0.00  0.00     0.000 A 
ATOM      5  C5  BNZ d   1      -2.132  -0.422   1.519  0.00  0.00     0.000 A 
ATOM      6  C6  BNZ d   1      -1.488  -0.217   0.320  0.00  0.00     0.000 A 
ENDROOT
TORSDOF 0
ENDMDL
