MODEL 1
REMARK minimizedAffinity -3.93490028
REMARK minimizedRMSD -1
REMARK  0 active torsions:
REMARK  status: ('A' for Active; 'I' for Inactive)
ROOT
ATOM      1  C1  BNZ d   1      -0.552  -0.258   2.616  0.00  0.00     0.000 A 
ATOM      2  C2  BNZ d   1      -1.279  -0.237   1.455  0.00  0.00     0.000 A 
ATOM      3  C3  BNZ d   1      -0.683   0.058   0.261  0.00  0.00     0.000 A 
ATOM      4  C4  BNZ d   1       0.628   0.370   0.234  0.00  0.00     0.000 A 
ATOM      5  C5  BNZ d   1       1.373   0.363   1.396  0.00  0.00     0.000 A 
ATOM      6  C6  BNZ d   1       0.778   0.028   2.591  0.00  0.00     0.000 A 
ENDROOT
TORSDOF 0
ENDMDL
