MODEL 1
REMARK minimizedAffinity -1.92560792
REMARK minimizedRMSD -1
REMARK  0 active torsions:
REMARK  status: ('A' for Active; 'I' for Inactive)
ROOT
ATOM      1  C1  BNZ d   1       0.755  -0.086   2.773  0.00  0.00     0.000 A 
ATOM      2  C2  BNZ d   1       1.502   0.350   1.712  0.00  0.00     0.000 A 
ATOM      3  C3  BNZ d   1       0.995   0.328   0.443  0.00  0.00     0.000 A 
ATOM      4  C4  BNZ d   1      -0.241  -0.167   0.231  0.00  0.00     0.000 A 
ATOM      5  C5  BNZ d   1      -1.003  -0.620   1.290  0.00  0.00     0.000 A 
ATOM      6  C6  BNZ d   1      -0.504  -0.560   2.571  0.00  0.00     0.000 A 
ENDROOT
TORSDOF 0
ENDMDL
