MODEL 1
REMARK minimizedAffinity -2.55528259
REMARK minimizedRMSD -1
REMARK  0 active torsions:
REMARK  status: ('A' for Active; 'I' for Inactive)
ROOT
ATOM      1  C1  BNZ d   1      -1.706   0.209  -0.019  0.00  0.00     0.000 A 
ATOM      2  C2  BNZ d   1      -1.288   0.172   1.285  0.00  0.00     0.000 A 
ATOM      3  C3  BNZ d   1       0.017   0.418   1.609  0.00  0.00     0.000 A 
ATOM      4  C4  BNZ d   1       0.910   0.659   0.627  0.00  0.00     0.000 A 
ATOM      5  C5  BNZ d   1       0.506   0.690  -0.693  0.00  0.00     0.000 A 
ATOM      6  C6  BNZ d   1      -0.817   0.481  -1.012  0.00  0.00     0.000 A 
ENDROOT
TORSDOF 0
ENDMDL
