MODEL 1
REMARK minimizedAffinity -4.01932335
REMARK minimizedRMSD -1
REMARK  0 active torsions:
REMARK  status: ('A' for Active; 'I' for Inactive)
ROOT
ATOM      1  C1  BNZ d   1       1.004   0.444   2.170  0.00  0.00     0.000 A 
ATOM      2  C2  BNZ d   1       0.014  -0.167   2.893  0.00  0.00     0.000 A 
ATOM      3  C3  BNZ d   1      -1.050  -0.754   2.267  0.00  0.00     0.000 A 
ATOM      4  C4  BNZ d   1      -1.143  -0.696   0.923  0.00  0.00     0.000 A 
ATOM      5  C5  BNZ d   1      -0.158  -0.076   0.181  0.00  0.00     0.000 A 
ATOM      6  C6  BNZ d   1       0.931   0.480   0.812  0.00  0.00     0.000 A 
ENDROOT
TORSDOF 0
ENDMDL
