MODEL 1
REMARK minimizedAffinity -2.81020951
REMARK minimizedRMSD -1
REMARK  0 active torsions:
REMARK  status: ('A' for Active; 'I' for Inactive)
ROOT
ATOM      1  C1  BNZ d   1       0.626   0.088   3.074  0.00  0.00     0.000 A 
ATOM      2  C2  BNZ d   1      -0.653  -0.401   3.095  0.00  0.00     0.000 A 
ATOM      3  C3  BNZ d   1      -1.295  -0.732   1.934  0.00  0.00     0.000 A 
ATOM      4  C4  BNZ d   1      -0.674  -0.536   0.754  0.00  0.00     0.000 A 
ATOM      5  C5  BNZ d   1       0.612  -0.034   0.716  0.00  0.00     0.000 A 
ATOM      6  C6  BNZ d   1       1.270   0.261   1.888  0.00  0.00     0.000 A 
ENDROOT
TORSDOF 0
ENDMDL
