MODEL 1
REMARK minimizedAffinity -3.14342546
REMARK minimizedRMSD -1
REMARK  0 active torsions:
REMARK  status: ('A' for Active; 'I' for Inactive)
ROOT
ATOM      1  C1  BNZ d   1      -1.297   0.222   0.003  0.00  0.00     0.000 A 
ATOM      2  C2  BNZ d   1       0.023  -0.019   0.276  0.00  0.00     0.000 A 
ATOM      3  C3  BNZ d   1       0.421  -0.404   1.526  0.00  0.00     0.000 A 
ATOM      4  C4  BNZ d   1      -0.495  -0.507   2.510  0.00  0.00     0.000 A 
ATOM      5  C5  BNZ d   1      -1.828  -0.258   2.253  0.00  0.00     0.000 A 
ATOM      6  C6  BNZ d   1      -2.230   0.091   0.984  0.00  0.00     0.000 A 
ENDROOT
TORSDOF 0
ENDMDL
