MODEL 1
REMARK minimizedAffinity -4.02747536
REMARK minimizedRMSD -1
REMARK  0 active torsions:
REMARK  status: ('A' for Active; 'I' for Inactive)
ROOT
ATOM      1  C1  BNZ d   1       0.975  -0.200  -0.109  0.00  0.00     0.000 A 
ATOM      2  C2  BNZ d   1       1.187  -0.574   1.191  0.00  0.00     0.000 A 
ATOM      3  C3  BNZ d   1       0.140  -0.717   2.058  0.00  0.00     0.000 A 
ATOM      4  C4  BNZ d   1      -1.112  -0.449   1.635  0.00  0.00     0.000 A 
ATOM      5  C5  BNZ d   1      -1.341  -0.062   0.329  0.00  0.00     0.000 A 
ATOM      6  C6  BNZ d   1      -0.289   0.043  -0.551  0.00  0.00     0.000 A 
ENDROOT
TORSDOF 0
ENDMDL
