MODEL 1
REMARK minimizedAffinity -1.46561468
REMARK minimizedRMSD -1
REMARK  0 active torsions:
REMARK  status: ('A' for Active; 'I' for Inactive)
ROOT
ATOM      1  C1  BNZ d   1       0.756   0.408  -0.393  0.00  0.00     0.000 A 
ATOM      2  C2  BNZ d   1       0.917  -0.338   0.743  0.00  0.00     0.000 A 
ATOM      3  C3  BNZ d   1      -0.122  -1.063   1.258  0.00  0.00     0.000 A 
ATOM      4  C4  BNZ d   1      -1.329  -1.008   0.658  0.00  0.00     0.000 A 
ATOM      5  C5  BNZ d   1      -1.509  -0.253  -0.483  0.00  0.00     0.000 A 
ATOM      6  C6  BNZ d   1      -0.451   0.444  -1.020  0.00  0.00     0.000 A 
ENDROOT
TORSDOF 0
ENDMDL
