MODEL 1
REMARK minimizedAffinity 7.68728924
REMARK minimizedRMSD -1
REMARK  0 active torsions:
REMARK  status: ('A' for Active; 'I' for Inactive)
ROOT
ATOM      1  O1  BZF d   1      -2.315   2.927   2.400  0.00  0.00    -0.204 OA
ATOM      2  C2  BZF d   1      -2.497   3.349   3.703  0.00  0.00     0.174 A 
ATOM      3  C3  BZF d   1      -1.335   3.785   4.232  0.00  0.00    -0.012 A 
ATOM      4  C3A BZF d   1      -0.385   3.712   3.164  0.00  0.00    -0.107 A 
ATOM      5  C4  BZF d   1       0.940   4.025   3.064  0.00  0.00     0.055 A 
ATOM      6  C5  BZF d   1       1.594   3.767   1.901  0.00  0.00    -0.016 A 
ATOM      7  C6  BZF d   1       0.955   3.193   0.821  0.00  0.00     0.022 A 
ATOM      8  C7  BZF d   1      -0.361   2.871   0.871  0.00  0.00     0.029 A 
ATOM      9  C7A BZF d   1      -1.032   3.161   2.034  0.00  0.00     0.058 A 
ENDROOT
TORSDOF 0
ENDMDL
