MODEL 1
REMARK minimizedAffinity 7.5809803
REMARK minimizedRMSD -1
REMARK  0 active torsions:
REMARK  status: ('A' for Active; 'I' for Inactive)
ROOT
ATOM      1  O1  BZF d   1      -1.161   2.932   1.091  0.00  0.00    -0.204 OA
ATOM      2  C2  BZF d   1       0.180   3.253   1.177  0.00  0.00     0.174 A 
ATOM      3  C3  BZF d   1       0.948   2.183   0.887  0.00  0.00    -0.012 A 
ATOM      4  C3A BZF d   1       0.030   1.151   0.513  0.00  0.00    -0.107 A 
ATOM      5  C4  BZF d   1       0.187  -0.142   0.103  0.00  0.00     0.055 A 
ATOM      6  C5  BZF d   1      -0.916  -0.904  -0.115  0.00  0.00    -0.016 A 
ATOM      7  C6  BZF d   1      -2.190  -0.409   0.072  0.00  0.00     0.022 A 
ATOM      8  C7  BZF d   1      -2.396   0.870   0.472  0.00  0.00     0.029 A 
ATOM      9  C7A BZF d   1      -1.284   1.653   0.662  0.00  0.00     0.058 A 
ENDROOT
TORSDOF 0
ENDMDL
