MODEL 1
REMARK minimizedAffinity 6.32754993
REMARK minimizedRMSD -1
REMARK  0 active torsions:
REMARK  status: ('A' for Active; 'I' for Inactive)
ROOT
ATOM      1  O1  BZF d   1      -2.008   2.951   0.898  0.00  0.00    -0.204 OA
ATOM      2  C2  BZF d   1      -1.953   2.783  -0.472  0.00  0.00     0.174 A 
ATOM      3  C3  BZF d   1      -0.696   2.494  -0.868  0.00  0.00    -0.012 A 
ATOM      4  C3A BZF d   1       0.064   2.390   0.340  0.00  0.00    -0.107 A 
ATOM      5  C4  BZF d   1       1.374   2.107   0.603  0.00  0.00     0.055 A 
ATOM      6  C5  BZF d   1       1.816   2.157   1.887  0.00  0.00    -0.016 A 
ATOM      7  C6  BZF d   1       0.977   2.491   2.930  0.00  0.00     0.022 A 
ATOM      8  C7  BZF d   1      -0.331   2.775   2.719  0.00  0.00     0.029 A 
ATOM      9  C7A BZF d   1      -0.788   2.693   1.427  0.00  0.00     0.058 A 
ENDROOT
TORSDOF 0
ENDMDL
