MODEL 1
REMARK minimizedAffinity 0.750680983
REMARK minimizedRMSD -1
REMARK  0 active torsions:
REMARK  status: ('A' for Active; 'I' for Inactive)
ROOT
ATOM      1  O1  BZF d   1      -2.495   4.697  -5.627  0.00  0.00    -0.204 OA
ATOM      2  C2  BZF d   1      -1.635   5.742  -5.905  0.00  0.00     0.174 A 
ATOM      3  C3  BZF d   1      -0.364   5.303  -5.997  0.00  0.00    -0.012 A 
ATOM      4  C3A BZF d   1      -0.444   3.882  -5.854  0.00  0.00    -0.107 A 
ATOM      5  C4  BZF d   1       0.485   2.882  -5.872  0.00  0.00     0.055 A 
ATOM      6  C5  BZF d   1       0.088   1.605  -5.628  0.00  0.00    -0.016 A 
ATOM      7  C6  BZF d   1      -1.229   1.294  -5.359  0.00  0.00     0.022 A 
ATOM      8  C7  BZF d   1      -2.188   2.251  -5.335  0.00  0.00     0.029 A 
ATOM      9  C7A BZF d   1      -1.795   3.537  -5.613  0.00  0.00     0.058 A 
ENDROOT
TORSDOF 0
ENDMDL
