MODEL 1
REMARK minimizedAffinity 2.05247569
REMARK minimizedRMSD -1
REMARK  0 active torsions:
REMARK  status: ('A' for Active; 'I' for Inactive)
ROOT
ATOM      1  O1  BZF d   1       0.550  -0.068   0.561  0.00  0.00    -0.204 OA
ATOM      2  C2  BZF d   1      -0.765   0.204   0.887  0.00  0.00     0.174 A 
ATOM      3  C3  BZF d   1      -1.340   0.982  -0.052  0.00  0.00    -0.012 A 
ATOM      4  C3A BZF d   1      -0.349   1.135  -1.073  0.00  0.00    -0.107 A 
ATOM      5  C4  BZF d   1      -0.330   1.787  -2.273  0.00  0.00     0.055 A 
ATOM      6  C5  BZF d   1       0.820   1.802  -2.998  0.00  0.00    -0.016 A 
ATOM      7  C6  BZF d   1       1.968   1.180  -2.552  0.00  0.00     0.022 A 
ATOM      8  C7  BZF d   1       1.996   0.517  -1.371  0.00  0.00     0.029 A 
ATOM      9  C7A BZF d   1       0.827   0.472  -0.651  0.00  0.00     0.058 A 
ENDROOT
TORSDOF 0
ENDMDL
