MODEL 1
REMARK minimizedAffinity -0.956828535
REMARK minimizedRMSD -1
REMARK  0 active torsions:
REMARK  status: ('A' for Active; 'I' for Inactive)
ROOT
ATOM      1  O1  BZF d   1      -1.755   1.878   1.343  0.00  0.00    -0.204 OA
ATOM      2  C2  BZF d   1      -1.012   3.030   1.173  0.00  0.00     0.174 A 
ATOM      3  C3  BZF d   1       0.290   2.735   0.980  0.00  0.00    -0.012 A 
ATOM      4  C3A BZF d   1       0.350   1.306   0.941  0.00  0.00    -0.107 A 
ATOM      5  C4  BZF d   1       1.369   0.414   0.761  0.00  0.00     0.055 A 
ATOM      6  C5  BZF d   1       1.105  -0.916   0.850  0.00  0.00    -0.016 A 
ATOM      7  C6  BZF d   1      -0.162  -1.389   1.123  0.00  0.00     0.022 A 
ATOM      8  C7  BZF d   1      -1.205  -0.542   1.304  0.00  0.00     0.029 A 
ATOM      9  C7A BZF d   1      -0.948   0.801   1.182  0.00  0.00     0.058 A 
ENDROOT
TORSDOF 0
ENDMDL
