MODEL 1
REMARK minimizedAffinity -5.26402187
REMARK minimizedRMSD -1
REMARK  0 active torsions:
REMARK  status: ('A' for Active; 'I' for Inactive)
ROOT
ATOM      1  O1  BZF d   1      -0.442  -1.891   0.659  0.00  0.00    -0.204 OA
ATOM      2  C2  BZF d   1      -0.702  -3.030  -0.079  0.00  0.00     0.174 A 
ATOM      3  C3  BZF d   1       0.055  -3.060  -1.194  0.00  0.00    -0.012 A 
ATOM      4  C3A BZF d   1       0.904  -1.911  -1.105  0.00  0.00    -0.107 A 
ATOM      5  C4  BZF d   1       1.887  -1.406  -1.906  0.00  0.00     0.055 A 
ATOM      6  C5  BZF d   1       2.472  -0.226  -1.569  0.00  0.00    -0.016 A 
ATOM      7  C6  BZF d   1       2.095   0.476  -0.444  0.00  0.00     0.022 A 
ATOM      8  C7  BZF d   1       1.128   0.012   0.384  0.00  0.00     0.029 A 
ATOM      9  C7A BZF d   1       0.558  -1.196   0.065  0.00  0.00     0.058 A 
ENDROOT
TORSDOF 0
ENDMDL
