MODEL 1
REMARK minimizedAffinity 0.747811198
REMARK minimizedRMSD -1
REMARK  0 active torsions:
REMARK  status: ('A' for Active; 'I' for Inactive)
ROOT
ATOM      1  O1  BZF d   1       3.772  -3.982  -3.154  0.00  0.00    -0.204 OA
ATOM      2  C2  BZF d   1       3.692  -2.621  -3.375  0.00  0.00     0.174 A 
ATOM      3  C3  BZF d   1       2.410  -2.239  -3.550  0.00  0.00    -0.012 A 
ATOM      4  C3A BZF d   1       1.633  -3.421  -3.338  0.00  0.00    -0.107 A 
ATOM      5  C4  BZF d   1       0.292  -3.680  -3.358  0.00  0.00     0.055 A 
ATOM      6  C5  BZF d   1      -0.137  -4.957  -3.183  0.00  0.00    -0.016 A 
ATOM      7  C6  BZF d   1       0.745  -6.000  -2.992  0.00  0.00     0.022 A 
ATOM      8  C7  BZF d   1       2.084  -5.792  -2.959  0.00  0.00     0.029 A 
ATOM      9  C7A BZF d   1       2.520  -4.497  -3.103  0.00  0.00     0.058 A 
ENDROOT
TORSDOF 0
ENDMDL
