MODEL 1
REMARK minimizedAffinity -1.51043546
REMARK minimizedRMSD -1
REMARK  0 active torsions:
REMARK  status: ('A' for Active; 'I' for Inactive)
ROOT
ATOM      1  O1  BZF d   1      -0.342   3.608  -5.720  0.00  0.00    -0.204 OA
ATOM      2  C2  BZF d   1      -0.626   2.285  -5.998  0.00  0.00     0.174 A 
ATOM      3  C3  BZF d   1      -1.957   2.070  -5.996  0.00  0.00    -0.012 A 
ATOM      4  C3A BZF d   1      -2.546   3.357  -5.789  0.00  0.00    -0.107 A 
ATOM      5  C4  BZF d   1      -3.836   3.797  -5.704  0.00  0.00     0.055 A 
ATOM      6  C5  BZF d   1      -4.070   5.106  -5.423  0.00  0.00    -0.016 A 
ATOM      7  C6  BZF d   1      -3.040   6.000  -5.215  0.00  0.00     0.022 A 
ATOM      8  C7  BZF d   1      -1.744   5.611  -5.293  0.00  0.00     0.029 A 
ATOM      9  C7A BZF d   1      -1.504   4.297  -5.610  0.00  0.00     0.058 A 
ENDROOT
TORSDOF 0
ENDMDL
