MODEL 1
REMARK minimizedAffinity 3.99009895
REMARK minimizedRMSD -1
REMARK  0 active torsions:
REMARK  status: ('A' for Active; 'I' for Inactive)
ROOT
ATOM      1  O1  BZF d   1       5.351   3.329  -4.404  0.00  0.00    -0.204 OA
ATOM      2  C2  BZF d   1       5.235   4.110  -5.537  0.00  0.00     0.174 A 
ATOM      3  C3  BZF d   1       3.968   4.096  -6.000  0.00  0.00    -0.012 A 
ATOM      4  C3A BZF d   1       3.227   3.328  -5.046  0.00  0.00    -0.107 A 
ATOM      5  C4  BZF d   1       1.913   2.971  -4.946  0.00  0.00     0.055 A 
ATOM      6  C5  BZF d   1       1.527   2.154  -3.931  0.00  0.00    -0.016 A 
ATOM      7  C6  BZF d   1       2.427   1.672  -3.004  0.00  0.00     0.022 A 
ATOM      8  C7  BZF d   1       3.740   2.002  -3.060  0.00  0.00     0.029 A 
ATOM      9  C7A BZF d   1       4.128   2.855  -4.065  0.00  0.00     0.058 A 
ENDROOT
TORSDOF 0
ENDMDL
