MODEL 1
REMARK minimizedAffinity 0.418587655
REMARK minimizedRMSD -1
REMARK  0 active torsions:
REMARK  status: ('A' for Active; 'I' for Inactive)
ROOT
ATOM      1  O1  BZF d   1       2.328   0.692   1.109  0.00  0.00    -0.204 OA
ATOM      2  C2  BZF d   1       2.822   1.788   1.790  0.00  0.00     0.174 A 
ATOM      3  C3  BZF d   1       1.851   2.702   1.991  0.00  0.00    -0.012 A 
ATOM      4  C3A BZF d   1       0.656   2.102   1.481  0.00  0.00    -0.107 A 
ATOM      5  C4  BZF d   1      -0.644   2.512   1.410  0.00  0.00     0.055 A 
ATOM      6  C5  BZF d   1      -1.554   1.719   0.785  0.00  0.00    -0.016 A 
ATOM      7  C6  BZF d   1      -1.197   0.513   0.217  0.00  0.00     0.022 A 
ATOM      8  C7  BZF d   1       0.080   0.062   0.267  0.00  0.00     0.029 A 
ATOM      9  C7A BZF d   1       0.995   0.846   0.927  0.00  0.00     0.058 A 
ENDROOT
TORSDOF 0
ENDMDL
