MODEL 1
REMARK minimizedAffinity 1.83504999
REMARK minimizedRMSD -1
REMARK  0 active torsions:
REMARK  status: ('A' for Active; 'I' for Inactive)
ROOT
ATOM      1  O1  BZF d   1       1.442   1.221   0.898  0.00  0.00    -0.204 OA
ATOM      2  C2  BZF d   1       1.841  -0.055   0.551  0.00  0.00     0.174 A 
ATOM      3  C3  BZF d   1       0.771  -0.852   0.347  0.00  0.00    -0.012 A 
ATOM      4  C3A BZF d   1      -0.367   0.003   0.491  0.00  0.00    -0.107 A 
ATOM      5  C4  BZF d   1      -1.713  -0.201   0.389  0.00  0.00     0.055 A 
ATOM      6  C5  BZF d   1      -2.560   0.826   0.662  0.00  0.00    -0.016 A 
ATOM      7  C6  BZF d   1      -2.096   2.068   1.043  0.00  0.00     0.022 A 
ATOM      8  C7  BZF d   1      -0.769   2.320   1.153  0.00  0.00     0.029 A 
ATOM      9  C7A BZF d   1       0.090   1.293   0.847  0.00  0.00     0.058 A 
ENDROOT
TORSDOF 0
ENDMDL
