MODEL 1
REMARK minimizedAffinity 1.00866091
REMARK minimizedRMSD -1
REMARK  0 active torsions:
REMARK  status: ('A' for Active; 'I' for Inactive)
ROOT
ATOM      1  O1  BZF d   1      -3.709   2.147  -5.931  0.00  0.00    -0.204 OA
ATOM      2  C2  BZF d   1      -2.343   2.352  -5.928  0.00  0.00     0.174 A 
ATOM      3  C3  BZF d   1      -2.056   3.668  -5.996  0.00  0.00    -0.012 A 
ATOM      4  C3A BZF d   1      -3.323   4.332  -5.952  0.00  0.00    -0.107 A 
ATOM      5  C4  BZF d   1      -3.695   5.645  -5.969  0.00  0.00     0.055 A 
ATOM      6  C5  BZF d   1      -5.018   5.957  -5.989  0.00  0.00    -0.016 A 
ATOM      7  C6  BZF d   1      -5.993   4.981  -5.997  0.00  0.00     0.022 A 
ATOM      8  C7  BZF d   1      -5.673   3.665  -5.975  0.00  0.00     0.029 A 
ATOM      9  C7A BZF d   1      -4.337   3.347  -5.922  0.00  0.00     0.058 A 
ENDROOT
TORSDOF 0
ENDMDL
