MODEL 1
REMARK minimizedAffinity 3.354846
REMARK minimizedRMSD -1
REMARK  0 active torsions:
REMARK  status: ('A' for Active; 'I' for Inactive)
ROOT
ATOM      1  O1  BZF d   1       1.639   1.588   0.906  0.00  0.00    -0.204 OA
ATOM      2  C2  BZF d   1       2.206   0.379   0.551  0.00  0.00     0.174 A 
ATOM      3  C3  BZF d   1       1.279  -0.600   0.541  0.00  0.00    -0.012 A 
ATOM      4  C3A BZF d   1       0.038   0.054   0.823  0.00  0.00    -0.107 A 
ATOM      5  C4  BZF d   1      -1.251  -0.384   0.933  0.00  0.00     0.055 A 
ATOM      6  C5  BZF d   1      -2.220   0.498   1.292  0.00  0.00    -0.016 A 
ATOM      7  C6  BZF d   1      -1.936   1.823   1.552  0.00  0.00     0.022 A 
ATOM      8  C7  BZF d   1      -0.674   2.305   1.451  0.00  0.00     0.029 A 
ATOM      9  C7A BZF d   1       0.303   1.423   1.057  0.00  0.00     0.058 A 
ENDROOT
TORSDOF 0
ENDMDL
