MODEL 1
REMARK minimizedAffinity -0.555891633
REMARK minimizedRMSD -1
REMARK  0 active torsions:
REMARK  status: ('A' for Active; 'I' for Inactive)
ROOT
ATOM      1  O1  BZF d   1       2.966   1.810   1.743  0.00  0.00    -0.204 OA
ATOM      2  C2  BZF d   1       3.069   3.024   2.395  0.00  0.00     0.174 A 
ATOM      3  C3  BZF d   1       1.894   3.685   2.362  0.00  0.00    -0.012 A 
ATOM      4  C3A BZF d   1       0.976   2.790   1.726  0.00  0.00    -0.107 A 
ATOM      5  C4  BZF d   1      -0.352   2.871   1.416  0.00  0.00     0.055 A 
ATOM      6  C5  BZF d   1      -0.932   1.853   0.728  0.00  0.00    -0.016 A 
ATOM      7  C6  BZF d   1      -0.215   0.744   0.330  0.00  0.00     0.022 A 
ATOM      8  C7  BZF d   1       1.103   0.617   0.618  0.00  0.00     0.029 A 
ATOM      9  C7A BZF d   1       1.685   1.629   1.342  0.00  0.00     0.058 A 
ENDROOT
TORSDOF 0
ENDMDL
