MODEL 1
REMARK minimizedAffinity 4.67551136
REMARK minimizedRMSD -1
REMARK  0 active torsions:
REMARK  status: ('A' for Active; 'I' for Inactive)
ROOT
ATOM      1  O1  BZF d   1      -1.978   1.036   0.648  0.00  0.00    -0.204 OA
ATOM      2  C2  BZF d   1      -2.019   2.415   0.701  0.00  0.00     0.174 A 
ATOM      3  C3  BZF d   1      -0.773   2.931   0.727  0.00  0.00    -0.012 A 
ATOM      4  C3A BZF d   1       0.102   1.806   0.595  0.00  0.00    -0.107 A 
ATOM      5  C4  BZF d   1       1.460   1.675   0.538  0.00  0.00     0.055 A 
ATOM      6  C5  BZF d   1       2.001   0.430   0.481  0.00  0.00    -0.016 A 
ATOM      7  C6  BZF d   1       1.216  -0.704   0.483  0.00  0.00     0.022 A 
ATOM      8  C7  BZF d   1      -0.136  -0.624   0.533  0.00  0.00     0.029 A 
ATOM      9  C7A BZF d   1      -0.687   0.633   0.558  0.00  0.00     0.058 A 
ENDROOT
TORSDOF 0
ENDMDL
