MODEL 1
REMARK minimizedAffinity 4.5786705
REMARK minimizedRMSD -1
REMARK  0 active torsions:
REMARK  status: ('A' for Active; 'I' for Inactive)
ROOT
ATOM      1  O1  BZF d   1      -0.706  -3.147  -2.337  0.00  0.00    -0.204 OA
ATOM      2  C2  BZF d   1      -1.847  -3.492  -1.638  0.00  0.00     0.174 A 
ATOM      3  C3  BZF d   1      -1.930  -2.798  -0.485  0.00  0.00    -0.012 A 
ATOM      4  C3A BZF d   1      -0.817  -1.899  -0.505  0.00  0.00    -0.107 A 
ATOM      5  C4  BZF d   1      -0.368  -0.940   0.357  0.00  0.00     0.055 A 
ATOM      6  C5  BZF d   1       0.792  -0.291   0.077  0.00  0.00    -0.016 A 
ATOM      7  C6  BZF d   1       1.531  -0.578  -1.052  0.00  0.00     0.022 A 
ATOM      8  C7  BZF d   1       1.124  -1.518  -1.939  0.00  0.00     0.029 A 
ATOM      9  C7A BZF d   1      -0.065  -2.153  -1.676  0.00  0.00     0.058 A 
ENDROOT
TORSDOF 0
ENDMDL
