MODEL 1
REMARK minimizedAffinity 4.38342571
REMARK minimizedRMSD -1
REMARK  0 active torsions:
REMARK  status: ('A' for Active; 'I' for Inactive)
ROOT
ATOM      1  O1  BZF d   1      -1.376   2.918   1.859  0.00  0.00    -0.204 OA
ATOM      2  C2  BZF d   1      -2.194   2.127   1.076  0.00  0.00     0.174 A 
ATOM      3  C3  BZF d   1      -1.488   1.130   0.503  0.00  0.00    -0.012 A 
ATOM      4  C3A BZF d   1      -0.164   1.255   1.030  0.00  0.00    -0.107 A 
ATOM      5  C4  BZF d   1       0.989   0.545   0.852  0.00  0.00     0.055 A 
ATOM      6  C5  BZF d   1       2.128   0.973   1.456  0.00  0.00    -0.016 A 
ATOM      7  C6  BZF d   1       2.152   2.107   2.241  0.00  0.00     0.022 A 
ATOM      8  C7  BZF d   1       1.033   2.841   2.452  0.00  0.00     0.029 A 
ATOM      9  C7A BZF d   1      -0.127   2.393   1.869  0.00  0.00     0.058 A 
ENDROOT
TORSDOF 0
ENDMDL
