MODEL 1
REMARK minimizedAffinity 1.26046884
REMARK minimizedRMSD -1
REMARK  0 active torsions:
REMARK  status: ('A' for Active; 'I' for Inactive)
ROOT
ATOM      1  C   UNL d   1       0.098  -2.314   0.084  0.00  0.00     0.078 C 
ATOM      2  C1  UNL d   1       0.973  -2.783   1.208  0.00  0.00    -0.077 A 
ATOM      3  C2  UNL d   1       1.609  -4.029   1.155  0.00  0.00    -0.001 A 
ATOM      4  C3  UNL d   1       2.413  -4.457   2.213  0.00  0.00     0.003 A 
ATOM      5  C4  UNL d   1       2.587  -3.645   3.332  0.00  0.00    -0.005 A 
ATOM      6  C5  UNL d   1       1.955  -2.404   3.395  0.00  0.00     0.003 A 
ATOM      7  C6  UNL d   1       1.151  -1.975   2.338  0.00  0.00    -0.001 A 
ENDROOT
TORSDOF 0
ENDMDL
