MODEL 1
REMARK minimizedAffinity 0.30335924
REMARK minimizedRMSD -1
REMARK  0 active torsions:
REMARK  status: ('A' for Active; 'I' for Inactive)
ROOT
ATOM      1  C   UNL d   1       4.159  -5.999  -1.795  0.00  0.00     0.078 C 
ATOM      2  C1  UNL d   1       3.832  -5.978  -3.258  0.00  0.00    -0.077 A 
ATOM      3  C2  UNL d   1       2.503  -6.000  -3.700  0.00  0.00    -0.001 A 
ATOM      4  C3  UNL d   1       2.213  -5.990  -5.065  0.00  0.00     0.003 A 
ATOM      5  C4  UNL d   1       3.247  -5.959  -6.000  0.00  0.00    -0.005 A 
ATOM      6  C5  UNL d   1       4.572  -5.939  -5.569  0.00  0.00     0.003 A 
ATOM      7  C6  UNL d   1       4.864  -5.949  -4.205  0.00  0.00    -0.001 A 
ENDROOT
TORSDOF 0
ENDMDL
