MODEL 1
REMARK minimizedAffinity -0.795404911
REMARK minimizedRMSD -1
REMARK  0 active torsions:
REMARK  status: ('A' for Active; 'I' for Inactive)
ROOT
ATOM      1  C   UNL d   1       2.170  -0.490   2.814  0.00  0.00     0.078 C 
ATOM      2  C1  UNL d   1       2.375  -1.868   3.369  0.00  0.00    -0.077 A 
ATOM      3  C2  UNL d   1       1.314  -2.779   3.447  0.00  0.00    -0.001 A 
ATOM      4  C3  UNL d   1       1.517  -4.055   3.975  0.00  0.00     0.003 A 
ATOM      5  C4  UNL d   1       2.779  -4.430   4.432  0.00  0.00    -0.005 A 
ATOM      6  C5  UNL d   1       3.840  -3.530   4.361  0.00  0.00     0.003 A 
ATOM      7  C6  UNL d   1       3.639  -2.253   3.833  0.00  0.00    -0.001 A 
ENDROOT
TORSDOF 0
ENDMDL
