MODEL 1
REMARK minimizedAffinity -4.70604992
REMARK minimizedRMSD -1
REMARK  0 active torsions:
REMARK  status: ('A' for Active; 'I' for Inactive)
ROOT
ATOM      1  C   UNL d   1       1.477  -1.552   4.010  0.00  0.00     0.078 C 
ATOM      2  C1  UNL d   1       1.440  -2.658   2.997  0.00  0.00    -0.077 A 
ATOM      3  C2  UNL d   1       0.815  -2.479   1.757  0.00  0.00    -0.001 A 
ATOM      4  C3  UNL d   1       0.780  -3.520   0.828  0.00  0.00     0.003 A 
ATOM      5  C4  UNL d   1       1.369  -4.747   1.129  0.00  0.00    -0.005 A 
ATOM      6  C5  UNL d   1       1.992  -4.934   2.361  0.00  0.00     0.003 A 
ATOM      7  C6  UNL d   1       2.027  -3.895   3.292  0.00  0.00    -0.001 A 
ENDROOT
TORSDOF 0
ENDMDL
