MODEL 1
REMARK minimizedAffinity 5.21287155
REMARK minimizedRMSD -1
REMARK  0 active torsions:
REMARK  status: ('A' for Active; 'I' for Inactive)
ROOT
ATOM      1  C   UNL d   1       1.633  -1.309   2.538  0.00  0.00     0.078 C 
ATOM      2  C1  UNL d   1       2.125   0.079   2.254  0.00  0.00    -0.077 A 
ATOM      3  C2  UNL d   1       2.005   1.096   3.208  0.00  0.00    -0.001 A 
ATOM      4  C3  UNL d   1       2.459   2.386   2.926  0.00  0.00     0.003 A 
ATOM      5  C4  UNL d   1       3.035   2.670   1.690  0.00  0.00    -0.005 A 
ATOM      6  C5  UNL d   1       3.157   1.665   0.733  0.00  0.00     0.003 A 
ATOM      7  C6  UNL d   1       2.704   0.375   1.013  0.00  0.00    -0.001 A 
ENDROOT
TORSDOF 0
ENDMDL
