MODEL 1
REMARK minimizedAffinity 10.1927223
REMARK minimizedRMSD -1
REMARK  0 active torsions:
REMARK  status: ('A' for Active; 'I' for Inactive)
ROOT
ATOM      1  C   UNL d   1      -6.000   1.894   0.019  0.00  0.00     0.078 C 
ATOM      2  C1  UNL d   1      -5.123   1.932  -1.197  0.00  0.00    -0.077 A 
ATOM      3  C2  UNL d   1      -5.633   2.322  -2.441  0.00  0.00    -0.001 A 
ATOM      4  C3  UNL d   1      -4.807   2.344  -3.567  0.00  0.00     0.003 A 
ATOM      5  C4  UNL d   1      -3.468   1.975  -3.459  0.00  0.00    -0.005 A 
ATOM      6  C5  UNL d   1      -2.952   1.584  -2.225  0.00  0.00     0.003 A 
ATOM      7  C6  UNL d   1      -3.776   1.562  -1.099  0.00  0.00    -0.001 A 
ENDROOT
TORSDOF 0
ENDMDL
