MODEL 1
REMARK minimizedAffinity 2.44718909
REMARK minimizedRMSD -1
REMARK  0 active torsions:
REMARK  status: ('A' for Active; 'I' for Inactive)
ROOT
ATOM      1  C   UNL d   1       3.248  -4.705   4.507  0.00  0.00     0.078 C 
ATOM      2  C1  UNL d   1       2.484  -3.776   3.611  0.00  0.00    -0.077 A 
ATOM      3  C2  UNL d   1       2.349  -2.418   3.926  0.00  0.00    -0.001 A 
ATOM      4  C3  UNL d   1       1.627  -1.567   3.088  0.00  0.00     0.003 A 
ATOM      5  C4  UNL d   1       1.034  -2.064   1.930  0.00  0.00    -0.005 A 
ATOM      6  C5  UNL d   1       1.160  -3.414   1.609  0.00  0.00     0.003 A 
ATOM      7  C6  UNL d   1       1.882  -4.266   2.445  0.00  0.00    -0.001 A 
ENDROOT
TORSDOF 0
ENDMDL
