MODEL 1
REMARK minimizedAffinity 4.06249905
REMARK minimizedRMSD -1
REMARK  0 active torsions:
REMARK  status: ('A' for Active; 'I' for Inactive)
ROOT
ATOM      1  C   UNL d   1       5.292  -2.421   4.532  0.00  0.00     0.078 C 
ATOM      2  C1  UNL d   1       3.871  -2.045   4.233  0.00  0.00    -0.077 A 
ATOM      3  C2  UNL d   1       3.526  -1.438   3.019  0.00  0.00    -0.001 A 
ATOM      4  C3  UNL d   1       2.201  -1.084   2.758  0.00  0.00     0.003 A 
ATOM      5  C4  UNL d   1       1.211  -1.332   3.707  0.00  0.00    -0.005 A 
ATOM      6  C5  UNL d   1       1.545  -1.934   4.918  0.00  0.00     0.003 A 
ATOM      7  C6  UNL d   1       2.869  -2.288   5.181  0.00  0.00    -0.001 A 
ENDROOT
TORSDOF 0
ENDMDL
