MODEL 1
REMARK minimizedAffinity 8.62071705
REMARK minimizedRMSD -1
REMARK  0 active torsions:
REMARK  status: ('A' for Active; 'I' for Inactive)
ROOT
ATOM      1  C   UNL d   1      -3.787  -2.362  -3.920  0.00  0.00     0.078 C 
ATOM      2  C1  UNL d   1      -3.598  -0.959  -3.423  0.00  0.00    -0.077 A 
ATOM      3  C2  UNL d   1      -4.514   0.049  -3.745  0.00  0.00    -0.001 A 
ATOM      4  C3  UNL d   1      -4.320   1.353  -3.284  0.00  0.00     0.003 A 
ATOM      5  C4  UNL d   1      -3.210   1.659  -2.500  0.00  0.00    -0.005 A 
ATOM      6  C5  UNL d   1      -2.292   0.663  -2.176  0.00  0.00     0.003 A 
ATOM      7  C6  UNL d   1      -2.484  -0.641  -2.636  0.00  0.00    -0.001 A 
ENDROOT
TORSDOF 0
ENDMDL
