MODEL 1
REMARK minimizedAffinity -1.21457446
REMARK minimizedRMSD -1
REMARK  0 active torsions:
REMARK  status: ('A' for Active; 'I' for Inactive)
ROOT
ATOM      1  C   UNL d   1       5.640  -5.980  -5.269  0.00  0.00     0.078 C 
ATOM      2  C1  UNL d   1       4.750  -5.993  -4.063  0.00  0.00    -0.077 A 
ATOM      3  C2  UNL d   1       3.356  -5.988  -4.195  0.00  0.00    -0.001 A 
ATOM      4  C3  UNL d   1       2.540  -5.991  -3.062  0.00  0.00     0.003 A 
ATOM      5  C4  UNL d   1       3.108  -5.997  -1.790  0.00  0.00    -0.005 A 
ATOM      6  C5  UNL d   1       4.494  -6.000  -1.649  0.00  0.00     0.003 A 
ATOM      7  C6  UNL d   1       5.312  -5.997  -2.780  0.00  0.00    -0.001 A 
ENDROOT
TORSDOF 0
ENDMDL
