MODEL 1
REMARK minimizedAffinity -1.14776158
REMARK minimizedRMSD -1
REMARK  0 active torsions:
REMARK  status: ('A' for Active; 'I' for Inactive)
ROOT
ATOM      1  C   UNL d   1       1.512   2.239   0.534  0.00  0.00     0.077 C 
ATOM      2  C1  UNL d   1       1.431   0.769   0.247  0.00  0.00    -0.074 A 
ATOM      3  C2  UNL d   1       2.585  -0.020   0.203  0.00  0.00    -0.005 A 
ATOM      4  C3  UNL d   1       2.492  -1.387  -0.056  0.00  0.00     0.006 A 
ATOM      5  C4  UNL d   1       1.247  -1.979  -0.273  0.00  0.00    -0.005 A 
ATOM      6  C5  UNL d   1       0.082  -1.206  -0.232  0.00  0.00    -0.074 A 
ATOM      7  C6  UNL d   1      -1.265  -1.828  -0.453  0.00  0.00     0.077 C 
ATOM      8  C7  UNL d   1       0.183   0.166   0.036  0.00  0.00    -0.001 A 
ENDROOT
TORSDOF 0
ENDMDL
