MODEL 1
REMARK minimizedAffinity -2.38466191
REMARK minimizedRMSD -1
REMARK  0 active torsions:
REMARK  status: ('A' for Active; 'I' for Inactive)
ROOT
ATOM      1  C   UNL d   1       2.834  -1.116   0.277  0.00  0.00     0.077 C 
ATOM      2  C1  UNL d   1       1.373  -1.147  -0.062  0.00  0.00    -0.074 A 
ATOM      3  C2  UNL d   1       0.772  -2.313  -0.547  0.00  0.00    -0.005 A 
ATOM      4  C3  UNL d   1      -0.589  -2.329  -0.849  0.00  0.00     0.006 A 
ATOM      5  C4  UNL d   1      -1.363  -1.181  -0.670  0.00  0.00    -0.005 A 
ATOM      6  C5  UNL d   1      -0.779  -0.006  -0.185  0.00  0.00    -0.074 A 
ATOM      7  C6  UNL d   1      -1.598   1.233   0.023  0.00  0.00     0.077 C 
ATOM      8  C7  UNL d   1       0.588  -0.000   0.123  0.00  0.00    -0.001 A 
ENDROOT
TORSDOF 0
ENDMDL
