MODEL 1
REMARK minimizedAffinity -4.16372776
REMARK minimizedRMSD -1
REMARK  0 active torsions:
REMARK  status: ('A' for Active; 'I' for Inactive)
ROOT
ATOM      1  C   UNL d   1      -1.069  -2.376  -2.433  0.00  0.00     0.077 C 
ATOM      2  C1  UNL d   1      -0.364  -1.460  -1.478  0.00  0.00    -0.074 A 
ATOM      3  C2  UNL d   1      -1.007  -0.334  -0.955  0.00  0.00    -0.005 A 
ATOM      4  C3  UNL d   1      -0.341   0.504  -0.060  0.00  0.00     0.006 A 
ATOM      5  C4  UNL d   1       0.972   0.225   0.319  0.00  0.00    -0.005 A 
ATOM      6  C5  UNL d   1       1.631  -0.897  -0.193  0.00  0.00    -0.074 A 
ATOM      7  C6  UNL d   1       3.040  -1.217   0.212  0.00  0.00     0.077 C 
ATOM      8  C7  UNL d   1       0.953  -1.738  -1.086  0.00  0.00    -0.001 A 
ENDROOT
TORSDOF 0
ENDMDL
