MODEL 1
REMARK minimizedAffinity -0.982300937
REMARK minimizedRMSD -1
REMARK  0 active torsions:
REMARK  status: ('A' for Active; 'I' for Inactive)
ROOT
ATOM      1  C   UNL d   1      -1.170   0.415  -0.547  0.00  0.00     0.077 C 
ATOM      2  C1  UNL d   1       0.142  -0.309  -0.471  0.00  0.00    -0.074 A 
ATOM      3  C2  UNL d   1       0.202  -1.702  -0.587  0.00  0.00    -0.005 A 
ATOM      4  C3  UNL d   1       1.430  -2.360  -0.524  0.00  0.00     0.006 A 
ATOM      5  C4  UNL d   1       2.608  -1.634  -0.344  0.00  0.00    -0.005 A 
ATOM      6  C5  UNL d   1       2.567  -0.242  -0.227  0.00  0.00    -0.074 A 
ATOM      7  C6  UNL d   1       3.825   0.555  -0.043  0.00  0.00     0.077 C 
ATOM      8  C7  UNL d   1       1.330   0.414  -0.298  0.00  0.00    -0.001 A 
ENDROOT
TORSDOF 0
ENDMDL
