MODEL 1
REMARK minimizedAffinity -2.56310177
REMARK minimizedRMSD -1
REMARK  0 active torsions:
REMARK  status: ('A' for Active; 'I' for Inactive)
ROOT
ATOM      1  C   UNL d   1      -3.604   0.027   1.168  0.00  0.00     0.077 C 
ATOM      2  C1  UNL d   1      -2.251   0.139   0.531  0.00  0.00    -0.074 A 
ATOM      3  C2  UNL d   1      -1.818   1.344  -0.032  0.00  0.00    -0.005 A 
ATOM      4  C3  UNL d   1      -0.553   1.435  -0.613  0.00  0.00     0.006 A 
ATOM      5  C4  UNL d   1       0.290   0.323  -0.637  0.00  0.00    -0.005 A 
ATOM      6  C5  UNL d   1      -0.125  -0.890  -0.079  0.00  0.00    -0.074 A 
ATOM      7  C6  UNL d   1       0.773  -2.091  -0.088  0.00  0.00     0.077 C 
ATOM      8  C7  UNL d   1      -1.394  -0.971   0.509  0.00  0.00    -0.001 A 
ENDROOT
TORSDOF 0
ENDMDL
