MODEL 1
REMARK minimizedAffinity -2.58748412
REMARK minimizedRMSD -1
REMARK  0 active torsions:
REMARK  status: ('A' for Active; 'I' for Inactive)
ROOT
ATOM      1  C   UNL d   1       1.501  -1.561  -0.285  0.00  0.00     0.077 C 
ATOM      2  C1  UNL d   1       0.718  -0.283  -0.248  0.00  0.00    -0.074 A 
ATOM      3  C2  UNL d   1       1.345   0.937   0.024  0.00  0.00    -0.005 A 
ATOM      4  C3  UNL d   1       0.606   2.120   0.045  0.00  0.00     0.006 A 
ATOM      5  C4  UNL d   1      -0.767   2.094  -0.204  0.00  0.00    -0.005 A 
ATOM      6  C5  UNL d   1      -1.412   0.884  -0.479  0.00  0.00    -0.074 A 
ATOM      7  C6  UNL d   1      -2.885   0.840  -0.759  0.00  0.00     0.077 C 
ATOM      8  C7  UNL d   1      -0.660  -0.299  -0.505  0.00  0.00    -0.001 A 
ENDROOT
TORSDOF 0
ENDMDL
