MODEL 1
REMARK minimizedAffinity -3.91346049
REMARK minimizedRMSD -1
REMARK  0 active torsions:
REMARK  status: ('A' for Active; 'I' for Inactive)
ROOT
ATOM      1  C   UNL d   1      -1.337   0.726  -0.014  0.00  0.00     0.077 C 
ATOM      2  C1  UNL d   1       0.074   0.222  -0.067  0.00  0.00    -0.074 A 
ATOM      3  C2  UNL d   1       0.345  -1.140  -0.236  0.00  0.00    -0.005 A 
ATOM      4  C3  UNL d   1       1.663  -1.593  -0.292  0.00  0.00     0.006 A 
ATOM      5  C4  UNL d   1       2.722  -0.690  -0.182  0.00  0.00    -0.005 A 
ATOM      6  C5  UNL d   1       2.470   0.675  -0.014  0.00  0.00    -0.074 A 
ATOM      7  C6  UNL d   1       3.596   1.660   0.097  0.00  0.00     0.077 C 
ATOM      8  C7  UNL d   1       1.143   1.123   0.035  0.00  0.00    -0.001 A 
ENDROOT
TORSDOF 0
ENDMDL
