MODEL 1
REMARK minimizedAffinity -2.99111748
REMARK minimizedRMSD -1
REMARK  0 active torsions:
REMARK  status: ('A' for Active; 'I' for Inactive)
ROOT
ATOM      1  C   UNL d   1       3.962  -1.418   0.200  0.00  0.00     0.077 C 
ATOM      2  C1  UNL d   1       2.550  -1.098  -0.193  0.00  0.00    -0.074 A 
ATOM      3  C2  UNL d   1       1.999   0.160   0.070  0.00  0.00    -0.005 A 
ATOM      4  C3  UNL d   1       0.687   0.446  -0.309  0.00  0.00     0.006 A 
ATOM      5  C4  UNL d   1      -0.084  -0.521  -0.955  0.00  0.00    -0.005 A 
ATOM      6  C5  UNL d   1       0.451  -1.784  -1.227  0.00  0.00    -0.074 A 
ATOM      7  C6  UNL d   1      -0.361  -2.832  -1.929  0.00  0.00     0.077 C 
ATOM      8  C7  UNL d   1       1.772  -2.062  -0.849  0.00  0.00    -0.001 A 
ENDROOT
TORSDOF 0
ENDMDL
