MODEL 1
REMARK minimizedAffinity 11.6035728
REMARK minimizedRMSD -1
REMARK  2 active torsions:
REMARK  status: ('A' for Active; 'I' for Inactive)
REMARK    1  A    between atoms: C2'_3  and  C1'_4 
REMARK    2  A    between atoms: C1'_4  and  C1_5 
ROOT
ATOM      1  C1  I4B d   1       3.971   2.156   4.478  0.00  0.00    -0.075 A 
ATOM      2  C2  I4B d   1       4.602   1.820   3.306  0.00  0.00     0.003 A 
ATOM      3  C3  I4B d   1       4.876   0.464   3.008  0.00  0.00     0.002 A 
ATOM      4  C4  I4B d   1       4.549  -0.514   3.926  0.00  0.00    -0.004 A 
ATOM      5  C5  I4B d   1       3.888  -0.173   5.102  0.00  0.00     0.002 A 
ATOM      6  C6  I4B d   1       3.586   1.169   5.375  0.00  0.00     0.003 A 
ENDROOT
BRANCH   1   7
ATOM      7  C1' I4B d   1       3.727   3.602   4.776  0.00  0.00     0.060 C 
BRANCH   7   8
ATOM      8  C2' I4B d   1       4.556   3.975   5.988  0.00  0.00    -0.013 C 
ATOM      9  C4' I4B d   1       5.872   3.243   5.994  0.00  0.00     0.013 C 
ATOM     10  C3' I4B d   1       4.763   5.460   5.968  0.00  0.00     0.013 C 
ENDBRANCH   7   8
ENDBRANCH   1   7
TORSDOF 2
ENDMDL
