MODEL 1
REMARK minimizedAffinity 6.2080431
REMARK minimizedRMSD -1
REMARK  2 active torsions:
REMARK  status: ('A' for Active; 'I' for Inactive)
REMARK    1  A    between atoms: C2'_3  and  C1'_4 
REMARK    2  A    between atoms: C1'_4  and  C1_5 
ROOT
ATOM      1  C1  I4B d   1      -2.023  -2.130  -0.275  0.00  0.00    -0.075 A 
ATOM      2  C2  I4B d   1      -1.080  -3.109  -0.087  0.00  0.00     0.003 A 
ATOM      3  C3  I4B d   1      -0.719  -3.509   1.223  0.00  0.00     0.002 A 
ATOM      4  C4  I4B d   1      -1.286  -2.872   2.308  0.00  0.00    -0.004 A 
ATOM      5  C5  I4B d   1      -2.260  -1.896   2.115  0.00  0.00     0.002 A 
ATOM      6  C6  I4B d   1      -2.640  -1.531   0.815  0.00  0.00     0.003 A 
ENDROOT
BRANCH   1   7
ATOM      7  C1' I4B d   1      -2.356  -1.710  -1.672  0.00  0.00     0.060 C 
BRANCH   7   8
ATOM      8  C2' I4B d   1      -1.527  -2.549  -2.622  0.00  0.00    -0.013 C 
ATOM      9  C4' I4B d   1      -2.395  -3.229  -3.649  0.00  0.00     0.013 C 
ATOM     10  C3' I4B d   1      -0.519  -1.651  -3.275  0.00  0.00     0.013 C 
ENDBRANCH   7   8
ENDBRANCH   1   7
TORSDOF 2
ENDMDL
