MODEL 1
REMARK minimizedAffinity 11.0328922
REMARK minimizedRMSD -1
REMARK  2 active torsions:
REMARK  status: ('A' for Active; 'I' for Inactive)
REMARK    1  A    between atoms: C2'_3  and  C1'_4 
REMARK    2  A    between atoms: C1'_4  and  C1_5 
ROOT
ATOM      1  C1  I4B d   1      -1.340  -1.762   1.866  0.00  0.00    -0.075 A 
ATOM      2  C2  I4B d   1      -2.350  -1.853   0.941  0.00  0.00     0.003 A 
ATOM      3  C3  I4B d   1      -2.485  -3.017   0.146  0.00  0.00     0.002 A 
ATOM      4  C4  I4B d   1      -1.565  -4.038   0.273  0.00  0.00    -0.004 A 
ATOM      5  C5  I4B d   1      -0.556  -3.953   1.228  0.00  0.00     0.002 A 
ATOM      6  C6  I4B d   1      -0.450  -2.814   2.038  0.00  0.00     0.003 A 
ENDROOT
BRANCH   1   7
ATOM      7  C1' I4B d   1      -1.207  -0.505   2.666  0.00  0.00     0.060 C 
BRANCH   7   8
ATOM      8  C2' I4B d   1      -1.595  -0.818   4.097  0.00  0.00    -0.013 C 
ATOM      9  C4' I4B d   1      -0.445  -1.431   4.852  0.00  0.00     0.013 C 
ATOM     10  C3' I4B d   1      -2.050   0.456   4.743  0.00  0.00     0.013 C 
ENDBRANCH   7   8
ENDBRANCH   1   7
TORSDOF 2
ENDMDL
