MODEL 1
REMARK minimizedAffinity -0.720439553
REMARK minimizedRMSD -1
REMARK  2 active torsions:
REMARK  status: ('A' for Active; 'I' for Inactive)
REMARK    1  A    between atoms: C2'_3  and  C1'_4 
REMARK    2  A    between atoms: C1'_4  and  C1_5 
ROOT
ATOM      1  C1  I4B d   1      -1.812  -2.476  -0.079  0.00  0.00    -0.075 A 
ATOM      2  C2  I4B d   1      -1.598  -3.829   0.020  0.00  0.00     0.003 A 
ATOM      3  C3  I4B d   1      -0.912  -4.363   1.137  0.00  0.00     0.002 A 
ATOM      4  C4  I4B d   1      -0.416  -3.509   2.102  0.00  0.00    -0.004 A 
ATOM      5  C5  I4B d   1      -0.655  -2.141   2.012  0.00  0.00     0.002 A 
ATOM      6  C6  I4B d   1      -1.367  -1.622   0.922  0.00  0.00     0.003 A 
ENDROOT
BRANCH   1   7
ATOM      7  C1' I4B d   1      -2.511  -1.943  -1.289  0.00  0.00     0.060 C 
BRANCH   7   8
ATOM      8  C2' I4B d   1      -1.853  -2.548  -2.512  0.00  0.00    -0.013 C 
ATOM      9  C4' I4B d   1      -2.838  -2.705  -3.640  0.00  0.00     0.013 C 
ATOM     10  C3' I4B d   1      -0.711  -1.661  -2.910  0.00  0.00     0.013 C 
ENDBRANCH   7   8
ENDBRANCH   1   7
TORSDOF 2
ENDMDL
