MODEL 1
REMARK minimizedAffinity 8.66384697
REMARK minimizedRMSD -1
REMARK  2 active torsions:
REMARK  status: ('A' for Active; 'I' for Inactive)
REMARK    1  A    between atoms: C2'_3  and  C1'_4 
REMARK    2  A    between atoms: C1'_4  and  C1_5 
ROOT
ATOM      1  C1  I4B d   1      -0.897  -2.350   1.977  0.00  0.00    -0.075 A 
ATOM      2  C2  I4B d   1      -1.681  -1.387   1.392  0.00  0.00     0.003 A 
ATOM      3  C3  I4B d   1      -2.266  -1.618   0.124  0.00  0.00     0.002 A 
ATOM      4  C4  I4B d   1      -2.001  -2.797  -0.542  0.00  0.00    -0.004 A 
ATOM      5  C5  I4B d   1      -1.225  -3.781   0.062  0.00  0.00     0.002 A 
ATOM      6  C6  I4B d   1      -0.679  -3.562   1.336  0.00  0.00     0.003 A 
ENDROOT
BRANCH   1   7
ATOM      7  C1' I4B d   1      -0.268  -2.059   3.303  0.00  0.00     0.060 C 
BRANCH   7   8
ATOM      8  C2' I4B d   1      -1.380  -1.836   4.308  0.00  0.00    -0.013 C 
ATOM      9  C4' I4B d   1      -1.379  -2.904   5.369  0.00  0.00     0.013 C 
ATOM     10  C3' I4B d   1      -1.193  -0.475   4.910  0.00  0.00     0.013 C 
ENDBRANCH   7   8
ENDBRANCH   1   7
TORSDOF 2
ENDMDL
