MODEL 1
REMARK minimizedAffinity 6.79930449
REMARK minimizedRMSD -1
REMARK  2 active torsions:
REMARK  status: ('A' for Active; 'I' for Inactive)
REMARK    1  A    between atoms: C2'_3  and  C1'_4 
REMARK    2  A    between atoms: C1'_4  and  C1_5 
ROOT
ATOM      1  C1  I4B d   1      -1.771  -2.076  -0.124  0.00  0.00    -0.075 A 
ATOM      2  C2  I4B d   1      -1.155  -3.302  -0.091  0.00  0.00     0.003 A 
ATOM      3  C3  I4B d   1      -0.467  -3.723   1.072  0.00  0.00     0.002 A 
ATOM      4  C4  I4B d   1      -0.378  -2.872   2.155  0.00  0.00    -0.004 A 
ATOM      5  C5  I4B d   1      -1.023  -1.639   2.129  0.00  0.00     0.002 A 
ATOM      6  C6  I4B d   1      -1.734  -1.243   0.987  0.00  0.00     0.003 A 
ENDROOT
BRANCH   1   7
ATOM      7  C1' I4B d   1      -2.460  -1.648  -1.381  0.00  0.00     0.060 C 
BRANCH   7   8
ATOM      8  C2' I4B d   1      -1.827  -2.395  -2.537  0.00  0.00    -0.013 C 
ATOM      9  C4' I4B d   1      -2.862  -2.817  -3.546  0.00  0.00     0.013 C 
ATOM     10  C3' I4B d   1      -0.799  -1.498  -3.159  0.00  0.00     0.013 C 
ENDBRANCH   7   8
ENDBRANCH   1   7
TORSDOF 2
ENDMDL
