MODEL 1
REMARK minimizedAffinity 12.1691313
REMARK minimizedRMSD -1
REMARK  2 active torsions:
REMARK  status: ('A' for Active; 'I' for Inactive)
REMARK    1  A    between atoms: C2'_3  and  C1'_4 
REMARK    2  A    between atoms: C1'_4  and  C1_5 
ROOT
ATOM      1  C1  I4B d   1      -0.528  -3.262   1.873  0.00  0.00    -0.075 A 
ATOM      2  C2  I4B d   1      -0.717  -3.005   0.538  0.00  0.00     0.003 A 
ATOM      3  C3  I4B d   1      -1.424  -1.849   0.128  0.00  0.00     0.002 A 
ATOM      4  C4  I4B d   1      -1.965  -1.010   1.080  0.00  0.00    -0.004 A 
ATOM      5  C5  I4B d   1      -1.754  -1.259   2.433  0.00  0.00     0.002 A 
ATOM      6  C6  I4B d   1      -1.020  -2.386   2.832  0.00  0.00     0.003 A 
ENDROOT
BRANCH   1   7
ATOM      7  C1' I4B d   1       0.195  -4.509   2.272  0.00  0.00     0.060 C 
BRANCH   7   8
ATOM      8  C2' I4B d   1      -0.539  -5.117   3.450  0.00  0.00    -0.013 C 
ATOM      9  C4' I4B d   1      -1.747  -5.894   2.998  0.00  0.00     0.013 C 
ATOM     10  C3' I4B d   1       0.424  -5.997   4.191  0.00  0.00     0.013 C 
ENDBRANCH   7   8
ENDBRANCH   1   7
TORSDOF 2
ENDMDL
