MODEL 1
REMARK minimizedAffinity 16.5808258
REMARK minimizedRMSD -1
REMARK  2 active torsions:
REMARK  status: ('A' for Active; 'I' for Inactive)
REMARK    1  A    between atoms: C2'_3  and  C1'_4 
REMARK    2  A    between atoms: C1'_4  and  C1_5 
ROOT
ATOM      1  C1  I4B d   1      -1.050  -1.279  -0.058  0.00  0.00    -0.075 A 
ATOM      2  C2  I4B d   1      -1.356  -0.597   1.093  0.00  0.00     0.003 A 
ATOM      3  C3  I4B d   1      -1.398  -1.276   2.335  0.00  0.00     0.002 A 
ATOM      4  C4  I4B d   1      -1.178  -2.638   2.372  0.00  0.00    -0.004 A 
ATOM      5  C5  I4B d   1      -0.846  -3.324   1.207  0.00  0.00     0.002 A 
ATOM      6  C6  I4B d   1      -0.769  -2.639  -0.014  0.00  0.00     0.003 A 
ENDROOT
BRANCH   1   7
ATOM      7  C1' I4B d   1      -1.048  -0.537  -1.357  0.00  0.00     0.060 C 
BRANCH   7   8
ATOM      8  C2' I4B d   1       0.152  -1.001  -2.157  0.00  0.00    -0.013 C 
ATOM      9  C4' I4B d   1      -0.257  -1.479  -3.525  0.00  0.00     0.013 C 
ATOM     10  C3' I4B d   1       1.117   0.143  -2.249  0.00  0.00     0.013 C 
ENDBRANCH   7   8
ENDBRANCH   1   7
TORSDOF 2
ENDMDL
