MODEL 1
REMARK minimizedAffinity 12.6691046
REMARK minimizedRMSD -1
REMARK  2 active torsions:
REMARK  status: ('A' for Active; 'I' for Inactive)
REMARK    1  A    between atoms: C2'_3  and  C1'_4 
REMARK    2  A    between atoms: C1'_4  and  C1_5 
ROOT
ATOM      1  C1  I4B d   1      -0.872  -1.887   1.397  0.00  0.00    -0.075 A 
ATOM      2  C2  I4B d   1      -0.748  -2.243   2.717  0.00  0.00     0.003 A 
ATOM      3  C3  I4B d   1      -1.004  -1.296   3.738  0.00  0.00     0.002 A 
ATOM      4  C4  I4B d   1      -1.329   0.001   3.396  0.00  0.00    -0.004 A 
ATOM      5  C5  I4B d   1      -1.475   0.355   2.058  0.00  0.00     0.002 A 
ATOM      6  C6  I4B d   1      -1.258  -0.598   1.052  0.00  0.00     0.003 A 
ENDROOT
BRANCH   1   7
ATOM      7  C1' I4B d   1      -0.562  -2.903   0.344  0.00  0.00     0.060 C 
BRANCH   7   8
ATOM      8  C2' I4B d   1      -1.088  -4.242   0.819  0.00  0.00    -0.013 C 
ATOM      9  C4' I4B d   1      -1.077  -5.258  -0.292  0.00  0.00     0.013 C 
ATOM     10  C3' I4B d   1      -0.240  -4.691   1.971  0.00  0.00     0.013 C 
ENDBRANCH   7   8
ENDBRANCH   1   7
TORSDOF 2
ENDMDL
