MODEL 1
REMARK minimizedAffinity -3.82479835
REMARK minimizedRMSD -1
REMARK  0 active torsions:
REMARK  status: ('A' for Active; 'I' for Inactive)
ROOT
ATOM      1  C   UNL d   1      -2.712  -0.490   0.143  0.00  0.00     0.077 C 
ATOM      2  C1  UNL d   1      -1.268  -0.650   0.516  0.00  0.00    -0.074 A 
ATOM      3  C2  UNL d   1      -0.872  -1.589   1.473  0.00  0.00    -0.005 A 
ATOM      4  C3  UNL d   1       0.476  -1.733   1.803  0.00  0.00     0.006 A 
ATOM      5  C4  UNL d   1       1.440  -0.939   1.179  0.00  0.00    -0.005 A 
ATOM      6  C5  UNL d   1       1.063   0.005   0.219  0.00  0.00    -0.074 A 
ATOM      7  C6  UNL d   1       2.087   0.859  -0.468  0.00  0.00     0.077 C 
ATOM      8  C7  UNL d   1      -0.292   0.138  -0.112  0.00  0.00    -0.001 A 
ENDROOT
TORSDOF 0
ENDMDL
