MODEL 1
REMARK minimizedAffinity -0.742624581
REMARK minimizedRMSD -1
REMARK  0 active torsions:
REMARK  status: ('A' for Active; 'I' for Inactive)
ROOT
ATOM      1  C   UNL d   1       4.345   4.418  -0.715  0.00  0.00     0.077 C 
ATOM      2  C1  UNL d   1       3.629   3.666   0.368  0.00  0.00    -0.074 A 
ATOM      3  C2  UNL d   1       3.451   4.229   1.636  0.00  0.00    -0.005 A 
ATOM      4  C3  UNL d   1       2.774   3.522   2.631  0.00  0.00     0.006 A 
ATOM      5  C4  UNL d   1       2.270   2.248   2.368  0.00  0.00    -0.005 A 
ATOM      6  C5  UNL d   1       2.438   1.670   1.105  0.00  0.00    -0.074 A 
ATOM      7  C6  UNL d   1       1.894   0.305   0.803  0.00  0.00     0.077 C 
ATOM      8  C7  UNL d   1       3.112   2.389   0.109  0.00  0.00    -0.001 A 
ENDROOT
TORSDOF 0
ENDMDL
