MODEL 1
REMARK minimizedAffinity -4.09769344
REMARK minimizedRMSD -1
REMARK  0 active torsions:
REMARK  status: ('A' for Active; 'I' for Inactive)
ROOT
ATOM      1  C   UNL d   1       1.770   0.056   0.210  0.00  0.00     0.077 C 
ATOM      2  C1  UNL d   1       2.285   1.426   0.533  0.00  0.00    -0.074 A 
ATOM      3  C2  UNL d   1       2.127   1.971   1.812  0.00  0.00    -0.005 A 
ATOM      4  C3  UNL d   1       2.620   3.243   2.100  0.00  0.00     0.006 A 
ATOM      5  C4  UNL d   1       3.274   3.983   1.115  0.00  0.00    -0.005 A 
ATOM      6  C5  UNL d   1       3.442   3.455  -0.169  0.00  0.00    -0.074 A 
ATOM      7  C6  UNL d   1       4.152   4.234  -1.237  0.00  0.00     0.077 C 
ATOM      8  C7  UNL d   1       2.950   2.173  -0.449  0.00  0.00    -0.001 A 
ENDROOT
TORSDOF 0
ENDMDL
