MODEL 1
REMARK minimizedAffinity -3.84808087
REMARK minimizedRMSD -1
REMARK  0 active torsions:
REMARK  status: ('A' for Active; 'I' for Inactive)
ROOT
ATOM      1  C   UNL d   1      -2.276  -1.445  -2.699  0.00  0.00     0.077 C 
ATOM      2  C1  UNL d   1      -2.035  -0.890  -1.327  0.00  0.00    -0.074 A 
ATOM      3  C2  UNL d   1      -3.052  -0.880  -0.367  0.00  0.00    -0.005 A 
ATOM      4  C3  UNL d   1      -2.810  -0.369   0.909  0.00  0.00     0.006 A 
ATOM      5  C4  UNL d   1      -1.551   0.136   1.236  0.00  0.00    -0.005 A 
ATOM      6  C5  UNL d   1      -0.522   0.134   0.289  0.00  0.00    -0.074 A 
ATOM      7  C6  UNL d   1       0.839   0.665   0.628  0.00  0.00     0.077 C 
ATOM      8  C7  UNL d   1      -0.771  -0.387  -0.988  0.00  0.00    -0.001 A 
ENDROOT
TORSDOF 0
ENDMDL
