MODEL 1
REMARK minimizedAffinity -4.65634394
REMARK minimizedRMSD -1
REMARK  0 active torsions:
REMARK  status: ('A' for Active; 'I' for Inactive)
ROOT
ATOM      1  C   UNL d   1       0.954   0.049   0.378  0.00  0.00     0.077 C 
ATOM      2  C1  UNL d   1       1.784   0.995   1.193  0.00  0.00    -0.074 A 
ATOM      3  C2  UNL d   1       1.824   2.360   0.891  0.00  0.00    -0.005 A 
ATOM      4  C3  UNL d   1       2.593   3.229   1.664  0.00  0.00     0.006 A 
ATOM      5  C4  UNL d   1       3.330   2.743   2.745  0.00  0.00    -0.005 A 
ATOM      6  C5  UNL d   1       3.303   1.381   3.062  0.00  0.00    -0.074 A 
ATOM      7  C6  UNL d   1       4.081   0.844   4.226  0.00  0.00     0.077 C 
ATOM      8  C7  UNL d   1       2.521   0.515   2.285  0.00  0.00    -0.001 A 
ENDROOT
TORSDOF 0
ENDMDL
