MODEL 1
REMARK minimizedAffinity -3.29399204
REMARK minimizedRMSD -1
REMARK  0 active torsions:
REMARK  status: ('A' for Active; 'I' for Inactive)
ROOT
ATOM      1  C   UNL d   1       1.410  -0.120   0.061  0.00  0.00     0.077 C 
ATOM      2  C1  UNL d   1       2.058   1.145   0.539  0.00  0.00    -0.074 A 
ATOM      3  C2  UNL d   1       2.149   1.435   1.904  0.00  0.00    -0.005 A 
ATOM      4  C3  UNL d   1       2.763   2.611   2.334  0.00  0.00     0.006 A 
ATOM      5  C4  UNL d   1       3.291   3.508   1.405  0.00  0.00    -0.005 A 
ATOM      6  C5  UNL d   1       3.210   3.235   0.036  0.00  0.00    -0.074 A 
ATOM      7  C6  UNL d   1       3.782   4.183  -0.976  0.00  0.00     0.077 C 
ATOM      8  C7  UNL d   1       2.598   2.047  -0.388  0.00  0.00    -0.001 A 
ENDROOT
TORSDOF 0
ENDMDL
