MODEL 1
REMARK minimizedAffinity -2.30888748
REMARK minimizedRMSD -1
REMARK  0 active torsions:
REMARK  status: ('A' for Active; 'I' for Inactive)
ROOT
ATOM      1  C   UNL d   1      -3.142  -0.628  -0.121  0.00  0.00     0.077 C 
ATOM      2  C1  UNL d   1      -1.720  -0.626   0.357  0.00  0.00    -0.074 A 
ATOM      3  C2  UNL d   1      -1.320  -1.433   1.427  0.00  0.00    -0.005 A 
ATOM      4  C3  UNL d   1       0.008  -1.428   1.854  0.00  0.00     0.006 A 
ATOM      5  C4  UNL d   1       0.948  -0.617   1.216  0.00  0.00    -0.005 A 
ATOM      6  C5  UNL d   1       0.567   0.196   0.144  0.00  0.00    -0.074 A 
ATOM      7  C6  UNL d   1       1.566   1.065  -0.559  0.00  0.00     0.077 C 
ATOM      8  C7  UNL d   1      -0.768   0.180  -0.284  0.00  0.00    -0.001 A 
ENDROOT
TORSDOF 0
ENDMDL
