MODEL 1
REMARK minimizedAffinity -4.88194466
REMARK minimizedRMSD -1
REMARK  0 active torsions:
REMARK  status: ('A' for Active; 'I' for Inactive)
ROOT
ATOM      1  C   UNL d   1      -0.726  -0.387   0.042  0.00  0.00     0.077 C 
ATOM      2  C1  UNL d   1       0.627  -0.172  -0.568  0.00  0.00    -0.074 A 
ATOM      3  C2  UNL d   1       1.672   0.382   0.178  0.00  0.00    -0.005 A 
ATOM      4  C3  UNL d   1       2.928   0.567  -0.400  0.00  0.00     0.006 A 
ATOM      5  C4  UNL d   1       3.150   0.202  -1.728  0.00  0.00    -0.005 A 
ATOM      6  C5  UNL d   1       2.117  -0.354  -2.490  0.00  0.00    -0.074 A 
ATOM      7  C6  UNL d   1       2.342  -0.762  -3.916  0.00  0.00     0.077 C 
ATOM      8  C7  UNL d   1       0.860  -0.544  -1.899  0.00  0.00    -0.001 A 
ENDROOT
TORSDOF 0
ENDMDL
