MODEL 1
REMARK minimizedAffinity 0.0587029085
REMARK minimizedRMSD -1
REMARK  0 active torsions:
REMARK  status: ('A' for Active; 'I' for Inactive)
ROOT
ATOM      1  C   UNL d   1       0.032  -0.718   1.301  0.00  0.00     0.077 C 
ATOM      2  C1  UNL d   1       1.166   0.112   0.775  0.00  0.00    -0.074 A 
ATOM      3  C2  UNL d   1       1.830  -0.243  -0.404  0.00  0.00    -0.005 A 
ATOM      4  C3  UNL d   1       2.876   0.543  -0.886  0.00  0.00     0.006 A 
ATOM      5  C4  UNL d   1       3.269   1.690  -0.195  0.00  0.00    -0.005 A 
ATOM      6  C5  UNL d   1       2.617   2.061   0.985  0.00  0.00    -0.074 A 
ATOM      7  C6  UNL d   1       3.020   3.296   1.735  0.00  0.00     0.077 C 
ATOM      8  C7  UNL d   1       1.561   1.270   1.459  0.00  0.00    -0.001 A 
ENDROOT
TORSDOF 0
ENDMDL
