MODEL 1
REMARK minimizedAffinity 0.776459813
REMARK minimizedRMSD -1
REMARK  0 active torsions:
REMARK  status: ('A' for Active; 'I' for Inactive)
ROOT
ATOM      1  C   UNL d   1      -0.414  -2.775   2.122  0.00  0.00     0.077 C 
ATOM      2  C1  UNL d   1      -0.332  -1.478   1.372  0.00  0.00    -0.074 A 
ATOM      3  C2  UNL d   1      -1.398  -1.036   0.583  0.00  0.00    -0.005 A 
ATOM      4  C3  UNL d   1      -1.311   0.177  -0.102  0.00  0.00     0.006 A 
ATOM      5  C4  UNL d   1      -0.158   0.957  -0.004  0.00  0.00    -0.005 A 
ATOM      6  C5  UNL d   1       0.918   0.531   0.782  0.00  0.00    -0.074 A 
ATOM      7  C6  UNL d   1       2.160   1.363   0.906  0.00  0.00     0.077 C 
ATOM      8  C7  UNL d   1       0.820  -0.685   1.472  0.00  0.00    -0.001 A 
ENDROOT
TORSDOF 0
ENDMDL
