MODEL 1
REMARK minimizedAffinity -3.43849969
REMARK minimizedRMSD -1
REMARK  0 active torsions:
REMARK  status: ('A' for Active; 'I' for Inactive)
ROOT
ATOM      1  C   UNL d   1       2.004  -0.034  -2.488  0.00  0.00     0.077 C 
ATOM      2  C1  UNL d   1       1.004  -0.335  -1.411  0.00  0.00    -0.074 A 
ATOM      3  C2  UNL d   1       1.359  -0.263  -0.060  0.00  0.00    -0.005 A 
ATOM      4  C3  UNL d   1       0.416  -0.537   0.930  0.00  0.00     0.006 A 
ATOM      5  C4  UNL d   1      -0.890  -0.883   0.580  0.00  0.00    -0.005 A 
ATOM      6  C5  UNL d   1      -1.264  -0.959  -0.765  0.00  0.00    -0.074 A 
ATOM      7  C6  UNL d   1      -2.665  -1.320  -1.158  0.00  0.00     0.077 C 
ATOM      8  C7  UNL d   1      -0.312  -0.676  -1.754  0.00  0.00    -0.001 A 
ENDROOT
TORSDOF 0
ENDMDL
