MODEL 1
REMARK minimizedAffinity -4.16098547
REMARK minimizedRMSD -1
REMARK  0 active torsions:
REMARK  status: ('A' for Active; 'I' for Inactive)
ROOT
ATOM      1  C   UNL d   1       2.496  -0.948  -2.885  0.00  0.00     0.077 C 
ATOM      2  C1  UNL d   1       2.344  -0.074  -1.676  0.00  0.00    -0.074 A 
ATOM      3  C2  UNL d   1       1.597  -0.497  -0.572  0.00  0.00    -0.005 A 
ATOM      4  C3  UNL d   1       1.473   0.324   0.549  0.00  0.00     0.006 A 
ATOM      5  C4  UNL d   1       2.093   1.573   0.578  0.00  0.00    -0.005 A 
ATOM      6  C5  UNL d   1       2.845   2.013  -0.516  0.00  0.00    -0.074 A 
ATOM      7  C6  UNL d   1       3.527   3.349  -0.498  0.00  0.00     0.077 C 
ATOM      8  C7  UNL d   1       2.971   1.180  -1.636  0.00  0.00    -0.001 A 
ENDROOT
TORSDOF 0
ENDMDL
