MODEL 1
REMARK minimizedAffinity -0.127588376
REMARK minimizedRMSD -1
REMARK  0 active torsions:
REMARK  status: ('A' for Active; 'I' for Inactive)
ROOT
ATOM      1  C   UNL d   1       1.836  -0.581  -4.996  0.00  0.00     0.077 C 
ATOM      2  C1  UNL d   1       1.841  -0.408  -3.506  0.00  0.00    -0.074 A 
ATOM      3  C2  UNL d   1       3.031  -0.495  -2.776  0.00  0.00    -0.005 A 
ATOM      4  C3  UNL d   1       3.022  -0.323  -1.392  0.00  0.00     0.006 A 
ATOM      5  C4  UNL d   1       1.825  -0.062  -0.725  0.00  0.00    -0.005 A 
ATOM      6  C5  UNL d   1       0.625   0.029  -1.437  0.00  0.00    -0.074 A 
ATOM      7  C6  UNL d   1      -0.669   0.318  -0.736  0.00  0.00     0.077 C 
ATOM      8  C7  UNL d   1       0.644  -0.138  -2.829  0.00  0.00    -0.001 A 
ENDROOT
TORSDOF 0
ENDMDL
