MODEL 1
REMARK minimizedAffinity -1.20519757
REMARK minimizedRMSD -1
REMARK  0 active torsions:
REMARK  status: ('A' for Active; 'I' for Inactive)
ROOT
ATOM      1  C   UNL d   1       0.567   0.367   0.510  0.00  0.00     0.077 C 
ATOM      2  C1  UNL d   1       1.584   1.345   1.019  0.00  0.00    -0.074 A 
ATOM      3  C2  UNL d   1       1.883   1.428   2.382  0.00  0.00    -0.005 A 
ATOM      4  C3  UNL d   1       2.838   2.336   2.839  0.00  0.00     0.006 A 
ATOM      5  C4  UNL d   1       3.503   3.169   1.938  0.00  0.00    -0.005 A 
ATOM      6  C5  UNL d   1       3.219   3.099   0.571  0.00  0.00    -0.074 A 
ATOM      7  C6  UNL d   1       3.932   3.980  -0.412  0.00  0.00     0.077 C 
ATOM      8  C7  UNL d   1       2.263   2.179   0.119  0.00  0.00    -0.001 A 
ENDROOT
TORSDOF 0
ENDMDL
