MODEL 1
REMARK minimizedAffinity -4.77612162
REMARK minimizedRMSD -1
REMARK  0 active torsions:
REMARK  status: ('A' for Active; 'I' for Inactive)
ROOT
ATOM      1  C   UNL d   1       2.746   2.998   1.382  0.00  0.00     0.077 C 
ATOM      2  C1  UNL d   1       2.350   1.872   0.473  0.00  0.00    -0.074 A 
ATOM      3  C2  UNL d   1       3.246   1.363  -0.473  0.00  0.00    -0.005 A 
ATOM      4  C3  UNL d   1       2.867   0.309  -1.304  0.00  0.00     0.006 A 
ATOM      5  C4  UNL d   1       1.590  -0.245  -1.199  0.00  0.00    -0.005 A 
ATOM      6  C5  UNL d   1       0.682   0.250  -0.259  0.00  0.00    -0.074 A 
ATOM      7  C6  UNL d   1      -0.691  -0.340  -0.126  0.00  0.00     0.077 C 
ATOM      8  C7  UNL d   1       1.072   1.305   0.578  0.00  0.00    -0.001 A 
ENDROOT
TORSDOF 0
ENDMDL
