MODEL 1
REMARK minimizedAffinity -5.10737181
REMARK minimizedRMSD -1
REMARK  0 active torsions:
REMARK  status: ('A' for Active; 'I' for Inactive)
ROOT
ATOM      1  C   UNL d   1       0.778  -0.189   0.387  0.00  0.00     0.077 C 
ATOM      2  C1  UNL d   1       1.616   1.051   0.482  0.00  0.00    -0.074 A 
ATOM      3  C2  UNL d   1       1.852   1.666   1.716  0.00  0.00    -0.005 A 
ATOM      4  C3  UNL d   1       2.641   2.814   1.791  0.00  0.00     0.006 A 
ATOM      5  C4  UNL d   1       3.201   3.358   0.634  0.00  0.00    -0.005 A 
ATOM      6  C5  UNL d   1       2.976   2.757  -0.608  0.00  0.00    -0.074 A 
ATOM      7  C6  UNL d   1       3.579   3.323  -1.860  0.00  0.00     0.077 C 
ATOM      8  C7  UNL d   1       2.188   1.599  -0.674  0.00  0.00    -0.001 A 
ENDROOT
TORSDOF 0
ENDMDL
