MODEL 1
REMARK minimizedAffinity -2.0914011
REMARK minimizedRMSD -1
REMARK  0 active torsions:
REMARK  status: ('A' for Active; 'I' for Inactive)
ROOT
ATOM      1  C   UNL d   1       1.422   0.650   0.211  0.00  0.00     0.077 C 
ATOM      2  C1  UNL d   1       0.272   0.149  -0.611  0.00  0.00    -0.074 A 
ATOM      3  C2  UNL d   1       0.428  -0.122  -1.975  0.00  0.00    -0.005 A 
ATOM      4  C3  UNL d   1      -0.649  -0.596  -2.724  0.00  0.00     0.006 A 
ATOM      5  C4  UNL d   1      -1.889  -0.804  -2.120  0.00  0.00    -0.005 A 
ATOM      6  C5  UNL d   1      -2.063  -0.539  -0.758  0.00  0.00    -0.074 A 
ATOM      7  C6  UNL d   1      -3.387  -0.765  -0.090  0.00  0.00     0.077 C 
ATOM      8  C7  UNL d   1      -0.975  -0.069  -0.010  0.00  0.00    -0.001 A 
ENDROOT
TORSDOF 0
ENDMDL
