MODEL 1
REMARK minimizedAffinity -3.13418579
REMARK minimizedRMSD -1
REMARK  0 active torsions:
REMARK  status: ('A' for Active; 'I' for Inactive)
ROOT
ATOM      1  C   UNL d   1       2.086   2.052   2.236  0.00  0.00    -0.002 A 
ATOM      2  C1  UNL d   1       2.940   1.559   1.259  0.00  0.00     0.010 A 
ATOM      3  C2  UNL d   1       2.476   0.660   0.297  0.00  0.00     0.041 A 
ATOM      4  C3  UNL d   1       1.126   0.262   0.331  0.00  0.00    -0.075 A 
ATOM      5  S   UNL d   1       0.335  -0.828  -0.746  0.00  0.00     0.015 SA
ATOM      6  C4  UNL d   1      -1.155  -0.665   0.064  0.00  0.00     0.022 A 
ATOM      7  C5  UNL d   1      -1.070   0.196   1.133  0.00  0.00     0.026 A 
ATOM      8  C6  UNL d   1       0.245   0.745   1.304  0.00  0.00    -0.082 A 
ATOM      9  C7  UNL d   1       0.746   1.654   2.266  0.00  0.00     0.045 A 
ENDROOT
TORSDOF 0
ENDMDL
