MODEL 1
REMARK minimizedAffinity -0.931921661
REMARK minimizedRMSD -1
REMARK  0 active torsions:
REMARK  status: ('A' for Active; 'I' for Inactive)
ROOT
ATOM      1  C   UNL d   1      -1.024   1.384   2.032  0.00  0.00    -0.002 A 
ATOM      2  C1  UNL d   1       0.145   2.096   2.261  0.00  0.00     0.010 A 
ATOM      3  C2  UNL d   1       1.337   1.726   1.633  0.00  0.00     0.041 A 
ATOM      4  C3  UNL d   1       1.333   0.619   0.762  0.00  0.00    -0.075 A 
ATOM      5  S   UNL d   1       2.673  -0.016  -0.118  0.00  0.00     0.015 SA
ATOM      6  C4  UNL d   1       1.725  -1.247  -0.818  0.00  0.00     0.022 A 
ATOM      7  C5  UNL d   1       0.416  -1.190  -0.402  0.00  0.00     0.026 A 
ATOM      8  C6  UNL d   1       0.168  -0.113   0.515  0.00  0.00    -0.082 A 
ATOM      9  C7  UNL d   1      -1.023   0.286   1.167  0.00  0.00     0.045 A 
ENDROOT
TORSDOF 0
ENDMDL
