MODEL 1
REMARK minimizedAffinity -1.37772942
REMARK minimizedRMSD -1
REMARK  0 active torsions:
REMARK  status: ('A' for Active; 'I' for Inactive)
ROOT
ATOM      1  C   UNL d   1      -3.138  -1.515  -3.044  0.00  0.00    -0.002 A 
ATOM      2  C1  UNL d   1      -2.232  -2.445  -3.533  0.00  0.00     0.010 A 
ATOM      3  C2  UNL d   1      -0.972  -2.583  -2.949  0.00  0.00     0.041 A 
ATOM      4  C3  UNL d   1      -0.634  -1.764  -1.854  0.00  0.00    -0.075 A 
ATOM      5  S   UNL d   1       0.852  -1.757  -0.979  0.00  0.00     0.015 SA
ATOM      6  C4  UNL d   1       0.318  -0.520   0.064  0.00  0.00     0.022 A 
ATOM      7  C5  UNL d   1      -0.960  -0.110  -0.233  0.00  0.00     0.026 A 
ATOM      8  C6  UNL d   1      -1.530  -0.820  -1.343  0.00  0.00    -0.082 A 
ATOM      9  C7  UNL d   1      -2.800  -0.703  -1.958  0.00  0.00     0.045 A 
ENDROOT
TORSDOF 0
ENDMDL
