MODEL 1
REMARK minimizedAffinity -1.89595377
REMARK minimizedRMSD -1
REMARK  0 active torsions:
REMARK  status: ('A' for Active; 'I' for Inactive)
ROOT
ATOM      1  C   UNL d   1       2.176   2.300   1.954  0.00  0.00    -0.002 A 
ATOM      2  C1  UNL d   1       3.019   1.666   1.052  0.00  0.00     0.010 A 
ATOM      3  C2  UNL d   1       2.542   0.638   0.237  0.00  0.00     0.041 A 
ATOM      4  C3  UNL d   1       1.190   0.255   0.343  0.00  0.00    -0.075 A 
ATOM      5  S   UNL d   1       0.385  -0.978  -0.554  0.00  0.00     0.015 SA
ATOM      6  C4  UNL d   1      -1.096  -0.691   0.239  0.00  0.00     0.022 A 
ATOM      7  C5  UNL d   1      -0.997   0.317   1.168  0.00  0.00     0.026 A 
ATOM      8  C6  UNL d   1       0.322   0.879   1.243  0.00  0.00    -0.082 A 
ATOM      9  C7  UNL d   1       0.836   1.918   2.056  0.00  0.00     0.045 A 
ENDROOT
TORSDOF 0
ENDMDL
