MODEL 1
REMARK minimizedAffinity -3.0904367
REMARK minimizedRMSD -1
REMARK  0 active torsions:
REMARK  status: ('A' for Active; 'I' for Inactive)
ROOT
ATOM      1  C   UNL d   1       2.165   2.127   1.570  0.00  0.00    -0.002 A 
ATOM      2  C1  UNL d   1       2.983   1.434   0.689  0.00  0.00     0.010 A 
ATOM      3  C2  UNL d   1       2.477   0.373  -0.065  0.00  0.00     0.041 A 
ATOM      4  C3  UNL d   1       1.121   0.019   0.081  0.00  0.00    -0.075 A 
ATOM      5  S   UNL d   1       0.283  -1.245  -0.740  0.00  0.00     0.015 SA
ATOM      6  C4  UNL d   1      -1.181  -0.894   0.059  0.00  0.00     0.022 A 
ATOM      7  C5  UNL d   1      -1.051   0.159   0.934  0.00  0.00     0.026 A 
ATOM      8  C6  UNL d   1       0.277   0.702   0.961  0.00  0.00    -0.082 A 
ATOM      9  C7  UNL d   1       0.821   1.772   1.712  0.00  0.00     0.045 A 
ENDROOT
TORSDOF 0
ENDMDL
