MODEL 1
REMARK minimizedAffinity -1.64641523
REMARK minimizedRMSD -1
REMARK  0 active torsions:
REMARK  status: ('A' for Active; 'I' for Inactive)
ROOT
ATOM      1  C   UNL d   1      -2.208  -2.140  -2.081  0.00  0.00    -0.002 A 
ATOM      2  C1  UNL d   1      -1.335  -1.459  -2.918  0.00  0.00     0.010 A 
ATOM      3  C2  UNL d   1      -0.389  -0.577  -2.391  0.00  0.00     0.041 A 
ATOM      4  C3  UNL d   1      -0.333  -0.392  -0.996  0.00  0.00    -0.075 A 
ATOM      5  S   UNL d   1       0.744   0.636  -0.126  0.00  0.00     0.015 SA
ATOM      6  C4  UNL d   1       0.071   0.195   1.376  0.00  0.00     0.022 A 
ATOM      7  C5  UNL d   1      -0.952  -0.713   1.237  0.00  0.00     0.026 A 
ATOM      8  C6  UNL d   1      -1.201  -1.067  -0.133  0.00  0.00    -0.082 A 
ATOM      9  C7  UNL d   1      -2.150  -1.953  -0.698  0.00  0.00     0.045 A 
ENDROOT
TORSDOF 0
ENDMDL
