MODEL 1
REMARK minimizedAffinity -3.23132229
REMARK minimizedRMSD -1
REMARK  0 active torsions:
REMARK  status: ('A' for Active; 'I' for Inactive)
ROOT
ATOM      1  C   UNL d   1       0.704  -0.789   0.183  0.00  0.00    -0.002 A 
ATOM      2  C1  UNL d   1       0.712   0.461  -0.421  0.00  0.00     0.010 A 
ATOM      3  C2  UNL d   1      -0.179   0.754  -1.455  0.00  0.00     0.041 A 
ATOM      4  C3  UNL d   1      -1.087  -0.237  -1.875  0.00  0.00    -0.075 A 
ATOM      5  S   UNL d   1      -2.269  -0.103  -3.122  0.00  0.00     0.015 SA
ATOM      6  C4  UNL d   1      -2.813  -1.700  -2.882  0.00  0.00     0.022 A 
ATOM      7  C5  UNL d   1      -2.120  -2.335  -1.879  0.00  0.00     0.026 A 
ATOM      8  C6  UNL d   1      -1.114  -1.503  -1.282  0.00  0.00    -0.082 A 
ATOM      9  C7  UNL d   1      -0.198  -1.770  -0.236  0.00  0.00     0.045 A 
ENDROOT
TORSDOF 0
ENDMDL
