MODEL 1
REMARK minimizedAffinity -2.13557076
REMARK minimizedRMSD -1
REMARK  0 active torsions:
REMARK  status: ('A' for Active; 'I' for Inactive)
ROOT
ATOM      1  C   UNL d   1      -1.015   0.972   1.653  0.00  0.00    -0.002 A 
ATOM      2  C1  UNL d   1      -1.139  -0.056   0.730  0.00  0.00     0.010 A 
ATOM      3  C2  UNL d   1      -0.020  -0.537   0.047  0.00  0.00     0.041 A 
ATOM      4  C3  UNL d   1       1.239   0.038   0.312  0.00  0.00    -0.075 A 
ATOM      5  S   UNL d   1       2.748  -0.389  -0.404  0.00  0.00     0.015 SA
ATOM      6  C4  UNL d   1       3.593   0.783   0.499  0.00  0.00     0.022 A 
ATOM      7  C5  UNL d   1       2.760   1.492   1.332  0.00  0.00     0.026 A 
ATOM      8  C6  UNL d   1       1.389   1.075   1.238  0.00  0.00    -0.082 A 
ATOM      9  C7  UNL d   1       0.236   1.540   1.913  0.00  0.00     0.045 A 
ENDROOT
TORSDOF 0
ENDMDL
