MODEL 1
REMARK minimizedAffinity 2.66322613
REMARK minimizedRMSD -1
REMARK  0 active torsions:
REMARK  status: ('A' for Active; 'I' for Inactive)
ROOT
ATOM      1  C   UNL d   1       2.892   1.382   1.476  0.00  0.00    -0.002 A 
ATOM      2  C1  UNL d   1       3.181   0.600   0.366  0.00  0.00     0.010 A 
ATOM      3  C2  UNL d   1       2.167  -0.091  -0.300  0.00  0.00     0.041 A 
ATOM      4  C3  UNL d   1       0.844   0.019   0.172  0.00  0.00    -0.075 A 
ATOM      5  S   UNL d   1      -0.560  -0.737  -0.484  0.00  0.00     0.015 SA
ATOM      6  C4  UNL d   1      -1.576  -0.039   0.692  0.00  0.00     0.022 A 
ATOM      7  C5  UNL d   1      -0.879   0.754   1.572  0.00  0.00     0.026 A 
ATOM      8  C6  UNL d   1       0.528   0.801   1.287  0.00  0.00    -0.082 A 
ATOM      9  C7  UNL d   1       1.579   1.489   1.940  0.00  0.00     0.045 A 
ENDROOT
TORSDOF 0
ENDMDL
