MODEL 1
REMARK minimizedAffinity -2.54809308
REMARK minimizedRMSD -1
REMARK  0 active torsions:
REMARK  status: ('A' for Active; 'I' for Inactive)
ROOT
ATOM      1  C   UNL d   1       2.928   1.254   1.503  0.00  0.00    -0.002 A 
ATOM      2  C1  UNL d   1       3.255   0.407   0.454  0.00  0.00     0.010 A 
ATOM      3  C2  UNL d   1       2.254  -0.237  -0.277  0.00  0.00     0.041 A 
ATOM      4  C3  UNL d   1       0.907  -0.011   0.066  0.00  0.00    -0.075 A 
ATOM      5  S   UNL d   1      -0.486  -0.691  -0.690  0.00  0.00     0.015 SA
ATOM      6  C4  UNL d   1      -1.548   0.128   0.362  0.00  0.00     0.022 A 
ATOM      7  C5  UNL d   1      -0.873   0.905   1.274  0.00  0.00     0.026 A 
ATOM      8  C6  UNL d   1       0.553   0.838   1.118  0.00  0.00    -0.082 A 
ATOM      9  C7  UNL d   1       1.590   1.475   1.841  0.00  0.00     0.045 A 
ENDROOT
TORSDOF 0
ENDMDL
