MODEL 1
REMARK minimizedAffinity 0.797369778
REMARK minimizedRMSD -1
REMARK  0 active torsions:
REMARK  status: ('A' for Active; 'I' for Inactive)
ROOT
ATOM      1  C   UNL d   1      -0.010   1.877   2.246  0.00  0.00    -0.002 A 
ATOM      2  C1  UNL d   1       1.100   2.178   1.468  0.00  0.00     0.010 A 
ATOM      3  C2  UNL d   1       1.443   1.374   0.379  0.00  0.00     0.041 A 
ATOM      4  C3  UNL d   1       0.643   0.254   0.080  0.00  0.00    -0.075 A 
ATOM      5  S   UNL d   1       0.870  -0.872  -1.206  0.00  0.00     0.015 SA
ATOM      6  C4  UNL d   1      -0.501  -1.778  -0.754  0.00  0.00     0.022 A 
ATOM      7  C5  UNL d   1      -1.129  -1.249   0.349  0.00  0.00     0.026 A 
ATOM      8  C6  UNL d   1      -0.480  -0.069   0.847  0.00  0.00    -0.082 A 
ATOM      9  C7  UNL d   1      -0.801   0.765   1.946  0.00  0.00     0.045 A 
ENDROOT
TORSDOF 0
ENDMDL
