MODEL 1
REMARK minimizedAffinity -1.3724376
REMARK minimizedRMSD -1
REMARK  0 active torsions:
REMARK  status: ('A' for Active; 'I' for Inactive)
ROOT
ATOM      1  C   UNL d   1      -0.764   1.887   1.945  0.00  0.00    -0.002 A 
ATOM      2  C1  UNL d   1      -1.690   0.879   1.715  0.00  0.00     0.010 A 
ATOM      3  C2  UNL d   1      -1.344  -0.243   0.960  0.00  0.00     0.041 A 
ATOM      4  C3  UNL d   1      -0.040  -0.337   0.436  0.00  0.00    -0.075 A 
ATOM      5  S   UNL d   1       0.608  -1.620  -0.517  0.00  0.00     0.015 SA
ATOM      6  C4  UNL d   1       2.129  -0.861  -0.640  0.00  0.00     0.022 A 
ATOM      7  C5  UNL d   1       2.159   0.343   0.024  0.00  0.00     0.026 A 
ATOM      8  C6  UNL d   1       0.910   0.664   0.656  0.00  0.00    -0.082 A 
ATOM      9  C7  UNL d   1       0.529   1.790   1.425  0.00  0.00     0.045 A 
ENDROOT
TORSDOF 0
ENDMDL
