MODEL 1
REMARK minimizedAffinity 0.996506751
REMARK minimizedRMSD -1
REMARK  0 active torsions:
REMARK  status: ('A' for Active; 'I' for Inactive)
ROOT
ATOM      1  N1  IND d   1      -2.797  -1.069  -5.984  0.00  0.00    -0.196 N 
ATOM      2  C2  IND d   1      -3.560   0.065  -5.981  0.00  0.00     0.054 A 
ATOM      3  C3  IND d   1      -4.874  -0.252  -5.998  0.00  0.00    -0.031 A 
ATOM      4  C4  IND d   1      -5.998  -2.567  -5.929  0.00  0.00     0.051 A 
ATOM      5  C5  IND d   1      -5.715  -3.904  -5.961  0.00  0.00    -0.031 A 
ATOM      6  C6  IND d   1      -4.418  -4.373  -6.000  0.00  0.00     0.015 A 
ATOM      7  C7  IND d   1      -3.351  -3.520  -5.997  0.00  0.00    -0.016 A 
ATOM      8  C8  IND d   1      -3.635  -2.162  -5.972  0.00  0.00    -0.047 A 
ATOM      9  C9  IND d   1      -4.950  -1.679  -5.976  0.00  0.00    -0.096 A 
ATOM     10  HN1 IND d   1      -1.937  -1.096  -5.991  0.00  0.00     0.298 HD
ENDROOT
TORSDOF 0
ENDMDL
