MODEL 1
REMARK minimizedAffinity -0.681926668
REMARK minimizedRMSD -1
REMARK  0 active torsions:
REMARK  status: ('A' for Active; 'I' for Inactive)
ROOT
ATOM      1  N1  IND d   1      -2.285   4.007  -5.989  0.00  0.00    -0.196 N 
ATOM      2  C2  IND d   1      -3.357   4.856  -5.985  0.00  0.00     0.054 A 
ATOM      3  C3  IND d   1      -4.513   4.154  -6.000  0.00  0.00    -0.031 A 
ATOM      4  C4  IND d   1      -4.880   1.607  -5.928  0.00  0.00     0.051 A 
ATOM      5  C5  IND d   1      -4.204   0.419  -5.959  0.00  0.00    -0.031 A 
ATOM      6  C6  IND d   1      -2.825   0.366  -6.000  0.00  0.00     0.015 A 
ATOM      7  C7  IND d   1      -2.068   1.504  -5.999  0.00  0.00    -0.016 A 
ATOM      8  C8  IND d   1      -2.752   2.711  -5.975  0.00  0.00    -0.047 A 
ATOM      9  C9  IND d   1      -4.152   2.772  -5.976  0.00  0.00    -0.096 A 
ATOM     10  HN1 IND d   1      -1.459   4.243  -5.998  0.00  0.00     0.298 HD
ENDROOT
TORSDOF 0
ENDMDL
