MODEL 1
REMARK minimizedAffinity -2.23843336
REMARK minimizedRMSD -1
REMARK  0 active torsions:
REMARK  status: ('A' for Active; 'I' for Inactive)
ROOT
ATOM      1  N1  IND d   1      -1.097   3.922  -5.981  0.00  0.00    -0.196 N 
ATOM      2  C2  IND d   1      -1.628   5.182  -5.979  0.00  0.00     0.054 A 
ATOM      3  C3  IND d   1      -2.978   5.123  -5.997  0.00  0.00    -0.031 A 
ATOM      4  C4  IND d   1      -4.528   3.069  -5.930  0.00  0.00     0.051 A 
ATOM      5  C5  IND d   1      -4.507   1.703  -5.962  0.00  0.00    -0.031 A 
ATOM      6  C6  IND d   1      -3.325   0.992  -6.000  0.00  0.00     0.015 A 
ATOM      7  C7  IND d   1      -2.114   1.624  -5.996  0.00  0.00    -0.016 A 
ATOM      8  C8  IND d   1      -2.131   3.011  -5.971  0.00  0.00    -0.047 A 
ATOM      9  C9  IND d   1      -3.328   3.739  -5.975  0.00  0.00    -0.096 A 
ATOM     10  HN1 IND d   1      -0.259   3.730  -5.988  0.00  0.00     0.298 HD
ENDROOT
TORSDOF 0
ENDMDL
