MODEL 1
REMARK minimizedAffinity 2.85755801
REMARK minimizedRMSD -1
REMARK  0 active torsions:
REMARK  status: ('A' for Active; 'I' for Inactive)
ROOT
ATOM      1  N1  IND d   1       1.330  -1.283  -0.675  0.00  0.00    -0.196 N 
ATOM      2  C2  IND d   1       1.607  -0.021  -0.229  0.00  0.00     0.054 A 
ATOM      3  C3  IND d   1       1.408   0.881  -1.216  0.00  0.00    -0.031 A 
ATOM      4  C4  IND d   1       0.534   0.520  -3.610  0.00  0.00     0.051 A 
ATOM      5  C5  IND d   1       0.180  -0.463  -4.491  0.00  0.00    -0.031 A 
ATOM      6  C6  IND d   1       0.188  -1.797  -4.137  0.00  0.00     0.015 A 
ATOM      7  C7  IND d   1       0.542  -2.198  -2.880  0.00  0.00    -0.016 A 
ATOM      8  C8  IND d   1       0.909  -1.203  -1.985  0.00  0.00    -0.047 A 
ATOM      9  C9  IND d   1       0.943   0.149  -2.351  0.00  0.00    -0.096 A 
ATOM     10  HN1 IND d   1       1.406  -2.006  -0.216  0.00  0.00     0.298 HD
ENDROOT
TORSDOF 0
ENDMDL
