MODEL 1
REMARK minimizedAffinity 11.7079058
REMARK minimizedRMSD -1
REMARK  0 active torsions:
REMARK  status: ('A' for Active; 'I' for Inactive)
ROOT
ATOM      1  N1  IND d   1       4.921   2.368  -0.727  0.00  0.00    -0.196 N 
ATOM      2  C2  IND d   1       5.941   1.461  -0.647  0.00  0.00     0.054 A 
ATOM      3  C3  IND d   1       5.448   0.207  -0.537  0.00  0.00    -0.031 A 
ATOM      4  C4  IND d   1       3.003  -0.598  -0.570  0.00  0.00     0.051 A 
ATOM      5  C5  IND d   1       1.717  -0.136  -0.589  0.00  0.00    -0.031 A 
ATOM      6  C6  IND d   1       1.427   1.211  -0.659  0.00  0.00     0.015 A 
ATOM      7  C7  IND d   1       2.417   2.150  -0.724  0.00  0.00    -0.016 A 
ATOM      8  C8  IND d   1       3.725   1.685  -0.698  0.00  0.00    -0.047 A 
ATOM      9  C9  IND d   1       4.025   0.322  -0.584  0.00  0.00    -0.096 A 
ATOM     10  HN1 IND d   1       5.011   3.221  -0.785  0.00  0.00     0.298 HD
ENDROOT
TORSDOF 0
ENDMDL
