MODEL 1
REMARK minimizedAffinity 7.58567142
REMARK minimizedRMSD -1
REMARK  0 active torsions:
REMARK  status: ('A' for Active; 'I' for Inactive)
ROOT
ATOM      1  N1  IND d   1       2.628   1.458   0.076  0.00  0.00    -0.196 N 
ATOM      2  C2  IND d   1       3.859   1.287  -0.492  0.00  0.00     0.054 A 
ATOM      3  C3  IND d   1       3.787   0.406  -1.515  0.00  0.00    -0.031 A 
ATOM      4  C4  IND d   1       1.733  -0.797  -2.496  0.00  0.00     0.051 A 
ATOM      5  C5  IND d   1       0.396  -0.986  -2.290  0.00  0.00    -0.031 A 
ATOM      6  C6  IND d   1      -0.281  -0.356  -1.265  0.00  0.00     0.015 A 
ATOM      7  C7  IND d   1       0.356   0.501  -0.412  0.00  0.00    -0.016 A 
ATOM      8  C8  IND d   1       1.716   0.690  -0.615  0.00  0.00    -0.047 A 
ATOM      9  C9  IND d   1       2.416   0.020  -1.626  0.00  0.00    -0.096 A 
ATOM     10  HN1 IND d   1       2.452   1.961   0.750  0.00  0.00     0.298 HD
ENDROOT
TORSDOF 0
ENDMDL
