MODEL 1
REMARK minimizedAffinity 8.45369053
REMARK minimizedRMSD -1
REMARK  0 active torsions:
REMARK  status: ('A' for Active; 'I' for Inactive)
ROOT
ATOM      1  N1  IND d   1      -4.963   1.366  -5.906  0.00  0.00    -0.196 N 
ATOM      2  C2  IND d   1      -4.812   0.008  -5.930  0.00  0.00     0.054 A 
ATOM      3  C3  IND d   1      -3.502  -0.318  -5.998  0.00  0.00    -0.031 A 
ATOM      4  C4  IND d   1      -1.432   1.213  -5.976  0.00  0.00     0.051 A 
ATOM      5  C5  IND d   1      -1.066   2.529  -5.999  0.00  0.00    -0.031 A 
ATOM      6  C6  IND d   1      -1.999   3.546  -5.989  0.00  0.00     0.015 A 
ATOM      7  C7  IND d   1      -3.339   3.283  -5.944  0.00  0.00    -0.016 A 
ATOM      8  C8  IND d   1      -3.714   1.947  -5.928  0.00  0.00    -0.047 A 
ATOM      9  C9  IND d   1      -2.773   0.911  -5.981  0.00  0.00    -0.096 A 
ATOM     10  HN1 IND d   1      -5.713   1.787  -5.881  0.00  0.00     0.298 HD
ENDROOT
TORSDOF 0
ENDMDL
