MODEL 1
REMARK minimizedAffinity -2.28829646
REMARK minimizedRMSD -1
REMARK  0 active torsions:
REMARK  status: ('A' for Active; 'I' for Inactive)
ROOT
ATOM      1  N1  IND d   1      -2.819   3.719  -5.968  0.00  0.00    -0.196 N 
ATOM      2  C2  IND d   1      -3.962   4.469  -5.972  0.00  0.00     0.054 A 
ATOM      3  C3  IND d   1      -5.051   3.668  -6.000  0.00  0.00    -0.031 A 
ATOM      4  C4  IND d   1      -5.192   1.098  -5.942  0.00  0.00     0.051 A 
ATOM      5  C5  IND d   1      -4.413  -0.024  -5.972  0.00  0.00    -0.031 A 
ATOM      6  C6  IND d   1      -3.036   0.045  -6.000  0.00  0.00     0.015 A 
ATOM      7  C7  IND d   1      -2.382   1.244  -5.988  0.00  0.00    -0.016 A 
ATOM      8  C8  IND d   1      -3.170   2.387  -5.964  0.00  0.00    -0.047 A 
ATOM      9  C9  IND d   1      -4.569   2.323  -5.979  0.00  0.00    -0.096 A 
ATOM     10  HN1 IND d   1      -2.017   4.027  -5.969  0.00  0.00     0.298 HD
ENDROOT
TORSDOF 0
ENDMDL
