MODEL 1
REMARK minimizedAffinity -2.2255764
REMARK minimizedRMSD -1
REMARK  0 active torsions:
REMARK  status: ('A' for Active; 'I' for Inactive)
ROOT
ATOM      1  N1  IND d   1      -5.869   4.274  -5.996  0.00  0.00    -0.196 N 
ATOM      2  C2  IND d   1      -5.245   5.491  -5.976  0.00  0.00     0.054 A 
ATOM      3  C3  IND d   1      -3.903   5.330  -5.936  0.00  0.00    -0.031 A 
ATOM      4  C4  IND d   1      -2.513   3.165  -5.999  0.00  0.00     0.051 A 
ATOM      5  C5  IND d   1      -2.637   1.804  -5.982  0.00  0.00    -0.031 A 
ATOM      6  C6  IND d   1      -3.870   1.184  -5.972  0.00  0.00     0.015 A 
ATOM      7  C7  IND d   1      -5.030   1.906  -5.989  0.00  0.00    -0.016 A 
ATOM      8  C8  IND d   1      -4.907   3.288  -5.999  0.00  0.00    -0.047 A 
ATOM      9  C9  IND d   1      -3.659   3.923  -5.967  0.00  0.00    -0.096 A 
ATOM     10  HN1 IND d   1      -6.719   4.147  -6.005  0.00  0.00     0.298 HD
ENDROOT
TORSDOF 0
ENDMDL
