MODEL 1
REMARK minimizedAffinity 4.70290232
REMARK minimizedRMSD -1
REMARK  0 active torsions:
REMARK  status: ('A' for Active; 'I' for Inactive)
ROOT
ATOM      1  N1  IND d   1      -2.352   1.912  -5.946  0.00  0.00    -0.196 N 
ATOM      2  C2  IND d   1      -3.194   2.989  -5.957  0.00  0.00     0.054 A 
ATOM      3  C3  IND d   1      -4.482   2.578  -6.000  0.00  0.00    -0.031 A 
ATOM      4  C4  IND d   1      -5.440   0.189  -5.956  0.00  0.00     0.051 A 
ATOM      5  C5  IND d   1      -5.061  -1.124  -5.984  0.00  0.00    -0.031 A 
ATOM      6  C6  IND d   1      -3.734  -1.500  -5.998  0.00  0.00     0.015 A 
ATOM      7  C7  IND d   1      -2.731  -0.572  -5.974  0.00  0.00    -0.016 A 
ATOM      8  C8  IND d   1      -3.111   0.762  -5.952  0.00  0.00    -0.047 A 
ATOM      9  C9  IND d   1      -4.457   1.150  -5.981  0.00  0.00    -0.096 A 
ATOM     10  HN1 IND d   1      -1.493   1.947  -5.937  0.00  0.00     0.298 HD
ENDROOT
TORSDOF 0
ENDMDL
