MODEL 1
REMARK minimizedAffinity 4.4192915
REMARK minimizedRMSD -1
REMARK  0 active torsions:
REMARK  status: ('A' for Active; 'I' for Inactive)
ROOT
ATOM      1  N1  IND d   1      -3.618   4.760  -5.998  0.00  0.00    -0.196 N 
ATOM      2  C2  IND d   1      -4.985   4.746  -5.993  0.00  0.00     0.054 A 
ATOM      3  C3  IND d   1      -5.443   3.474  -6.000  0.00  0.00    -0.031 A 
ATOM      4  C4  IND d   1      -4.129   1.262  -5.916  0.00  0.00     0.051 A 
ATOM      5  C5  IND d   1      -2.857   0.764  -5.946  0.00  0.00    -0.031 A 
ATOM      6  C6  IND d   1      -1.751   1.588  -5.993  0.00  0.00     0.015 A 
ATOM      7  C7  IND d   1      -1.877   2.948  -6.000  0.00  0.00    -0.016 A 
ATOM      8  C8  IND d   1      -3.167   3.458  -5.977  0.00  0.00    -0.047 A 
ATOM      9  C9  IND d   1      -4.294   2.626  -5.973  0.00  0.00    -0.096 A 
ATOM     10  HN1 IND d   1      -3.124   5.463  -6.011  0.00  0.00     0.298 HD
ENDROOT
TORSDOF 0
ENDMDL
