MODEL 1
REMARK minimizedAffinity -1.28952456
REMARK minimizedRMSD -1
REMARK  0 active torsions:
REMARK  status: ('A' for Active; 'I' for Inactive)
ROOT
ATOM      1  N1  IND d   1      -2.910  -0.162  -6.000  0.00  0.00    -0.196 N 
ATOM      2  C2  IND d   1      -4.072  -0.882  -5.993  0.00  0.00     0.054 A 
ATOM      3  C3  IND d   1      -5.139  -0.053  -5.954  0.00  0.00    -0.031 A 
ATOM      4  C4  IND d   1      -5.213   2.520  -6.000  0.00  0.00     0.051 A 
ATOM      5  C5  IND d   1      -4.405   3.622  -5.969  0.00  0.00    -0.031 A 
ATOM      6  C6  IND d   1      -3.029   3.517  -5.950  0.00  0.00     0.015 A 
ATOM      7  C7  IND d   1      -2.407   2.300  -5.972  0.00  0.00    -0.016 A 
ATOM      8  C8  IND d   1      -3.225   1.179  -5.996  0.00  0.00    -0.047 A 
ATOM      9  C9  IND d   1      -4.622   1.279  -5.972  0.00  0.00    -0.096 A 
ATOM     10  HN1 IND d   1      -2.115  -0.491  -6.006  0.00  0.00     0.298 HD
ENDROOT
TORSDOF 0
ENDMDL
