MODEL 1
REMARK minimizedAffinity -1.69036973
REMARK minimizedRMSD -1
REMARK  0 active torsions:
REMARK  status: ('A' for Active; 'I' for Inactive)
ROOT
ATOM      1  N1  IND d   1      -3.577  -1.056  -6.000  0.00  0.00    -0.196 N 
ATOM      2  C2  IND d   1      -4.881  -1.466  -5.993  0.00  0.00     0.054 A 
ATOM      3  C3  IND d   1      -5.710  -0.398  -5.954  0.00  0.00    -0.031 A 
ATOM      4  C4  IND d   1      -5.145   2.113  -5.999  0.00  0.00     0.051 A 
ATOM      5  C5  IND d   1      -4.089   2.980  -5.969  0.00  0.00    -0.031 A 
ATOM      6  C6  IND d   1      -2.782   2.537  -5.950  0.00  0.00     0.015 A 
ATOM      7  C7  IND d   1      -2.481   1.205  -5.972  0.00  0.00    -0.016 A 
ATOM      8  C8  IND d   1      -3.551   0.321  -5.995  0.00  0.00    -0.047 A 
ATOM      9  C9  IND d   1      -4.879   0.764  -5.972  0.00  0.00    -0.096 A 
ATOM     10  HN1 IND d   1      -2.889  -1.572  -6.006  0.00  0.00     0.298 HD
ENDROOT
TORSDOF 0
ENDMDL
