MODEL 1
REMARK minimizedAffinity 0.899857163
REMARK minimizedRMSD -1
REMARK  0 active torsions:
REMARK  status: ('A' for Active; 'I' for Inactive)
ROOT
ATOM      1  N1  IND d   1      -3.772   0.854  -5.927  0.00  0.00    -0.196 N 
ATOM      2  C2  IND d   1      -2.467   0.449  -5.942  0.00  0.00     0.054 A 
ATOM      3  C3  IND d   1      -1.643   1.519  -5.998  0.00  0.00    -0.031 A 
ATOM      4  C4  IND d   1      -2.216   4.028  -5.969  0.00  0.00     0.051 A 
ATOM      5  C5  IND d   1      -3.275   4.892  -5.996  0.00  0.00    -0.031 A 
ATOM      6  C6  IND d   1      -4.581   4.444  -6.000  0.00  0.00     0.015 A 
ATOM      7  C7  IND d   1      -4.877   3.111  -5.964  0.00  0.00    -0.016 A 
ATOM      8  C8  IND d   1      -3.804   2.231  -5.943  0.00  0.00    -0.047 A 
ATOM      9  C9  IND d   1      -2.477   2.679  -5.982  0.00  0.00    -0.096 A 
ATOM     10  HN1 IND d   1      -4.459   0.336  -5.910  0.00  0.00     0.298 HD
ENDROOT
TORSDOF 0
ENDMDL
