MODEL 1
REMARK minimizedAffinity 4.03868437
REMARK minimizedRMSD -1
REMARK  0 active torsions:
REMARK  status: ('A' for Active; 'I' for Inactive)
ROOT
ATOM      1  N1  IND d   1      -3.703  -1.583  -5.989  0.00  0.00    -0.196 N 
ATOM      2  C2  IND d   1      -4.956  -2.128  -5.952  0.00  0.00     0.054 A 
ATOM      3  C3  IND d   1      -5.891  -1.154  -5.903  0.00  0.00    -0.031 A 
ATOM      4  C4  IND d   1      -5.596   1.403  -5.978  0.00  0.00     0.051 A 
ATOM      5  C5  IND d   1      -4.637   2.377  -5.976  0.00  0.00    -0.031 A 
ATOM      6  C6  IND d   1      -3.290   2.074  -5.981  0.00  0.00     0.015 A 
ATOM      7  C7  IND d   1      -2.851   0.781  -6.000  0.00  0.00    -0.016 A 
ATOM      8  C8  IND d   1      -3.822  -0.211  -5.995  0.00  0.00    -0.047 A 
ATOM      9  C9  IND d   1      -5.189   0.090  -5.947  0.00  0.00    -0.096 A 
ATOM     10  HN1 IND d   1      -2.964  -2.023  -6.006  0.00  0.00     0.298 HD
ENDROOT
TORSDOF 0
ENDMDL
