MODEL 1
REMARK minimizedAffinity -1.09396791
REMARK minimizedRMSD -1
REMARK  0 active torsions:
REMARK  status: ('A' for Active; 'I' for Inactive)
ROOT
ATOM      1  N1  IND d   1      -5.993   3.184  -5.986  0.00  0.00    -0.196 N 
ATOM      2  C2  IND d   1      -5.528   4.469  -5.974  0.00  0.00     0.054 A 
ATOM      3  C3  IND d   1      -4.177   4.480  -5.940  0.00  0.00    -0.031 A 
ATOM      4  C4  IND d   1      -2.523   2.509  -6.000  0.00  0.00     0.051 A 
ATOM      5  C5  IND d   1      -2.473   1.143  -5.976  0.00  0.00    -0.031 A 
ATOM      6  C6  IND d   1      -3.618   0.372  -5.957  0.00  0.00     0.015 A 
ATOM      7  C7  IND d   1      -4.860   0.941  -5.973  0.00  0.00    -0.016 A 
ATOM      8  C8  IND d   1      -4.914   2.327  -5.989  0.00  0.00    -0.047 A 
ATOM      9  C9  IND d   1      -3.756   3.115  -5.966  0.00  0.00    -0.096 A 
ATOM     10  HN1 IND d   1      -6.820   2.949  -5.991  0.00  0.00     0.298 HD
ENDROOT
TORSDOF 0
ENDMDL
