MODEL 1
REMARK minimizedAffinity -0.569474757
REMARK minimizedRMSD -1
REMARK  0 active torsions:
REMARK  status: ('A' for Active; 'I' for Inactive)
ROOT
ATOM      1  N1  IND d   1      -5.475  -1.048  -5.977  0.00  0.00    -0.196 N 
ATOM      2  C2  IND d   1      -4.867  -2.272  -5.977  0.00  0.00     0.054 A 
ATOM      3  C3  IND d   1      -3.523  -2.130  -6.000  0.00  0.00    -0.031 A 
ATOM      4  C4  IND d   1      -2.104   0.017  -5.936  0.00  0.00     0.051 A 
ATOM      5  C5  IND d   1      -2.210   1.379  -5.966  0.00  0.00    -0.031 A 
ATOM      6  C6  IND d   1      -3.434   2.015  -6.000  0.00  0.00     0.015 A 
ATOM      7  C7  IND d   1      -4.604   1.309  -5.993  0.00  0.00    -0.016 A 
ATOM      8  C8  IND d   1      -4.500  -0.075  -5.969  0.00  0.00    -0.047 A 
ATOM      9  C9  IND d   1      -3.260  -0.726  -5.977  0.00  0.00    -0.096 A 
ATOM     10  HN1 IND d   1      -6.324  -0.909  -5.981  0.00  0.00     0.298 HD
ENDROOT
TORSDOF 0
ENDMDL
