MODEL 1
REMARK minimizedAffinity 9.54007626
REMARK minimizedRMSD -1
REMARK  1 active torsions:
REMARK  status: ('A' for Active; 'I' for Inactive)
REMARK    1  A    between atoms: C1_2  and  C2_3 
ROOT
ATOM      1  C2  UNL d   1       2.477   0.337  -0.046  0.00  0.00    -0.073 A 
ATOM      2  C3  UNL d   1       3.292   0.029  -1.141  0.00  0.00    -0.002 A 
ATOM      3  C4  UNL d   1       3.343  -1.275  -1.637  0.00  0.00     0.004 A 
ATOM      4  C5  UNL d   1       2.576  -2.280  -1.049  0.00  0.00    -0.004 A 
ATOM      5  C6  UNL d   1       1.746  -1.989   0.039  0.00  0.00    -0.075 A 
ATOM      6  C7  UNL d   1       0.916  -3.060   0.684  0.00  0.00     0.076 C 
ATOM      7  C8  UNL d   1       1.703  -0.678   0.533  0.00  0.00     0.001 A 
ENDROOT
BRANCH   1   8
ATOM      8  C1  UNL d   1       2.414   1.744   0.489  0.00  0.00     0.053 C 
ATOM      9  C   UNL d   1       1.020   2.339   0.365  0.00  0.00     0.018 C 
ENDBRANCH   1   8
TORSDOF 1
ENDMDL
