MODEL 1
REMARK minimizedAffinity 5.90550375
REMARK minimizedRMSD -1
REMARK  1 active torsions:
REMARK  status: ('A' for Active; 'I' for Inactive)
REMARK    1  A    between atoms: C1_2  and  C2_3 
ROOT
ATOM      1  C2  UNL d   1      -3.287   0.645  -4.217  0.00  0.00    -0.073 A 
ATOM      2  C3  UNL d   1      -4.181  -0.016  -3.367  0.00  0.00    -0.002 A 
ATOM      3  C4  UNL d   1      -3.717  -0.968  -2.458  0.00  0.00     0.004 A 
ATOM      4  C5  UNL d   1      -2.356  -1.264  -2.385  0.00  0.00    -0.004 A 
ATOM      5  C6  UNL d   1      -1.445  -0.606  -3.218  0.00  0.00    -0.075 A 
ATOM      6  C7  UNL d   1       0.022  -0.914  -3.154  0.00  0.00     0.076 C 
ATOM      7  C8  UNL d   1      -1.920   0.347  -4.130  0.00  0.00     0.001 A 
ENDROOT
BRANCH   1   8
ATOM      8  C1  UNL d   1      -3.783   1.678  -5.196  0.00  0.00     0.053 C 
ATOM      9  C   UNL d   1      -4.658   2.725  -4.524  0.00  0.00     0.018 C 
ENDBRANCH   1   8
TORSDOF 1
ENDMDL
