MODEL 1
REMARK minimizedAffinity 7.87848139
REMARK minimizedRMSD -1
REMARK  1 active torsions:
REMARK  status: ('A' for Active; 'I' for Inactive)
REMARK    1  A    between atoms: C1_2  and  C2_3 
ROOT
ATOM      1  C2  UNL d   1       1.815  -2.640   3.132  0.00  0.00    -0.073 A 
ATOM      2  C3  UNL d   1       0.478  -2.235   3.217  0.00  0.00    -0.002 A 
ATOM      3  C4  UNL d   1      -0.362  -2.774   4.192  0.00  0.00     0.004 A 
ATOM      4  C5  UNL d   1       0.127  -3.717   5.096  0.00  0.00    -0.004 A 
ATOM      5  C6  UNL d   1       1.463  -4.126   5.035  0.00  0.00    -0.075 A 
ATOM      6  C7  UNL d   1       2.003  -5.142   5.998  0.00  0.00     0.076 C 
ATOM      7  C8  UNL d   1       2.299  -3.582   4.051  0.00  0.00     0.001 A 
ENDROOT
BRANCH   1   8
ATOM      8  C1  UNL d   1       2.727  -2.056   2.085  0.00  0.00     0.053 C 
ATOM      9  C   UNL d   1       2.178  -2.248   0.680  0.00  0.00     0.018 C 
ENDBRANCH   1   8
TORSDOF 1
ENDMDL
