MODEL 1
REMARK minimizedAffinity 8.3989687
REMARK minimizedRMSD -1
REMARK  1 active torsions:
REMARK  status: ('A' for Active; 'I' for Inactive)
REMARK    1  A    between atoms: C1_2  and  C2_3 
ROOT
ATOM      1  C2  UNL d   1       1.819   0.496   0.686  0.00  0.00    -0.073 A 
ATOM      2  C3  UNL d   1       1.335  -0.268  -0.382  0.00  0.00    -0.002 A 
ATOM      3  C4  UNL d   1       1.928  -1.490  -0.700  0.00  0.00     0.004 A 
ATOM      4  C5  UNL d   1       3.006  -1.963   0.048  0.00  0.00    -0.004 A 
ATOM      5  C6  UNL d   1       3.497  -1.220   1.126  0.00  0.00    -0.075 A 
ATOM      6  C7  UNL d   1       4.657  -1.714   1.940  0.00  0.00     0.076 C 
ATOM      7  C8  UNL d   1       2.897   0.008   1.438  0.00  0.00     0.001 A 
ENDROOT
BRANCH   1   8
ATOM      8  C1  UNL d   1       1.178   1.813   1.038  0.00  0.00     0.053 C 
ATOM      9  C   UNL d   1      -0.319   1.808   0.769  0.00  0.00     0.018 C 
ENDBRANCH   1   8
TORSDOF 1
ENDMDL
