MODEL 1
REMARK minimizedAffinity 5.34135008
REMARK minimizedRMSD -1
REMARK  1 active torsions:
REMARK  status: ('A' for Active; 'I' for Inactive)
REMARK    1  A    between atoms: C1_2  and  C2_3 
ROOT
ATOM      1  C2  UNL d   1       2.315   0.505   0.409  0.00  0.00    -0.073 A 
ATOM      2  C3  UNL d   1       2.516  -0.205   1.598  0.00  0.00    -0.002 A 
ATOM      3  C4  UNL d   1       3.121  -1.462   1.575  0.00  0.00     0.004 A 
ATOM      4  C5  UNL d   1       3.537  -2.019   0.366  0.00  0.00    -0.004 A 
ATOM      5  C6  UNL d   1       3.355  -1.320  -0.832  0.00  0.00    -0.075 A 
ATOM      6  C7  UNL d   1       3.794  -1.906  -2.142  0.00  0.00     0.076 C 
ATOM      7  C8  UNL d   1       2.744  -0.059  -0.801  0.00  0.00     0.001 A 
ENDROOT
BRANCH   1   8
ATOM      8  C1  UNL d   1       1.668   1.866   0.430  0.00  0.00     0.053 C 
ATOM      9  C   UNL d   1       0.313   1.864  -0.261  0.00  0.00     0.018 C 
ENDBRANCH   1   8
TORSDOF 1
ENDMDL
