MODEL 1
REMARK minimizedAffinity 2.4693718
REMARK minimizedRMSD -1
REMARK  0 active torsions:
REMARK  status: ('A' for Active; 'I' for Inactive)
ROOT
ATOM      1  C   UNL d   1       0.366   0.998   2.869  0.00  0.00     0.023 A 
ATOM      2  C1  UNL d   1       0.994  -0.109   3.439  0.00  0.00     0.003 A 
ATOM      3  C2  UNL d   1       2.330  -0.386   3.142  0.00  0.00     0.048 A 
ATOM      4  C3  UNL d   1       3.032   0.449   2.273  0.00  0.00     0.023 A 
ATOM      5  C4  UNL d   1       2.408   1.558   1.701  0.00  0.00     0.048 A 
ATOM      6  C5  UNL d   1       1.072   1.830   2.000  0.00  0.00     0.003 A 
ATOM      7  I   UNL d   1       5.021   0.039   1.829  0.00  0.00    -0.146 I 
ENDROOT
TORSDOF 0
ENDMDL
