MODEL 1
REMARK minimizedAffinity -3.74865079
REMARK minimizedRMSD -1
REMARK  0 active torsions:
REMARK  status: ('A' for Active; 'I' for Inactive)
ROOT
ATOM      1  C   UNL d   1      -5.778  -2.660  -1.542  0.00  0.00     0.023 A 
ATOM      2  C1  UNL d   1      -5.672  -4.007  -1.892  0.00  0.00     0.003 A 
ATOM      3  C2  UNL d   1      -5.415  -4.966  -0.911  0.00  0.00     0.048 A 
ATOM      4  C3  UNL d   1      -5.266  -4.573   0.419  0.00  0.00     0.023 A 
ATOM      5  C4  UNL d   1      -5.372  -3.227   0.774  0.00  0.00     0.048 A 
ATOM      6  C5  UNL d   1      -5.629  -2.271  -0.211  0.00  0.00     0.003 A 
ATOM      7  I   UNL d   1      -4.884  -5.999   1.881  0.00  0.00    -0.146 I 
ENDROOT
TORSDOF 0
ENDMDL
