MODEL 1
REMARK minimizedAffinity 2.44639993
REMARK minimizedRMSD -1
REMARK  0 active torsions:
REMARK  status: ('A' for Active; 'I' for Inactive)
ROOT
ATOM      1  C   UNL d   1      -4.148  -5.924  -1.430  0.00  0.00     0.023 A 
ATOM      2  C1  UNL d   1      -5.519  -5.915  -1.177  0.00  0.00     0.003 A 
ATOM      3  C2  UNL d   1      -5.988  -5.936   0.139  0.00  0.00     0.048 A 
ATOM      4  C3  UNL d   1      -5.079  -5.966   1.196  0.00  0.00     0.023 A 
ATOM      5  C4  UNL d   1      -3.706  -5.974   0.947  0.00  0.00     0.048 A 
ATOM      6  C5  UNL d   1      -3.242  -5.954  -0.369  0.00  0.00     0.003 A 
ATOM      7  I   UNL d   1      -5.774  -5.998   3.154  0.00  0.00    -0.146 I 
ENDROOT
TORSDOF 0
ENDMDL
