MODEL 1
REMARK minimizedAffinity 2.6826148
REMARK minimizedRMSD -1
REMARK  0 active torsions:
REMARK  status: ('A' for Active; 'I' for Inactive)
ROOT
ATOM      1  C   UNL d   1      -4.044  -5.973   2.245  0.00  0.00     0.023 A 
ATOM      2  C1  UNL d   1      -5.429  -5.904   2.095  0.00  0.00     0.003 A 
ATOM      3  C2  UNL d   1      -5.992  -5.837   0.819  0.00  0.00     0.048 A 
ATOM      4  C3  UNL d   1      -5.164  -5.840  -0.303  0.00  0.00     0.023 A 
ATOM      5  C4  UNL d   1      -3.778  -5.910  -0.158  0.00  0.00     0.048 A 
ATOM      6  C5  UNL d   1      -3.219  -5.976   1.120  0.00  0.00     0.003 A 
ATOM      7  I   UNL d   1      -6.000  -5.740  -2.203  0.00  0.00    -0.146 I 
ENDROOT
TORSDOF 0
ENDMDL
