MODEL 1
REMARK minimizedAffinity -1.07133985
REMARK minimizedRMSD -1
REMARK  0 active torsions:
REMARK  status: ('A' for Active; 'I' for Inactive)
ROOT
ATOM      1  C   UNL d   1      -5.915  -2.643  -3.512  0.00  0.00     0.023 A 
ATOM      2  C1  UNL d   1      -5.979  -2.247  -2.176  0.00  0.00     0.003 A 
ATOM      3  C2  UNL d   1      -5.999  -3.207  -1.162  0.00  0.00     0.048 A 
ATOM      4  C3  UNL d   1      -5.953  -4.561  -1.492  0.00  0.00     0.023 A 
ATOM      5  C4  UNL d   1      -5.888  -4.962  -2.827  0.00  0.00     0.048 A 
ATOM      6  C5  UNL d   1      -5.870  -3.999  -3.837  0.00  0.00     0.003 A 
ATOM      7  I   UNL d   1      -5.982  -5.992   0.016  0.00  0.00    -0.146 I 
ENDROOT
TORSDOF 0
ENDMDL
