MODEL 1
REMARK minimizedAffinity -0.806893706
REMARK minimizedRMSD -1
REMARK  0 active torsions:
REMARK  status: ('A' for Active; 'I' for Inactive)
ROOT
ATOM      1  C   UNL d   1      -5.787  -5.799   0.187  0.00  0.00     0.023 A 
ATOM      2  C1  UNL d   1      -5.894  -6.000  -1.189  0.00  0.00     0.003 A 
ATOM      3  C2  UNL d   1      -5.954  -4.904  -2.053  0.00  0.00     0.048 A 
ATOM      4  C3  UNL d   1      -5.905  -3.611  -1.534  0.00  0.00     0.023 A 
ATOM      5  C4  UNL d   1      -5.796  -3.405  -0.158  0.00  0.00     0.048 A 
ATOM      6  C5  UNL d   1      -5.738  -4.503   0.702  0.00  0.00     0.003 A 
ATOM      7  I   UNL d   1      -5.993  -1.979  -2.818  0.00  0.00    -0.146 I 
ENDROOT
TORSDOF 0
ENDMDL
