MODEL 1
REMARK minimizedAffinity 2.3152647
REMARK minimizedRMSD -1
REMARK  0 active torsions:
REMARK  status: ('A' for Active; 'I' for Inactive)
ROOT
ATOM      1  C   UNL d   1      -5.808  -5.963  -1.089  0.00  0.00     0.023 A 
ATOM      2  C1  UNL d   1      -5.831  -4.795  -0.327  0.00  0.00     0.003 A 
ATOM      3  C2  UNL d   1      -5.794  -3.549  -0.955  0.00  0.00     0.048 A 
ATOM      4  C3  UNL d   1      -5.735  -3.478  -2.347  0.00  0.00     0.023 A 
ATOM      5  C4  UNL d   1      -5.713  -4.644  -3.113  0.00  0.00     0.048 A 
ATOM      6  C5  UNL d   1      -5.749  -5.888  -2.481  0.00  0.00     0.003 A 
ATOM      7  I   UNL d   1      -5.681  -1.624  -3.284  0.00  0.00    -0.146 I 
ENDROOT
TORSDOF 0
ENDMDL
