MODEL 1
REMARK minimizedAffinity 8.28751373
REMARK minimizedRMSD -1
REMARK  0 active torsions:
REMARK  status: ('A' for Active; 'I' for Inactive)
ROOT
ATOM      1  C   UNL d   1       2.173   5.134  -5.104  0.00  0.00     0.023 A 
ATOM      2  C1  UNL d   1       1.991   3.908  -5.744  0.00  0.00     0.003 A 
ATOM      3  C2  UNL d   1       3.087   3.082  -5.998  0.00  0.00     0.048 A 
ATOM      4  C3  UNL d   1       4.363   3.487  -5.608  0.00  0.00     0.023 A 
ATOM      5  C4  UNL d   1       4.550   4.713  -4.966  0.00  0.00     0.048 A 
ATOM      6  C5  UNL d   1       3.451   5.536  -4.715  0.00  0.00     0.003 A 
ATOM      7  I   UNL d   1       5.997   2.259  -5.984  0.00  0.00    -0.146 I 
ENDROOT
TORSDOF 0
ENDMDL
