MODEL 1
REMARK minimizedAffinity 4.8403368
REMARK minimizedRMSD -1
REMARK  0 active torsions:
REMARK  status: ('A' for Active; 'I' for Inactive)
ROOT
ATOM      1  C   UNL d   1      -0.355   2.030   3.657  0.00  0.00     0.023 A 
ATOM      2  C1  UNL d   1       0.448   2.920   2.944  0.00  0.00     0.003 A 
ATOM      3  C2  UNL d   1       1.696   2.510   2.469  0.00  0.00     0.048 A 
ATOM      4  C3  UNL d   1       2.134   1.208   2.710  0.00  0.00     0.023 A 
ATOM      5  C4  UNL d   1       1.334   0.314   3.423  0.00  0.00     0.048 A 
ATOM      6  C5  UNL d   1       0.087   0.729   3.896  0.00  0.00     0.003 A 
ATOM      7  I   UNL d   1       3.991   0.596   2.005  0.00  0.00    -0.146 I 
ENDROOT
TORSDOF 0
ENDMDL
