MODEL 1
REMARK minimizedAffinity 2.00596309
REMARK minimizedRMSD -1
REMARK  0 active torsions:
REMARK  status: ('A' for Active; 'I' for Inactive)
ROOT
ATOM      1  C   UNL d   1       1.745   2.864  -0.978  0.00  0.00     0.023 A 
ATOM      2  C1  UNL d   1       0.653   2.068  -0.632  0.00  0.00     0.003 A 
ATOM      3  C2  UNL d   1       0.453   0.841  -1.266  0.00  0.00     0.048 A 
ATOM      4  C3  UNL d   1       1.349   0.415  -2.246  0.00  0.00     0.023 A 
ATOM      5  C4  UNL d   1       2.444   1.207  -2.595  0.00  0.00     0.048 A 
ATOM      6  C5  UNL d   1       2.639   2.435  -1.959  0.00  0.00     0.003 A 
ATOM      7  I   UNL d   1       1.054  -1.412  -3.192  0.00  0.00    -0.146 I 
ENDROOT
TORSDOF 0
ENDMDL
