MODEL 1
REMARK minimizedAffinity 7.4355607
REMARK minimizedRMSD -1
REMARK  0 active torsions:
REMARK  status: ('A' for Active; 'I' for Inactive)
ROOT
ATOM      1  C   UNL d   1      -1.255  -0.131   1.801  0.00  0.00     0.023 A 
ATOM      2  C1  UNL d   1      -2.646  -0.210   1.729  0.00  0.00     0.003 A 
ATOM      3  C2  UNL d   1      -3.425   0.922   1.981  0.00  0.00     0.048 A 
ATOM      4  C3  UNL d   1      -2.806   2.129   2.304  0.00  0.00     0.023 A 
ATOM      5  C4  UNL d   1      -1.414   2.212   2.377  0.00  0.00     0.048 A 
ATOM      6  C5  UNL d   1      -0.640   1.078   2.125  0.00  0.00     0.003 A 
ATOM      7  I   UNL d   1      -3.962   3.814   2.680  0.00  0.00    -0.146 I 
ENDROOT
TORSDOF 0
ENDMDL
