MODEL 1
REMARK minimizedAffinity 13.4020348
REMARK minimizedRMSD -1
REMARK  0 active torsions:
REMARK  status: ('A' for Active; 'I' for Inactive)
ROOT
ATOM      1  C   UNL d   1      -0.164  -1.224  -3.961  0.00  0.00     0.023 A 
ATOM      2  C1  UNL d   1      -0.420  -0.379  -5.040  0.00  0.00     0.003 A 
ATOM      3  C2  UNL d   1       0.621   0.343  -5.627  0.00  0.00     0.048 A 
ATOM      4  C3  UNL d   1       1.917   0.214  -5.129  0.00  0.00     0.023 A 
ATOM      5  C4  UNL d   1       2.179  -0.631  -4.049  0.00  0.00     0.048 A 
ATOM      6  C5  UNL d   1       1.134  -1.350  -3.466  0.00  0.00     0.003 A 
ATOM      7  I   UNL d   1       3.470   1.288  -6.000  0.00  0.00    -0.146 I 
ENDROOT
TORSDOF 0
ENDMDL
