MODEL 1
REMARK minimizedAffinity 0.961102784
REMARK minimizedRMSD -1
REMARK  0 active torsions:
REMARK  status: ('A' for Active; 'I' for Inactive)
ROOT
ATOM      1  C   UNL d   1      -5.980  -1.434  -3.066  0.00  0.00     0.023 A 
ATOM      2  C1  UNL d   1      -5.968  -2.506  -3.959  0.00  0.00     0.003 A 
ATOM      3  C2  UNL d   1      -5.971  -3.817  -3.478  0.00  0.00     0.048 A 
ATOM      4  C3  UNL d   1      -5.987  -4.049  -2.103  0.00  0.00     0.023 A 
ATOM      5  C4  UNL d   1      -6.000  -2.980  -1.206  0.00  0.00     0.048 A 
ATOM      6  C5  UNL d   1      -5.996  -1.671  -1.691  0.00  0.00     0.003 A 
ATOM      7  I   UNL d   1      -5.992  -6.000  -1.385  0.00  0.00    -0.146 I 
ENDROOT
TORSDOF 0
ENDMDL
