MODEL 1
REMARK minimizedAffinity 5.50751925
REMARK minimizedRMSD -1
REMARK  0 active torsions:
REMARK  status: ('A' for Active; 'I' for Inactive)
ROOT
ATOM      1  C   UNL d   1      -5.989  -1.237  -3.377  0.00  0.00     0.023 A 
ATOM      2  C1  UNL d   1      -5.983  -2.181  -4.404  0.00  0.00     0.003 A 
ATOM      3  C2  UNL d   1      -5.985  -3.544  -4.102  0.00  0.00     0.048 A 
ATOM      4  C3  UNL d   1      -5.992  -3.957  -2.770  0.00  0.00     0.023 A 
ATOM      5  C4  UNL d   1      -5.999  -3.016  -1.738  0.00  0.00     0.048 A 
ATOM      6  C5  UNL d   1      -5.996  -1.654  -2.046  0.00  0.00     0.003 A 
ATOM      7  I   UNL d   1      -5.995  -5.985  -2.317  0.00  0.00    -0.146 I 
ENDROOT
TORSDOF 0
ENDMDL
