MODEL 1
REMARK minimizedAffinity 9.89282322
REMARK minimizedRMSD -1
REMARK  0 active torsions:
REMARK  status: ('A' for Active; 'I' for Inactive)
ROOT
ATOM      1  C   UNL d   1       2.678   5.519  -4.854  0.00  0.00     0.023 A 
ATOM      2  C1  UNL d   1       1.887   4.709  -5.670  0.00  0.00     0.003 A 
ATOM      3  C2  UNL d   1       2.313   3.420  -6.000  0.00  0.00     0.048 A 
ATOM      4  C3  UNL d   1       3.530   2.948  -5.510  0.00  0.00     0.023 A 
ATOM      5  C4  UNL d   1       4.324   3.754  -4.693  0.00  0.00     0.048 A 
ATOM      6  C5  UNL d   1       3.895   5.042  -4.367  0.00  0.00     0.003 A 
ATOM      7  I   UNL d   1       4.166   1.031  -6.000  0.00  0.00    -0.146 I 
ENDROOT
TORSDOF 0
ENDMDL
