MODEL 1
REMARK minimizedAffinity 4.28298759
REMARK minimizedRMSD -1
REMARK  0 active torsions:
REMARK  status: ('A' for Active; 'I' for Inactive)
ROOT
ATOM      1  C   UNL d   1      -0.710   1.772   3.467  0.00  0.00     0.023 A 
ATOM      2  C1  UNL d   1      -0.508   0.402   3.300  0.00  0.00     0.003 A 
ATOM      3  C2  UNL d   1       0.772  -0.089   3.035  0.00  0.00     0.048 A 
ATOM      4  C3  UNL d   1       1.846   0.796   2.938  0.00  0.00     0.023 A 
ATOM      5  C4  UNL d   1       1.648   2.168   3.105  0.00  0.00     0.048 A 
ATOM      6  C5  UNL d   1       0.367   2.654   3.369  0.00  0.00     0.003 A 
ATOM      7  I   UNL d   1       3.752   0.068   2.543  0.00  0.00    -0.146 I 
ENDROOT
TORSDOF 0
ENDMDL
