MODEL 1
REMARK minimizedAffinity -3.10543489
REMARK minimizedRMSD -1
REMARK  0 active torsions:
REMARK  status: ('A' for Active; 'I' for Inactive)
ROOT
ATOM      1  O1  BZF d   1       5.908  -6.000   4.270  0.00  0.00    -0.204 OA
ATOM      2  C2  BZF d   1       5.771  -5.877   5.640  0.00  0.00     0.174 A 
ATOM      3  C3  BZF d   1       5.710  -4.579   6.000  0.00  0.00    -0.012 A 
ATOM      4  C3A BZF d   1       5.722  -3.846   4.771  0.00  0.00    -0.107 A 
ATOM      5  C4  BZF d   1       5.667  -2.515   4.471  0.00  0.00     0.055 A 
ATOM      6  C5  BZF d   1       5.774  -2.126   3.174  0.00  0.00    -0.016 A 
ATOM      7  C6  BZF d   1       5.944  -3.038   2.153  0.00  0.00     0.022 A 
ATOM      8  C7  BZF d   1       6.000  -4.370   2.401  0.00  0.00     0.029 A 
ATOM      9  C7A BZF d   1       5.858  -4.769   3.708  0.00  0.00     0.058 A 
ENDROOT
TORSDOF 0
ENDMDL
