MODEL 1
REMARK minimizedAffinity -3.68309069
REMARK minimizedRMSD -1
REMARK  0 active torsions:
REMARK  status: ('A' for Active; 'I' for Inactive)
ROOT
ATOM      1  O1  BZF d   1       5.949  -5.356   4.888  0.00  0.00    -0.204 OA
ATOM      2  C2  BZF d   1       5.940  -4.508   5.978  0.00  0.00     0.174 A 
ATOM      3  C3  BZF d   1       5.998  -3.220   5.583  0.00  0.00    -0.012 A 
ATOM      4  C3A BZF d   1       5.953  -3.262   4.153  0.00  0.00    -0.107 A 
ATOM      5  C4  BZF d   1       5.961  -2.300   3.185  0.00  0.00     0.055 A 
ATOM      6  C5  BZF d   1       5.981  -2.677   1.879  0.00  0.00    -0.016 A 
ATOM      7  C6  BZF d   1       5.998  -4.005   1.507  0.00  0.00     0.022 A 
ATOM      8  C7  BZF d   1       5.986  -4.996   2.432  0.00  0.00     0.029 A 
ATOM      9  C7A BZF d   1       5.932  -4.618   3.752  0.00  0.00     0.058 A 
ENDROOT
TORSDOF 0
ENDMDL
