MODEL 1
REMARK minimizedAffinity -1.98447573
REMARK minimizedRMSD -1
REMARK  0 active torsions:
REMARK  status: ('A' for Active; 'I' for Inactive)
ROOT
ATOM      1  O1  BZF d   1       6.000  -5.242   2.558  0.00  0.00    -0.204 OA
ATOM      2  C2  BZF d   1       5.878  -4.309   1.546  0.00  0.00     0.174 A 
ATOM      3  C3  BZF d   1       5.425  -3.135   2.029  0.00  0.00    -0.012 A 
ATOM      4  C3A BZF d   1       5.339  -3.319   3.445  0.00  0.00    -0.107 A 
ATOM      5  C4  BZF d   1       4.968  -2.505   4.477  0.00  0.00     0.055 A 
ATOM      6  C5  BZF d   1       4.925  -3.013   5.737  0.00  0.00    -0.016 A 
ATOM      7  C6  BZF d   1       5.243  -4.329   6.000  0.00  0.00     0.022 A 
ATOM      8  C7  BZF d   1       5.622  -5.174   5.010  0.00  0.00     0.029 A 
ATOM      9  C7A BZF d   1       5.698  -4.655   3.740  0.00  0.00     0.058 A 
ENDROOT
TORSDOF 0
ENDMDL
