MODEL 1
REMARK minimizedAffinity -2.50543833
REMARK minimizedRMSD -1
REMARK  0 active torsions:
REMARK  status: ('A' for Active; 'I' for Inactive)
ROOT
ATOM      1  O1  BZF d   1       5.957  -2.200   4.694  0.00  0.00    -0.204 OA
ATOM      2  C2  BZF d   1       5.913  -2.700   5.981  0.00  0.00     0.174 A 
ATOM      3  C3  BZF d   1       5.845  -4.046   5.969  0.00  0.00    -0.012 A 
ATOM      4  C3A BZF d   1       5.941  -4.416   4.590  0.00  0.00    -0.107 A 
ATOM      5  C4  BZF d   1       5.948  -5.615   3.937  0.00  0.00     0.055 A 
ATOM      6  C5  BZF d   1       5.980  -5.628   2.579  0.00  0.00    -0.016 A 
ATOM      7  C6  BZF d   1       6.000  -4.462   1.842  0.00  0.00     0.022 A 
ATOM      8  C7  BZF d   1       5.998  -3.248   2.445  0.00  0.00     0.029 A 
ATOM      9  C7A BZF d   1       5.999  -3.232   3.818  0.00  0.00     0.058 A 
ENDROOT
TORSDOF 0
ENDMDL
