MODEL 1
REMARK minimizedAffinity -3.75811553
REMARK minimizedRMSD -1
REMARK  0 active torsions:
REMARK  status: ('A' for Active; 'I' for Inactive)
ROOT
ATOM      1  O1  BZF d   1       5.454  -5.222   4.695  0.00  0.00    -0.204 OA
ATOM      2  C2  BZF d   1       5.540  -4.748   5.990  0.00  0.00     0.174 A 
ATOM      3  C3  BZF d   1       5.810  -3.427   5.999  0.00  0.00    -0.012 A 
ATOM      4  C3A BZF d   1       5.806  -3.032   4.624  0.00  0.00    -0.107 A 
ATOM      5  C4  BZF d   1       5.995  -1.838   3.989  0.00  0.00     0.055 A 
ATOM      6  C5  BZF d   1       6.000  -1.805   2.631  0.00  0.00    -0.016 A 
ATOM      7  C6  BZF d   1       5.824  -2.947   1.877  0.00  0.00     0.022 A 
ATOM      8  C7  BZF d   1       5.628  -4.154   2.461  0.00  0.00     0.029 A 
ATOM      9  C7A BZF d   1       5.590  -4.185   3.834  0.00  0.00     0.058 A 
ENDROOT
TORSDOF 0
ENDMDL
