MODEL 1
REMARK minimizedAffinity 1.01440609
REMARK minimizedRMSD -1
REMARK  0 active torsions:
REMARK  status: ('A' for Active; 'I' for Inactive)
ROOT
ATOM      1  O1  BZF d   1       3.777  -3.796   2.908  0.00  0.00    -0.204 OA
ATOM      2  C2  BZF d   1       4.956  -3.260   2.427  0.00  0.00     0.174 A 
ATOM      3  C3  BZF d   1       6.000  -3.634   3.194  0.00  0.00    -0.012 A 
ATOM      4  C3A BZF d   1       5.451  -4.531   4.164  0.00  0.00    -0.107 A 
ATOM      5  C4  BZF d   1       5.993  -5.246   5.193  0.00  0.00     0.055 A 
ATOM      6  C5  BZF d   1       5.172  -5.970   5.999  0.00  0.00    -0.016 A 
ATOM      7  C6  BZF d   1       3.806  -5.997   5.808  0.00  0.00     0.022 A 
ATOM      8  C7  BZF d   1       3.223  -5.307   4.797  0.00  0.00     0.029 A 
ATOM      9  C7A BZF d   1       4.054  -4.601   3.962  0.00  0.00     0.058 A 
ENDROOT
TORSDOF 0
ENDMDL
