MODEL 1
REMARK minimizedAffinity -4.05370188
REMARK minimizedRMSD -1
REMARK  0 active torsions:
REMARK  status: ('A' for Active; 'I' for Inactive)
ROOT
ATOM      1  O1  BZF d   1       4.891  -4.040   5.999  0.00  0.00    -0.204 OA
ATOM      2  C2  BZF d   1       5.019  -5.415   5.990  0.00  0.00     0.174 A 
ATOM      3  C3  BZF d   1       5.384  -5.853   4.768  0.00  0.00    -0.012 A 
ATOM      4  C3A BZF d   1       5.581  -4.671   3.987  0.00  0.00    -0.107 A 
ATOM      5  C4  BZF d   1       5.966  -4.452   2.695  0.00  0.00     0.055 A 
ATOM      6  C5  BZF d   1       5.989  -3.179   2.220  0.00  0.00    -0.016 A 
ATOM      7  C6  BZF d   1       5.629  -2.104   3.006  0.00  0.00     0.022 A 
ATOM      8  C7  BZF d   1       5.246  -2.271   4.295  0.00  0.00     0.029 A 
ATOM      9  C7A BZF d   1       5.253  -3.552   4.788  0.00  0.00     0.058 A 
ENDROOT
TORSDOF 0
ENDMDL
