MODEL 1
REMARK minimizedAffinity -2.55550313
REMARK minimizedRMSD -1
REMARK  0 active torsions:
REMARK  status: ('A' for Active; 'I' for Inactive)
ROOT
ATOM      1  O1  BZF d   1       4.261  -4.728   6.000  0.00  0.00    -0.204 OA
ATOM      2  C2  BZF d   1       4.269  -5.995   5.450  0.00  0.00     0.174 A 
ATOM      3  C3  BZF d   1       4.779  -5.971   4.201  0.00  0.00    -0.012 A 
ATOM      4  C3A BZF d   1       5.196  -4.619   3.991  0.00  0.00    -0.107 A 
ATOM      5  C4  BZF d   1       5.793  -3.972   2.947  0.00  0.00     0.055 A 
ATOM      6  C5  BZF d   1       6.000  -2.632   3.031  0.00  0.00    -0.016 A 
ATOM      7  C6  BZF d   1       5.618  -1.907   4.141  0.00  0.00     0.022 A 
ATOM      8  C7  BZF d   1       5.027  -2.505   5.204  0.00  0.00     0.029 A 
ATOM      9  C7A BZF d   1       4.846  -3.865   5.135  0.00  0.00     0.058 A 
ENDROOT
TORSDOF 0
ENDMDL
