MODEL 1
REMARK minimizedAffinity -2.41288543
REMARK minimizedRMSD -1
REMARK  0 active torsions:
REMARK  status: ('A' for Active; 'I' for Inactive)
ROOT
ATOM      1  O1  BZF d   1       5.638  -5.153   2.550  0.00  0.00    -0.204 OA
ATOM      2  C2  BZF d   1       6.000  -4.181   1.639  0.00  0.00     0.174 A 
ATOM      3  C3  BZF d   1       5.978  -2.959   2.209  0.00  0.00    -0.012 A 
ATOM      4  C3A BZF d   1       5.666  -3.191   3.586  0.00  0.00    -0.107 A 
ATOM      5  C4  BZF d   1       5.517  -2.370   4.666  0.00  0.00     0.055 A 
ATOM      6  C5  BZF d   1       5.139  -2.906   5.856  0.00  0.00    -0.016 A 
ATOM      7  C6  BZF d   1       4.896  -4.256   6.000  0.00  0.00     0.022 A 
ATOM      8  C7  BZF d   1       5.035  -5.112   4.958  0.00  0.00     0.029 A 
ATOM      9  C7A BZF d   1       5.449  -4.578   3.762  0.00  0.00     0.058 A 
ENDROOT
TORSDOF 0
ENDMDL
