MODEL 1
REMARK minimizedAffinity -4.0560441
REMARK minimizedRMSD -1
REMARK  0 active torsions:
REMARK  status: ('A' for Active; 'I' for Inactive)
ROOT
ATOM      1  O1  BZF d   1       4.786  -1.871   4.929  0.00  0.00    -0.204 OA
ATOM      2  C2  BZF d   1       4.487  -2.711   5.985  0.00  0.00     0.174 A 
ATOM      3  C3  BZF d   1       4.669  -4.001   5.637  0.00  0.00    -0.012 A 
ATOM      4  C3A BZF d   1       5.196  -3.961   4.307  0.00  0.00    -0.107 A 
ATOM      5  C4  BZF d   1       5.594  -4.925   3.426  0.00  0.00     0.055 A 
ATOM      6  C5  BZF d   1       5.992  -4.557   2.180  0.00  0.00    -0.016 A 
ATOM      7  C6  BZF d   1       5.999  -3.237   1.780  0.00  0.00     0.022 A 
ATOM      8  C7  BZF d   1       5.618  -2.245   2.621  0.00  0.00     0.029 A 
ATOM      9  C7A BZF d   1       5.246  -2.610   3.892  0.00  0.00     0.058 A 
ENDROOT
TORSDOF 0
ENDMDL
