MODEL 1
REMARK minimizedAffinity -3.84799838
REMARK minimizedRMSD -1
REMARK  0 active torsions:
REMARK  status: ('A' for Active; 'I' for Inactive)
ROOT
ATOM      1  O1  BZF d   1       4.878  -4.436   5.840  0.00  0.00    -0.204 OA
ATOM      2  C2  BZF d   1       4.658  -3.073   5.894  0.00  0.00     0.174 A 
ATOM      3  C3  BZF d   1       4.952  -2.494   4.712  0.00  0.00    -0.012 A 
ATOM      4  C3A BZF d   1       5.294  -3.574   3.838  0.00  0.00    -0.107 A 
ATOM      5  C4  BZF d   1       5.663  -3.639   2.525  0.00  0.00     0.055 A 
ATOM      6  C5  BZF d   1       6.000  -4.843   1.992  0.00  0.00    -0.016 A 
ATOM      7  C6  BZF d   1       5.984  -5.999   2.744  0.00  0.00     0.022 A 
ATOM      8  C7  BZF d   1       5.619  -5.986   4.049  0.00  0.00     0.029 A 
ATOM      9  C7A BZF d   1       5.247  -4.776   4.582  0.00  0.00     0.058 A 
ENDROOT
TORSDOF 0
ENDMDL
