MODEL 1
REMARK minimizedAffinity -0.475006849
REMARK minimizedRMSD -1
REMARK  0 active torsions:
REMARK  status: ('A' for Active; 'I' for Inactive)
ROOT
ATOM      1  O1  BZF d   1       5.731  -5.989   4.942  0.00  0.00    -0.204 OA
ATOM      2  C2  BZF d   1       5.519  -5.125   5.999  0.00  0.00     0.174 A 
ATOM      3  C3  BZF d   1       5.485  -3.846   5.572  0.00  0.00    -0.012 A 
ATOM      4  C3A BZF d   1       5.596  -3.922   4.148  0.00  0.00    -0.107 A 
ATOM      5  C4  BZF d   1       5.607  -2.983   3.156  0.00  0.00     0.055 A 
ATOM      6  C5  BZF d   1       5.804  -3.381   1.872  0.00  0.00    -0.016 A 
ATOM      7  C6  BZF d   1       5.998  -4.707   1.545  0.00  0.00     0.022 A 
ATOM      8  C7  BZF d   1       5.990  -5.675   2.493  0.00  0.00     0.029 A 
ATOM      9  C7A BZF d   1       5.758  -5.279   3.788  0.00  0.00     0.058 A 
ENDROOT
TORSDOF 0
ENDMDL
