MODEL 1
REMARK minimizedAffinity -1.92461717
REMARK minimizedRMSD -1
REMARK  0 active torsions:
REMARK  status: ('A' for Active; 'I' for Inactive)
ROOT
ATOM      1  O1  BZF d   1       4.966  -1.983   4.629  0.00  0.00    -0.204 OA
ATOM      2  C2  BZF d   1       5.615  -1.826   3.419  0.00  0.00     0.174 A 
ATOM      3  C3  BZF d   1       6.000  -3.021   2.925  0.00  0.00    -0.012 A 
ATOM      4  C3A BZF d   1       5.484  -3.991   3.841  0.00  0.00    -0.107 A 
ATOM      5  C4  BZF d   1       5.523  -5.355   3.884  0.00  0.00     0.055 A 
ATOM      6  C5  BZF d   1       4.984  -5.998   4.953  0.00  0.00    -0.016 A 
ATOM      7  C6  BZF d   1       4.403  -5.309   5.997  0.00  0.00     0.022 A 
ATOM      8  C7  BZF d   1       4.336  -3.956   5.997  0.00  0.00     0.029 A 
ATOM      9  C7A BZF d   1       4.850  -3.304   4.902  0.00  0.00     0.058 A 
ENDROOT
TORSDOF 0
ENDMDL
