MODEL 1
REMARK minimizedAffinity -3.86892605
REMARK minimizedRMSD -1
REMARK  0 active torsions:
REMARK  status: ('A' for Active; 'I' for Inactive)
ROOT
ATOM      1  O1  BZF d   1       5.663  -3.887   6.000  0.00  0.00    -0.204 OA
ATOM      2  C2  BZF d   1       5.619  -2.506   5.983  0.00  0.00     0.174 A 
ATOM      3  C3  BZF d   1       5.756  -2.039   4.725  0.00  0.00    -0.012 A 
ATOM      4  C3A BZF d   1       5.800  -3.203   3.894  0.00  0.00    -0.107 A 
ATOM      5  C4  BZF d   1       5.911  -3.390   2.546  0.00  0.00     0.055 A 
ATOM      6  C5  BZF d   1       5.999  -4.656   2.060  0.00  0.00    -0.016 A 
ATOM      7  C6  BZF d   1       5.985  -5.756   2.892  0.00  0.00     0.022 A 
ATOM      8  C7  BZF d   1       5.873  -5.620   4.236  0.00  0.00     0.029 A 
ATOM      9  C7A BZF d   1       5.750  -4.344   4.728  0.00  0.00     0.058 A 
ENDROOT
TORSDOF 0
ENDMDL
