MODEL 1
REMARK minimizedAffinity -2.85999131
REMARK minimizedRMSD -1
REMARK  0 active torsions:
REMARK  status: ('A' for Active; 'I' for Inactive)
ROOT
ATOM      1  O1  BZF d   1       5.008  -4.361   5.691  0.00  0.00    -0.204 OA
ATOM      2  C2  BZF d   1       4.807  -3.027   5.987  0.00  0.00     0.174 A 
ATOM      3  C3  BZF d   1       5.069  -2.253   4.914  0.00  0.00    -0.012 A 
ATOM      4  C3A BZF d   1       5.369  -3.168   3.855  0.00  0.00    -0.107 A 
ATOM      5  C4  BZF d   1       5.694  -3.006   2.539  0.00  0.00     0.055 A 
ATOM      6  C5  BZF d   1       5.999  -4.101   1.794  0.00  0.00    -0.016 A 
ATOM      7  C6  BZF d   1       5.993  -5.370   2.334  0.00  0.00     0.022 A 
ATOM      8  C7  BZF d   1       5.671  -5.582   3.634  0.00  0.00     0.029 A 
ATOM      9  C7A BZF d   1       5.331  -4.480   4.380  0.00  0.00     0.058 A 
ENDROOT
TORSDOF 0
ENDMDL
