MODEL 1
REMARK minimizedAffinity -3.36080742
REMARK minimizedRMSD -1
REMARK  0 active torsions:
REMARK  status: ('A' for Active; 'I' for Inactive)
ROOT
ATOM      1  O1  BZF d   1       5.128  -5.195   4.699  0.00  0.00    -0.204 OA
ATOM      2  C2  BZF d   1       5.251  -4.726   5.992  0.00  0.00     0.174 A 
ATOM      3  C3  BZF d   1       5.642  -3.435   5.998  0.00  0.00    -0.012 A 
ATOM      4  C3A BZF d   1       5.682  -3.048   4.621  0.00  0.00    -0.107 A 
ATOM      5  C4  BZF d   1       5.985  -1.880   3.982  0.00  0.00     0.055 A 
ATOM      6  C5  BZF d   1       6.000  -1.854   2.624  0.00  0.00    -0.016 A 
ATOM      7  C6  BZF d   1       5.723  -2.978   1.873  0.00  0.00     0.022 A 
ATOM      8  C7  BZF d   1       5.412  -4.159   2.462  0.00  0.00     0.029 A 
ATOM      9  C7A BZF d   1       5.364  -4.179   3.834  0.00  0.00     0.058 A 
ENDROOT
TORSDOF 0
ENDMDL
