MODEL 1
REMARK minimizedAffinity 0.321766257
REMARK minimizedRMSD -1
REMARK  0 active torsions:
REMARK  status: ('A' for Active; 'I' for Inactive)
ROOT
ATOM      1  O1  BZF d   1       5.250  -5.244   2.635  0.00  0.00    -0.204 OA
ATOM      2  C2  BZF d   1       5.920  -4.299   1.882  0.00  0.00     0.174 A 
ATOM      3  C3  BZF d   1       5.999  -3.127   2.545  0.00  0.00    -0.012 A 
ATOM      4  C3A BZF d   1       5.418  -3.381   3.828  0.00  0.00    -0.107 A 
ATOM      5  C4  BZF d   1       5.220  -2.611   4.938  0.00  0.00     0.055 A 
ATOM      6  C5  BZF d   1       4.558  -3.141   6.000  0.00  0.00    -0.016 A 
ATOM      7  C6  BZF d   1       4.076  -4.433   5.984  0.00  0.00     0.022 A 
ATOM      8  C7  BZF d   1       4.253  -5.237   4.907  0.00  0.00     0.029 A 
ATOM      9  C7A BZF d   1       4.950  -4.716   3.845  0.00  0.00     0.058 A 
ENDROOT
TORSDOF 0
ENDMDL
