MODEL 1
REMARK minimizedAffinity -4.00420904
REMARK minimizedRMSD -1
REMARK  0 active torsions:
REMARK  status: ('A' for Active; 'I' for Inactive)
ROOT
ATOM      1  O1  BZF d   1       5.432  -3.147   5.477  0.00  0.00    -0.204 OA
ATOM      2  C2  BZF d   1       5.527  -4.433   5.972  0.00  0.00     0.174 A 
ATOM      3  C3  BZF d   1       5.610  -5.328   4.967  0.00  0.00    -0.012 A 
ATOM      4  C3A BZF d   1       5.657  -4.546   3.770  0.00  0.00    -0.107 A 
ATOM      5  C4  BZF d   1       5.757  -4.862   2.445  0.00  0.00     0.055 A 
ATOM      6  C5  BZF d   1       5.703  -3.865   1.522  0.00  0.00    -0.016 A 
ATOM      7  C6  BZF d   1       5.543  -2.545   1.888  0.00  0.00     0.022 A 
ATOM      8  C7  BZF d   1       5.445  -2.182   3.190  0.00  0.00     0.029 A 
ATOM      9  C7A BZF d   1       5.533  -3.183   4.127  0.00  0.00     0.058 A 
ENDROOT
TORSDOF 0
ENDMDL
