MODEL 1
REMARK minimizedAffinity -3.47654629
REMARK minimizedRMSD -1
REMARK  0 active torsions:
REMARK  status: ('A' for Active; 'I' for Inactive)
ROOT
ATOM      1  O1  BZF d   1       3.773  -2.652   5.169  0.00  0.00    -0.204 OA
ATOM      2  C2  BZF d   1       3.670  -3.751   6.000  0.00  0.00     0.174 A 
ATOM      3  C3  BZF d   1       4.280  -4.823   5.455  0.00  0.00    -0.012 A 
ATOM      4  C3A BZF d   1       4.877  -4.342   4.246  0.00  0.00    -0.107 A 
ATOM      5  C4  BZF d   1       5.633  -4.931   3.274  0.00  0.00     0.055 A 
ATOM      6  C5  BZF d   1       5.996  -4.201   2.187  0.00  0.00    -0.016 A 
ATOM      7  C6  BZF d   1       5.617  -2.883   2.038  0.00  0.00     0.022 A 
ATOM      8  C7  BZF d   1       4.871  -2.254   2.978  0.00  0.00     0.029 A 
ATOM      9  C7A BZF d   1       4.530  -2.979   4.094  0.00  0.00     0.058 A 
ENDROOT
TORSDOF 0
ENDMDL
