MODEL 1
REMARK minimizedAffinity -2.6543982
REMARK minimizedRMSD -1
REMARK  0 active torsions:
REMARK  status: ('A' for Active; 'I' for Inactive)
ROOT
ATOM      1  C4' PXY d   1       2.366  -2.202  -1.111  0.00  0.00     0.077 C 
ATOM      2  C1' PXY d   1      -1.772   1.443   0.623  0.00  0.00     0.077 C 
ATOM      3  C1  PXY d   1      -0.677   0.496   0.171  0.00  0.00    -0.082 A 
ATOM      4  C2  PXY d   1      -0.961  -0.469  -0.688  0.00  0.00     0.003 A 
ATOM      5  C3  PXY d   1       0.009  -1.354  -1.083  0.00  0.00     0.003 A 
ATOM      6  C4  PXY d   1       1.295  -1.217  -0.634  0.00  0.00    -0.082 A 
ATOM      7  C5  PXY d   1       1.595  -0.228   0.234  0.00  0.00     0.003 A 
ATOM      8  C6  PXY d   1       0.587   0.635   0.654  0.00  0.00     0.003 A 
ENDROOT
TORSDOF 0
ENDMDL
