MODEL 1
REMARK minimizedAffinity 0.984116852
REMARK minimizedRMSD -1
REMARK  0 active torsions:
REMARK  status: ('A' for Active; 'I' for Inactive)
ROOT
ATOM      1  C4' PXY d   1      -2.399   1.099  -0.443  0.00  0.00     0.077 C 
ATOM      2  C1' PXY d   1       2.475  -2.002  -0.244  0.00  0.00     0.077 C 
ATOM      3  C1  PXY d   1       1.200  -1.183  -0.286  0.00  0.00    -0.082 A 
ATOM      4  C2  PXY d   1       0.145  -1.646  -0.936  0.00  0.00     0.003 A 
ATOM      5  C3  PXY d   1      -1.005  -0.904  -1.011  0.00  0.00     0.003 A 
ATOM      6  C4  PXY d   1      -1.094   0.302  -0.367  0.00  0.00    -0.082 A 
ATOM      7  C5  PXY d   1      -0.026   0.776   0.308  0.00  0.00     0.003 A 
ATOM      8  C6  PXY d   1       1.146   0.026   0.337  0.00  0.00     0.003 A 
ENDROOT
TORSDOF 0
ENDMDL
