MODEL 1
REMARK minimizedAffinity -2.0059247
REMARK minimizedRMSD -1
REMARK  0 active torsions:
REMARK  status: ('A' for Active; 'I' for Inactive)
ROOT
ATOM      1  C4' PXY d   1       3.643  -0.711   1.393  0.00  0.00     0.077 C 
ATOM      2  C1' PXY d   1      -1.466   1.331  -0.379  0.00  0.00     0.077 C 
ATOM      3  C1  PXY d   1      -0.120   0.807   0.082  0.00  0.00    -0.082 A 
ATOM      4  C2  PXY d   1       0.089  -0.499   0.139  0.00  0.00     0.003 A 
ATOM      5  C3  PXY d   1       1.289  -0.990   0.585  0.00  0.00     0.003 A 
ATOM      6  C4  PXY d   1       2.304  -0.137   0.925  0.00  0.00    -0.082 A 
ATOM      7  C5  PXY d   1       2.102   1.196   0.859  0.00  0.00     0.003 A 
ATOM      8  C6  PXY d   1       0.863   1.675   0.443  0.00  0.00     0.003 A 
ENDROOT
TORSDOF 0
ENDMDL
