MODEL 1
REMARK minimizedAffinity -5.93460989
REMARK minimizedRMSD -1
REMARK  0 active torsions:
REMARK  status: ('A' for Active; 'I' for Inactive)
ROOT
ATOM      1  C4' PXY d   1       2.467   1.761   0.678  0.00  0.00     0.077 C 
ATOM      2  C1' PXY d   1      -0.201  -2.916  -1.427  0.00  0.00     0.077 C 
ATOM      3  C1  PXY d   1       0.490  -1.682  -0.881  0.00  0.00    -0.082 A 
ATOM      4  C2  PXY d   1       1.764  -1.747  -0.529  0.00  0.00     0.003 A 
ATOM      5  C3  PXY d   1       2.396  -0.649  -0.004  0.00  0.00     0.003 A 
ATOM      6  C4  PXY d   1       1.731   0.542   0.113  0.00  0.00    -0.082 A 
ATOM      7  C5  PXY d   1       0.434   0.620  -0.253  0.00  0.00     0.003 A 
ATOM      8  C6  PXY d   1      -0.200  -0.517  -0.746  0.00  0.00     0.003 A 
ENDROOT
TORSDOF 0
ENDMDL
