MODEL 1
REMARK minimizedAffinity -2.64970613
REMARK minimizedRMSD -1
REMARK  0 active torsions:
REMARK  status: ('A' for Active; 'I' for Inactive)
ROOT
ATOM      1  C4' PXY d   1       1.806  -3.539  -0.801  0.00  0.00     0.077 C 
ATOM      2  C1' PXY d   1       1.751   1.665   1.715  0.00  0.00     0.077 C 
ATOM      3  C1  PXY d   1       1.777   0.298   1.061  0.00  0.00    -0.082 A 
ATOM      4  C2  PXY d   1       1.079   0.088  -0.044  0.00  0.00     0.003 A 
ATOM      5  C3  PXY d   1       1.066  -1.151  -0.630  0.00  0.00     0.003 A 
ATOM      6  C4  PXY d   1       1.816  -2.172  -0.111  0.00  0.00    -0.082 A 
ATOM      7  C5  PXY d   1       2.539  -1.963   1.010  0.00  0.00     0.003 A 
ATOM      8  C6  PXY d   1       2.507  -0.709   1.613  0.00  0.00     0.003 A 
ENDROOT
TORSDOF 0
ENDMDL
