MODEL 1
REMARK minimizedAffinity -4.67064381
REMARK minimizedRMSD -1
REMARK  0 active torsions:
REMARK  status: ('A' for Active; 'I' for Inactive)
ROOT
ATOM      1  C4' PXY d   1      -1.367   0.804  -0.760  0.00  0.00     0.077 C 
ATOM      2  C1' PXY d   1       3.393  -1.686   1.377  0.00  0.00     0.077 C 
ATOM      3  C1  PXY d   1       2.146  -1.040   0.806  0.00  0.00    -0.082 A 
ATOM      4  C2  PXY d   1       1.770   0.153   1.238  0.00  0.00     0.003 A 
ATOM      5  C3  PXY d   1       0.627   0.737   0.756  0.00  0.00     0.003 A 
ATOM      6  C4  PXY d   1      -0.110   0.118  -0.218  0.00  0.00    -0.082 A 
ATOM      7  C5  PXY d   1       0.273  -1.095  -0.672  0.00  0.00     0.003 A 
ATOM      8  C6  PXY d   1       1.413  -1.689  -0.140  0.00  0.00     0.003 A 
ENDROOT
TORSDOF 0
ENDMDL
