MODEL 1
REMARK minimizedAffinity -3.4932847
REMARK minimizedRMSD -1
REMARK  0 active torsions:
REMARK  status: ('A' for Active; 'I' for Inactive)
ROOT
ATOM      1  C4' PXY d   1       2.774  -1.774  -0.688  0.00  0.00     0.077 C 
ATOM      2  C1' PXY d   1      -2.122   1.257  -0.190  0.00  0.00     0.077 C 
ATOM      3  C1  PXY d   1      -0.831   0.472  -0.318  0.00  0.00    -0.082 A 
ATOM      4  C2  PXY d   1      -0.803  -0.625  -1.056  0.00  0.00     0.003 A 
ATOM      5  C3  PXY d   1       0.348  -1.364  -1.157  0.00  0.00     0.003 A 
ATOM      6  C4  PXY d   1       1.496  -0.946  -0.538  0.00  0.00    -0.082 A 
ATOM      7  C5  PXY d   1       1.477   0.179   0.208  0.00  0.00     0.003 A 
ATOM      8  C6  PXY d   1       0.289   0.892   0.331  0.00  0.00     0.003 A 
ENDROOT
TORSDOF 0
ENDMDL
