MODEL 1
REMARK minimizedAffinity -0.132003233
REMARK minimizedRMSD -1
REMARK  0 active torsions:
REMARK  status: ('A' for Active; 'I' for Inactive)
ROOT
ATOM      1  C4' PXY d   1       3.763   0.486  -1.305  0.00  0.00     0.077 C 
ATOM      2  C1' PXY d   1      -1.875   0.551  -0.030  0.00  0.00     0.077 C 
ATOM      3  C1  PXY d   1      -0.397   0.547  -0.366  0.00  0.00    -0.082 A 
ATOM      4  C2  PXY d   1       0.154  -0.539  -0.884  0.00  0.00     0.003 A 
ATOM      5  C3  PXY d   1       1.496  -0.571  -1.163  0.00  0.00     0.003 A 
ATOM      6  C4  PXY d   1       2.272   0.538  -0.960  0.00  0.00    -0.082 A 
ATOM      7  C5  PXY d   1       1.716   1.654  -0.441  0.00  0.00     0.003 A 
ATOM      8  C6  PXY d   1       0.360   1.652  -0.126  0.00  0.00     0.003 A 
ENDROOT
TORSDOF 0
ENDMDL
