MODEL 1
REMARK minimizedAffinity -0.796162546
REMARK minimizedRMSD -1
REMARK  1 active torsions:
REMARK  status: ('A' for Active; 'I' for Inactive)
REMARK    1  A    between atoms: C3_4  and  O_7 
ROOT
ATOM      1  C   UNL d   1       0.656   4.125  -0.599  0.00  0.00    -0.033 A 
ATOM      2  C1  UNL d   1      -0.099   3.359   0.291  0.00  0.00     0.039 A 
ATOM      3  C2  UNL d   1       0.454   2.951   1.507  0.00  0.00    -0.080 A 
ATOM      4  C3  UNL d   1       1.761   3.315   1.819  0.00  0.00     0.150 A 
ATOM      5  C4  UNL d   1       2.518   4.081   0.938  0.00  0.00    -0.007 A 
ATOM      6  C5  UNL d   1       1.964   4.487  -0.275  0.00  0.00     0.039 A 
ENDROOT
BRANCH   4   7
ATOM      7  O   UNL d   1       2.345   2.936   2.991  0.00  0.00    -0.526 OA
ATOM      8  H5  UNL d   1       1.714   2.387   3.486  0.00  0.00     0.418 HD
ENDBRANCH   4   7
TORSDOF 1
ENDMDL
