MODEL 1
REMARK minimizedAffinity 4.25437021
REMARK minimizedRMSD -1
REMARK  1 active torsions:
REMARK  status: ('A' for Active; 'I' for Inactive)
REMARK    1  A    between atoms: C3_4  and  O_7 
ROOT
ATOM      1  C   UNL d   1       1.358   2.875   3.083  0.00  0.00    -0.033 A 
ATOM      2  C1  UNL d   1       2.175   3.721   2.330  0.00  0.00     0.039 A 
ATOM      3  C2  UNL d   1       1.818   4.059   1.023  0.00  0.00    -0.080 A 
ATOM      4  C3  UNL d   1       0.643   3.545   0.482  0.00  0.00     0.150 A 
ATOM      5  C4  UNL d   1      -0.177   2.705   1.227  0.00  0.00    -0.007 A 
ATOM      6  C5  UNL d   1       0.181   2.368   2.531  0.00  0.00     0.039 A 
ENDROOT
BRANCH   4   7
ATOM      7  O   UNL d   1       0.256   3.843  -0.791  0.00  0.00    -0.526 OA
ATOM      8  H5  UNL d   1       0.934   4.410  -1.195  0.00  0.00     0.418 HD
ENDBRANCH   4   7
TORSDOF 1
ENDMDL
