MODEL 1
REMARK minimizedAffinity 2.40406227
REMARK minimizedRMSD -1
REMARK  1 active torsions:
REMARK  status: ('A' for Active; 'I' for Inactive)
REMARK    1  A    between atoms: C3_4  and  O_7 
ROOT
ATOM      1  C   UNL d   1      -5.927   0.607  -5.704  0.00  0.00    -0.033 A 
ATOM      2  C1  UNL d   1      -5.898   2.003  -5.686  0.00  0.00     0.039 A 
ATOM      3  C2  UNL d   1      -5.921   2.688  -4.470  0.00  0.00    -0.080 A 
ATOM      4  C3  UNL d   1      -5.971   1.968  -3.280  0.00  0.00     0.150 A 
ATOM      5  C4  UNL d   1      -5.996   0.577  -3.290  0.00  0.00    -0.007 A 
ATOM      6  C5  UNL d   1      -5.974  -0.106  -4.505  0.00  0.00     0.039 A 
ENDROOT
BRANCH   4   7
ATOM      7  O   UNL d   1      -6.000   2.593  -2.069  0.00  0.00    -0.526 OA
ATOM      8  H5  UNL d   1      -6.007   3.553  -2.219  0.00  0.00     0.418 HD
ENDBRANCH   4   7
TORSDOF 1
ENDMDL
