MODEL 1
REMARK minimizedAffinity 8.26677513
REMARK minimizedRMSD -1
REMARK  1 active torsions:
REMARK  status: ('A' for Active; 'I' for Inactive)
REMARK    1  A    between atoms: C3_4  and  O_7 
ROOT
ATOM      1  C   UNL d   1       5.531  -4.067  -0.326  0.00  0.00    -0.033 A 
ATOM      2  C1  UNL d   1       5.348  -3.109  -1.325  0.00  0.00     0.039 A 
ATOM      3  C2  UNL d   1       4.864  -3.488  -2.579  0.00  0.00    -0.080 A 
ATOM      4  C3  UNL d   1       4.566  -4.827  -2.819  0.00  0.00     0.150 A 
ATOM      5  C4  UNL d   1       4.742  -5.786  -1.827  0.00  0.00    -0.007 A 
ATOM      6  C5  UNL d   1       5.226  -5.405  -0.576  0.00  0.00     0.039 A 
ENDROOT
BRANCH   4   7
ATOM      7  O   UNL d   1       4.096  -5.246  -4.028  0.00  0.00    -0.526 OA
ATOM      8  H5  UNL d   1       4.052  -4.479  -4.624  0.00  0.00     0.418 HD
ENDBRANCH   4   7
TORSDOF 1
ENDMDL
