MODEL 1
REMARK minimizedAffinity -5.3551259
REMARK minimizedRMSD -1
REMARK  1 active torsions:
REMARK  status: ('A' for Active; 'I' for Inactive)
REMARK    1  A    between atoms: C1_2  and  C2_3 
ROOT
ATOM      1  C2  UNL d   1      -0.077   0.054   0.106  0.00  0.00    -0.076 A 
ATOM      2  C3  UNL d   1      -0.809   1.006  -0.625  0.00  0.00     0.004 A 
ATOM      3  C4  UNL d   1      -1.727   1.844   0.006  0.00  0.00    -0.003 A 
ATOM      4  C5  UNL d   1      -1.927   1.744   1.379  0.00  0.00     0.000 A 
ATOM      5  C6  UNL d   1      -1.197   0.818   2.122  0.00  0.00     0.000 A 
ATOM      6  C7  UNL d   1      -0.256  -0.024   1.504  0.00  0.00    -0.073 A 
ATOM      7  C8  UNL d   1       0.499  -1.009   2.353  0.00  0.00     0.078 C 
ENDROOT
BRANCH   1   8
ATOM      8  C1  UNL d   1       0.884  -0.846  -0.636  0.00  0.00     0.053 C 
ATOM      9  C   UNL d   1       0.174  -1.803  -1.582  0.00  0.00     0.018 C 
ENDBRANCH   1   8
TORSDOF 1
ENDMDL
