MODEL 1
REMARK minimizedAffinity -3.12837672
REMARK minimizedRMSD -1
REMARK  1 active torsions:
REMARK  status: ('A' for Active; 'I' for Inactive)
REMARK    1  A    between atoms: C1_2  and  C2_3 
ROOT
ATOM      1  C2  UNL d   1      -0.625   1.099   1.010  0.00  0.00    -0.076 A 
ATOM      2  C3  UNL d   1      -0.363   1.986  -0.049  0.00  0.00     0.004 A 
ATOM      3  C4  UNL d   1       0.352   1.572  -1.171  0.00  0.00    -0.003 A 
ATOM      4  C5  UNL d   1       0.817   0.263  -1.253  0.00  0.00     0.000 A 
ATOM      5  C6  UNL d   1       0.551  -0.635  -0.220  0.00  0.00     0.000 A 
ATOM      6  C7  UNL d   1      -0.183  -0.238   0.911  0.00  0.00    -0.073 A 
ATOM      7  C8  UNL d   1      -0.435  -1.246   1.998  0.00  0.00     0.078 C 
ENDROOT
BRANCH   1   8
ATOM      8  C1  UNL d   1      -1.382   1.612   2.214  0.00  0.00     0.053 C 
ATOM      9  C   UNL d   1      -2.263   2.806   1.883  0.00  0.00     0.018 C 
ENDBRANCH   1   8
TORSDOF 1
ENDMDL
