MODEL 1
REMARK minimizedAffinity -3.13967466
REMARK minimizedRMSD -1
REMARK  1 active torsions:
REMARK  status: ('A' for Active; 'I' for Inactive)
REMARK    1  A    between atoms: C1_2  and  C2_3 
ROOT
ATOM      1  C2  UNL d   1      -0.473   1.337   1.094  0.00  0.00    -0.076 A 
ATOM      2  C3  UNL d   1      -0.173   2.111  -0.040  0.00  0.00     0.004 A 
ATOM      3  C4  UNL d   1       0.553   1.576  -1.103  0.00  0.00    -0.003 A 
ATOM      4  C5  UNL d   1       0.991   0.257  -1.048  0.00  0.00     0.000 A 
ATOM      5  C6  UNL d   1       0.687  -0.531   0.061  0.00  0.00     0.000 A 
ATOM      6  C7  UNL d   1      -0.058  -0.012   1.134  0.00  0.00    -0.073 A 
ATOM      7  C8  UNL d   1      -0.352  -0.905   2.308  0.00  0.00     0.078 C 
ENDROOT
BRANCH   1   8
ATOM      8  C1  UNL d   1      -1.240   1.979   2.228  0.00  0.00     0.053 C 
ATOM      9  C   UNL d   1      -2.629   2.433   1.807  0.00  0.00     0.018 C 
ENDBRANCH   1   8
TORSDOF 1
ENDMDL
