MODEL 1
REMARK minimizedAffinity -4.05883598
REMARK minimizedRMSD -1
REMARK  1 active torsions:
REMARK  status: ('A' for Active; 'I' for Inactive)
REMARK    1  A    between atoms: C1_2  and  C2_3 
ROOT
ATOM      1  C2  UNL d   1       1.466  -2.213  -2.247  0.00  0.00    -0.076 A 
ATOM      2  C3  UNL d   1       2.177  -1.516  -3.239  0.00  0.00     0.004 A 
ATOM      3  C4  UNL d   1       1.837  -1.639  -4.585  0.00  0.00    -0.003 A 
ATOM      4  C5  UNL d   1       0.780  -2.460  -4.961  0.00  0.00     0.000 A 
ATOM      5  C6  UNL d   1       0.053  -3.146  -3.989  0.00  0.00     0.000 A 
ATOM      6  C7  UNL d   1       0.372  -3.020  -2.626  0.00  0.00    -0.073 A 
ATOM      7  C8  UNL d   1      -0.442  -3.787  -1.620  0.00  0.00     0.078 C 
ENDROOT
BRANCH   1   8
ATOM      8  C1  UNL d   1       1.897  -2.062  -0.806  0.00  0.00     0.053 C 
ATOM      9  C   UNL d   1       1.327  -0.811  -0.155  0.00  0.00     0.018 C 
ENDBRANCH   1   8
TORSDOF 1
ENDMDL
