MODEL 1
REMARK minimizedAffinity -4.56592989
REMARK minimizedRMSD -1
REMARK  1 active torsions:
REMARK  status: ('A' for Active; 'I' for Inactive)
REMARK    1  A    between atoms: C1_2  and  C2_3 
ROOT
ATOM      1  C2  UNL d   1      -0.269   0.113   0.688  0.00  0.00    -0.076 A 
ATOM      2  C3  UNL d   1      -1.201   0.788  -0.120  0.00  0.00     0.004 A 
ATOM      3  C4  UNL d   1      -2.162   1.627   0.442  0.00  0.00    -0.003 A 
ATOM      4  C5  UNL d   1      -2.205   1.806   1.820  0.00  0.00     0.000 A 
ATOM      5  C6  UNL d   1      -1.277   1.158   2.635  0.00  0.00     0.000 A 
ATOM      6  C7  UNL d   1      -0.292   0.322   2.083  0.00  0.00    -0.073 A 
ATOM      7  C8  UNL d   1       0.681  -0.356   3.009  0.00  0.00     0.078 C 
ENDROOT
BRANCH   1   8
ATOM      8  C1  UNL d   1       0.733  -0.805   0.024  0.00  0.00     0.053 C 
ATOM      9  C   UNL d   1       1.115  -0.340  -1.372  0.00  0.00     0.018 C 
ENDBRANCH   1   8
TORSDOF 1
ENDMDL
