MODEL 1
REMARK minimizedAffinity -5.11504269
REMARK minimizedRMSD -1
REMARK  1 active torsions:
REMARK  status: ('A' for Active; 'I' for Inactive)
REMARK    1  A    between atoms: C1_2  and  C2_3 
ROOT
ATOM      1  C2  UNL d   1       0.171   0.425  -0.254  0.00  0.00    -0.076 A 
ATOM      2  C3  UNL d   1      -0.279  -0.287   0.872  0.00  0.00     0.004 A 
ATOM      3  C4  UNL d   1      -1.219   0.265   1.740  0.00  0.00    -0.003 A 
ATOM      4  C5  UNL d   1      -1.725   1.537   1.496  0.00  0.00     0.000 A 
ATOM      5  C6  UNL d   1      -1.303   2.250   0.375  0.00  0.00     0.000 A 
ATOM      6  C7  UNL d   1      -0.368   1.701  -0.520  0.00  0.00    -0.073 A 
ATOM      7  C8  UNL d   1       0.056   2.517  -1.710  0.00  0.00     0.078 C 
ENDROOT
BRANCH   1   8
ATOM      8  C1  UNL d   1       1.213  -0.214  -1.146  0.00  0.00     0.053 C 
ATOM      9  C   UNL d   1       0.985  -1.706  -1.331  0.00  0.00     0.018 C 
ENDBRANCH   1   8
TORSDOF 1
ENDMDL
