MODEL 1
REMARK minimizedAffinity -1.86737955
REMARK minimizedRMSD -1
REMARK  1 active torsions:
REMARK  status: ('A' for Active; 'I' for Inactive)
REMARK    1  A    between atoms: C1_2  and  C2_3 
ROOT
ATOM      1  C2  UNL d   1      -0.657   0.651   0.833  0.00  0.00    -0.076 A 
ATOM      2  C3  UNL d   1      -0.689   1.236  -0.445  0.00  0.00     0.004 A 
ATOM      3  C4  UNL d   1      -0.027   0.647  -1.521  0.00  0.00    -0.003 A 
ATOM      4  C5  UNL d   1       0.677  -0.538  -1.336  0.00  0.00     0.000 A 
ATOM      5  C6  UNL d   1       0.705  -1.142  -0.080  0.00  0.00     0.000 A 
ATOM      6  C7  UNL d   1       0.029  -0.569   1.012  0.00  0.00    -0.073 A 
ATOM      7  C8  UNL d   1       0.098  -1.260   2.346  0.00  0.00     0.078 C 
ENDROOT
BRANCH   1   8
ATOM      8  C1  UNL d   1      -1.371   1.350   1.968  0.00  0.00     0.053 C 
ATOM      9  C   UNL d   1      -2.601   2.112   1.501  0.00  0.00     0.018 C 
ENDBRANCH   1   8
TORSDOF 1
ENDMDL
