MODEL 1
REMARK minimizedAffinity -5.87997532
REMARK minimizedRMSD -1
REMARK  1 active torsions:
REMARK  status: ('A' for Active; 'I' for Inactive)
REMARK    1  A    between atoms: C1_2  and  C2_3 
ROOT
ATOM      1  C2  UNL d   1       0.441   0.117  -0.075  0.00  0.00    -0.076 A 
ATOM      2  C3  UNL d   1       0.056   1.249  -0.815  0.00  0.00     0.004 A 
ATOM      3  C4  UNL d   1      -0.909   2.130  -0.329  0.00  0.00    -0.003 A 
ATOM      4  C5  UNL d   1      -1.505   1.893   0.905  0.00  0.00     0.000 A 
ATOM      5  C6  UNL d   1      -1.123   0.785   1.660  0.00  0.00     0.000 A 
ATOM      6  C7  UNL d   1      -0.140  -0.104   1.192  0.00  0.00    -0.073 A 
ATOM      7  C8  UNL d   1       0.229  -1.287   2.045  0.00  0.00     0.078 C 
ENDROOT
BRANCH   1   8
ATOM      8  C1  UNL d   1       1.473  -0.817  -0.665  0.00  0.00     0.053 C 
ATOM      9  C   UNL d   1       0.882  -1.756  -1.705  0.00  0.00     0.018 C 
ENDBRANCH   1   8
TORSDOF 1
ENDMDL
