MODEL 1
REMARK minimizedAffinity -5.82256794
REMARK minimizedRMSD -1
REMARK  1 active torsions:
REMARK  status: ('A' for Active; 'I' for Inactive)
REMARK    1  A    between atoms: C1_2  and  C2_3 
ROOT
ATOM      1  C2  UNL d   1       0.183  -0.060  -0.125  0.00  0.00    -0.076 A 
ATOM      2  C3  UNL d   1      -0.146  -0.821   1.010  0.00  0.00     0.004 A 
ATOM      3  C4  UNL d   1      -1.052  -0.344   1.956  0.00  0.00    -0.003 A 
ATOM      4  C5  UNL d   1      -1.643   0.902   1.782  0.00  0.00     0.000 A 
ATOM      5  C6  UNL d   1      -1.342   1.664   0.654  0.00  0.00     0.000 A 
ATOM      6  C7  UNL d   1      -0.443   1.190  -0.318  0.00  0.00    -0.073 A 
ATOM      7  C8  UNL d   1      -0.150   2.056  -1.513  0.00  0.00     0.078 C 
ENDROOT
BRANCH   1   8
ATOM      8  C1  UNL d   1       1.192  -0.617  -1.103  0.00  0.00     0.053 C 
ATOM      9  C   UNL d   1       0.770  -1.963  -1.672  0.00  0.00     0.018 C 
ENDBRANCH   1   8
TORSDOF 1
ENDMDL
