MODEL 1
REMARK minimizedAffinity -5.65079069
REMARK minimizedRMSD -1
REMARK  1 active torsions:
REMARK  status: ('A' for Active; 'I' for Inactive)
REMARK    1  A    between atoms: C1_2  and  C2_3 
ROOT
ATOM      1  C2  UNL d   1      -0.004   0.589   0.099  0.00  0.00    -0.076 A 
ATOM      2  C3  UNL d   1      -0.816   1.574  -0.491  0.00  0.00     0.004 A 
ATOM      3  C4  UNL d   1      -1.889   2.130   0.205  0.00  0.00    -0.003 A 
ATOM      4  C5  UNL d   1      -2.167   1.711   1.501  0.00  0.00     0.000 A 
ATOM      5  C6  UNL d   1      -1.361   0.748   2.108  0.00  0.00     0.000 A 
ATOM      6  C7  UNL d   1      -0.266   0.189   1.426  0.00  0.00    -0.073 A 
ATOM      7  C8  UNL d   1       0.566  -0.851   2.127  0.00  0.00     0.078 C 
ENDROOT
BRANCH   1   8
ATOM      8  C1  UNL d   1       1.128   0.003  -0.713  0.00  0.00     0.053 C 
ATOM      9  C   UNL d   1       0.733  -1.284  -1.420  0.00  0.00     0.018 C 
ENDBRANCH   1   8
TORSDOF 1
ENDMDL
