MODEL 1
REMARK minimizedAffinity -4.05327702
REMARK minimizedRMSD -1
REMARK  1 active torsions:
REMARK  status: ('A' for Active; 'I' for Inactive)
REMARK    1  A    between atoms: C1_2  and  C2_3 
ROOT
ATOM      1  C2  UNL d   1       0.010   0.348  -0.433  0.00  0.00    -0.076 A 
ATOM      2  C3  UNL d   1      -0.505   1.529  -0.995  0.00  0.00     0.004 A 
ATOM      3  C4  UNL d   1      -1.430   2.308  -0.303  0.00  0.00    -0.003 A 
ATOM      4  C5  UNL d   1      -1.855   1.919   0.963  0.00  0.00     0.000 A 
ATOM      5  C6  UNL d   1      -1.342   0.760   1.543  0.00  0.00     0.000 A 
ATOM      6  C7  UNL d   1      -0.396  -0.029   0.865  0.00  0.00    -0.073 A 
ATOM      7  C8  UNL d   1       0.121  -1.272   1.536  0.00  0.00     0.078 C 
ENDROOT
BRANCH   1   8
ATOM      8  C1  UNL d   1       0.991  -0.471  -1.242  0.00  0.00     0.053 C 
ATOM      9  C   UNL d   1       0.301  -1.490  -2.136  0.00  0.00     0.018 C 
ENDBRANCH   1   8
TORSDOF 1
ENDMDL
