MODEL 1
REMARK minimizedAffinity -3.72813654
REMARK minimizedRMSD -1
REMARK  0 active torsions:
REMARK  status: ('A' for Active; 'I' for Inactive)
ROOT
ATOM      1  C   UNL d   1      -0.625  -3.575  -0.156  0.00  0.00     0.020 A 
ATOM      2  C1  UNL d   1      -0.147  -2.992  -1.330  0.00  0.00     0.020 A 
ATOM      3  C2  UNL d   1       0.095  -1.618  -1.378  0.00  0.00     0.034 A 
ATOM      4  C3  UNL d   1      -0.141  -0.821  -0.252  0.00  0.00     0.017 A 
ATOM      5  C4  UNL d   1      -0.622  -1.406   0.925  0.00  0.00     0.017 A 
ATOM      6  C5  UNL d   1      -0.862  -2.783   0.968  0.00  0.00     0.034 A 
ATOM      7 Cl   UNL d   1      -0.937  -0.488   2.355  0.00  0.00    -0.070 Cl
ATOM      8 Cl1  UNL d   1       0.180   0.872  -0.384  0.00  0.00    -0.070 Cl
ENDROOT
TORSDOF 0
ENDMDL
