MODEL 1
REMARK minimizedAffinity -2.22376871
REMARK minimizedRMSD -1
REMARK  0 active torsions:
REMARK  status: ('A' for Active; 'I' for Inactive)
ROOT
ATOM      1  C   UNL d   1       0.172  -2.428  -1.990  0.00  0.00     0.020 A 
ATOM      2  C1  UNL d   1      -0.225  -3.069  -0.817  0.00  0.00     0.020 A 
ATOM      3  C2  UNL d   1      -0.417  -2.330   0.352  0.00  0.00     0.034 A 
ATOM      4  C3  UNL d   1      -0.212  -0.946   0.351  0.00  0.00     0.017 A 
ATOM      5  C4  UNL d   1       0.187  -0.303  -0.826  0.00  0.00     0.017 A 
ATOM      6  C5  UNL d   1       0.377  -1.048  -1.994  0.00  0.00     0.034 A 
ATOM      7 Cl   UNL d   1       0.460   1.402  -0.905  0.00  0.00    -0.070 Cl
ATOM      8 Cl1  UNL d   1      -0.468  -0.095   1.833  0.00  0.00    -0.070 Cl
ENDROOT
TORSDOF 0
ENDMDL
