MODEL 1
REMARK minimizedAffinity -5.27480268
REMARK minimizedRMSD -1
REMARK  0 active torsions:
REMARK  status: ('A' for Active; 'I' for Inactive)
ROOT
ATOM      1  C   UNL d   1       0.157  -3.550   0.552  0.00  0.00     0.020 A 
ATOM      2  C1  UNL d   1      -0.043  -2.501   1.448  0.00  0.00     0.020 A 
ATOM      3  C2  UNL d   1      -0.118  -1.188   0.980  0.00  0.00     0.034 A 
ATOM      4  C3  UNL d   1       0.009  -0.920  -0.388  0.00  0.00     0.017 A 
ATOM      5  C4  UNL d   1       0.210  -1.973  -1.287  0.00  0.00     0.017 A 
ATOM      6  C5  UNL d   1       0.283  -3.287  -0.813  0.00  0.00     0.034 A 
ATOM      7 Cl   UNL d   1       0.375  -1.721  -2.989  0.00  0.00    -0.070 Cl
ATOM      8 Cl1  UNL d   1      -0.093   0.729  -0.896  0.00  0.00    -0.070 Cl
ENDROOT
TORSDOF 0
ENDMDL
