MODEL 1
REMARK minimizedAffinity -3.32559276
REMARK minimizedRMSD -1
REMARK  0 active torsions:
REMARK  status: ('A' for Active; 'I' for Inactive)
ROOT
ATOM      1  C   UNL d   1       0.063  -3.508  -0.538  0.00  0.00     0.020 A 
ATOM      2  C1  UNL d   1       0.906  -2.876  -1.450  0.00  0.00     0.020 A 
ATOM      3  C2  UNL d   1       0.988  -1.482  -1.476  0.00  0.00     0.034 A 
ATOM      4  C3  UNL d   1       0.225  -0.716  -0.587  0.00  0.00     0.017 A 
ATOM      5  C4  UNL d   1      -0.622  -1.352   0.328  0.00  0.00     0.017 A 
ATOM      6  C5  UNL d   1      -0.700  -2.748   0.349  0.00  0.00     0.034 A 
ATOM      7 Cl   UNL d   1      -1.595  -0.474   1.455  0.00  0.00    -0.070 Cl
ATOM      8 Cl1  UNL d   1       0.376   1.003  -0.674  0.00  0.00    -0.070 Cl
ENDROOT
TORSDOF 0
ENDMDL
