MODEL 1
REMARK minimizedAffinity -5.46484852
REMARK minimizedRMSD -1
REMARK  0 active torsions:
REMARK  status: ('A' for Active; 'I' for Inactive)
ROOT
ATOM      1  C   UNL d   1      -0.339  -3.529  -0.277  0.00  0.00     0.020 A 
ATOM      2  C1  UNL d   1      -0.034  -3.198  -1.596  0.00  0.00     0.020 A 
ATOM      3  C2  UNL d   1       0.143  -1.860  -1.958  0.00  0.00     0.034 A 
ATOM      4  C3  UNL d   1       0.013  -0.849  -0.999  0.00  0.00     0.017 A 
ATOM      5  C4  UNL d   1      -0.293  -1.183   0.326  0.00  0.00     0.017 A 
ATOM      6  C5  UNL d   1      -0.469  -2.523   0.682  0.00  0.00     0.034 A 
ATOM      7 Cl   UNL d   1      -0.469   0.009   1.565  0.00  0.00    -0.070 Cl
ATOM      8 Cl1  UNL d   1       0.245   0.783  -1.516  0.00  0.00    -0.070 Cl
ENDROOT
TORSDOF 0
ENDMDL
