MODEL 1
REMARK minimizedAffinity -5.36563969
REMARK minimizedRMSD -1
REMARK  0 active torsions:
REMARK  status: ('A' for Active; 'I' for Inactive)
ROOT
ATOM      1  C   UNL d   1      -0.715  -2.840   0.685  0.00  0.00     0.020 A 
ATOM      2  C1  UNL d   1      -0.424  -3.585  -0.458  0.00  0.00     0.020 A 
ATOM      3  C2  UNL d   1      -0.021  -2.939  -1.628  0.00  0.00     0.034 A 
ATOM      4  C3  UNL d   1       0.093  -1.544  -1.659  0.00  0.00     0.017 A 
ATOM      5  C4  UNL d   1      -0.199  -0.797  -0.512  0.00  0.00     0.017 A 
ATOM      6  C5  UNL d   1      -0.603  -1.449   0.657  0.00  0.00     0.034 A 
ATOM      7 Cl   UNL d   1      -0.082   0.927  -0.474  0.00  0.00    -0.070 Cl
ATOM      8 Cl1  UNL d   1       0.597  -0.812  -3.141  0.00  0.00    -0.070 Cl
ENDROOT
TORSDOF 0
ENDMDL
