MODEL 1
REMARK minimizedAffinity 0.069665432
REMARK minimizedRMSD -1
REMARK  0 active torsions:
REMARK  status: ('A' for Active; 'I' for Inactive)
ROOT
ATOM      1  C   UNL d   1       0.260  -2.372  -0.520  0.00  0.00     0.020 A 
ATOM      2  C1  UNL d   1      -0.644  -2.806   0.449  0.00  0.00     0.020 A 
ATOM      3  C2  UNL d   1      -1.213  -1.889   1.334  0.00  0.00     0.034 A 
ATOM      4  C3  UNL d   1      -0.880  -0.532   1.252  0.00  0.00     0.017 A 
ATOM      5  C4  UNL d   1       0.027  -0.097   0.279  0.00  0.00     0.017 A 
ATOM      6  C5  UNL d   1       0.594  -1.020  -0.605  0.00  0.00     0.034 A 
ATOM      7 Cl   UNL d   1       0.487   1.562   0.117  0.00  0.00    -0.070 Cl
ATOM      8 Cl1  UNL d   1      -1.622   0.547   2.379  0.00  0.00    -0.070 Cl
ENDROOT
TORSDOF 0
ENDMDL
