MODEL 1
REMARK minimizedAffinity -5.96531582
REMARK minimizedRMSD -1
REMARK  0 active torsions:
REMARK  status: ('A' for Active; 'I' for Inactive)
ROOT
ATOM      1  C   UNL d   1      -0.146  -2.178   1.456  0.00  0.00     0.020 A 
ATOM      2  C1  UNL d   1       0.101  -3.299   0.665  0.00  0.00     0.020 A 
ATOM      3  C2  UNL d   1       0.274  -3.158  -0.713  0.00  0.00     0.034 A 
ATOM      4  C3  UNL d   1       0.200  -1.891  -1.305  0.00  0.00     0.017 A 
ATOM      5  C4  UNL d   1      -0.047  -0.766  -0.511  0.00  0.00     0.017 A 
ATOM      6  C5  UNL d   1      -0.220  -0.914   0.869  0.00  0.00     0.034 A 
ATOM      7 Cl   UNL d   1      -0.152   0.829  -1.169  0.00  0.00    -0.070 Cl
ATOM      8 Cl1  UNL d   1       0.425  -1.790  -3.015  0.00  0.00    -0.070 Cl
ENDROOT
TORSDOF 0
ENDMDL
