MODEL 1
REMARK minimizedAffinity -3.14630842
REMARK minimizedRMSD -1
REMARK  0 active torsions:
REMARK  status: ('A' for Active; 'I' for Inactive)
ROOT
ATOM      1  C   UNL d   1      -1.015  -0.406   0.670  0.00  0.00     0.020 A 
ATOM      2  C1  UNL d   1       0.061  -0.875   1.422  0.00  0.00     0.020 A 
ATOM      3  C2  UNL d   1       1.223  -0.109   1.531  0.00  0.00     0.034 A 
ATOM      4  C3  UNL d   1       1.312   1.130   0.888  0.00  0.00     0.017 A 
ATOM      5  C4  UNL d   1       0.232   1.601   0.133  0.00  0.00     0.017 A 
ATOM      6  C5  UNL d   1      -0.930   0.830   0.027  0.00  0.00     0.034 A 
ATOM      7 Cl   UNL d   1       0.268   3.121  -0.690  0.00  0.00    -0.070 Cl
ATOM      8 Cl1  UNL d   1       2.780   2.025   1.067  0.00  0.00    -0.070 Cl
ENDROOT
TORSDOF 0
ENDMDL
