MODEL 1
REMARK minimizedAffinity -5.29087687
REMARK minimizedRMSD -1
REMARK  0 active torsions:
REMARK  status: ('A' for Active; 'I' for Inactive)
ROOT
ATOM      1  C   UNL d   1       0.201  -0.779   1.301  0.00  0.00     0.020 A 
ATOM      2  C1  UNL d   1       0.594  -0.079   0.161  0.00  0.00     0.020 A 
ATOM      3  C2  UNL d   1       0.592  -0.713  -1.083  0.00  0.00     0.034 A 
ATOM      4  C3  UNL d   1       0.197  -2.052  -1.191  0.00  0.00     0.017 A 
ATOM      5  C4  UNL d   1      -0.197  -2.754  -0.046  0.00  0.00     0.017 A 
ATOM      6  C5  UNL d   1      -0.194  -2.114   1.198  0.00  0.00     0.034 A 
ATOM      7 Cl   UNL d   1      -0.698  -4.407  -0.099  0.00  0.00    -0.070 Cl
ATOM      8 Cl1  UNL d   1       0.219  -2.773  -2.761  0.00  0.00    -0.070 Cl
ENDROOT
TORSDOF 0
ENDMDL
