MODEL 1
REMARK minimizedAffinity -2.97016525
REMARK minimizedRMSD -1
REMARK  0 active torsions:
REMARK  status: ('A' for Active; 'I' for Inactive)
ROOT
ATOM      1  C   UNL d   1       0.562  -2.214  -0.382  0.00  0.00     0.020 A 
ATOM      2  C1  UNL d   1      -0.250  -2.800   0.588  0.00  0.00     0.020 A 
ATOM      3  C2  UNL d   1      -0.916  -1.999   1.519  0.00  0.00     0.034 A 
ATOM      4  C3  UNL d   1      -0.770  -0.608   1.481  0.00  0.00     0.017 A 
ATOM      5  C4  UNL d   1       0.046  -0.020   0.507  0.00  0.00     0.017 A 
ATOM      6  C5  UNL d   1       0.709  -0.827  -0.422  0.00  0.00     0.034 A 
ATOM      7 Cl   UNL d   1       0.275   1.689   0.398  0.00  0.00    -0.070 Cl
ATOM      8 Cl1  UNL d   1      -1.622   0.322   2.663  0.00  0.00    -0.070 Cl
ENDROOT
TORSDOF 0
ENDMDL
