MODEL 1
REMARK minimizedAffinity -3.67266464
REMARK minimizedRMSD -1
REMARK  0 active torsions:
REMARK  status: ('A' for Active; 'I' for Inactive)
ROOT
ATOM      1  C   UNL d   1       0.069  -3.339  -1.114  0.00  0.00     0.020 A 
ATOM      2  C1  UNL d   1       0.306  -2.354  -2.072  0.00  0.00     0.020 A 
ATOM      3  C2  UNL d   1       0.273  -1.006  -1.710  0.00  0.00     0.034 A 
ATOM      4  C3  UNL d   1       0.002  -0.638  -0.387  0.00  0.00     0.017 A 
ATOM      5  C4  UNL d   1      -0.236  -1.628   0.573  0.00  0.00     0.017 A 
ATOM      6  C5  UNL d   1      -0.202  -2.976   0.206  0.00  0.00     0.034 A 
ATOM      7 Cl   UNL d   1      -0.578  -1.252   2.226  0.00  0.00    -0.070 Cl
ATOM      8 Cl1  UNL d   1      -0.023   1.048  -0.011  0.00  0.00    -0.070 Cl
ENDROOT
TORSDOF 0
ENDMDL
