MODEL 1
REMARK minimizedAffinity -3.14121771
REMARK minimizedRMSD -1
REMARK  0 active torsions:
REMARK  status: ('A' for Active; 'I' for Inactive)
ROOT
ATOM      1  C   UNL d   1       0.428  -2.739  -1.083  0.00  0.00     0.020 A 
ATOM      2  C1  UNL d   1      -0.218  -3.296   0.020  0.00  0.00     0.020 A 
ATOM      3  C2  UNL d   1      -0.735  -2.468   1.019  0.00  0.00     0.034 A 
ATOM      4  C3  UNL d   1      -0.606  -1.079   0.917  0.00  0.00     0.017 A 
ATOM      5  C4  UNL d   1       0.043  -0.520  -0.190  0.00  0.00     0.017 A 
ATOM      6  C5  UNL d   1       0.558  -1.354  -1.187  0.00  0.00     0.034 A 
ATOM      7 Cl   UNL d   1       0.240   1.186  -0.385  0.00  0.00    -0.070 Cl
ATOM      8 Cl1  UNL d   1      -1.269  -0.115   2.189  0.00  0.00    -0.070 Cl
ENDROOT
TORSDOF 0
ENDMDL
