MODEL 1
REMARK minimizedAffinity -4.96343184
REMARK minimizedRMSD -1
REMARK  0 active torsions:
REMARK  status: ('A' for Active; 'I' for Inactive)
ROOT
ATOM      1  C   UNL d   1      -0.743  -1.354   1.470  0.00  0.00     0.020 A 
ATOM      2  C1  UNL d   1      -0.412  -2.654   1.088  0.00  0.00     0.020 A 
ATOM      3  C2  UNL d   1      -0.035  -2.919  -0.230  0.00  0.00     0.034 A 
ATOM      4  C3  UNL d   1       0.010  -1.884  -1.172  0.00  0.00     0.017 A 
ATOM      5  C4  UNL d   1      -0.322  -0.580  -0.787  0.00  0.00     0.017 A 
ATOM      6  C5  UNL d   1      -0.698  -0.320   0.534  0.00  0.00     0.034 A 
ATOM      7 Cl   UNL d   1      -0.289   0.748  -1.892  0.00  0.00    -0.070 Cl
ATOM      8 Cl1  UNL d   1       0.485  -2.285  -2.784  0.00  0.00    -0.070 Cl
ENDROOT
TORSDOF 0
ENDMDL
