MODEL 1
REMARK minimizedAffinity -4.85774183
REMARK minimizedRMSD -1
REMARK  0 active torsions:
REMARK  status: ('A' for Active; 'I' for Inactive)
ROOT
ATOM      1  C   UNL d   1       0.253  -3.550  -1.782  0.00  0.00     0.020 A 
ATOM      2  C1  UNL d   1      -0.214  -3.892  -0.514  0.00  0.00     0.020 A 
ATOM      3  C2  UNL d   1      -0.588  -2.891   0.386  0.00  0.00     0.034 A 
ATOM      4  C3  UNL d   1      -0.494  -1.543   0.018  0.00  0.00     0.017 A 
ATOM      5  C4  UNL d   1      -0.024  -1.201  -1.255  0.00  0.00     0.017 A 
ATOM      6  C5  UNL d   1       0.348  -2.208  -2.152  0.00  0.00     0.034 A 
ATOM      7 Cl   UNL d   1       0.119   0.439  -1.780  0.00  0.00    -0.070 Cl
ATOM      8 Cl1  UNL d   1      -0.973  -0.358   1.181  0.00  0.00    -0.070 Cl
ENDROOT
TORSDOF 0
ENDMDL
