MODEL 1
REMARK minimizedAffinity -5.39078331
REMARK minimizedRMSD -1
REMARK  0 active torsions:
REMARK  status: ('A' for Active; 'I' for Inactive)
ROOT
ATOM      1  C   UNL d   1      -0.422  -0.974   1.895  0.00  0.00     0.020 A 
ATOM      2  C1  UNL d   1      -0.301  -2.289   1.446  0.00  0.00     0.020 A 
ATOM      3  C2  UNL d   1      -0.182  -2.551   0.079  0.00  0.00     0.034 A 
ATOM      4  C3  UNL d   1      -0.183  -1.498  -0.842  0.00  0.00     0.017 A 
ATOM      5  C4  UNL d   1      -0.304  -0.179  -0.390  0.00  0.00     0.017 A 
ATOM      6  C5  UNL d   1      -0.423   0.078   0.979  0.00  0.00     0.034 A 
ATOM      7 Cl   UNL d   1      -0.313   1.173  -1.467  0.00  0.00    -0.070 Cl
ATOM      8 Cl1  UNL d   1      -0.032  -1.895  -2.517  0.00  0.00    -0.070 Cl
ENDROOT
TORSDOF 0
ENDMDL
