MODEL 1
REMARK minimizedAffinity 4.87288141
REMARK minimizedRMSD -1
REMARK  0 active torsions:
REMARK  status: ('A' for Active; 'I' for Inactive)
ROOT
ATOM      1  C4' PXY d   1       2.017   1.721   1.125  0.00  0.00     0.077 C 
ATOM      2  C1' PXY d   1       5.886   6.000   1.497  0.00  0.00     0.077 C 
ATOM      3  C1  PXY d   1       4.861   4.886   1.403  0.00  0.00    -0.082 A 
ATOM      4  C2  PXY d   1       5.253   3.627   1.509  0.00  0.00     0.003 A 
ATOM      5  C3  PXY d   1       4.345   2.606   1.395  0.00  0.00     0.003 A 
ATOM      6  C4  PXY d   1       3.014   2.879   1.223  0.00  0.00    -0.082 A 
ATOM      7  C5  PXY d   1       2.605   4.161   1.125  0.00  0.00     0.003 A 
ATOM      8  C6  PXY d   1       3.549   5.182   1.203  0.00  0.00     0.003 A 
ENDROOT
TORSDOF 0
ENDMDL
