MODEL 1
REMARK minimizedAffinity 8.62421894
REMARK minimizedRMSD -1
REMARK  0 active torsions:
REMARK  status: ('A' for Active; 'I' for Inactive)
ROOT
ATOM      1  C4' PXY d   1       4.115   2.736   1.525  0.00  0.00     0.077 C 
ATOM      2  C1' PXY d   1       5.787   5.993   5.998  0.00  0.00     0.077 C 
ATOM      3  C1  PXY d   1       5.359   5.131   4.827  0.00  0.00    -0.082 A 
ATOM      4  C2  PXY d   1       4.571   5.640   3.894  0.00  0.00     0.003 A 
ATOM      5  C3  PXY d   1       4.149   4.866   2.845  0.00  0.00     0.003 A 
ATOM      6  C4  PXY d   1       4.580   3.572   2.721  0.00  0.00    -0.082 A 
ATOM      7  C5  PXY d   1       5.393   3.049   3.663  0.00  0.00     0.003 A 
ATOM      8  C6  PXY d   1       5.777   3.839   4.742  0.00  0.00     0.003 A 
ENDROOT
TORSDOF 0
ENDMDL
