MODEL 1
REMARK minimizedAffinity -0.341902673
REMARK minimizedRMSD -1
REMARK  0 active torsions:
REMARK  status: ('A' for Active; 'I' for Inactive)
ROOT
ATOM      1  C4' PXY d   1       3.297   6.000   3.359  0.00  0.00     0.077 C 
ATOM      2  C1' PXY d   1       2.332   0.778   1.076  0.00  0.00     0.077 C 
ATOM      3  C1  PXY d   1       2.574   2.147   1.681  0.00  0.00    -0.082 A 
ATOM      4  C2  PXY d   1       3.421   2.979   1.098  0.00  0.00     0.003 A 
ATOM      5  C3  PXY d   1       3.675   4.209   1.649  0.00  0.00     0.003 A 
ATOM      6  C4  PXY d   1       3.016   4.611   2.779  0.00  0.00    -0.082 A 
ATOM      7  C5  PXY d   1       2.142   3.772   3.374  0.00  0.00     0.003 A 
ATOM      8  C6  PXY d   1       1.929   2.512   2.822  0.00  0.00     0.003 A 
ENDROOT
TORSDOF 0
ENDMDL
