MODEL 1
REMARK minimizedAffinity 11.2892103
REMARK minimizedRMSD -1
REMARK  0 active torsions:
REMARK  status: ('A' for Active; 'I' for Inactive)
ROOT
ATOM      1  C4' PXY d   1      -4.496   3.360  -5.990  0.00  0.00     0.077 C 
ATOM      2  C1' PXY d   1       0.868   1.206  -5.972  0.00  0.00     0.077 C 
ATOM      3  C1  PXY d   1      -0.534   1.782  -5.972  0.00  0.00    -0.082 A 
ATOM      4  C2  PXY d   1      -1.576   0.967  -5.955  0.00  0.00     0.003 A 
ATOM      5  C3  PXY d   1      -2.851   1.470  -5.986  0.00  0.00     0.003 A 
ATOM      6  C4  PXY d   1      -3.062   2.823  -5.982  0.00  0.00    -0.082 A 
ATOM      7  C5  PXY d   1      -2.004   3.661  -5.989  0.00  0.00     0.003 A 
ATOM      8  C6  PXY d   1      -0.718   3.130  -5.998  0.00  0.00     0.003 A 
ENDROOT
TORSDOF 0
ENDMDL
