MODEL 1
REMARK minimizedAffinity 7.49555874
REMARK minimizedRMSD -1
REMARK  0 active torsions:
REMARK  status: ('A' for Active; 'I' for Inactive)
ROOT
ATOM      1  C4' PXY d   1      -0.755  -6.000  -3.962  0.00  0.00     0.077 C 
ATOM      2  C1' PXY d   1       0.684  -4.923   1.532  0.00  0.00     0.077 C 
ATOM      3  C1  PXY d   1       0.298  -5.214   0.095  0.00  0.00    -0.082 A 
ATOM      4  C2  PXY d   1       1.160  -4.965  -0.878  0.00  0.00     0.003 A 
ATOM      5  C3  PXY d   1       0.815  -5.192  -2.185  0.00  0.00     0.003 A 
ATOM      6  C4  PXY d   1      -0.405  -5.730  -2.496  0.00  0.00    -0.082 A 
ATOM      7  C5  PXY d   1      -1.285  -5.998  -1.509  0.00  0.00     0.003 A 
ATOM      8  C6  PXY d   1      -0.932  -5.721  -0.191  0.00  0.00     0.003 A 
ENDROOT
TORSDOF 0
ENDMDL
