MODEL 1
REMARK minimizedAffinity 12.350235
REMARK minimizedRMSD -1
REMARK  0 active torsions:
REMARK  status: ('A' for Active; 'I' for Inactive)
ROOT
ATOM      1  C4' PXY d   1       5.194   5.931   1.551  0.00  0.00     0.077 C 
ATOM      2  C1' PXY d   1       1.524   1.466   1.481  0.00  0.00     0.077 C 
ATOM      3  C1  PXY d   1       2.496   2.629   1.504  0.00  0.00    -0.082 A 
ATOM      4  C2  PXY d   1       2.034   3.866   1.581  0.00  0.00     0.003 A 
ATOM      5  C3  PXY d   1       2.897   4.931   1.570  0.00  0.00     0.003 A 
ATOM      6  C4  PXY d   1       4.250   4.726   1.535  0.00  0.00    -0.082 A 
ATOM      7  C5  PXY d   1       4.730   3.466   1.467  0.00  0.00     0.003 A 
ATOM      8  C6  PXY d   1       3.836   2.400   1.437  0.00  0.00     0.003 A 
ENDROOT
TORSDOF 0
ENDMDL
