MODEL 1
REMARK minimizedAffinity 11.6823912
REMARK minimizedRMSD -1
REMARK  0 active torsions:
REMARK  status: ('A' for Active; 'I' for Inactive)
ROOT
ATOM      1  C4' PXY d   1       3.114  -5.971  -3.848  0.00  0.00     0.077 C 
ATOM      2  C1' PXY d   1      -1.784  -5.999  -0.777  0.00  0.00     0.077 C 
ATOM      3  C1  PXY d   1      -0.493  -5.987  -1.572  0.00  0.00    -0.082 A 
ATOM      4  C2  PXY d   1      -0.539  -5.977  -2.895  0.00  0.00     0.003 A 
ATOM      5  C3  PXY d   1       0.618  -5.998  -3.630  0.00  0.00     0.003 A 
ATOM      6  C4  PXY d   1       1.836  -5.975  -3.004  0.00  0.00    -0.082 A 
ATOM      7  C5  PXY d   1       1.892  -5.973  -1.656  0.00  0.00     0.003 A 
ATOM      8  C6  PXY d   1       0.706  -5.994  -0.928  0.00  0.00     0.003 A 
ENDROOT
TORSDOF 0
ENDMDL
