MODEL 1
REMARK minimizedAffinity -0.211602718
REMARK minimizedRMSD -1
REMARK  0 active torsions:
REMARK  status: ('A' for Active; 'I' for Inactive)
ROOT
ATOM      1  C4' PXY d   1      -5.997   5.911  -5.995  0.00  0.00     0.077 C 
ATOM      2  C1' PXY d   1      -2.243   1.516  -5.972  0.00  0.00     0.077 C 
ATOM      3  C1  PXY d   1      -3.237   2.660  -5.983  0.00  0.00    -0.082 A 
ATOM      4  C2  PXY d   1      -2.797   3.908  -6.000  0.00  0.00     0.003 A 
ATOM      5  C3  PXY d   1      -3.681   4.956  -5.978  0.00  0.00     0.003 A 
ATOM      6  C4  PXY d   1      -5.031   4.724  -5.992  0.00  0.00    -0.082 A 
ATOM      7  C5  PXY d   1      -5.487   3.453  -5.986  0.00  0.00     0.003 A 
ATOM      8  C6  PXY d   1      -4.573   2.404  -5.967  0.00  0.00     0.003 A 
ENDROOT
TORSDOF 0
ENDMDL
