MODEL 1
REMARK minimizedAffinity 14.3566198
REMARK minimizedRMSD -1
REMARK  0 active torsions:
REMARK  status: ('A' for Active; 'I' for Inactive)
ROOT
ATOM      1  C4' PXY d   1       5.992   1.902  -1.880  0.00  0.00     0.077 C 
ATOM      2  C1' PXY d   1       3.510  -3.314  -2.107  0.00  0.00     0.077 C 
ATOM      3  C1  PXY d   1       4.152  -1.942  -2.056  0.00  0.00    -0.082 A 
ATOM      4  C2  PXY d   1       5.413  -1.823  -1.672  0.00  0.00     0.003 A 
ATOM      5  C3  PXY d   1       6.000  -0.587  -1.590  0.00  0.00     0.003 A 
ATOM      6  C4  PXY d   1       5.305   0.535  -1.955  0.00  0.00    -0.082 A 
ATOM      7  C5  PXY d   1       4.022   0.422  -2.358  0.00  0.00     0.003 A 
ATOM      8  C6  PXY d   1       3.432  -0.839  -2.396  0.00  0.00     0.003 A 
ENDROOT
TORSDOF 0
ENDMDL
