MODEL 1
REMARK minimizedAffinity 2.75650454
REMARK minimizedRMSD -1
REMARK  0 active torsions:
REMARK  status: ('A' for Active; 'I' for Inactive)
ROOT
ATOM      1  C4' PXY d   1      -1.299   1.738  -5.973  0.00  0.00     0.077 C 
ATOM      2  C1' PXY d   1      -5.433   5.779  -5.997  0.00  0.00     0.077 C 
ATOM      3  C1  PXY d   1      -4.357   4.710  -5.985  0.00  0.00    -0.082 A 
ATOM      4  C2  PXY d   1      -3.082   5.066  -5.972  0.00  0.00     0.003 A 
ATOM      5  C3  PXY d   1      -2.097   4.113  -5.994  0.00  0.00     0.003 A 
ATOM      6  C4  PXY d   1      -2.419   2.782  -5.976  0.00  0.00    -0.082 A 
ATOM      7  C5  PXY d   1      -3.717   2.412  -5.979  0.00  0.00     0.003 A 
ATOM      8  C6  PXY d   1      -4.702   3.394  -5.998  0.00  0.00     0.003 A 
ENDROOT
TORSDOF 0
ENDMDL
