MODEL 1
REMARK minimizedAffinity -1.01957178
REMARK minimizedRMSD -1
REMARK  0 active torsions:
REMARK  status: ('A' for Active; 'I' for Inactive)
ROOT
ATOM      1  C4' PXY d   1       3.769   5.882   5.311  0.00  0.00     0.077 C 
ATOM      2  C1' PXY d   1       3.680   3.638  -0.016  0.00  0.00     0.077 C 
ATOM      3  C1  PXY d   1       3.694   4.217   1.385  0.00  0.00    -0.082 A 
ATOM      4  C2  PXY d   1       4.079   5.470   1.571  0.00  0.00     0.003 A 
ATOM      5  C3  PXY d   1       4.128   6.000   2.834  0.00  0.00     0.003 A 
ATOM      6  C4  PXY d   1       3.729   5.257   3.913  0.00  0.00    -0.082 A 
ATOM      7  C5  PXY d   1       3.325   3.982   3.731  0.00  0.00     0.003 A 
ATOM      8  C6  PXY d   1       3.322   3.450   2.445  0.00  0.00     0.003 A 
ENDROOT
TORSDOF 0
ENDMDL
