MODEL 1
REMARK minimizedAffinity 2.38796949
REMARK minimizedRMSD -1
REMARK  0 active torsions:
REMARK  status: ('A' for Active; 'I' for Inactive)
ROOT
ATOM      1  C4' PXY d   1       1.053   2.463   0.591  0.00  0.00     0.077 C 
ATOM      2  C1' PXY d   1      -1.056  -2.864   1.360  0.00  0.00     0.077 C 
ATOM      3  C1  PXY d   1      -0.514  -1.463   1.153  0.00  0.00    -0.082 A 
ATOM      4  C2  PXY d   1       0.788  -1.280   1.011  0.00  0.00     0.003 A 
ATOM      5  C3  PXY d   1       1.298  -0.017   0.856  0.00  0.00     0.003 A 
ATOM      6  C4  PXY d   1       0.461   1.065   0.792  0.00  0.00    -0.082 A 
ATOM      7  C5  PXY d   1      -0.870   0.885   0.926  0.00  0.00     0.003 A 
ATOM      8  C6  PXY d   1      -1.364  -0.401   1.124  0.00  0.00     0.003 A 
ENDROOT
TORSDOF 0
ENDMDL
