MODEL 1
REMARK minimizedAffinity -1.30647433
REMARK minimizedRMSD -1
REMARK  0 active torsions:
REMARK  status: ('A' for Active; 'I' for Inactive)
ROOT
ATOM      1  C4' PXY d   1      -0.274   3.921  -1.070  0.00  0.00     0.077 C 
ATOM      2  C1' PXY d   1       3.641  -0.314  -0.693  0.00  0.00     0.077 C 
ATOM      3  C1  PXY d   1       2.609   0.792  -0.781  0.00  0.00    -0.082 A 
ATOM      4  C2  PXY d   1       2.335   1.340  -1.954  0.00  0.00     0.003 A 
ATOM      5  C3  PXY d   1       1.428   2.363  -2.047  0.00  0.00     0.003 A 
ATOM      6  C4  PXY d   1       0.754   2.795  -0.936  0.00  0.00    -0.082 A 
ATOM      7  C5  PXY d   1       1.020   2.234   0.263  0.00  0.00     0.003 A 
ATOM      8  C6  PXY d   1       1.975   1.224   0.343  0.00  0.00     0.003 A 
ENDROOT
TORSDOF 0
ENDMDL
