MODEL 1
REMARK minimizedAffinity 2.10752201
REMARK minimizedRMSD -1
REMARK  0 active torsions:
REMARK  status: ('A' for Active; 'I' for Inactive)
ROOT
ATOM      1  C4' PXY d   1       1.893   2.278  -5.816  0.00  0.00     0.077 C 
ATOM      2  C1' PXY d   1      -3.764   3.452  -5.998  0.00  0.00     0.077 C 
ATOM      3  C1  PXY d   1      -2.278   3.156  -5.957  0.00  0.00    -0.082 A 
ATOM      4  C2  PXY d   1      -1.863   1.902  -5.869  0.00  0.00     0.003 A 
ATOM      5  C3  PXY d   1      -0.524   1.618  -5.798  0.00  0.00     0.003 A 
ATOM      6  C4  PXY d   1       0.403   2.624  -5.870  0.00  0.00    -0.082 A 
ATOM      7  C5  PXY d   1      -0.012   3.905  -5.971  0.00  0.00     0.003 A 
ATOM      8  C6  PXY d   1      -1.377   4.175  -6.000  0.00  0.00     0.003 A 
ENDROOT
TORSDOF 0
ENDMDL
