MODEL 1
REMARK minimizedAffinity 2.43837118
REMARK minimizedRMSD -1
REMARK  0 active torsions:
REMARK  status: ('A' for Active; 'I' for Inactive)
ROOT
ATOM      1  C4' PXY d   1      -5.595   2.266  -6.000  0.00  0.00     0.077 C 
ATOM      2  C1' PXY d   1       0.035   3.577  -5.977  0.00  0.00     0.077 C 
ATOM      3  C1  PXY d   1      -1.438   3.221  -5.989  0.00  0.00    -0.082 A 
ATOM      4  C2  PXY d   1      -2.344   4.186  -5.997  0.00  0.00     0.003 A 
ATOM      5  C3  PXY d   1      -3.681   3.883  -5.975  0.00  0.00     0.003 A 
ATOM      6  C4  PXY d   1      -4.096   2.578  -5.998  0.00  0.00    -0.082 A 
ATOM      7  C5  PXY d   1      -3.178   1.588  -6.000  0.00  0.00     0.003 A 
ATOM      8  C6  PXY d   1      -1.826   1.917  -5.981  0.00  0.00     0.003 A 
ENDROOT
TORSDOF 0
ENDMDL
