MODEL 1
REMARK minimizedAffinity -2.2022047
REMARK minimizedRMSD -1
REMARK  0 active torsions:
REMARK  status: ('A' for Active; 'I' for Inactive)
ROOT
ATOM      1  C4' PXY d   1       1.279   3.372  -5.901  0.00  0.00     0.077 C 
ATOM      2  C1' PXY d   1      -4.501   3.383  -5.968  0.00  0.00     0.077 C 
ATOM      3  C1  PXY d   1      -2.985   3.392  -5.957  0.00  0.00    -0.082 A 
ATOM      4  C2  PXY d   1      -2.324   2.247  -5.896  0.00  0.00     0.003 A 
ATOM      5  C3  PXY d   1      -0.954   2.238  -5.852  0.00  0.00     0.003 A 
ATOM      6  C4  PXY d   1      -0.251   3.410  -5.925  0.00  0.00    -0.082 A 
ATOM      7  C5  PXY d   1      -0.917   4.582  -5.997  0.00  0.00     0.003 A 
ATOM      8  C6  PXY d   1      -2.309   4.572  -5.999  0.00  0.00     0.003 A 
ENDROOT
TORSDOF 0
ENDMDL
