MODEL 1
REMARK minimizedAffinity -0.712496877
REMARK minimizedRMSD -1
REMARK  0 active torsions:
REMARK  status: ('A' for Active; 'I' for Inactive)
ROOT
ATOM      1  C4' PXY d   1       0.079   3.336  -5.975  0.00  0.00     0.077 C 
ATOM      2  C1' PXY d   1      -5.103   5.897  -5.999  0.00  0.00     0.077 C 
ATOM      3  C1  PXY d   1      -3.739   5.236  -5.998  0.00  0.00    -0.082 A 
ATOM      4  C2  PXY d   1      -3.652   3.916  -5.994  0.00  0.00     0.003 A 
ATOM      5  C3  PXY d   1      -2.426   3.302  -5.961  0.00  0.00     0.003 A 
ATOM      6  C4  PXY d   1      -1.277   4.046  -5.985  0.00  0.00    -0.082 A 
ATOM      7  C5  PXY d   1      -1.358   5.394  -6.000  0.00  0.00     0.003 A 
ATOM      8  C6  PXY d   1      -2.612   5.998  -5.992  0.00  0.00     0.003 A 
ENDROOT
TORSDOF 0
ENDMDL
