MODEL 1
REMARK minimizedAffinity 3.91998506
REMARK minimizedRMSD -1
REMARK  0 active torsions:
REMARK  status: ('A' for Active; 'I' for Inactive)
ROOT
ATOM      1  C4' PXY d   1       3.555   3.692  -5.546  0.00  0.00     0.077 C 
ATOM      2  C1' PXY d   1      -2.122   2.611  -5.663  0.00  0.00     0.077 C 
ATOM      3  C1  PXY d   1      -0.632   2.885  -5.623  0.00  0.00    -0.082 A 
ATOM      4  C2  PXY d   1      -0.174   4.069  -5.999  0.00  0.00     0.003 A 
ATOM      5  C3  PXY d   1       1.173   4.323  -6.000  0.00  0.00     0.003 A 
ATOM      6  C4  PXY d   1       2.057   3.374  -5.561  0.00  0.00    -0.082 A 
ATOM      7  C5  PXY d   1       1.597   2.168  -5.166  0.00  0.00     0.003 A 
ATOM      8  C6  PXY d   1       0.229   1.916  -5.212  0.00  0.00     0.003 A 
ENDROOT
TORSDOF 0
ENDMDL
