MODEL 1
REMARK minimizedAffinity -3.45612383
REMARK minimizedRMSD -1
REMARK  0 active torsions:
REMARK  status: ('A' for Active; 'I' for Inactive)
ROOT
ATOM      1  C4' PXY d   1      -4.380   4.078  -6.000  0.00  0.00     0.077 C 
ATOM      2  C1' PXY d   1       1.102   2.285  -5.619  0.00  0.00     0.077 C 
ATOM      3  C1  PXY d   1      -0.332   2.767  -5.715  0.00  0.00    -0.082 A 
ATOM      4  C2  PXY d   1      -1.323   1.896  -5.612  0.00  0.00     0.003 A 
ATOM      5  C3  PXY d   1      -2.625   2.311  -5.729  0.00  0.00     0.003 A 
ATOM      6  C4  PXY d   1      -2.917   3.637  -5.899  0.00  0.00    -0.082 A 
ATOM      7  C5  PXY d   1      -1.912   4.533  -5.995  0.00  0.00     0.003 A 
ATOM      8  C6  PXY d   1      -0.596   4.087  -5.915  0.00  0.00     0.003 A 
ENDROOT
TORSDOF 0
ENDMDL
