MODEL 1
REMARK minimizedAffinity -0.0719374567
REMARK minimizedRMSD -1
REMARK  0 active torsions:
REMARK  status: ('A' for Active; 'I' for Inactive)
ROOT
ATOM      1  C4' PXY d   1      -3.763   3.250  -5.969  0.00  0.00     0.077 C 
ATOM      2  C1' PXY d   1       1.657   5.258  -5.997  0.00  0.00     0.077 C 
ATOM      3  C1  PXY d   1       0.240   4.720  -5.995  0.00  0.00    -0.082 A 
ATOM      4  C2  PXY d   1      -0.780   5.564  -5.997  0.00  0.00     0.003 A 
ATOM      5  C3  PXY d   1      -2.068   5.094  -5.962  0.00  0.00     0.003 A 
ATOM      6  C4  PXY d   1      -2.315   3.748  -5.981  0.00  0.00    -0.082 A 
ATOM      7  C5  PXY d   1      -1.280   2.881  -5.990  0.00  0.00     0.003 A 
ATOM      8  C6  PXY d   1       0.020   3.378  -5.983  0.00  0.00     0.003 A 
ENDROOT
TORSDOF 0
ENDMDL
