MODEL 1
REMARK minimizedAffinity 11.5924978
REMARK minimizedRMSD -1
REMARK  3 active torsions:
REMARK  status: ('A' for Active; 'I' for Inactive)
REMARK    1  A    between atoms: C3'_2  and  C2'_3 
REMARK    2  A    between atoms: C2'_3  and  C1'_4 
REMARK    3  A    between atoms: C1'_4  and  C1_5 
ROOT
ATOM      1  C1  N4B d   1      -1.931   2.272  -2.160  0.00  0.00    -0.075 A 
ATOM      2  C2  N4B d   1      -2.297   2.394  -0.802  0.00  0.00     0.002 A 
ATOM      3  C3  N4B d   1      -1.332   2.355   0.175  0.00  0.00     0.002 A 
ATOM      4  C4  N4B d   1      -0.004   2.178  -0.180  0.00  0.00    -0.004 A 
ATOM      5  C5  N4B d   1       0.344   2.087  -1.496  0.00  0.00     0.002 A 
ATOM      6  C6  N4B d   1      -0.614   2.128  -2.489  0.00  0.00     0.002 A 
ENDROOT
BRANCH   1   7
ATOM      7  C1' N4B d   1      -2.959   2.222  -3.258  0.00  0.00     0.057 C 
BRANCH   7   8
ATOM      8  C2' N4B d   1      -3.513   3.625  -3.489  0.00  0.00     0.009 C 
BRANCH   8   9
ATOM      9  C3' N4B d   1      -2.612   4.450  -4.392  0.00  0.00     0.004 C 
ATOM     10  C4' N4B d   1      -3.078   4.468  -5.817  0.00  0.00     0.003 C 
ENDBRANCH   8   9
ENDBRANCH   7   8
ENDBRANCH   1   7
TORSDOF 3
ENDMDL
