MODEL 1
REMARK minimizedAffinity 3.2737782
REMARK minimizedRMSD -1
REMARK  3 active torsions:
REMARK  status: ('A' for Active; 'I' for Inactive)
REMARK    1  A    between atoms: C3'_2  and  C2'_3 
REMARK    2  A    between atoms: C2'_3  and  C1'_4 
REMARK    3  A    between atoms: C1'_4  and  C1_5 
ROOT
ATOM      1  C1  N4B d   1      -0.832   0.897  -1.082  0.00  0.00    -0.075 A 
ATOM      2  C2  N4B d   1       0.331   0.130  -1.314  0.00  0.00     0.002 A 
ATOM      3  C3  N4B d   1       0.223  -1.202  -1.628  0.00  0.00     0.002 A 
ATOM      4  C4  N4B d   1      -1.031  -1.791  -1.697  0.00  0.00    -0.004 A 
ATOM      5  C5  N4B d   1      -2.150  -1.038  -1.497  0.00  0.00     0.002 A 
ATOM      6  C6  N4B d   1      -2.057   0.304  -1.184  0.00  0.00     0.002 A 
ENDROOT
BRANCH   1   7
ATOM      7  C1' N4B d   1      -0.761   2.337  -0.652  0.00  0.00     0.057 C 
BRANCH   7   8
ATOM      8  C2' N4B d   1       0.181   2.457   0.543  0.00  0.00     0.009 C 
BRANCH   8   9
ATOM      9  C3' N4B d   1      -0.505   3.080   1.746  0.00  0.00     0.004 C 
ATOM     10  C4' N4B d   1      -0.355   2.257   2.991  0.00  0.00     0.003 C 
ENDBRANCH   8   9
ENDBRANCH   7   8
ENDBRANCH   1   7
TORSDOF 3
ENDMDL
