MODEL 1
REMARK minimizedAffinity -5.17099667
REMARK minimizedRMSD -1
REMARK  0 active torsions:
REMARK  status: ('A' for Active; 'I' for Inactive)
ROOT
ATOM      1  C   UNL d   1       1.996  -1.087  -2.666  0.00  0.00     0.023 A 
ATOM      2  C1  UNL d   1       1.766   0.220  -2.237  0.00  0.00     0.003 A 
ATOM      3  C2  UNL d   1       0.936   0.460  -1.141  0.00  0.00     0.048 A 
ATOM      4  C3  UNL d   1       0.340  -0.611  -0.476  0.00  0.00     0.023 A 
ATOM      5  C4  UNL d   1       0.568  -1.921  -0.901  0.00  0.00     0.048 A 
ATOM      6  C5  UNL d   1       1.398  -2.156  -1.999  0.00  0.00     0.003 A 
ATOM      7  I   UNL d   1      -0.896  -0.256   1.156  0.00  0.00    -0.146 I 
ENDROOT
TORSDOF 0
ENDMDL
