MODEL 1
REMARK minimizedAffinity -2.387748
REMARK minimizedRMSD -1
REMARK  0 active torsions:
REMARK  status: ('A' for Active; 'I' for Inactive)
ROOT
ATOM      1  C   UNL d   1       1.617  -0.241  -3.088  0.00  0.00     0.023 A 
ATOM      2  C1  UNL d   1       2.188   0.152  -1.877  0.00  0.00     0.003 A 
ATOM      3  C2  UNL d   1       1.387   0.310  -0.745  0.00  0.00     0.048 A 
ATOM      4  C3  UNL d   1       0.016   0.071  -0.829  0.00  0.00     0.023 A 
ATOM      5  C4  UNL d   1      -0.560  -0.324  -2.038  0.00  0.00     0.048 A 
ATOM      6  C5  UNL d   1       0.245  -0.478  -3.168  0.00  0.00     0.003 A 
ATOM      7  I   UNL d   1      -1.178   0.304   0.856  0.00  0.00    -0.146 I 
ENDROOT
TORSDOF 0
ENDMDL
