MODEL 1
REMARK minimizedAffinity 7.01725435
REMARK minimizedRMSD -1
REMARK  0 active torsions:
REMARK  status: ('A' for Active; 'I' for Inactive)
ROOT
ATOM      1  C   UNL d   1       1.239   3.361   0.380  0.00  0.00     0.023 A 
ATOM      2  C1  UNL d   1       1.495   2.060   0.813  0.00  0.00     0.003 A 
ATOM      3  C2  UNL d   1       1.619   1.025  -0.116  0.00  0.00     0.048 A 
ATOM      4  C3  UNL d   1       1.487   1.298  -1.477  0.00  0.00     0.023 A 
ATOM      5  C4  UNL d   1       1.232   2.598  -1.915  0.00  0.00     0.048 A 
ATOM      6  C5  UNL d   1       1.108   3.630  -0.983  0.00  0.00     0.003 A 
ATOM      7  I   UNL d   1       1.671  -0.241  -2.861  0.00  0.00    -0.146 I 
ENDROOT
TORSDOF 0
ENDMDL
