MODEL 1
REMARK minimizedAffinity -2.55042696
REMARK minimizedRMSD -1
REMARK  0 active torsions:
REMARK  status: ('A' for Active; 'I' for Inactive)
ROOT
ATOM      1  C   UNL d   1      -0.252   0.093   1.251  0.00  0.00     0.023 A 
ATOM      2  C1  UNL d   1       0.470   1.214   0.840  0.00  0.00     0.003 A 
ATOM      3  C2  UNL d   1       1.093   1.226  -0.409  0.00  0.00     0.048 A 
ATOM      4  C3  UNL d   1       0.989   0.115  -1.245  0.00  0.00     0.023 A 
ATOM      5  C4  UNL d   1       0.267  -1.009  -0.839  0.00  0.00     0.048 A 
ATOM      6  C5  UNL d   1      -0.353  -1.017   0.412  0.00  0.00     0.003 A 
ATOM      7  I   UNL d   1       1.914   0.131  -3.105  0.00  0.00    -0.146 I 
ENDROOT
TORSDOF 0
ENDMDL
