MODEL 1
REMARK minimizedAffinity -3.7515378
REMARK minimizedRMSD -1
REMARK  0 active torsions:
REMARK  status: ('A' for Active; 'I' for Inactive)
ROOT
ATOM      1  C   UNL d   1       1.650  -0.030  -2.312  0.00  0.00     0.023 A 
ATOM      2  C1  UNL d   1       1.525   1.266  -1.813  0.00  0.00     0.003 A 
ATOM      3  C2  UNL d   1       0.612   1.538  -0.791  0.00  0.00     0.048 A 
ATOM      4  C3  UNL d   1      -0.172   0.508  -0.273  0.00  0.00     0.023 A 
ATOM      5  C4  UNL d   1      -0.050  -0.792  -0.769  0.00  0.00     0.048 A 
ATOM      6  C5  UNL d   1       0.864  -1.058  -1.791  0.00  0.00     0.003 A 
ATOM      7  I   UNL d   1      -1.532   0.909   1.247  0.00  0.00    -0.146 I 
ENDROOT
TORSDOF 0
ENDMDL
