MODEL 1
REMARK minimizedAffinity -4.58774662
REMARK minimizedRMSD -1
REMARK  0 active torsions:
REMARK  status: ('A' for Active; 'I' for Inactive)
ROOT
ATOM      1  C   UNL d   1       1.571   0.719  -1.721  0.00  0.00     0.023 A 
ATOM      2  C1  UNL d   1       0.809  -0.420  -1.981  0.00  0.00     0.003 A 
ATOM      3  C2  UNL d   1      -0.288  -0.726  -1.172  0.00  0.00     0.048 A 
ATOM      4  C3  UNL d   1      -0.616   0.111  -0.106  0.00  0.00     0.023 A 
ATOM      5  C4  UNL d   1       0.144   1.252   0.157  0.00  0.00     0.048 A 
ATOM      6  C5  UNL d   1       1.240   1.554  -0.654  0.00  0.00     0.003 A 
ATOM      7  I   UNL d   1      -2.247  -0.343   1.100  0.00  0.00    -0.146 I 
ENDROOT
TORSDOF 0
ENDMDL
