MODEL 1
REMARK minimizedAffinity -2.38114858
REMARK minimizedRMSD -1
REMARK  0 active torsions:
REMARK  status: ('A' for Active; 'I' for Inactive)
ROOT
ATOM      1  C   UNL d   1       1.620   0.199  -2.795  0.00  0.00     0.023 A 
ATOM      2  C1  UNL d   1       0.993  -0.995  -2.439  0.00  0.00     0.003 A 
ATOM      3  C2  UNL d   1       0.225  -1.062  -1.274  0.00  0.00     0.048 A 
ATOM      4  C3  UNL d   1       0.089   0.069  -0.470  0.00  0.00     0.023 A 
ATOM      5  C4  UNL d   1       0.715   1.266  -0.822  0.00  0.00     0.048 A 
ATOM      6  C5  UNL d   1       1.482   1.328  -1.987  0.00  0.00     0.003 A 
ATOM      7  I   UNL d   1      -1.052  -0.028   1.264  0.00  0.00    -0.146 I 
ENDROOT
TORSDOF 0
ENDMDL
