MODEL 1
REMARK minimizedAffinity -4.18604469
REMARK minimizedRMSD -1
REMARK  0 active torsions:
REMARK  status: ('A' for Active; 'I' for Inactive)
ROOT
ATOM      1  C   UNL d   1       1.455   0.668  -2.956  0.00  0.00     0.023 A 
ATOM      2  C1  UNL d   1       1.976   0.987  -1.701  0.00  0.00     0.003 A 
ATOM      3  C2  UNL d   1       1.344   0.528  -0.544  0.00  0.00     0.048 A 
ATOM      4  C3  UNL d   1       0.192  -0.252  -0.649  0.00  0.00     0.023 A 
ATOM      5  C4  UNL d   1      -0.332  -0.575  -1.902  0.00  0.00     0.048 A 
ATOM      6  C5  UNL d   1       0.303  -0.112  -3.056  0.00  0.00     0.003 A 
ATOM      7  I   UNL d   1      -0.750  -0.938   1.072  0.00  0.00    -0.146 I 
ENDROOT
TORSDOF 0
ENDMDL
