MODEL 1
REMARK minimizedAffinity -2.55695128
REMARK minimizedRMSD -1
REMARK  0 active torsions:
REMARK  status: ('A' for Active; 'I' for Inactive)
ROOT
ATOM      1  C   UNL d   1       2.086   0.508  -1.882  0.00  0.00     0.023 A 
ATOM      2  C1  UNL d   1       1.094  -0.417  -2.209  0.00  0.00     0.003 A 
ATOM      3  C2  UNL d   1       0.032  -0.644  -1.330  0.00  0.00     0.048 A 
ATOM      4  C3  UNL d   1      -0.031   0.058  -0.127  0.00  0.00     0.023 A 
ATOM      5  C4  UNL d   1       0.959   0.985   0.204  0.00  0.00     0.048 A 
ATOM      6  C5  UNL d   1       2.018   1.208  -0.678  0.00  0.00     0.003 A 
ATOM      7  I   UNL d   1      -1.610  -0.278   1.182  0.00  0.00    -0.146 I 
ENDROOT
TORSDOF 0
ENDMDL
