MODEL 1
REMARK minimizedAffinity -1.9381026
REMARK minimizedRMSD -1
REMARK  0 active torsions:
REMARK  status: ('A' for Active; 'I' for Inactive)
ROOT
ATOM      1  C   UNL d   1      -3.457   0.352   1.552  0.00  0.00     0.023 A 
ATOM      2  C1  UNL d   1      -2.333   0.008   2.302  0.00  0.00     0.003 A 
ATOM      3  C2  UNL d   1      -1.922   0.821   3.360  0.00  0.00     0.048 A 
ATOM      4  C3  UNL d   1      -2.640   1.978   3.663  0.00  0.00     0.023 A 
ATOM      5  C4  UNL d   1      -3.766   2.326   2.915  0.00  0.00     0.048 A 
ATOM      6  C5  UNL d   1      -4.173   1.510   1.858  0.00  0.00     0.003 A 
ATOM      7  I   UNL d   1      -2.031   3.190   5.237  0.00  0.00    -0.146 I 
ENDROOT
TORSDOF 0
ENDMDL
