MODEL 1
REMARK minimizedAffinity -4.62921381
REMARK minimizedRMSD -1
REMARK  0 active torsions:
REMARK  status: ('A' for Active; 'I' for Inactive)
ROOT
ATOM      1  C   UNL d   1       2.295  -0.285  -2.989  0.00  0.00     0.023 A 
ATOM      2  C1  UNL d   1       1.689  -1.451  -2.521  0.00  0.00     0.003 A 
ATOM      3  C2  UNL d   1       0.798  -1.393  -1.447  0.00  0.00     0.048 A 
ATOM      4  C3  UNL d   1       0.517  -0.166  -0.847  0.00  0.00     0.023 A 
ATOM      5  C4  UNL d   1       1.121   1.003  -1.313  0.00  0.00     0.048 A 
ATOM      6  C5  UNL d   1       2.012   0.940  -2.386  0.00  0.00     0.003 A 
ATOM      7  I   UNL d   1      -0.809  -0.077   0.751  0.00  0.00    -0.146 I 
ENDROOT
TORSDOF 0
ENDMDL
