MODEL 1
REMARK minimizedAffinity 2.67011023
REMARK minimizedRMSD -1
REMARK  3 active torsions:
REMARK  status: ('A' for Active; 'I' for Inactive)
REMARK    1  A    between atoms: C3'_2  and  C2'_3 
REMARK    2  A    between atoms: C2'_3  and  C1'_4 
REMARK    3  A    between atoms: C1'_4  and  C1_5 
ROOT
ATOM      1  C1  N4B d   1       2.264  -2.350   3.120  0.00  0.00    -0.075 A 
ATOM      2  C2  N4B d   1       2.054  -3.704   2.778  0.00  0.00     0.002 A 
ATOM      3  C3  N4B d   1       2.662  -4.698   3.505  0.00  0.00     0.002 A 
ATOM      4  C4  N4B d   1       3.495  -4.363   4.562  0.00  0.00    -0.004 A 
ATOM      5  C5  N4B d   1       3.672  -3.053   4.902  0.00  0.00     0.002 A 
ATOM      6  C6  N4B d   1       3.064  -2.044   4.183  0.00  0.00     0.002 A 
ENDROOT
BRANCH   1   7
ATOM      7  C1' N4B d   1       1.690  -1.225   2.302  0.00  0.00     0.057 C 
BRANCH   7   8
ATOM      8  C2' N4B d   1       2.439   0.063   2.626  0.00  0.00     0.009 C 
BRANCH   8   9
ATOM      9  C3' N4B d   1       2.917   0.774   1.371  0.00  0.00     0.004 C 
ATOM     10  C4' N4B d   1       3.724  -0.115   0.472  0.00  0.00     0.003 C 
ENDBRANCH   8   9
ENDBRANCH   7   8
ENDBRANCH   1   7
TORSDOF 3
ENDMDL
