MODEL 1
REMARK minimizedAffinity 15.7493744
REMARK minimizedRMSD -1
REMARK  3 active torsions:
REMARK  status: ('A' for Active; 'I' for Inactive)
REMARK    1  A    between atoms: C3'_2  and  C2'_3 
REMARK    2  A    between atoms: C2'_3  and  C1'_4 
REMARK    3  A    between atoms: C1'_4  and  C1_5 
ROOT
ATOM      1  C1  N4B d   1      -2.756   1.989  -1.578  0.00  0.00    -0.075 A 
ATOM      2  C2  N4B d   1      -3.386   2.099  -2.837  0.00  0.00     0.002 A 
ATOM      3  C3  N4B d   1      -3.505   0.995  -3.645  0.00  0.00     0.002 A 
ATOM      4  C4  N4B d   1      -2.985  -0.221  -3.225  0.00  0.00    -0.004 A 
ATOM      5  C5  N4B d   1      -2.400  -0.325  -1.997  0.00  0.00     0.002 A 
ATOM      6  C6  N4B d   1      -2.278   0.776  -1.173  0.00  0.00     0.002 A 
ENDROOT
BRANCH   1   7
ATOM      7  C1' N4B d   1      -2.527   3.186  -0.697  0.00  0.00     0.057 C 
BRANCH   7   8
ATOM      8  C2' N4B d   1      -3.489   3.129   0.486  0.00  0.00     0.009 C 
BRANCH   8   9
ATOM      9  C3' N4B d   1      -4.837   3.746   0.152  0.00  0.00     0.004 C 
ATOM     10  C4' N4B d   1      -5.754   3.813   1.336  0.00  0.00     0.003 C 
ENDBRANCH   8   9
ENDBRANCH   7   8
ENDBRANCH   1   7
TORSDOF 3
ENDMDL
