MODEL 1
REMARK minimizedAffinity 5.55851936
REMARK minimizedRMSD -1
REMARK  3 active torsions:
REMARK  status: ('A' for Active; 'I' for Inactive)
REMARK    1  A    between atoms: C3'_2  and  C2'_3 
REMARK    2  A    between atoms: C2'_3  and  C1'_4 
REMARK    3  A    between atoms: C1'_4  and  C1_5 
ROOT
ATOM      1  C1  N4B d   1      -4.485   2.371  -0.407  0.00  0.00    -0.075 A 
ATOM      2  C2  N4B d   1      -3.138   2.486   0.004  0.00  0.00     0.002 A 
ATOM      3  C3  N4B d   1      -2.838   3.022   1.232  0.00  0.00     0.002 A 
ATOM      4  C4  N4B d   1      -3.863   3.466   2.055  0.00  0.00    -0.004 A 
ATOM      5  C5  N4B d   1      -5.162   3.328   1.661  0.00  0.00     0.002 A 
ATOM      6  C6  N4B d   1      -5.478   2.787   0.432  0.00  0.00     0.002 A 
ENDROOT
BRANCH   1   7
ATOM      7  C1' N4B d   1      -4.857   1.870  -1.775  0.00  0.00     0.057 C 
BRANCH   7   8
ATOM      8  C2' N4B d   1      -3.875   2.432  -2.799  0.00  0.00     0.009 C 
BRANCH   8   9
ATOM      9  C3' N4B d   1      -4.573   2.873  -4.074  0.00  0.00     0.004 C 
ATOM     10  C4' N4B d   1      -6.000   3.275  -3.845  0.00  0.00     0.003 C 
ENDBRANCH   8   9
ENDBRANCH   7   8
ENDBRANCH   1   7
TORSDOF 3
ENDMDL
