MODEL 1
REMARK minimizedAffinity 6.70640516
REMARK minimizedRMSD -1
REMARK  3 active torsions:
REMARK  status: ('A' for Active; 'I' for Inactive)
REMARK    1  A    between atoms: C3'_2  and  C2'_3 
REMARK    2  A    between atoms: C2'_3  and  C1'_4 
REMARK    3  A    between atoms: C1'_4  and  C1_5 
ROOT
ATOM      1  C1  N4B d   1       1.596  -0.997   2.412  0.00  0.00    -0.075 A 
ATOM      2  C2  N4B d   1       2.852  -1.563   2.103  0.00  0.00     0.002 A 
ATOM      3  C3  N4B d   1       3.505  -2.336   3.033  0.00  0.00     0.002 A 
ATOM      4  C4  N4B d   1       2.932  -2.539   4.279  0.00  0.00    -0.004 A 
ATOM      5  C5  N4B d   1       1.706  -2.009   4.561  0.00  0.00     0.002 A 
ATOM      6  C6  N4B d   1       1.037  -1.234   3.635  0.00  0.00     0.002 A 
ENDROOT
BRANCH   1   7
ATOM      7  C1' N4B d   1       0.885  -0.075   1.460  0.00  0.00     0.057 C 
BRANCH   7   8
ATOM      8  C2' N4B d   1      -0.619  -0.314   1.561  0.00  0.00     0.009 C 
BRANCH   8   9
ATOM      9  C3' N4B d   1      -1.382   0.390   0.452  0.00  0.00     0.004 C 
ATOM     10  C4' N4B d   1      -2.240   1.511   0.959  0.00  0.00     0.003 C 
ENDBRANCH   8   9
ENDBRANCH   7   8
ENDBRANCH   1   7
TORSDOF 3
ENDMDL
