MODEL 1
REMARK minimizedAffinity 16.7572231
REMARK minimizedRMSD -1
REMARK  0 active torsions:
REMARK  status: ('A' for Active; 'I' for Inactive)
ROOT
ATOM      1  C   UNL d   1      -3.664   1.099   1.124  0.00  0.00     0.124 A 
ATOM      2  C1  UNL d   1      -4.756   1.416   0.329  0.00  0.00     0.062 A 
ATOM      3  C2  UNL d   1      -4.566   1.958  -0.939  0.00  0.00     0.162 A 
ATOM      4  C3  UNL d   1      -3.276   2.185  -1.420  0.00  0.00    -0.034 A 
ATOM      5  C4  UNL d   1      -2.182   1.865  -0.614  0.00  0.00     0.162 A 
ATOM      6  C5  UNL d   1      -2.378   1.323   0.652  0.00  0.00     0.062 A 
ATOM      7  F   UNL d   1      -1.322   1.017   1.419  0.00  0.00    -0.097 F 
ATOM      8  F1  UNL d   1      -0.929   2.070  -1.046  0.00  0.00    -0.096 F 
ATOM      9  I   UNL d   1      -2.987   2.996  -3.315  0.00  0.00    -0.060 I 
ATOM     10  F2  UNL d   1      -5.640   2.255  -1.685  0.00  0.00    -0.096 F 
ATOM     11  F3  UNL d   1      -5.999   1.201   0.783  0.00  0.00    -0.097 F 
ATOM     12  F4  UNL d   1      -3.850   0.578   2.344  0.00  0.00    -0.092 F 
ENDROOT
TORSDOF 0
ENDMDL
