MODEL 1
REMARK minimizedAffinity 5.63143682
REMARK minimizedRMSD -1
REMARK  0 active torsions:
REMARK  status: ('A' for Active; 'I' for Inactive)
ROOT
ATOM      1  C   UNL d   1      -1.339   0.402   0.337  0.00  0.00     0.124 A 
ATOM      2  C1  UNL d   1      -1.794   1.452  -0.449  0.00  0.00     0.062 A 
ATOM      3  C2  UNL d   1      -3.124   1.855  -0.376  0.00  0.00     0.162 A 
ATOM      4  C3  UNL d   1      -4.009   1.210   0.489  0.00  0.00    -0.034 A 
ATOM      5  C4  UNL d   1      -3.543   0.155   1.275  0.00  0.00     0.162 A 
ATOM      6  C5  UNL d   1      -2.213  -0.245   1.198  0.00  0.00     0.062 A 
ATOM      7  F   UNL d   1      -1.775  -1.259   1.958  0.00  0.00    -0.097 F 
ATOM      8  F1  UNL d   1      -4.367  -0.487   2.117  0.00  0.00    -0.096 F 
ATOM      9  I   UNL d   1      -5.998   1.811   0.602  0.00  0.00    -0.060 I 
ATOM     10  F2  UNL d   1      -3.537   2.872  -1.147  0.00  0.00    -0.096 F 
ATOM     11  F3  UNL d   1      -0.951   2.078  -1.283  0.00  0.00    -0.097 F 
ATOM     12  F4  UNL d   1      -0.059   0.016   0.263  0.00  0.00    -0.092 F 
ENDROOT
TORSDOF 0
ENDMDL
