MODEL 1
REMARK minimizedAffinity 7.02494001
REMARK minimizedRMSD -1
REMARK  0 active torsions:
REMARK  status: ('A' for Active; 'I' for Inactive)
ROOT
ATOM      1  C   UNL d   1      -1.492   0.478   0.505  0.00  0.00     0.124 A 
ATOM      2  C1  UNL d   1      -1.939   1.575  -0.218  0.00  0.00     0.062 A 
ATOM      3  C2  UNL d   1      -3.225   2.068  -0.020  0.00  0.00     0.162 A 
ATOM      4  C3  UNL d   1      -4.075   1.464   0.906  0.00  0.00    -0.034 A 
ATOM      5  C4  UNL d   1      -3.620   0.360   1.629  0.00  0.00     0.162 A 
ATOM      6  C5  UNL d   1      -2.333  -0.129   1.427  0.00  0.00     0.062 A 
ATOM      7  F   UNL d   1      -1.903  -1.189   2.127  0.00  0.00    -0.097 F 
ATOM      8  F1  UNL d   1      -4.410  -0.245   2.528  0.00  0.00    -0.096 F 
ATOM      9  I   UNL d   1      -6.000   2.197   1.205  0.00  0.00    -0.060 I 
ATOM     10  F2  UNL d   1      -3.630   3.130  -0.733  0.00  0.00    -0.096 F 
ATOM     11  F3  UNL d   1      -1.129   2.163  -1.111  0.00  0.00    -0.097 F 
ATOM     12  F4  UNL d   1      -0.254   0.006   0.311  0.00  0.00    -0.092 F 
ENDROOT
TORSDOF 0
ENDMDL
