MODEL 1
REMARK minimizedAffinity 12.5087433
REMARK minimizedRMSD -1
REMARK  0 active torsions:
REMARK  status: ('A' for Active; 'I' for Inactive)
ROOT
ATOM      1  C   UNL d   1      -1.460   0.343   0.724  0.00  0.00     0.124 A 
ATOM      2  C1  UNL d   1      -1.736   1.424  -0.103  0.00  0.00     0.062 A 
ATOM      3  C2  UNL d   1      -3.031   1.926  -0.190  0.00  0.00     0.162 A 
ATOM      4  C3  UNL d   1      -4.061   1.348   0.552  0.00  0.00    -0.034 A 
ATOM      5  C4  UNL d   1      -3.777   0.261   1.380  0.00  0.00     0.162 A 
ATOM      6  C5  UNL d   1      -2.481  -0.237   1.464  0.00  0.00     0.062 A 
ATOM      7  F   UNL d   1      -2.217  -1.281   2.263  0.00  0.00    -0.097 F 
ATOM      8  F1  UNL d   1      -4.744  -0.318   2.107  0.00  0.00    -0.096 F 
ATOM      9  I   UNL d   1      -5.999   2.096   0.423  0.00  0.00    -0.060 I 
ATOM     10  F2  UNL d   1      -3.268   2.971  -0.997  0.00  0.00    -0.096 F 
ATOM     11  F3  UNL d   1      -0.752   1.985  -0.819  0.00  0.00    -0.097 F 
ATOM     12  F4  UNL d   1      -0.214  -0.139   0.806  0.00  0.00    -0.092 F 
ENDROOT
TORSDOF 0
ENDMDL
