MODEL 1
REMARK minimizedAffinity 18.7164268
REMARK minimizedRMSD -1
REMARK  0 active torsions:
REMARK  status: ('A' for Active; 'I' for Inactive)
ROOT
ATOM      1  C   UNL d   1      -3.702  -0.005   1.564  0.00  0.00     0.124 A 
ATOM      2  C1  UNL d   1      -2.422   0.174   1.057  0.00  0.00     0.062 A 
ATOM      3  C2  UNL d   1      -2.200   1.077   0.021  0.00  0.00     0.162 A 
ATOM      4  C3  UNL d   1      -3.259   1.810  -0.514  0.00  0.00    -0.034 A 
ATOM      5  C4  UNL d   1      -4.544   1.624   0.001  0.00  0.00     0.162 A 
ATOM      6  C5  UNL d   1      -4.761   0.720   1.036  0.00  0.00     0.062 A 
ATOM      7  F   UNL d   1      -5.998   0.548   1.524  0.00  0.00    -0.097 F 
ATOM      8  F1  UNL d   1      -5.585   2.312  -0.490  0.00  0.00    -0.096 F 
ATOM      9  I   UNL d   1      -2.931   3.161  -2.062  0.00  0.00    -0.060 I 
ATOM     10  F2  UNL d   1      -0.953   1.230  -0.449  0.00  0.00    -0.096 F 
ATOM     11  F3  UNL d   1      -1.398  -0.526   1.564  0.00  0.00    -0.097 F 
ATOM     12  F4  UNL d   1      -3.914  -0.875   2.559  0.00  0.00    -0.092 F 
ENDROOT
TORSDOF 0
ENDMDL
