MODEL 1
REMARK minimizedAffinity 16.6620922
REMARK minimizedRMSD -1
REMARK  0 active torsions:
REMARK  status: ('A' for Active; 'I' for Inactive)
ROOT
ATOM      1  C   UNL d   1       5.147   2.424   1.767  0.00  0.00     0.124 A 
ATOM      2  C1  UNL d   1       4.738   2.099   3.053  0.00  0.00     0.062 A 
ATOM      3  C2  UNL d   1       4.710   3.074   4.046  0.00  0.00     0.162 A 
ATOM      4  C3  UNL d   1       5.091   4.385   3.756  0.00  0.00    -0.034 A 
ATOM      5  C4  UNL d   1       5.503   4.703   2.461  0.00  0.00     0.162 A 
ATOM      6  C5  UNL d   1       5.529   3.725   1.472  0.00  0.00     0.062 A 
ATOM      7  F   UNL d   1       5.925   4.040   0.230  0.00  0.00    -0.097 F 
ATOM      8  F1  UNL d   1       5.876   5.953   2.148  0.00  0.00    -0.096 F 
ATOM      9  I   UNL d   1       5.051   5.846   5.238  0.00  0.00    -0.060 I 
ATOM     10  F2  UNL d   1       4.310   2.733   5.279  0.00  0.00    -0.096 F 
ATOM     11  F3  UNL d   1       4.369   0.843   3.340  0.00  0.00    -0.097 F 
ATOM     12  F4  UNL d   1       5.174   1.483   0.814  0.00  0.00    -0.092 F 
ENDROOT
TORSDOF 0
ENDMDL
