MODEL 1
REMARK minimizedAffinity 19.4466877
REMARK minimizedRMSD -1
REMARK  0 active torsions:
REMARK  status: ('A' for Active; 'I' for Inactive)
ROOT
ATOM      1  C   UNL d   1      -1.900  -0.576   3.511  0.00  0.00     0.124 A 
ATOM      2  C1  UNL d   1      -2.099  -1.179   2.276  0.00  0.00     0.062 A 
ATOM      3  C2  UNL d   1      -2.237  -0.400   1.131  0.00  0.00     0.162 A 
ATOM      4  C3  UNL d   1      -2.176   0.991   1.215  0.00  0.00    -0.034 A 
ATOM      5  C4  UNL d   1      -1.976   1.590   2.460  0.00  0.00     0.162 A 
ATOM      6  C5  UNL d   1      -1.839   0.807   3.601  0.00  0.00     0.062 A 
ATOM      7  F   UNL d   1      -1.647   1.391   4.793  0.00  0.00    -0.097 F 
ATOM      8  F1  UNL d   1      -1.912   2.925   2.576  0.00  0.00    -0.096 F 
ATOM      9  I   UNL d   1      -2.382   2.159  -0.495  0.00  0.00    -0.060 I 
ATOM     10  F2  UNL d   1      -2.428  -1.009  -0.048  0.00  0.00    -0.096 F 
ATOM     11  F3  UNL d   1      -2.159  -2.515   2.186  0.00  0.00    -0.097 F 
ATOM     12  F4  UNL d   1      -1.768  -1.328   4.611  0.00  0.00    -0.092 F 
ENDROOT
TORSDOF 0
ENDMDL
