MODEL 1
REMARK minimizedAffinity 13.6963997
REMARK minimizedRMSD -1
REMARK  0 active torsions:
REMARK  status: ('A' for Active; 'I' for Inactive)
ROOT
ATOM      1  C   UNL d   1      -3.443  -3.132  -1.014  0.00  0.00     0.124 A 
ATOM      2  C1  UNL d   1      -2.799  -4.224  -0.450  0.00  0.00     0.062 A 
ATOM      3  C2  UNL d   1      -1.870  -4.949  -1.191  0.00  0.00     0.162 A 
ATOM      4  C3  UNL d   1      -1.579  -4.583  -2.506  0.00  0.00    -0.034 A 
ATOM      5  C4  UNL d   1      -2.232  -3.484  -3.067  0.00  0.00     0.162 A 
ATOM      6  C5  UNL d   1      -3.160  -2.763  -2.322  0.00  0.00     0.062 A 
ATOM      7  F   UNL d   1      -3.781  -1.709  -2.869  0.00  0.00    -0.097 F 
ATOM      8  F1  UNL d   1      -1.976  -3.106  -4.328  0.00  0.00    -0.096 F 
ATOM      9  I   UNL d   1      -0.191  -5.664  -3.618  0.00  0.00    -0.060 I 
ATOM     10  F2  UNL d   1      -1.262  -6.000  -0.621  0.00  0.00    -0.096 F 
ATOM     11  F3  UNL d   1      -3.072  -4.583   0.813  0.00  0.00    -0.097 F 
ATOM     12  F4  UNL d   1      -4.337  -2.437  -0.299  0.00  0.00    -0.092 F 
ENDROOT
TORSDOF 0
ENDMDL
