MODEL 1
REMARK minimizedAffinity 10.2373075
REMARK minimizedRMSD -1
REMARK  0 active torsions:
REMARK  status: ('A' for Active; 'I' for Inactive)
ROOT
ATOM      1  C   UNL d   1      -2.794   1.573   0.166  0.00  0.00     0.124 A 
ATOM      2  C1  UNL d   1      -4.073   1.942   0.558  0.00  0.00     0.062 A 
ATOM      3  C2  UNL d   1      -4.762   1.186   1.501  0.00  0.00     0.162 A 
ATOM      4  C3  UNL d   1      -4.173   0.052   2.061  0.00  0.00    -0.034 A 
ATOM      5  C4  UNL d   1      -2.886  -0.314   1.662  0.00  0.00     0.162 A 
ATOM      6  C5  UNL d   1      -2.202   0.446   0.718  0.00  0.00     0.062 A 
ATOM      7  F   UNL d   1      -0.966   0.087   0.341  0.00  0.00    -0.097 F 
ATOM      8  F1  UNL d   1      -2.290  -1.398   2.179  0.00  0.00    -0.096 F 
ATOM      9  I   UNL d   1      -5.200  -1.082   3.472  0.00  0.00    -0.060 I 
ATOM     10  F2  UNL d   1      -5.997   1.566   1.861  0.00  0.00    -0.096 F 
ATOM     11  F3  UNL d   1      -4.648   3.030   0.025  0.00  0.00    -0.097 F 
ATOM     12  F4  UNL d   1      -2.133   2.302  -0.742  0.00  0.00    -0.092 F 
ENDROOT
TORSDOF 0
ENDMDL
