MODEL 1
REMARK minimizedAffinity 8.46169376
REMARK minimizedRMSD -1
REMARK  0 active torsions:
REMARK  status: ('A' for Active; 'I' for Inactive)
ROOT
ATOM      1  C   UNL d   1       1.756  -5.719  -4.444  0.00  0.00     0.124 A 
ATOM      2  C1  UNL d   1       0.401  -5.749  -4.741  0.00  0.00     0.062 A 
ATOM      3  C2  UNL d   1      -0.540  -5.528  -3.740  0.00  0.00     0.162 A 
ATOM      4  C3  UNL d   1      -0.129  -5.274  -2.432  0.00  0.00    -0.034 A 
ATOM      5  C4  UNL d   1       1.236  -5.246  -2.140  0.00  0.00     0.162 A 
ATOM      6  C5  UNL d   1       2.173  -5.468  -3.145  0.00  0.00     0.062 A 
ATOM      7  F   UNL d   1       3.482  -5.439  -2.856  0.00  0.00    -0.097 F 
ATOM      8  F1  UNL d   1       1.666  -5.005  -0.893  0.00  0.00    -0.096 F 
ATOM      9  I   UNL d   1      -1.533  -4.943  -0.931  0.00  0.00    -0.060 I 
ATOM     10  F2  UNL d   1      -1.843  -5.563  -4.056  0.00  0.00    -0.096 F 
ATOM     11  F3  UNL d   1      -0.004  -5.993  -5.996  0.00  0.00    -0.097 F 
ATOM     12  F4  UNL d   1       2.660  -5.933  -5.410  0.00  0.00    -0.092 F 
ENDROOT
TORSDOF 0
ENDMDL
