MODEL 1
REMARK minimizedAffinity 21.4873562
REMARK minimizedRMSD -1
REMARK  0 active torsions:
REMARK  status: ('A' for Active; 'I' for Inactive)
ROOT
ATOM      1  C   UNL d   1       4.929   2.286   1.830  0.00  0.00     0.124 A 
ATOM      2  C1  UNL d   1       4.744   2.037   3.183  0.00  0.00     0.062 A 
ATOM      3  C2  UNL d   1       4.598   3.095   4.076  0.00  0.00     0.162 A 
ATOM      4  C3  UNL d   1       4.635   4.412   3.619  0.00  0.00    -0.034 A 
ATOM      5  C4  UNL d   1       4.823   4.655   2.257  0.00  0.00     0.162 A 
ATOM      6  C5  UNL d   1       4.968   3.594   1.368  0.00  0.00     0.062 A 
ATOM      7  F   UNL d   1       5.147   3.837   0.062  0.00  0.00    -0.097 F 
ATOM      8  F1  UNL d   1       4.863   5.909   1.783  0.00  0.00    -0.096 F 
ATOM      9  I   UNL d   1       4.417   5.997   4.950  0.00  0.00    -0.060 I 
ATOM     10  F2  UNL d   1       4.421   2.825   5.378  0.00  0.00    -0.096 F 
ATOM     11  F3  UNL d   1       4.707   0.774   3.632  0.00  0.00    -0.097 F 
ATOM     12  F4  UNL d   1       5.071   1.267   0.974  0.00  0.00    -0.092 F 
ENDROOT
TORSDOF 0
ENDMDL
