MODEL 1
REMARK minimizedAffinity 31.5135403
REMARK minimizedRMSD -1
REMARK  0 active torsions:
REMARK  status: ('A' for Active; 'I' for Inactive)
ROOT
ATOM      1  C   UNL d   1      -3.725   0.718   1.294  0.00  0.00     0.124 A 
ATOM      2  C1  UNL d   1      -2.445   0.798   0.762  0.00  0.00     0.062 A 
ATOM      3  C2  UNL d   1      -2.193   1.619  -0.333  0.00  0.00     0.162 A 
ATOM      4  C3  UNL d   1      -3.222   2.369  -0.903  0.00  0.00    -0.034 A 
ATOM      5  C4  UNL d   1      -4.506   2.283  -0.363  0.00  0.00     0.162 A 
ATOM      6  C5  UNL d   1      -4.754   1.460   0.732  0.00  0.00     0.062 A 
ATOM      7  F   UNL d   1      -5.990   1.385   1.245  0.00  0.00    -0.097 F 
ATOM      8  F1  UNL d   1      -5.519   2.990  -0.886  0.00  0.00    -0.096 F 
ATOM      9  I   UNL d   1      -2.848   3.598  -2.541  0.00  0.00    -0.060 I 
ATOM     10  F2  UNL d   1      -0.947   1.676  -0.827  0.00  0.00    -0.096 F 
ATOM     11  F3  UNL d   1      -1.450   0.081   1.303  0.00  0.00    -0.097 F 
ATOM     12  F4  UNL d   1      -3.965  -0.073   2.347  0.00  0.00    -0.092 F 
ENDROOT
TORSDOF 0
ENDMDL
