MODEL 1
REMARK minimizedAffinity 8.03878117
REMARK minimizedRMSD -1
REMARK  0 active torsions:
REMARK  status: ('A' for Active; 'I' for Inactive)
ROOT
ATOM      1  C   UNL d   1       0.045   2.353   2.384  0.00  0.00     0.124 A 
ATOM      2  C1  UNL d   1      -0.453   1.856   1.188  0.00  0.00     0.062 A 
ATOM      3  C2  UNL d   1       0.411   1.315   0.240  0.00  0.00     0.162 A 
ATOM      4  C3  UNL d   1       1.783   1.266   0.485  0.00  0.00    -0.034 A 
ATOM      5  C4  UNL d   1       2.277   1.769   1.690  0.00  0.00     0.162 A 
ATOM      6  C5  UNL d   1       1.410   2.309   2.634  0.00  0.00     0.062 A 
ATOM      7  F   UNL d   1       1.893   2.788   3.789  0.00  0.00    -0.097 F 
ATOM      8  F1  UNL d   1       3.591   1.738   1.958  0.00  0.00    -0.096 F 
ATOM      9  I   UNL d   1       3.078   0.458  -0.929  0.00  0.00    -0.060 I 
ATOM     10  F2  UNL d   1      -0.099   0.842  -0.907  0.00  0.00    -0.096 F 
ATOM     11  F3  UNL d   1      -1.771   1.898   0.943  0.00  0.00    -0.097 F 
ATOM     12  F4  UNL d   1      -0.788   2.873   3.294  0.00  0.00    -0.092 F 
ENDROOT
TORSDOF 0
ENDMDL
