MODEL 1
REMARK minimizedAffinity 18.009903
REMARK minimizedRMSD -1
REMARK  0 active torsions:
REMARK  status: ('A' for Active; 'I' for Inactive)
ROOT
ATOM      1  C   UNL d   1       1.093   1.220   1.202  0.00  0.00     0.124 A 
ATOM      2  C1  UNL d   1       2.197   0.805   0.470  0.00  0.00     0.062 A 
ATOM      3  C2  UNL d   1       2.185   0.883  -0.919  0.00  0.00     0.162 A 
ATOM      4  C3  UNL d   1       1.065   1.379  -1.587  0.00  0.00    -0.034 A 
ATOM      5  C4  UNL d   1      -0.042   1.793  -0.844  0.00  0.00     0.162 A 
ATOM      6  C5  UNL d   1      -0.025   1.713   0.545  0.00  0.00     0.062 A 
ATOM      7  F   UNL d   1      -1.093   2.114   1.250  0.00  0.00    -0.097 F 
ATOM      8  F1  UNL d   1      -1.136   2.275  -1.454  0.00  0.00    -0.096 F 
ATOM      9  I   UNL d   1       1.043   1.498  -3.664  0.00  0.00    -0.060 I 
ATOM     10  F2  UNL d   1       3.266   0.476  -1.601  0.00  0.00    -0.096 F 
ATOM     11  F3  UNL d   1       3.278   0.328   1.103  0.00  0.00    -0.097 F 
ATOM     12  F4  UNL d   1       1.106   1.143   2.539  0.00  0.00    -0.092 F 
ENDROOT
TORSDOF 0
ENDMDL
