MODEL 1
REMARK minimizedAffinity 6.2554841
REMARK minimizedRMSD -1
REMARK  0 active torsions:
REMARK  status: ('A' for Active; 'I' for Inactive)
ROOT
ATOM      1  C   UNL d   1       1.492   1.060   0.202  0.00  0.00     0.124 A 
ATOM      2  C1  UNL d   1       2.034   1.643   1.339  0.00  0.00     0.062 A 
ATOM      3  C2  UNL d   1       1.208   2.271   2.266  0.00  0.00     0.162 A 
ATOM      4  C3  UNL d   1      -0.171   2.319   2.060  0.00  0.00    -0.034 A 
ATOM      5  C4  UNL d   1      -0.709   1.732   0.914  0.00  0.00     0.162 A 
ATOM      6  C5  UNL d   1       0.121   1.105  -0.010  0.00  0.00     0.062 A 
ATOM      7  F   UNL d   1      -0.404   0.542  -1.108  0.00  0.00    -0.097 F 
ATOM      8  F1  UNL d   1      -2.031   1.759   0.685  0.00  0.00    -0.096 F 
ATOM      9  I   UNL d   1      -1.411   3.258   3.443  0.00  0.00    -0.060 I 
ATOM     10  F2  UNL d   1       1.759   2.826   3.355  0.00  0.00    -0.096 F 
ATOM     11  F3  UNL d   1       3.359   1.602   1.545  0.00  0.00    -0.097 F 
ATOM     12  F4  UNL d   1       2.290   0.457  -0.689  0.00  0.00    -0.092 F 
ENDROOT
TORSDOF 0
ENDMDL
