MODEL 1
REMARK minimizedAffinity 16.2033882
REMARK minimizedRMSD -1
REMARK  0 active torsions:
REMARK  status: ('A' for Active; 'I' for Inactive)
ROOT
ATOM      1  C   UNL d   1       3.609   1.499  -0.397  0.00  0.00     0.124 A 
ATOM      2  C1  UNL d   1       2.386   1.085  -0.907  0.00  0.00     0.062 A 
ATOM      3  C2  UNL d   1       1.239   1.156  -0.122  0.00  0.00     0.162 A 
ATOM      4  C3  UNL d   1       1.309   1.646   1.183  0.00  0.00    -0.034 A 
ATOM      5  C4  UNL d   1       2.542   2.059   1.689  0.00  0.00     0.162 A 
ATOM      6  C5  UNL d   1       3.686   1.986   0.900  0.00  0.00     0.062 A 
ATOM      7  F   UNL d   1       4.866   2.386   1.395  0.00  0.00    -0.097 F 
ATOM      8  F1  UNL d   1       2.645   2.535   2.939  0.00  0.00    -0.096 F 
ATOM      9  I   UNL d   1      -0.403   1.755   2.360  0.00  0.00    -0.060 I 
ATOM     10  F2  UNL d   1       0.071   0.749  -0.641  0.00  0.00    -0.096 F 
ATOM     11  F3  UNL d   1       2.309   0.613  -2.160  0.00  0.00    -0.097 F 
ATOM     12  F4  UNL d   1       4.711   1.428  -1.155  0.00  0.00    -0.092 F 
ENDROOT
TORSDOF 0
ENDMDL
