MODEL 1
REMARK minimizedAffinity 13.8115482
REMARK minimizedRMSD -1
REMARK  0 active torsions:
REMARK  status: ('A' for Active; 'I' for Inactive)
ROOT
ATOM      1  C   UNL d   1      -0.282   1.685   1.242  0.00  0.00     0.124 A 
ATOM      2  C1  UNL d   1       0.356   2.424   2.229  0.00  0.00     0.062 A 
ATOM      3  C2  UNL d   1       1.746   2.437   2.306  0.00  0.00     0.162 A 
ATOM      4  C3  UNL d   1       2.508   1.708   1.393  0.00  0.00    -0.034 A 
ATOM      5  C4  UNL d   1       1.860   0.966   0.404  0.00  0.00     0.162 A 
ATOM      6  C5  UNL d   1       0.470   0.957   0.331  0.00  0.00     0.062 A 
ATOM      7  F   UNL d   1      -0.144   0.243  -0.623  0.00  0.00    -0.097 F 
ATOM      8  F1  UNL d   1       2.562   0.254  -0.490  0.00  0.00    -0.096 F 
ATOM      9  I   UNL d   1       4.586   1.724   1.506  0.00  0.00    -0.060 I 
ATOM     10  F2  UNL d   1       2.335   3.160   3.270  0.00  0.00    -0.096 F 
ATOM     11  F3  UNL d   1      -0.368   3.128   3.110  0.00  0.00    -0.097 F 
ATOM     12  F4  UNL d   1      -1.619   1.675   1.170  0.00  0.00    -0.092 F 
ENDROOT
TORSDOF 0
ENDMDL
