MODEL 1
REMARK minimizedAffinity 12.2451038
REMARK minimizedRMSD -1
REMARK  0 active torsions:
REMARK  status: ('A' for Active; 'I' for Inactive)
ROOT
ATOM      1  C   UNL d   1       0.921   2.928   2.440  0.00  0.00     0.124 A 
ATOM      2  C1  UNL d   1       2.220   3.086   1.979  0.00  0.00     0.062 A 
ATOM      3  C2  UNL d   1       2.708   2.266   0.965  0.00  0.00     0.162 A 
ATOM      4  C3  UNL d   1       1.894   1.281   0.404  0.00  0.00    -0.034 A 
ATOM      5  C4  UNL d   1       0.589   1.128   0.874  0.00  0.00     0.162 A 
ATOM      6  C5  UNL d   1       0.106   1.950   1.887  0.00  0.00     0.062 A 
ATOM      7  F   UNL d   1      -1.150   1.796   2.331  0.00  0.00    -0.097 F 
ATOM      8  F1  UNL d   1      -0.220   0.192   0.357  0.00  0.00    -0.096 F 
ATOM      9  I   UNL d   1       2.619   0.053  -1.112  0.00  0.00    -0.060 I 
ATOM     10  F2  UNL d   1       3.968   2.441   0.539  0.00  0.00    -0.096 F 
ATOM     11  F3  UNL d   1       3.010   4.030   2.512  0.00  0.00    -0.097 F 
ATOM     12  F4  UNL d   1       0.455   3.718   3.416  0.00  0.00    -0.092 F 
ENDROOT
TORSDOF 0
ENDMDL
