MODEL 1
REMARK minimizedAffinity 8.74757385
REMARK minimizedRMSD -1
REMARK  2 active torsions:
REMARK  status: ('A' for Active; 'I' for Inactive)
REMARK    1  A    between atoms: C2'_3  and  C1'_4 
REMARK    2  A    between atoms: C1'_4  and  C1_5 
ROOT
ATOM      1  C1  I4B d   1      -0.552  -0.852   2.808  0.00  0.00    -0.075 A 
ATOM      2  C2  I4B d   1      -1.532   0.093   2.632  0.00  0.00     0.003 A 
ATOM      3  C3  I4B d   1      -2.050   0.799   3.744  0.00  0.00     0.002 A 
ATOM      4  C4  I4B d   1      -1.598   0.495   5.012  0.00  0.00    -0.004 A 
ATOM      5  C5  I4B d   1      -0.588  -0.447   5.187  0.00  0.00     0.002 A 
ATOM      6  C6  I4B d   1      -0.053  -1.116   4.077  0.00  0.00     0.003 A 
ENDROOT
BRANCH   1   7
ATOM      7  C1' I4B d   1      -0.051  -1.602   1.615  0.00  0.00     0.060 C 
BRANCH   7   8
ATOM      8  C2' I4B d   1      -1.175  -2.487   1.114  0.00  0.00    -0.013 C 
ATOM      9  C4' I4B d   1      -2.408  -2.337   1.966  0.00  0.00     0.013 C 
ATOM     10  C3' I4B d   1      -1.455  -2.117  -0.312  0.00  0.00     0.013 C 
ENDBRANCH   7   8
ENDBRANCH   1   7
TORSDOF 2
ENDMDL
