MODEL 1
REMARK minimizedAffinity 15.3620176
REMARK minimizedRMSD -1
REMARK  2 active torsions:
REMARK  status: ('A' for Active; 'I' for Inactive)
REMARK    1  A    between atoms: C2'_3  and  C1'_4 
REMARK    2  A    between atoms: C1'_4  and  C1_5 
ROOT
ATOM      1  C1  I4B d   1       3.618   3.713  -2.331  0.00  0.00    -0.075 A 
ATOM      2  C2  I4B d   1       3.059   3.464  -3.560  0.00  0.00     0.003 A 
ATOM      3  C3  I4B d   1       3.747   3.830  -4.743  0.00  0.00     0.002 A 
ATOM      4  C4  I4B d   1       4.959   4.482  -4.650  0.00  0.00    -0.004 A 
ATOM      5  C5  I4B d   1       5.535   4.713  -3.404  0.00  0.00     0.002 A 
ATOM      6  C6  I4B d   1       4.866   4.315  -2.237  0.00  0.00     0.003 A 
ENDROOT
BRANCH   1   7
ATOM      7  C1' I4B d   1       2.850   3.344  -1.102  0.00  0.00     0.060 C 
BRANCH   7   8
ATOM      8  C2' I4B d   1       3.702   2.393  -0.286  0.00  0.00    -0.013 C 
ATOM      9  C4' I4B d   1       4.122   3.020   1.017  0.00  0.00     0.013 C 
ATOM     10  C3' I4B d   1       2.909   1.142  -0.055  0.00  0.00     0.013 C 
ENDBRANCH   7   8
ENDBRANCH   1   7
TORSDOF 2
ENDMDL
