MODEL 1
REMARK minimizedAffinity 9.52650547
REMARK minimizedRMSD -1
REMARK  2 active torsions:
REMARK  status: ('A' for Active; 'I' for Inactive)
REMARK    1  A    between atoms: C2'_3  and  C1'_4 
REMARK    2  A    between atoms: C1'_4  and  C1_5 
ROOT
ATOM      1  C1  I4B d   1       5.617   4.234  -1.881  0.00  0.00    -0.075 A 
ATOM      2  C2  I4B d   1       5.951   3.352  -0.884  0.00  0.00     0.003 A 
ATOM      3  C3  I4B d   1       5.998   3.784   0.464  0.00  0.00     0.002 A 
ATOM      4  C4  I4B d   1       5.755   5.110   0.761  0.00  0.00    -0.004 A 
ATOM      5  C5  I4B d   1       5.394   5.997  -0.249  0.00  0.00     0.002 A 
ATOM      6  C6  I4B d   1       5.312   5.554  -1.577  0.00  0.00     0.003 A 
ENDROOT
BRANCH   1   7
ATOM      7  C1' I4B d   1       5.609   3.751  -3.297  0.00  0.00     0.060 C 
BRANCH   7   8
ATOM      8  C2' I4B d   1       4.178   3.790  -3.796  0.00  0.00    -0.013 C 
ATOM      9  C4' I4B d   1       4.093   3.379  -5.242  0.00  0.00     0.013 C 
ATOM     10  C3' I4B d   1       3.360   2.884  -2.925  0.00  0.00     0.013 C 
ENDBRANCH   7   8
ENDBRANCH   1   7
TORSDOF 2
ENDMDL
