MODEL 1
REMARK minimizedAffinity 13.650629
REMARK minimizedRMSD -1
REMARK  2 active torsions:
REMARK  status: ('A' for Active; 'I' for Inactive)
REMARK    1  A    between atoms: C2'_3  and  C1'_4 
REMARK    2  A    between atoms: C1'_4  and  C1_5 
ROOT
ATOM      1  C1  I4B d   1       5.448   3.459  -0.193  0.00  0.00    -0.075 A 
ATOM      2  C2  I4B d   1       4.590   2.473  -0.612  0.00  0.00     0.003 A 
ATOM      3  C3  I4B d   1       4.089   1.525   0.312  0.00  0.00     0.002 A 
ATOM      4  C4  I4B d   1       4.509   1.568   1.626  0.00  0.00    -0.004 A 
ATOM      5  C5  I4B d   1       5.361   2.582   2.053  0.00  0.00     0.002 A 
ATOM      6  C6  I4B d   1       5.824   3.541   1.141  0.00  0.00     0.003 A 
ENDROOT
BRANCH   1   7
ATOM      7  C1' I4B d   1       5.984   4.425  -1.203  0.00  0.00     0.060 C 
BRANCH   7   8
ATOM      8  C2' I4B d   1       4.895   4.684  -2.224  0.00  0.00    -0.013 C 
ATOM      9  C4' I4B d   1       4.172   5.973  -1.935  0.00  0.00     0.013 C 
ATOM     10  C3' I4B d   1       5.532   4.714  -3.582  0.00  0.00     0.013 C 
ENDBRANCH   7   8
ENDBRANCH   1   7
TORSDOF 2
ENDMDL
