MODEL 1
REMARK minimizedAffinity 6.7088232
REMARK minimizedRMSD -1
REMARK  2 active torsions:
REMARK  status: ('A' for Active; 'I' for Inactive)
REMARK    1  A    between atoms: C2'_3  and  C1'_4 
REMARK    2  A    between atoms: C1'_4  and  C1_5 
ROOT
ATOM      1  C1  I4B d   1       5.049   3.485   1.334  0.00  0.00    -0.075 A 
ATOM      2  C2  I4B d   1       5.773   3.473   0.168  0.00  0.00     0.003 A 
ATOM      3  C3  I4B d   1       5.999   4.677  -0.543  0.00  0.00     0.002 A 
ATOM      4  C4  I4B d   1       5.445   5.853  -0.081  0.00  0.00    -0.004 A 
ATOM      5  C5  I4B d   1       4.731   5.867   1.114  0.00  0.00     0.002 A 
ATOM      6  C6  I4B d   1       4.542   4.678   1.833  0.00  0.00     0.003 A 
ENDROOT
BRANCH   1   7
ATOM      7  C1' I4B d   1       4.801   2.190   2.041  0.00  0.00     0.060 C 
BRANCH   7   8
ATOM      8  C2' I4B d   1       3.988   1.303   1.121  0.00  0.00    -0.013 C 
ATOM      9  C4' I4B d   1       3.492   0.078   1.842  0.00  0.00     0.013 C 
ATOM     10  C3' I4B d   1       2.847   2.115   0.585  0.00  0.00     0.013 C 
ENDBRANCH   7   8
ENDBRANCH   1   7
TORSDOF 2
ENDMDL
