MODEL 1
REMARK minimizedAffinity 16.6885967
REMARK minimizedRMSD -1
REMARK  2 active torsions:
REMARK  status: ('A' for Active; 'I' for Inactive)
REMARK    1  A    between atoms: C2'_3  and  C1'_4 
REMARK    2  A    between atoms: C1'_4  and  C1_5 
ROOT
ATOM      1  C1  I4B d   1      -5.800   2.443   3.679  0.00  0.00    -0.075 A 
ATOM      2  C2  I4B d   1      -6.000   3.777   3.426  0.00  0.00     0.003 A 
ATOM      3  C3  I4B d   1      -5.873   4.727   4.468  0.00  0.00     0.002 A 
ATOM      4  C4  I4B d   1      -5.597   4.296   5.750  0.00  0.00    -0.004 A 
ATOM      5  C5  I4B d   1      -5.372   2.946   6.000  0.00  0.00     0.002 A 
ATOM      6  C6  I4B d   1      -5.462   2.014   4.956  0.00  0.00     0.003 A 
ENDROOT
BRANCH   1   7
ATOM      7  C1' I4B d   1      -5.974   1.464   2.561  0.00  0.00     0.060 C 
BRANCH   7   8
ATOM      8  C2' I4B d   1      -4.878   1.715   1.546  0.00  0.00    -0.013 C 
ATOM      9  C4' I4B d   1      -3.517   1.469   2.141  0.00  0.00     0.013 C 
ATOM     10  C3' I4B d   1      -5.124   0.819   0.368  0.00  0.00     0.013 C 
ENDBRANCH   7   8
ENDBRANCH   1   7
TORSDOF 2
ENDMDL
