MODEL 1
REMARK minimizedAffinity 9.29880333
REMARK minimizedRMSD -1
REMARK  2 active torsions:
REMARK  status: ('A' for Active; 'I' for Inactive)
REMARK    1  A    between atoms: C2'_3  and  C1'_4 
REMARK    2  A    between atoms: C1'_4  and  C1_5 
ROOT
ATOM      1  C1  I4B d   1       5.250   4.092  -2.515  0.00  0.00    -0.075 A 
ATOM      2  C2  I4B d   1       4.025   3.571  -2.178  0.00  0.00     0.003 A 
ATOM      3  C3  I4B d   1       3.295   2.803  -3.117  0.00  0.00     0.002 A 
ATOM      4  C4  I4B d   1       3.800   2.625  -4.389  0.00  0.00    -0.004 A 
ATOM      5  C5  I4B d   1       5.053   3.134  -4.721  0.00  0.00     0.002 A 
ATOM      6  C6  I4B d   1       5.788   3.862  -3.774  0.00  0.00     0.003 A 
ENDROOT
BRANCH   1   7
ATOM      7  C1' I4B d   1       5.979   4.926  -1.509  0.00  0.00     0.060 C 
BRANCH   7   8
ATOM      8  C2' I4B d   1       5.326   4.707  -0.160  0.00  0.00    -0.013 C 
ATOM      9  C4' I4B d   1       5.998   3.592   0.597  0.00  0.00     0.013 C 
ATOM     10  C3' I4B d   1       5.395   5.997   0.602  0.00  0.00     0.013 C 
ENDBRANCH   7   8
ENDBRANCH   1   7
TORSDOF 2
ENDMDL
