MODEL 1
REMARK minimizedAffinity 14.3832283
REMARK minimizedRMSD -1
REMARK  2 active torsions:
REMARK  status: ('A' for Active; 'I' for Inactive)
REMARK    1  A    between atoms: C2'_3  and  C1'_4 
REMARK    2  A    between atoms: C1'_4  and  C1_5 
ROOT
ATOM      1  C1  I4B d   1      -2.538   0.391   2.913  0.00  0.00    -0.075 A 
ATOM      2  C2  I4B d   1      -1.372  -0.317   2.761  0.00  0.00     0.003 A 
ATOM      3  C3  I4B d   1      -1.261  -1.298   1.746  0.00  0.00     0.002 A 
ATOM      4  C4  I4B d   1      -2.350  -1.573   0.945  0.00  0.00    -0.004 A 
ATOM      5  C5  I4B d   1      -3.524  -0.839   1.085  0.00  0.00     0.002 A 
ATOM      6  C6  I4B d   1      -3.615   0.158   2.067  0.00  0.00     0.003 A 
ENDROOT
BRANCH   1   7
ATOM      7  C1' I4B d   1      -2.632   1.398   4.015  0.00  0.00     0.060 C 
BRANCH   7   8
ATOM      8  C2' I4B d   1      -3.370   0.755   5.172  0.00  0.00    -0.013 C 
ATOM      9  C4' I4B d   1      -2.448  -0.103   5.998  0.00  0.00     0.013 C 
ATOM     10  C3' I4B d   1      -3.977   1.849   5.999  0.00  0.00     0.013 C 
ENDBRANCH   7   8
ENDBRANCH   1   7
TORSDOF 2
ENDMDL
