MODEL 1
REMARK minimizedAffinity 7.9442482
REMARK minimizedRMSD -1
REMARK  2 active torsions:
REMARK  status: ('A' for Active; 'I' for Inactive)
REMARK    1  A    between atoms: C2'_3  and  C1'_4 
REMARK    2  A    between atoms: C1'_4  and  C1_5 
ROOT
ATOM      1  C1  I4B d   1       1.934   3.142  -2.523  0.00  0.00    -0.075 A 
ATOM      2  C2  I4B d   1       2.333   1.927  -2.026  0.00  0.00     0.003 A 
ATOM      3  C3  I4B d   1       2.332   1.694  -0.629  0.00  0.00     0.002 A 
ATOM      4  C4  I4B d   1       1.975   2.713   0.230  0.00  0.00    -0.004 A 
ATOM      5  C5  I4B d   1       1.548   3.937  -0.277  0.00  0.00     0.002 A 
ATOM      6  C6  I4B d   1       1.516   4.149  -1.663  0.00  0.00     0.003 A 
ENDROOT
BRANCH   1   7
ATOM      7  C1' I4B d   1       1.979   3.366  -4.002  0.00  0.00     0.060 C 
BRANCH   7   8
ATOM      8  C2' I4B d   1       3.378   3.038  -4.481  0.00  0.00    -0.013 C 
ATOM      9  C4' I4B d   1       3.442   2.993  -5.985  0.00  0.00     0.013 C 
ATOM     10  C3' I4B d   1       4.311   4.074  -3.930  0.00  0.00     0.013 C 
ENDBRANCH   7   8
ENDBRANCH   1   7
TORSDOF 2
ENDMDL
