MODEL 1
REMARK minimizedAffinity 9.18100262
REMARK minimizedRMSD -1
REMARK  2 active torsions:
REMARK  status: ('A' for Active; 'I' for Inactive)
REMARK    1  A    between atoms: C2'_3  and  C1'_4 
REMARK    2  A    between atoms: C1'_4  and  C1_5 
ROOT
ATOM      1  C1  I4B d   1      -1.743  -2.078   1.669  0.00  0.00    -0.075 A 
ATOM      2  C2  I4B d   1      -0.385  -2.238   1.550  0.00  0.00     0.003 A 
ATOM      3  C3  I4B d   1       0.494  -1.228   2.010  0.00  0.00     0.002 A 
ATOM      4  C4  I4B d   1      -0.025  -0.061   2.532  0.00  0.00    -0.004 A 
ATOM      5  C5  I4B d   1      -1.401   0.090   2.673  0.00  0.00     0.002 A 
ATOM      6  C6  I4B d   1      -2.266  -0.930   2.251  0.00  0.00     0.003 A 
ENDROOT
BRANCH   1   7
ATOM      7  C1' I4B d   1      -2.644  -3.150   1.143  0.00  0.00     0.060 C 
BRANCH   7   8
ATOM      8  C2' I4B d   1      -4.011  -2.960   1.769  0.00  0.00    -0.013 C 
ATOM      9  C4' I4B d   1      -4.870  -2.046   0.936  0.00  0.00     0.013 C 
ATOM     10  C3' I4B d   1      -4.644  -4.311   1.917  0.00  0.00     0.013 C 
ENDBRANCH   7   8
ENDBRANCH   1   7
TORSDOF 2
ENDMDL
