MODEL 1
REMARK minimizedAffinity 16.0646744
REMARK minimizedRMSD -1
REMARK  2 active torsions:
REMARK  status: ('A' for Active; 'I' for Inactive)
REMARK    1  A    between atoms: C2'_3  and  C1'_4 
REMARK    2  A    between atoms: C1'_4  and  C1_5 
ROOT
ATOM      1  C1  I4B d   1      -4.161   0.218   1.210  0.00  0.00    -0.075 A 
ATOM      2  C2  I4B d   1      -4.075   1.233   2.130  0.00  0.00     0.003 A 
ATOM      3  C3  I4B d   1      -2.907   1.385   2.917  0.00  0.00     0.002 A 
ATOM      4  C4  I4B d   1      -1.877   0.476   2.786  0.00  0.00    -0.004 A 
ATOM      5  C5  I4B d   1      -1.957  -0.539   1.837  0.00  0.00     0.002 A 
ATOM      6  C6  I4B d   1      -3.100  -0.662   1.035  0.00  0.00     0.003 A 
ENDROOT
BRANCH   1   7
ATOM      7  C1' I4B d   1      -5.422   0.067   0.420  0.00  0.00     0.060 C 
BRANCH   7   8
ATOM      8  C2' I4B d   1      -5.264   0.853  -0.866  0.00  0.00    -0.013 C 
ATOM      9  C4' I4B d   1      -5.865   0.115  -2.033  0.00  0.00     0.013 C 
ATOM     10  C3' I4B d   1      -5.918   2.189  -0.675  0.00  0.00     0.013 C 
ENDBRANCH   7   8
ENDBRANCH   1   7
TORSDOF 2
ENDMDL
