MODEL 1
REMARK minimizedAffinity -1.80437422
REMARK minimizedRMSD -1
REMARK  0 active torsions:
REMARK  status: ('A' for Active; 'I' for Inactive)
ROOT
ATOM      1  O1  BZF d   1       1.551  -1.325   0.428  0.00  0.00    -0.204 OA
ATOM      2  C2  BZF d   1       0.987  -0.361   1.241  0.00  0.00     0.174 A 
ATOM      3  C3  BZF d   1       0.274   0.521   0.512  0.00  0.00    -0.012 A 
ATOM      4  C3A BZF d   1       0.323   0.027  -0.830  0.00  0.00    -0.107 A 
ATOM      5  C4  BZF d   1      -0.210   0.461  -2.011  0.00  0.00     0.055 A 
ATOM      6  C5  BZF d   1       0.088  -0.208  -3.155  0.00  0.00    -0.016 A 
ATOM      7  C6  BZF d   1       0.918  -1.310  -3.157  0.00  0.00     0.022 A 
ATOM      8  C7  BZF d   1       1.466  -1.780  -2.010  0.00  0.00     0.029 A 
ATOM      9  C7A BZF d   1       1.141  -1.126  -0.847  0.00  0.00     0.058 A 
ENDROOT
TORSDOF 0
ENDMDL
