MODEL 1
REMARK minimizedAffinity -4.42330074
REMARK minimizedRMSD -1
REMARK  0 active torsions:
REMARK  status: ('A' for Active; 'I' for Inactive)
ROOT
ATOM      1  O1  BZF d   1      -2.435   0.631   1.986  0.00  0.00    -0.204 OA
ATOM      2  C2  BZF d   1      -1.941   0.593   3.276  0.00  0.00     0.174 A 
ATOM      3  C3  BZF d   1      -0.627   0.291   3.276  0.00  0.00    -0.012 A 
ATOM      4  C3A BZF d   1      -0.257   0.221   1.895  0.00  0.00    -0.107 A 
ATOM      5  C4  BZF d   1       0.921  -0.028   1.251  0.00  0.00     0.055 A 
ATOM      6  C5  BZF d   1       0.930  -0.097  -0.107  0.00  0.00    -0.016 A 
ATOM      7  C6  BZF d   1      -0.221   0.072  -0.849  0.00  0.00     0.022 A 
ATOM      8  C7  BZF d   1      -1.412   0.326  -0.255  0.00  0.00     0.029 A 
ATOM      9  C7A BZF d   1      -1.417   0.429   1.115  0.00  0.00     0.058 A 
ENDROOT
TORSDOF 0
ENDMDL
