MODEL 1
REMARK minimizedAffinity -1.00747609
REMARK minimizedRMSD -1
REMARK  0 active torsions:
REMARK  status: ('A' for Active; 'I' for Inactive)
ROOT
ATOM      1  O1  BZF d   1      -1.879   0.822  -1.037  0.00  0.00    -0.204 OA
ATOM      2  C2  BZF d   1      -0.771   0.664  -1.846  0.00  0.00     0.174 A 
ATOM      3  C3  BZF d   1       0.338   0.463  -1.106  0.00  0.00    -0.012 A 
ATOM      4  C3A BZF d   1      -0.119   0.405   0.249  0.00  0.00    -0.107 A 
ATOM      5  C4  BZF d   1       0.510   0.210   1.445  0.00  0.00     0.055 A 
ATOM      6  C5  BZF d   1      -0.215   0.283   2.592  0.00  0.00    -0.016 A 
ATOM      7  C6  BZF d   1      -1.567   0.554   2.581  0.00  0.00     0.022 A 
ATOM      8  C7  BZF d   1      -2.236   0.750   1.418  0.00  0.00     0.029 A 
ATOM      9  C7A BZF d   1      -1.513   0.644   0.255  0.00  0.00     0.058 A 
ENDROOT
TORSDOF 0
ENDMDL
