MODEL 1
REMARK minimizedAffinity -3.28520846
REMARK minimizedRMSD -1
REMARK  0 active torsions:
REMARK  status: ('A' for Active; 'I' for Inactive)
ROOT
ATOM      1  O1  BZF d   1       0.693   0.598  -2.451  0.00  0.00    -0.204 OA
ATOM      2  C2  BZF d   1       0.715  -0.594  -3.150  0.00  0.00     0.174 A 
ATOM      3  C3  BZF d   1       0.852  -1.639  -2.309  0.00  0.00    -0.012 A 
ATOM      4  C3A BZF d   1       0.828  -1.072  -0.996  0.00  0.00    -0.107 A 
ATOM      5  C4  BZF d   1       0.907  -1.604   0.259  0.00  0.00     0.055 A 
ATOM      6  C5  BZF d   1       0.927  -0.769   1.331  0.00  0.00    -0.016 A 
ATOM      7  C6  BZF d   1       0.875   0.601   1.185  0.00  0.00     0.022 A 
ATOM      8  C7  BZF d   1       0.791   1.176  -0.040  0.00  0.00     0.029 A 
ATOM      9  C7A BZF d   1       0.737   0.334  -1.123  0.00  0.00     0.058 A 
ENDROOT
TORSDOF 0
ENDMDL
