MODEL 1
REMARK minimizedAffinity 1.46649158
REMARK minimizedRMSD -1
REMARK  0 active torsions:
REMARK  status: ('A' for Active; 'I' for Inactive)
ROOT
ATOM      1  O1  BZF d   1      -0.715   0.174  -0.888  0.00  0.00    -0.204 OA
ATOM      2  C2  BZF d   1       0.253  -0.271  -1.768  0.00  0.00     0.174 A 
ATOM      3  C3  BZF d   1       1.436  -0.427  -1.140  0.00  0.00    -0.012 A 
ATOM      4  C3A BZF d   1       1.171  -0.144   0.237  0.00  0.00    -0.107 A 
ATOM      5  C4  BZF d   1       1.946  -0.145   1.362  0.00  0.00     0.055 A 
ATOM      6  C5  BZF d   1       1.398   0.250   2.541  0.00  0.00    -0.016 A 
ATOM      7  C6  BZF d   1       0.083   0.656   2.631  0.00  0.00     0.022 A 
ATOM      8  C7  BZF d   1      -0.726   0.669   1.544  0.00  0.00     0.029 A 
ATOM      9  C7A BZF d   1      -0.185   0.239   0.357  0.00  0.00     0.058 A 
ENDROOT
TORSDOF 0
ENDMDL
