MODEL 1
REMARK minimizedAffinity -3.76644039
REMARK minimizedRMSD -1
REMARK  0 active torsions:
REMARK  status: ('A' for Active; 'I' for Inactive)
ROOT
ATOM      1  O1  BZF d   1      -2.524   0.722   0.352  0.00  0.00    -0.204 OA
ATOM      2  C2  BZF d   1      -3.283   0.872   1.497  0.00  0.00     0.174 A 
ATOM      3  C3  BZF d   1      -2.512   0.771   2.599  0.00  0.00    -0.012 A 
ATOM      4  C3A BZF d   1      -1.174   0.636   2.111  0.00  0.00    -0.107 A 
ATOM      5  C4  BZF d   1       0.040   0.511   2.723  0.00  0.00     0.055 A 
ATOM      6  C5  BZF d   1       1.149   0.325   1.959  0.00  0.00    -0.016 A 
ATOM      7  C6  BZF d   1       1.079   0.254   0.583  0.00  0.00     0.022 A 
ATOM      8  C7  BZF d   1      -0.102   0.378  -0.069  0.00  0.00     0.029 A 
ATOM      9  C7A BZF d   1      -1.220   0.599   0.698  0.00  0.00     0.058 A 
ENDROOT
TORSDOF 0
ENDMDL
