MODEL 1
REMARK minimizedAffinity 0.250952542
REMARK minimizedRMSD -1
REMARK  0 active torsions:
REMARK  status: ('A' for Active; 'I' for Inactive)
ROOT
ATOM      1  O1  BZF d   1      -0.844   0.413  -0.470  0.00  0.00    -0.204 OA
ATOM      2  C2  BZF d   1       0.498   0.170  -0.686  0.00  0.00     0.174 A 
ATOM      3  C3  BZF d   1       1.172   0.131   0.482  0.00  0.00    -0.012 A 
ATOM      4  C3A BZF d   1       0.173   0.271   1.496  0.00  0.00    -0.107 A 
ATOM      5  C4  BZF d   1       0.217   0.292   2.861  0.00  0.00     0.055 A 
ATOM      6  C5  BZF d   1      -0.928   0.519   3.556  0.00  0.00    -0.016 A 
ATOM      7  C6  BZF d   1      -2.133   0.734   2.920  0.00  0.00     0.022 A 
ATOM      8  C7  BZF d   1      -2.228   0.717   1.568  0.00  0.00     0.029 A 
ATOM      9  C7A BZF d   1      -1.078   0.456   0.863  0.00  0.00     0.058 A 
ENDROOT
TORSDOF 0
ENDMDL
