MODEL 1
REMARK minimizedAffinity -0.330759943
REMARK minimizedRMSD -1
REMARK  0 active torsions:
REMARK  status: ('A' for Active; 'I' for Inactive)
ROOT
ATOM      1  O1  BZF d   1       0.388  -0.020   3.077  0.00  0.00    -0.204 OA
ATOM      2  C2  BZF d   1      -0.887   0.440   3.348  0.00  0.00     0.174 A 
ATOM      3  C3  BZF d   1      -1.558   0.690   2.206  0.00  0.00    -0.012 A 
ATOM      4  C3A BZF d   1      -0.679   0.279   1.155  0.00  0.00    -0.107 A 
ATOM      5  C4  BZF d   1      -0.785   0.264  -0.207  0.00  0.00     0.055 A 
ATOM      6  C5  BZF d   1       0.282  -0.131  -0.949  0.00  0.00    -0.016 A 
ATOM      7  C6  BZF d   1       1.472  -0.513  -0.363  0.00  0.00     0.022 A 
ATOM      8  C7  BZF d   1       1.624  -0.519   0.983  0.00  0.00     0.029 A 
ATOM      9  C7A BZF d   1       0.536  -0.152   1.737  0.00  0.00     0.058 A 
ENDROOT
TORSDOF 0
ENDMDL
