MODEL 1
REMARK minimizedAffinity -0.138228476
REMARK minimizedRMSD -1
REMARK  0 active torsions:
REMARK  status: ('A' for Active; 'I' for Inactive)
ROOT
ATOM      1  O1  BZF d   1      -0.660   0.962  -0.925  0.00  0.00    -0.204 OA
ATOM      2  C2  BZF d   1      -0.236   0.121  -1.935  0.00  0.00     0.174 A 
ATOM      3  C3  BZF d   1       0.700  -0.737  -1.481  0.00  0.00    -0.012 A 
ATOM      4  C3A BZF d   1       0.805  -0.473  -0.079  0.00  0.00    -0.107 A 
ATOM      5  C4  BZF d   1       1.556  -1.014   0.925  0.00  0.00     0.055 A 
ATOM      6  C5  BZF d   1       1.475  -0.480   2.172  0.00  0.00    -0.016 A 
ATOM      7  C6  BZF d   1       0.658   0.596   2.449  0.00  0.00     0.022 A 
ATOM      8  C7  BZF d   1      -0.111   1.163   1.487  0.00  0.00     0.029 A 
ATOM      9  C7A BZF d   1      -0.055   0.605   0.234  0.00  0.00     0.058 A 
ENDROOT
TORSDOF 0
ENDMDL
