MODEL 1
REMARK minimizedAffinity -4.33241749
REMARK minimizedRMSD -1
REMARK  0 active torsions:
REMARK  status: ('A' for Active; 'I' for Inactive)
ROOT
ATOM      1  O1  BZF d   1      -2.864   0.660   0.641  0.00  0.00    -0.204 OA
ATOM      2  C2  BZF d   1      -3.460   0.841   1.874  0.00  0.00     0.174 A 
ATOM      3  C3  BZF d   1      -2.569   0.654   2.869  0.00  0.00    -0.012 A 
ATOM      4  C3A BZF d   1      -1.317   0.426   2.214  0.00  0.00    -0.107 A 
ATOM      5  C4  BZF d   1      -0.050   0.192   2.666  0.00  0.00     0.055 A 
ATOM      6  C5  BZF d   1       0.936  -0.062   1.767  0.00  0.00    -0.016 A 
ATOM      7  C6  BZF d   1       0.690  -0.094   0.410  0.00  0.00     0.022 A 
ATOM      8  C7  BZF d   1      -0.549   0.138  -0.087  0.00  0.00     0.029 A 
ATOM      9  C7A BZF d   1      -1.541   0.427   0.818  0.00  0.00     0.058 A 
ENDROOT
TORSDOF 0
ENDMDL
