MODEL 1
REMARK minimizedAffinity -2.27442598
REMARK minimizedRMSD -1
REMARK  0 active torsions:
REMARK  status: ('A' for Active; 'I' for Inactive)
ROOT
ATOM      1  O1  BZF d   1      -0.229  -1.225  -0.777  0.00  0.00    -0.204 OA
ATOM      2  C2  BZF d   1      -0.079   0.041  -0.244  0.00  0.00     0.174 A 
ATOM      3  C3  BZF d   1       0.615   0.834  -1.085  0.00  0.00    -0.012 A 
ATOM      4  C3A BZF d   1       0.838   0.040  -2.254  0.00  0.00    -0.107 A 
ATOM      5  C4  BZF d   1       1.459   0.279  -3.447  0.00  0.00     0.055 A 
ATOM      6  C5  BZF d   1       1.569  -0.732  -4.348  0.00  0.00    -0.016 A 
ATOM      7  C6  BZF d   1       1.074  -1.994  -4.088  0.00  0.00     0.022 A 
ATOM      8  C7  BZF d   1       0.446  -2.277  -2.921  0.00  0.00     0.029 A 
ATOM      9  C7A BZF d   1       0.305  -1.249  -2.022  0.00  0.00     0.058 A 
ENDROOT
TORSDOF 0
ENDMDL
