MODEL 1
REMARK minimizedAffinity -2.01661611
REMARK minimizedRMSD -1
REMARK  0 active torsions:
REMARK  status: ('A' for Active; 'I' for Inactive)
ROOT
ATOM      1  O1  BZF d   1      -2.322   0.530   0.142  0.00  0.00    -0.204 OA
ATOM      2  C2  BZF d   1      -3.178   0.801   1.193  0.00  0.00     0.174 A 
ATOM      3  C3  BZF d   1      -2.525   0.733   2.371  0.00  0.00    -0.012 A 
ATOM      4  C3A BZF d   1      -1.157   0.490   2.030  0.00  0.00    -0.107 A 
ATOM      5  C4  BZF d   1      -0.018   0.339   2.768  0.00  0.00     0.055 A 
ATOM      6  C5  BZF d   1       1.145   0.040   2.134  0.00  0.00    -0.016 A 
ATOM      7  C6  BZF d   1       1.205  -0.121   0.765  0.00  0.00     0.022 A 
ATOM      8  C7  BZF d   1       0.103   0.024  -0.010  0.00  0.00     0.029 A 
ATOM      9  C7A BZF d   1      -1.068   0.359   0.625  0.00  0.00     0.058 A 
ENDROOT
TORSDOF 0
ENDMDL
