MODEL 1
REMARK minimizedAffinity -1.66637969
REMARK minimizedRMSD -1
REMARK  0 active torsions:
REMARK  status: ('A' for Active; 'I' for Inactive)
ROOT
ATOM      1  O1  BZF d   1      -2.297  -1.765   0.798  0.00  0.00    -0.204 OA
ATOM      2  C2  BZF d   1      -1.579  -2.896   1.135  0.00  0.00     0.174 A 
ATOM      3  C3  BZF d   1      -0.262  -2.711   0.909  0.00  0.00    -0.012 A 
ATOM      4  C3A BZF d   1      -0.140  -1.350   0.487  0.00  0.00    -0.107 A 
ATOM      5  C4  BZF d   1       0.922  -0.569   0.131  0.00  0.00     0.055 A 
ATOM      6  C5  BZF d   1       0.695   0.699  -0.302  0.00  0.00    -0.016 A 
ATOM      7  C6  BZF d   1      -0.581   1.215  -0.397  0.00  0.00     0.022 A 
ATOM      8  C7  BZF d   1      -1.666   0.481  -0.051  0.00  0.00     0.029 A 
ATOM      9  C7A BZF d   1      -1.437  -0.790   0.418  0.00  0.00     0.058 A 
ENDROOT
TORSDOF 0
ENDMDL
