MODEL 1
REMARK minimizedAffinity -3.29742956
REMARK minimizedRMSD -1
REMARK  0 active torsions:
REMARK  status: ('A' for Active; 'I' for Inactive)
ROOT
ATOM      1  O1  BZF d   1       2.010   1.804   0.036  0.00  0.00    -0.204 OA
ATOM      2  C2  BZF d   1       0.686   1.501   0.285  0.00  0.00     0.174 A 
ATOM      3  C3  BZF d   1      -0.064   1.686  -0.820  0.00  0.00    -0.012 A 
ATOM      4  C3A BZF d   1       0.864   2.044  -1.849  0.00  0.00    -0.107 A 
ATOM      5  C4  BZF d   1       0.729   2.338  -3.175  0.00  0.00     0.055 A 
ATOM      6  C5  BZF d   1       1.824   2.719  -3.883  0.00  0.00    -0.016 A 
ATOM      7  C6  BZF d   1       3.068   2.822  -3.296  0.00  0.00     0.022 A 
ATOM      8  C7  BZF d   1       3.254   2.536  -1.984  0.00  0.00     0.029 A 
ATOM      9  C7A BZF d   1       2.154   2.118  -1.274  0.00  0.00     0.058 A 
ENDROOT
TORSDOF 0
ENDMDL
