MODEL 1
REMARK minimizedAffinity 1.94276381
REMARK minimizedRMSD -1
REMARK  0 active torsions:
REMARK  status: ('A' for Active; 'I' for Inactive)
ROOT
ATOM      1  O1  BZF d   1      -1.255   2.258  -0.190  0.00  0.00    -0.204 OA
ATOM      2  C2  BZF d   1      -0.890   1.018   0.298  0.00  0.00     0.174 A 
ATOM      3  C3  BZF d   1      -0.103   0.369  -0.584  0.00  0.00    -0.012 A 
ATOM      4  C3A BZF d   1       0.108   1.296  -1.653  0.00  0.00    -0.107 A 
ATOM      5  C4  BZF d   1       0.818   1.239  -2.818  0.00  0.00     0.055 A 
ATOM      6  C5  BZF d   1       0.759   2.288  -3.680  0.00  0.00    -0.016 A 
ATOM      7  C6  BZF d   1      -0.003   3.406  -3.411  0.00  0.00     0.022 A 
ATOM      8  C7  BZF d   1      -0.721   3.510  -2.266  0.00  0.00     0.029 A 
ATOM      9  C7A BZF d   1      -0.637   2.466  -1.378  0.00  0.00     0.058 A 
ENDROOT
TORSDOF 0
ENDMDL
