MODEL 1
REMARK minimizedAffinity 5.75449657
REMARK minimizedRMSD -1
REMARK  0 active torsions:
REMARK  status: ('A' for Active; 'I' for Inactive)
ROOT
ATOM      1  O1  BZF d   1       0.214   1.280  -1.728  0.00  0.00    -0.204 OA
ATOM      2  C2  BZF d   1       0.382   0.385  -2.767  0.00  0.00     0.174 A 
ATOM      3  C3  BZF d   1      -0.233  -0.784  -2.494  0.00  0.00    -0.012 A 
ATOM      4  C3A BZF d   1      -0.899  -0.577  -1.245  0.00  0.00    -0.107 A 
ATOM      5  C4  BZF d   1      -1.691  -1.366  -0.461  0.00  0.00     0.055 A 
ATOM      6  C5  BZF d   1      -2.124  -0.887   0.735  0.00  0.00    -0.016 A 
ATOM      7  C6  BZF d   1      -1.779   0.372   1.180  0.00  0.00     0.022 A 
ATOM      8  C7  BZF d   1      -1.000   1.194   0.435  0.00  0.00     0.029 A 
ATOM      9  C7A BZF d   1      -0.589   0.725  -0.789  0.00  0.00     0.058 A 
ENDROOT
TORSDOF 0
ENDMDL
