MODEL 1
REMARK minimizedAffinity -2.58821678
REMARK minimizedRMSD -1
REMARK  0 active torsions:
REMARK  status: ('A' for Active; 'I' for Inactive)
ROOT
ATOM      1  O1  BZF d   1       1.615  -0.213   0.657  0.00  0.00    -0.204 OA
ATOM      2  C2  BZF d   1       1.402   0.846  -0.204  0.00  0.00     0.174 A 
ATOM      3  C3  BZF d   1       0.152   0.809  -0.709  0.00  0.00    -0.012 A 
ATOM      4  C3A BZF d   1      -0.485  -0.294  -0.055  0.00  0.00    -0.107 A 
ATOM      5  C4  BZF d   1      -1.740  -0.828  -0.123  0.00  0.00     0.055 A 
ATOM      6  C5  BZF d   1      -2.019  -1.950   0.591  0.00  0.00    -0.016 A 
ATOM      7  C6  BZF d   1      -1.068  -2.566   1.378  0.00  0.00     0.022 A 
ATOM      8  C7  BZF d   1       0.189  -2.070   1.481  0.00  0.00     0.029 A 
ATOM      9  C7A BZF d   1       0.465  -0.917   0.787  0.00  0.00     0.058 A 
ENDROOT
TORSDOF 0
ENDMDL
