MODEL 1
REMARK minimizedAffinity -0.549250722
REMARK minimizedRMSD -1
REMARK  0 active torsions:
REMARK  status: ('A' for Active; 'I' for Inactive)
ROOT
ATOM      1  O1  BZF d   1       0.926  -0.410   0.631  0.00  0.00    -0.204 OA
ATOM      2  C2  BZF d   1       0.249   0.670   0.099  0.00  0.00     0.174 A 
ATOM      3  C3  BZF d   1       0.925   1.816   0.322  0.00  0.00    -0.012 A 
ATOM      4  C3A BZF d   1       2.143   1.416   0.958  0.00  0.00    -0.107 A 
ATOM      5  C4  BZF d   1       3.233   2.101   1.412  0.00  0.00     0.055 A 
ATOM      6  C5  BZF d   1       4.221   1.421   2.051  0.00  0.00    -0.016 A 
ATOM      7  C6  BZF d   1       4.149   0.059   2.257  0.00  0.00     0.022 A 
ATOM      8  C7  BZF d   1       3.090  -0.664   1.820  0.00  0.00     0.029 A 
ATOM      9  C7A BZF d   1       2.105   0.015   1.145  0.00  0.00     0.058 A 
ENDROOT
TORSDOF 0
ENDMDL
