MODEL 1
REMARK minimizedAffinity 3.10571456
REMARK minimizedRMSD -1
REMARK  0 active torsions:
REMARK  status: ('A' for Active; 'I' for Inactive)
ROOT
ATOM      1  O1  BZF d   1       4.515   2.139   3.355  0.00  0.00    -0.204 OA
ATOM      2  C2  BZF d   1       4.433   0.840   2.893  0.00  0.00     0.174 A 
ATOM      3  C3  BZF d   1       4.020   0.814   1.609  0.00  0.00    -0.012 A 
ATOM      4  C3A BZF d   1       3.920   2.186   1.218  0.00  0.00    -0.107 A 
ATOM      5  C4  BZF d   1       3.573   2.808   0.053  0.00  0.00     0.055 A 
ATOM      6  C5  BZF d   1       3.505   4.165   0.023  0.00  0.00    -0.016 A 
ATOM      7  C6  BZF d   1       3.772   4.930   1.139  0.00  0.00     0.022 A 
ATOM      8  C7  BZF d   1       4.126   4.359   2.316  0.00  0.00     0.029 A 
ATOM      9  C7A BZF d   1       4.228   2.990   2.341  0.00  0.00     0.058 A 
ENDROOT
TORSDOF 0
ENDMDL
