MODEL 1
REMARK minimizedAffinity 0.463412076
REMARK minimizedRMSD -1
REMARK  0 active torsions:
REMARK  status: ('A' for Active; 'I' for Inactive)
ROOT
ATOM      1  O1  BZF d   1      -0.093  -0.592   0.199  0.00  0.00    -0.204 OA
ATOM      2  C2  BZF d   1      -0.853   0.524  -0.090  0.00  0.00     0.174 A 
ATOM      3  C3  BZF d   1      -0.127   1.650   0.064  0.00  0.00    -0.012 A 
ATOM      4  C3A BZF d   1       1.194   1.205   0.386  0.00  0.00    -0.107 A 
ATOM      5  C4  BZF d   1       2.368   1.855   0.640  0.00  0.00     0.055 A 
ATOM      6  C5  BZF d   1       3.461   1.129   0.994  0.00  0.00    -0.016 A 
ATOM      7  C6  BZF d   1       3.415  -0.245   1.109  0.00  0.00     0.022 A 
ATOM      8  C7  BZF d   1       2.274  -0.934   0.862  0.00  0.00     0.029 A 
ATOM      9  C7A BZF d   1       1.176  -0.206   0.472  0.00  0.00     0.058 A 
ENDROOT
TORSDOF 0
ENDMDL
