MODEL 1
REMARK minimizedAffinity 0.290786147
REMARK minimizedRMSD -1
REMARK  0 active torsions:
REMARK  status: ('A' for Active; 'I' for Inactive)
ROOT
ATOM      1  O1  BZF d   1       0.822  -0.688  -0.111  0.00  0.00    -0.204 OA
ATOM      2  C2  BZF d   1      -0.171   0.228  -0.401  0.00  0.00     0.174 A 
ATOM      3  C3  BZF d   1       0.155   1.450   0.067  0.00  0.00    -0.012 A 
ATOM      4  C3A BZF d   1       1.472   1.309   0.606  0.00  0.00    -0.107 A 
ATOM      5  C4  BZF d   1       2.341   2.177   1.202  0.00  0.00     0.055 A 
ATOM      6  C5  BZF d   1       3.521   1.705   1.683  0.00  0.00    -0.016 A 
ATOM      7  C6  BZF d   1       3.861   0.371   1.591  0.00  0.00     0.022 A 
ATOM      8  C7  BZF d   1       3.034  -0.527   1.004  0.00  0.00     0.029 A 
ATOM      9  C7A BZF d   1       1.855  -0.047   0.487  0.00  0.00     0.058 A 
ENDROOT
TORSDOF 0
ENDMDL
