MODEL 1
REMARK minimizedAffinity -2.95271325
REMARK minimizedRMSD -1
REMARK  0 active torsions:
REMARK  status: ('A' for Active; 'I' for Inactive)
ROOT
ATOM      1  O1  BZF d   1      -2.689  -0.715   1.019  0.00  0.00    -0.204 OA
ATOM      2  C2  BZF d   1      -2.399  -2.064   0.949  0.00  0.00     0.174 A 
ATOM      3  C3  BZF d   1      -1.147  -2.262   0.488  0.00  0.00    -0.012 A 
ATOM      4  C3A BZF d   1      -0.589  -0.953   0.342  0.00  0.00    -0.107 A 
ATOM      5  C4  BZF d   1       0.631  -0.492  -0.063  0.00  0.00     0.055 A 
ATOM      6  C5  BZF d   1       0.832   0.848  -0.162  0.00  0.00    -0.016 A 
ATOM      7  C6  BZF d   1      -0.166   1.755   0.130  0.00  0.00     0.022 A 
ATOM      8  C7  BZF d   1      -1.391   1.346   0.541  0.00  0.00     0.029 A 
ATOM      9  C7A BZF d   1      -1.586  -0.007   0.674  0.00  0.00     0.058 A 
ENDROOT
TORSDOF 0
ENDMDL
