MODEL 1
REMARK minimizedAffinity -3.81209207
REMARK minimizedRMSD -1
REMARK  0 active torsions:
REMARK  status: ('A' for Active; 'I' for Inactive)
ROOT
ATOM      1  O1  BZF d   1      -1.512   0.429  -0.336  0.00  0.00    -0.204 OA
ATOM      2  C2  BZF d   1      -0.423   1.277  -0.280  0.00  0.00     0.174 A 
ATOM      3  C3  BZF d   1       0.591   0.710   0.406  0.00  0.00    -0.012 A 
ATOM      4  C3A BZF d   1       0.138  -0.609   0.724  0.00  0.00    -0.107 A 
ATOM      5  C4  BZF d   1       0.704  -1.662   1.383  0.00  0.00     0.055 A 
ATOM      6  C5  BZF d   1      -0.033  -2.786   1.589  0.00  0.00    -0.016 A 
ATOM      7  C6  BZF d   1      -1.338  -2.888   1.153  0.00  0.00     0.022 A 
ATOM      8  C7  BZF d   1      -1.941  -1.871   0.490  0.00  0.00     0.029 A 
ATOM      9  C7A BZF d   1      -1.188  -0.747   0.253  0.00  0.00     0.058 A 
ENDROOT
TORSDOF 0
ENDMDL
