MODEL 1
REMARK minimizedAffinity -5.21845198
REMARK minimizedRMSD -1
REMARK  0 active torsions:
REMARK  status: ('A' for Active; 'I' for Inactive)
ROOT
ATOM      1  O1  BZF d   1       1.409   0.981   1.002  0.00  0.00    -0.204 OA
ATOM      2  C2  BZF d   1       2.380  -0.001   1.054  0.00  0.00     0.174 A 
ATOM      3  C3  BZF d   1       1.824  -1.228   0.975  0.00  0.00    -0.012 A 
ATOM      4  C3A BZF d   1       0.427  -0.996   0.775  0.00  0.00    -0.107 A 
ATOM      5  C4  BZF d   1      -0.647  -1.822   0.606  0.00  0.00     0.055 A 
ATOM      6  C5  BZF d   1      -1.889  -1.279   0.508  0.00  0.00    -0.016 A 
ATOM      7  C6  BZF d   1      -2.094   0.083   0.579  0.00  0.00     0.022 A 
ATOM      8  C7  BZF d   1      -1.059   0.943   0.740  0.00  0.00     0.029 A 
ATOM      9  C7A BZF d   1       0.201   0.400   0.807  0.00  0.00     0.058 A 
ENDROOT
TORSDOF 0
ENDMDL
