MODEL 1
REMARK minimizedAffinity -3.86632967
REMARK minimizedRMSD -1
REMARK  0 active torsions:
REMARK  status: ('A' for Active; 'I' for Inactive)
ROOT
ATOM      1  O1  BZF d   1       1.157  -0.224   0.758  0.00  0.00    -0.204 OA
ATOM      2  C2  BZF d   1       0.948   0.777  -0.171  0.00  0.00     0.174 A 
ATOM      3  C3  BZF d   1      -0.280   0.672  -0.718  0.00  0.00    -0.012 A 
ATOM      4  C3A BZF d   1      -0.910  -0.411  -0.026  0.00  0.00    -0.107 A 
ATOM      5  C4  BZF d   1      -2.145  -0.987  -0.109  0.00  0.00     0.055 A 
ATOM      6  C5  BZF d   1      -2.420  -2.074   0.658  0.00  0.00    -0.016 A 
ATOM      7  C6  BZF d   1      -1.483  -2.614   1.515  0.00  0.00     0.022 A 
ATOM      8  C7  BZF d   1      -0.246  -2.074   1.636  0.00  0.00     0.029 A 
ATOM      9  C7A BZF d   1       0.024  -0.955   0.886  0.00  0.00     0.058 A 
ENDROOT
TORSDOF 0
ENDMDL
