MODEL 1
REMARK minimizedAffinity -5.05777836
REMARK minimizedRMSD -1
REMARK  0 active torsions:
REMARK  status: ('A' for Active; 'I' for Inactive)
ROOT
ATOM      1  O1  BZF d   1       0.959   0.775   0.692  0.00  0.00    -0.204 OA
ATOM      2  C2  BZF d   1       2.223   0.380   1.086  0.00  0.00     0.174 A 
ATOM      3  C3  BZF d   1       2.234  -0.927   1.419  0.00  0.00    -0.012 A 
ATOM      4  C3A BZF d   1       0.914  -1.399   1.132  0.00  0.00    -0.107 A 
ATOM      5  C4  BZF d   1       0.309  -2.619   1.239  0.00  0.00     0.055 A 
ATOM      6  C5  BZF d   1      -1.013  -2.728   0.946  0.00  0.00    -0.016 A 
ATOM      7  C6  BZF d   1      -1.762  -1.639   0.549  0.00  0.00     0.022 A 
ATOM      8  C7  BZF d   1      -1.205  -0.410   0.424  0.00  0.00     0.029 A 
ATOM      9  C7A BZF d   1       0.139  -0.303   0.688  0.00  0.00     0.058 A 
ENDROOT
TORSDOF 0
ENDMDL
