MODEL 1
REMARK minimizedAffinity -1.30540097
REMARK minimizedRMSD -1
REMARK  0 active torsions:
REMARK  status: ('A' for Active; 'I' for Inactive)
ROOT
ATOM      1  O1  BZF d   1       2.600   0.706  -3.021  0.00  0.00    -0.204 OA
ATOM      2  C2  BZF d   1       2.456   2.012  -3.448  0.00  0.00     0.174 A 
ATOM      3  C3  BZF d   1       1.356   2.573  -2.908  0.00  0.00    -0.012 A 
ATOM      4  C3A BZF d   1       0.826   1.584  -2.019  0.00  0.00    -0.107 A 
ATOM      5  C4  BZF d   1      -0.251   1.556  -1.181  0.00  0.00     0.055 A 
ATOM      6  C5  BZF d   1      -0.533   0.410  -0.506  0.00  0.00    -0.016 A 
ATOM      7  C6  BZF d   1       0.238  -0.725  -0.649  0.00  0.00     0.022 A 
ATOM      8  C7  BZF d   1       1.320  -0.743  -1.465  0.00  0.00     0.029 A 
ATOM      9  C7A BZF d   1       1.626   0.423  -2.123  0.00  0.00     0.058 A 
ENDROOT
TORSDOF 0
ENDMDL
