MODEL 1
REMARK minimizedAffinity -4.79148197
REMARK minimizedRMSD -1
REMARK  0 active torsions:
REMARK  status: ('A' for Active; 'I' for Inactive)
ROOT
ATOM      1  O1  BZF d   1       0.378   0.777   0.469  0.00  0.00    -0.204 OA
ATOM      2  C2  BZF d   1      -0.809   1.480   0.536  0.00  0.00     0.174 A 
ATOM      3  C3  BZF d   1      -1.863   0.638   0.555  0.00  0.00    -0.012 A 
ATOM      4  C3A BZF d   1      -1.295  -0.675   0.589  0.00  0.00    -0.107 A 
ATOM      5  C4  BZF d   1      -1.832  -1.929   0.635  0.00  0.00     0.055 A 
ATOM      6  C5  BZF d   1      -1.003  -3.005   0.584  0.00  0.00    -0.016 A 
ATOM      7  C6  BZF d   1       0.365  -2.863   0.483  0.00  0.00     0.022 A 
ATOM      8  C7  BZF d   1       0.945  -1.639   0.440  0.00  0.00     0.029 A 
ATOM      9  C7A BZF d   1       0.112  -0.550   0.524  0.00  0.00     0.058 A 
ENDROOT
TORSDOF 0
ENDMDL
