MODEL 1
REMARK minimizedAffinity 7.31455135
REMARK minimizedRMSD -1
REMARK  0 active torsions:
REMARK  status: ('A' for Active; 'I' for Inactive)
ROOT
ATOM      1  C   UNL d   1       0.889  -5.032  -4.960  0.00  0.00     0.023 A 
ATOM      2  C1  UNL d   1       1.579  -5.994  -5.698  0.00  0.00     0.003 A 
ATOM      3  C2  UNL d   1       2.931  -5.809  -5.996  0.00  0.00     0.048 A 
ATOM      4  C3  UNL d   1       3.586  -4.660  -5.554  0.00  0.00     0.023 A 
ATOM      5  C4  UNL d   1       2.899  -3.696  -4.815  0.00  0.00     0.048 A 
ATOM      6  C5  UNL d   1       1.548  -3.884  -4.519  0.00  0.00     0.003 A 
ATOM      7  I   UNL d   1       5.597  -4.383  -5.997  0.00  0.00    -0.146 I 
ENDROOT
TORSDOF 0
ENDMDL
