MODEL 1
REMARK minimizedAffinity 19.4912968
REMARK minimizedRMSD -1
REMARK  0 active torsions:
REMARK  status: ('A' for Active; 'I' for Inactive)
ROOT
ATOM      1  C   UNL d   1       5.126  -0.609  -2.895  0.00  0.00     0.023 A 
ATOM      2  C1  UNL d   1       4.865  -1.614  -1.964  0.00  0.00     0.003 A 
ATOM      3  C2  UNL d   1       4.357  -1.287  -0.705  0.00  0.00     0.048 A 
ATOM      4  C3  UNL d   1       4.112   0.048  -0.384  0.00  0.00     0.023 A 
ATOM      5  C4  UNL d   1       4.371   1.057  -1.313  0.00  0.00     0.048 A 
ATOM      6  C5  UNL d   1       4.880   0.725  -2.570  0.00  0.00     0.003 A 
ATOM      7  I   UNL d   1       3.356   0.537   1.489  0.00  0.00    -0.146 I 
ENDROOT
TORSDOF 0
ENDMDL
