MODEL 1
REMARK minimizedAffinity 7.41068983
REMARK minimizedRMSD -1
REMARK  0 active torsions:
REMARK  status: ('A' for Active; 'I' for Inactive)
ROOT
ATOM      1  C   UNL d   1       2.475  -1.516   1.509  0.00  0.00     0.023 A 
ATOM      2  C1  UNL d   1       3.358  -0.478   1.214  0.00  0.00     0.003 A 
ATOM      3  C2  UNL d   1       2.900   0.663   0.551  0.00  0.00     0.048 A 
ATOM      4  C3  UNL d   1       1.557   0.758   0.187  0.00  0.00     0.023 A 
ATOM      5  C4  UNL d   1       0.670  -0.278   0.481  0.00  0.00     0.048 A 
ATOM      6  C5  UNL d   1       1.133  -1.417   1.143  0.00  0.00     0.003 A 
ATOM      7  I   UNL d   1       0.872   2.454  -0.800  0.00  0.00    -0.146 I 
ENDROOT
TORSDOF 0
ENDMDL
