MODEL 1
REMARK minimizedAffinity 11.4768095
REMARK minimizedRMSD -1
REMARK  0 active torsions:
REMARK  status: ('A' for Active; 'I' for Inactive)
ROOT
ATOM      1  C   UNL d   1      -2.584   4.056  -2.150  0.00  0.00     0.023 A 
ATOM      2  C1  UNL d   1      -2.404   5.437  -2.228  0.00  0.00     0.003 A 
ATOM      3  C2  UNL d   1      -1.757   5.996  -3.332  0.00  0.00     0.048 A 
ATOM      4  C3  UNL d   1      -1.295   5.169  -4.355  0.00  0.00     0.023 A 
ATOM      5  C4  UNL d   1      -1.474   3.787  -4.282  0.00  0.00     0.048 A 
ATOM      6  C5  UNL d   1      -2.120   3.232  -3.176  0.00  0.00     0.003 A 
ATOM      7  I   UNL d   1      -0.332   6.000  -5.999  0.00  0.00    -0.146 I 
ENDROOT
TORSDOF 0
ENDMDL
