MODEL 1
REMARK minimizedAffinity 4.58064699
REMARK minimizedRMSD -1
REMARK  0 active torsions:
REMARK  status: ('A' for Active; 'I' for Inactive)
ROOT
ATOM      1  C   UNL d   1       0.391  -5.354  -4.760  0.00  0.00     0.023 A 
ATOM      2  C1  UNL d   1       1.258  -5.998  -5.642  0.00  0.00     0.003 A 
ATOM      3  C2  UNL d   1       2.467  -5.397  -5.999  0.00  0.00     0.048 A 
ATOM      4  C3  UNL d   1       2.803  -4.152  -5.470  0.00  0.00     0.023 A 
ATOM      5  C4  UNL d   1       1.939  -3.503  -4.586  0.00  0.00     0.048 A 
ATOM      6  C5  UNL d   1       0.731  -4.108  -4.232  0.00  0.00     0.003 A 
ATOM      7  I   UNL d   1       4.601  -3.255  -6.000  0.00  0.00    -0.146 I 
ENDROOT
TORSDOF 0
ENDMDL
