MODEL 1
REMARK minimizedAffinity 18.923275
REMARK minimizedRMSD -1
REMARK  0 active torsions:
REMARK  status: ('A' for Active; 'I' for Inactive)
ROOT
ATOM      1  C   UNL d   1       2.370  -1.053   1.627  0.00  0.00     0.023 A 
ATOM      2  C1  UNL d   1       3.313  -0.057   1.372  0.00  0.00     0.003 A 
ATOM      3  C2  UNL d   1       2.940   1.100   0.685  0.00  0.00     0.048 A 
ATOM      4  C3  UNL d   1       1.622   1.255   0.257  0.00  0.00     0.023 A 
ATOM      5  C4  UNL d   1       0.675   0.262   0.511  0.00  0.00     0.048 A 
ATOM      6  C5  UNL d   1       1.053  -0.894   1.197  0.00  0.00     0.003 A 
ATOM      7  I   UNL d   1       1.065   2.976  -0.765  0.00  0.00    -0.146 I 
ENDROOT
TORSDOF 0
ENDMDL
