MODEL 1
REMARK minimizedAffinity 13.4470062
REMARK minimizedRMSD -1
REMARK  0 active torsions:
REMARK  status: ('A' for Active; 'I' for Inactive)
ROOT
ATOM      1  C   UNL d   1       2.223  -5.465  -6.000  0.00  0.00     0.023 A 
ATOM      2  C1  UNL d   1       1.041  -5.999  -5.487  0.00  0.00     0.003 A 
ATOM      3  C2  UNL d   1       0.393  -5.369  -4.422  0.00  0.00     0.048 A 
ATOM      4  C3  UNL d   1       0.932  -4.205  -3.876  0.00  0.00     0.023 A 
ATOM      5  C4  UNL d   1       2.114  -3.667  -4.386  0.00  0.00     0.048 A 
ATOM      6  C5  UNL d   1       2.759  -4.301  -5.450  0.00  0.00     0.003 A 
ATOM      7  I   UNL d   1      -0.031  -3.266  -2.292  0.00  0.00    -0.146 I 
ENDROOT
TORSDOF 0
ENDMDL
