MODEL 1
REMARK minimizedAffinity 16.7854843
REMARK minimizedRMSD -1
REMARK  0 active torsions:
REMARK  status: ('A' for Active; 'I' for Inactive)
ROOT
ATOM      1  C   UNL d   1       2.948  -5.707   0.538  0.00  0.00     0.023 A 
ATOM      2  C1  UNL d   1       2.124  -5.954   1.636  0.00  0.00     0.003 A 
ATOM      3  C2  UNL d   1       0.931  -5.246   1.789  0.00  0.00     0.048 A 
ATOM      4  C3  UNL d   1       0.566  -4.292   0.839  0.00  0.00     0.023 A 
ATOM      5  C4  UNL d   1       1.386  -4.042  -0.262  0.00  0.00     0.048 A 
ATOM      6  C5  UNL d   1       2.579  -4.753  -0.411  0.00  0.00     0.003 A 
ATOM      7  I   UNL d   1      -1.210  -3.237   1.064  0.00  0.00    -0.146 I 
ENDROOT
TORSDOF 0
ENDMDL
