MODEL 1
REMARK minimizedAffinity 9.72758865
REMARK minimizedRMSD -1
REMARK  0 active torsions:
REMARK  status: ('A' for Active; 'I' for Inactive)
ROOT
ATOM      1  C   UNL d   1      -3.133  -2.620   2.094  0.00  0.00     0.023 A 
ATOM      2  C1  UNL d   1      -2.579  -2.586   3.373  0.00  0.00     0.003 A 
ATOM      3  C2  UNL d   1      -3.399  -2.731   4.494  0.00  0.00     0.048 A 
ATOM      4  C3  UNL d   1      -4.772  -2.912   4.328  0.00  0.00     0.023 A 
ATOM      5  C4  UNL d   1      -5.330  -2.948   3.049  0.00  0.00     0.048 A 
ATOM      6  C5  UNL d   1      -4.506  -2.801   1.932  0.00  0.00     0.003 A 
ATOM      7  I   UNL d   1      -5.994  -3.129   5.995  0.00  0.00    -0.146 I 
ENDROOT
TORSDOF 0
ENDMDL
