MODEL 1
REMARK minimizedAffinity 16.0566216
REMARK minimizedRMSD -1
REMARK  0 active torsions:
REMARK  status: ('A' for Active; 'I' for Inactive)
ROOT
ATOM      1  C   UNL d   1      -0.023  -5.305   1.491  0.00  0.00     0.023 A 
ATOM      2  C1  UNL d   1      -0.816  -4.173   1.300  0.00  0.00     0.003 A 
ATOM      3  C2  UNL d   1      -0.234  -2.903   1.300  0.00  0.00     0.048 A 
ATOM      4  C3  UNL d   1       1.141  -2.773   1.490  0.00  0.00     0.023 A 
ATOM      5  C4  UNL d   1       1.939  -3.902   1.681  0.00  0.00     0.048 A 
ATOM      6  C5  UNL d   1       1.353  -5.169   1.681  0.00  0.00     0.003 A 
ATOM      7  I   UNL d   1       2.009  -0.884   1.490  0.00  0.00    -0.146 I 
ENDROOT
TORSDOF 0
ENDMDL
