MODEL 1
REMARK minimizedAffinity 18.1584091
REMARK minimizedRMSD -1
REMARK  0 active torsions:
REMARK  status: ('A' for Active; 'I' for Inactive)
ROOT
ATOM      1  C   UNL d   1      -0.432  -2.368   2.197  0.00  0.00     0.023 A 
ATOM      2  C1  UNL d   1       0.691  -2.920   1.579  0.00  0.00     0.003 A 
ATOM      3  C2  UNL d   1       1.866  -2.174   1.468  0.00  0.00     0.048 A 
ATOM      4  C3  UNL d   1       1.912  -0.877   1.977  0.00  0.00     0.023 A 
ATOM      5  C4  UNL d   1       0.791  -0.321   2.597  0.00  0.00     0.048 A 
ATOM      6  C5  UNL d   1      -0.382  -1.070   2.705  0.00  0.00     0.003 A 
ATOM      7  I   UNL d   1       3.659   0.236   1.813  0.00  0.00    -0.146 I 
ENDROOT
TORSDOF 0
ENDMDL
