MODEL 1
REMARK minimizedAffinity 11.6300917
REMARK minimizedRMSD -1
REMARK  0 active torsions:
REMARK  status: ('A' for Active; 'I' for Inactive)
ROOT
ATOM      1  C   UNL d   1       1.721   2.225  -1.029  0.00  0.00     0.023 A 
ATOM      2  C1  UNL d   1       0.688   2.283  -0.094  0.00  0.00     0.003 A 
ATOM      3  C2  UNL d   1      -0.633   2.437  -0.520  0.00  0.00     0.048 A 
ATOM      4  C3  UNL d   1      -0.913   2.532  -1.883  0.00  0.00     0.023 A 
ATOM      5  C4  UNL d   1       0.117   2.474  -2.822  0.00  0.00     0.048 A 
ATOM      6  C5  UNL d   1       1.437   2.321  -2.392  0.00  0.00     0.003 A 
ATOM      7  I   UNL d   1      -2.879   2.761  -2.520  0.00  0.00    -0.146 I 
ENDROOT
TORSDOF 0
ENDMDL
