MODEL 1
REMARK minimizedAffinity 6.12902594
REMARK minimizedRMSD -1
REMARK  0 active torsions:
REMARK  status: ('A' for Active; 'I' for Inactive)
ROOT
ATOM      1  C   UNL d   1      -0.167  -0.600   5.515  0.00  0.00     0.023 A 
ATOM      2  C1  UNL d   1      -0.989  -0.642   4.388  0.00  0.00     0.003 A 
ATOM      3  C2  UNL d   1      -0.426  -0.762   3.116  0.00  0.00     0.048 A 
ATOM      4  C3  UNL d   1       0.959  -0.841   2.977  0.00  0.00     0.023 A 
ATOM      5  C4  UNL d   1       1.785  -0.800   4.102  0.00  0.00     0.048 A 
ATOM      6  C5  UNL d   1       1.218  -0.679   5.372  0.00  0.00     0.003 A 
ATOM      7  I   UNL d   1       1.799  -1.020   1.085  0.00  0.00    -0.146 I 
ENDROOT
TORSDOF 0
ENDMDL
