MODEL 1
REMARK minimizedAffinity 18.9601078
REMARK minimizedRMSD -1
REMARK  0 active torsions:
REMARK  status: ('A' for Active; 'I' for Inactive)
ROOT
ATOM      1  C   UNL d   1      -2.252   4.865  -5.638  0.00  0.00     0.023 A 
ATOM      2  C1  UNL d   1      -2.630   3.626  -5.119  0.00  0.00     0.003 A 
ATOM      3  C2  UNL d   1      -3.039   3.520  -3.789  0.00  0.00     0.048 A 
ATOM      4  C3  UNL d   1      -3.069   4.656  -2.982  0.00  0.00     0.023 A 
ATOM      5  C4  UNL d   1      -2.694   5.898  -3.496  0.00  0.00     0.048 A 
ATOM      6  C5  UNL d   1      -2.284   6.000  -4.827  0.00  0.00     0.003 A 
ATOM      7  I   UNL d   1      -3.678   4.500  -1.001  0.00  0.00    -0.146 I 
ENDROOT
TORSDOF 0
ENDMDL
