MODEL 1
REMARK minimizedAffinity -0.789969623
REMARK minimizedRMSD -1
REMARK  0 active torsions:
REMARK  status: ('A' for Active; 'I' for Inactive)
ROOT
ATOM      1  C   UNL d   1      -4.948  -4.238   5.997  0.00  0.00     0.023 A 
ATOM      2  C1  UNL d   1      -5.603  -5.458   5.832  0.00  0.00     0.003 A 
ATOM      3  C2  UNL d   1      -5.827  -5.965   4.550  0.00  0.00     0.048 A 
ATOM      4  C3  UNL d   1      -5.392  -5.247   3.437  0.00  0.00     0.023 A 
ATOM      5  C4  UNL d   1      -4.734  -4.026   3.597  0.00  0.00     0.048 A 
ATOM      6  C5  UNL d   1      -4.514  -3.523   4.880  0.00  0.00     0.003 A 
ATOM      7  I   UNL d   1      -5.723  -5.999   1.528  0.00  0.00    -0.146 I 
ENDROOT
TORSDOF 0
ENDMDL
