MODEL 1
REMARK minimizedAffinity 16.0672417
REMARK minimizedRMSD -1
REMARK  1 active torsions:
REMARK  status: ('A' for Active; 'I' for Inactive)
REMARK    1  A    between atoms: C1_2  and  C2_3 
ROOT
ATOM      1  C2  UNL d   1      -1.080  -4.568  -0.635  0.00  0.00    -0.081 A 
ATOM      2  C3  UNL d   1      -1.549  -4.399   0.673  0.00  0.00     0.006 A 
ATOM      3  C4  UNL d   1      -2.043  -3.162   1.094  0.00  0.00     0.002 A 
ATOM      4  C5  UNL d   1      -2.085  -2.077   0.212  0.00  0.00    -0.080 A 
ATOM      5  C6  UNL d   1      -2.641  -0.752   0.642  0.00  0.00     0.076 C 
ATOM      6  C7  UNL d   1      -1.600  -2.241  -1.090  0.00  0.00     0.002 A 
ATOM      7  C8  UNL d   1      -1.105  -3.478  -1.511  0.00  0.00     0.006 A 
ENDROOT
BRANCH   1   8
ATOM      8  C1  UNL d   1      -0.607  -5.918  -1.111  0.00  0.00     0.054 C 
ATOM      9  C   UNL d   1       0.913  -5.999  -1.122  0.00  0.00     0.018 C 
ENDBRANCH   1   8
TORSDOF 1
ENDMDL
