MODEL 1
REMARK minimizedAffinity -0.131111696
REMARK minimizedRMSD -1
REMARK  1 active torsions:
REMARK  status: ('A' for Active; 'I' for Inactive)
REMARK    1  A    between atoms: C1_2  and  C2_3 
ROOT
ATOM      1  C2  UNL d   1      -1.188  -0.821  -0.230  0.00  0.00    -0.081 A 
ATOM      2  C3  UNL d   1      -0.109  -0.112   0.311  0.00  0.00     0.006 A 
ATOM      3  C4  UNL d   1      -0.248   0.575   1.519  0.00  0.00     0.002 A 
ATOM      4  C5  UNL d   1      -1.464   0.558   2.210  0.00  0.00    -0.080 A 
ATOM      5  C6  UNL d   1      -1.618   1.267   3.523  0.00  0.00     0.076 C 
ATOM      6  C7  UNL d   1      -2.548  -0.136   1.660  0.00  0.00     0.002 A 
ATOM      7  C8  UNL d   1      -2.410  -0.822   0.452  0.00  0.00     0.006 A 
ENDROOT
BRANCH   1   8
ATOM      8  C1  UNL d   1      -1.023  -1.616  -1.500  0.00  0.00     0.054 C 
ATOM      9  C   UNL d   1      -0.933  -3.108  -1.211  0.00  0.00     0.018 C 
ENDBRANCH   1   8
TORSDOF 1
ENDMDL
