MODEL 1
REMARK minimizedAffinity 3.1338203
REMARK minimizedRMSD -1
REMARK  1 active torsions:
REMARK  status: ('A' for Active; 'I' for Inactive)
REMARK    1  A    between atoms: C1_2  and  C2_3 
ROOT
ATOM      1  C2  UNL d   1      -2.062  -3.286   0.314  0.00  0.00    -0.081 A 
ATOM      2  C3  UNL d   1      -1.747  -2.216  -0.532  0.00  0.00     0.006 A 
ATOM      3  C4  UNL d   1      -2.433  -1.003  -0.426  0.00  0.00     0.002 A 
ATOM      4  C5  UNL d   1      -3.439  -0.838   0.531  0.00  0.00    -0.080 A 
ATOM      5  C6  UNL d   1      -4.163   0.468   0.675  0.00  0.00     0.076 C 
ATOM      6  C7  UNL d   1      -3.767  -1.913   1.364  0.00  0.00     0.002 A 
ATOM      7  C8  UNL d   1      -3.082  -3.126   1.259  0.00  0.00     0.006 A 
ENDROOT
BRANCH   1   8
ATOM      8  C1  UNL d   1      -1.280  -4.573   0.247  0.00  0.00     0.054 C 
ATOM      9  C   UNL d   1      -0.638  -4.759  -1.120  0.00  0.00     0.018 C 
ENDBRANCH   1   8
TORSDOF 1
ENDMDL
