MODEL 1
REMARK minimizedAffinity -2.28997946
REMARK minimizedRMSD -1
REMARK  1 active torsions:
REMARK  status: ('A' for Active; 'I' for Inactive)
REMARK    1  A    between atoms: C1_2  and  C2_3 
ROOT
ATOM      1  C2  UNL d   1      -0.640  -4.204   4.645  0.00  0.00    -0.081 A 
ATOM      2  C3  UNL d   1      -1.202  -5.480   4.519  0.00  0.00     0.006 A 
ATOM      3  C4  UNL d   1      -1.503  -6.000   3.258  0.00  0.00     0.002 A 
ATOM      4  C5  UNL d   1      -1.239  -5.257   2.103  0.00  0.00    -0.080 A 
ATOM      5  C6  UNL d   1      -1.528  -5.816   0.741  0.00  0.00     0.076 C 
ATOM      6  C7  UNL d   1      -0.692  -3.975   2.229  0.00  0.00     0.002 A 
ATOM      7  C8  UNL d   1      -0.392  -3.454   3.490  0.00  0.00     0.006 A 
ENDROOT
BRANCH   1   8
ATOM      8  C1  UNL d   1      -0.255  -3.666   6.000  0.00  0.00     0.054 C 
ATOM      9  C   UNL d   1       1.115  -3.003   5.963  0.00  0.00     0.018 C 
ENDBRANCH   1   8
TORSDOF 1
ENDMDL
