MODEL 1
REMARK minimizedAffinity 2.32647681
REMARK minimizedRMSD -1
REMARK  1 active torsions:
REMARK  status: ('A' for Active; 'I' for Inactive)
REMARK    1  A    between atoms: C1_2  and  C2_3 
ROOT
ATOM      1  C2  UNL d   1      -2.429  -0.504   2.042  0.00  0.00    -0.081 A 
ATOM      2  C3  UNL d   1      -2.134  -1.274   0.911  0.00  0.00     0.006 A 
ATOM      3  C4  UNL d   1      -3.036  -1.342  -0.154  0.00  0.00     0.002 A 
ATOM      4  C5  UNL d   1      -4.242  -0.635  -0.109  0.00  0.00    -0.080 A 
ATOM      5  C6  UNL d   1      -5.205  -0.675  -1.259  0.00  0.00     0.076 C 
ATOM      6  C7  UNL d   1      -4.544   0.121   1.028  0.00  0.00     0.002 A 
ATOM      7  C8  UNL d   1      -3.644   0.189   2.094  0.00  0.00     0.006 A 
ENDROOT
BRANCH   1   8
ATOM      8  C1  UNL d   1      -1.431  -0.377   3.164  0.00  0.00     0.054 C 
ATOM      9  C   UNL d   1      -1.020   1.073   3.378  0.00  0.00     0.018 C 
ENDBRANCH   1   8
TORSDOF 1
ENDMDL
