MODEL 1
REMARK minimizedAffinity 4.54600286
REMARK minimizedRMSD -1
REMARK  1 active torsions:
REMARK  status: ('A' for Active; 'I' for Inactive)
REMARK    1  A    between atoms: C1_2  and  C2_3 
ROOT
ATOM      1  C2  UNL d   1      -1.710  -1.968  -0.112  0.00  0.00    -0.081 A 
ATOM      2  C3  UNL d   1      -1.710  -3.018   0.814  0.00  0.00     0.006 A 
ATOM      3  C4  UNL d   1      -1.439  -4.325   0.403  0.00  0.00     0.002 A 
ATOM      4  C5  UNL d   1      -1.154  -4.603  -0.938  0.00  0.00    -0.080 A 
ATOM      5  C6  UNL d   1      -0.832  -5.998  -1.387  0.00  0.00     0.076 C 
ATOM      6  C7  UNL d   1      -1.171  -3.557  -1.867  0.00  0.00     0.002 A 
ATOM      7  C8  UNL d   1      -1.443  -2.250  -1.457  0.00  0.00     0.006 A 
ENDROOT
BRANCH   1   8
ATOM      8  C1  UNL d   1      -1.938  -0.548   0.338  0.00  0.00     0.054 C 
ATOM      9  C   UNL d   1      -2.130  -0.470   1.846  0.00  0.00     0.018 C 
ENDBRANCH   1   8
TORSDOF 1
ENDMDL
