MODEL 1
REMARK minimizedAffinity 9.37731266
REMARK minimizedRMSD -1
REMARK  1 active torsions:
REMARK  status: ('A' for Active; 'I' for Inactive)
REMARK    1  A    between atoms: C1_2  and  C2_3 
ROOT
ATOM      1  C2  UNL d   1       0.433  -2.552   5.302  0.00  0.00    -0.081 A 
ATOM      2  C3  UNL d   1      -0.871  -2.382   5.785  0.00  0.00     0.006 A 
ATOM      3  C4  UNL d   1      -1.696  -3.489   6.000  0.00  0.00     0.002 A 
ATOM      4  C5  UNL d   1      -1.229  -4.783   5.744  0.00  0.00    -0.080 A 
ATOM      5  C6  UNL d   1      -2.094  -5.981   5.999  0.00  0.00     0.076 C 
ATOM      6  C7  UNL d   1       0.067  -4.951   5.244  0.00  0.00     0.002 A 
ATOM      7  C8  UNL d   1       0.892  -3.845   5.028  0.00  0.00     0.006 A 
ENDROOT
BRANCH   1   8
ATOM      8  C1  UNL d   1       1.347  -1.366   5.130  0.00  0.00     0.054 C 
ATOM      9  C   UNL d   1       0.749  -0.112   5.752  0.00  0.00     0.018 C 
ENDBRANCH   1   8
TORSDOF 1
ENDMDL
