MODEL 1
REMARK minimizedAffinity -2.89926076
REMARK minimizedRMSD -1
REMARK  0 active torsions:
REMARK  status: ('A' for Active; 'I' for Inactive)
ROOT
ATOM      1  C   UNL d   1       0.743   1.025  -0.652  0.00  0.00     0.020 A 
ATOM      2  C1  UNL d   1       1.758   0.134  -0.308  0.00  0.00     0.020 A 
ATOM      3  C2  UNL d   1       1.515  -0.873   0.629  0.00  0.00     0.034 A 
ATOM      4  C3  UNL d   1       0.254  -0.991   1.224  0.00  0.00     0.017 A 
ATOM      5  C4  UNL d   1      -0.764  -0.096   0.878  0.00  0.00     0.017 A 
ATOM      6  C5  UNL d   1      -0.516   0.910  -0.061  0.00  0.00     0.034 A 
ATOM      7 Cl   UNL d   1      -2.346  -0.178   1.570  0.00  0.00    -0.070 Cl
ATOM      8 Cl1  UNL d   1       0.024  -2.260   2.374  0.00  0.00    -0.070 Cl
ENDROOT
TORSDOF 0
ENDMDL
