MODEL 1
REMARK minimizedAffinity 1.01020873
REMARK minimizedRMSD -1
REMARK  0 active torsions:
REMARK  status: ('A' for Active; 'I' for Inactive)
ROOT
ATOM      1  C   UNL d   1      -2.609  -0.765  -1.823  0.00  0.00     0.020 A 
ATOM      2  C1  UNL d   1      -1.828   0.340  -2.162  0.00  0.00     0.020 A 
ATOM      3  C2  UNL d   1      -0.651   0.604  -1.459  0.00  0.00     0.034 A 
ATOM      4  C3  UNL d   1      -0.251  -0.236  -0.414  0.00  0.00     0.017 A 
ATOM      5  C4  UNL d   1      -1.035  -1.345  -0.075  0.00  0.00     0.017 A 
ATOM      6  C5  UNL d   1      -2.213  -1.605  -0.782  0.00  0.00     0.034 A 
ATOM      7 Cl   UNL d   1      -0.607  -2.428   1.202  0.00  0.00    -0.070 Cl
ATOM      8 Cl1  UNL d   1       1.216   0.151   0.413  0.00  0.00    -0.070 Cl
ENDROOT
TORSDOF 0
ENDMDL
