MODEL 1
REMARK minimizedAffinity -2.82436204
REMARK minimizedRMSD -1
REMARK  0 active torsions:
REMARK  status: ('A' for Active; 'I' for Inactive)
ROOT
ATOM      1  C   UNL d   1      -2.792  -3.072   0.414  0.00  0.00     0.020 A 
ATOM      2  C1  UNL d   1      -3.175  -2.035  -0.436  0.00  0.00     0.020 A 
ATOM      3  C2  UNL d   1      -2.375  -0.895  -0.551  0.00  0.00     0.034 A 
ATOM      4  C3  UNL d   1      -1.190  -0.790   0.185  0.00  0.00     0.017 A 
ATOM      5  C4  UNL d   1      -0.807  -1.832   1.038  0.00  0.00     0.017 A 
ATOM      6  C5  UNL d   1      -1.611  -2.970   1.149  0.00  0.00     0.034 A 
ATOM      7 Cl   UNL d   1       0.642  -1.774   1.979  0.00  0.00    -0.070 Cl
ATOM      8 Cl1  UNL d   1      -0.250   0.647  -0.006  0.00  0.00    -0.070 Cl
ENDROOT
TORSDOF 0
ENDMDL
