MODEL 1
REMARK minimizedAffinity -2.19304895
REMARK minimizedRMSD -1
REMARK  0 active torsions:
REMARK  status: ('A' for Active; 'I' for Inactive)
ROOT
ATOM      1  C   UNL d   1      -1.913   0.498  -2.216  0.00  0.00     0.020 A 
ATOM      2  C1  UNL d   1      -0.958   1.509  -2.311  0.00  0.00     0.020 A 
ATOM      3  C2  UNL d   1       0.056   1.603  -1.354  0.00  0.00     0.034 A 
ATOM      4  C3  UNL d   1       0.116   0.685  -0.300  0.00  0.00     0.017 A 
ATOM      5  C4  UNL d   1      -0.843  -0.329  -0.206  0.00  0.00     0.017 A 
ATOM      6  C5  UNL d   1      -1.856  -0.419  -1.166  0.00  0.00     0.034 A 
ATOM      7 Cl   UNL d   1      -0.834  -1.499   1.067  0.00  0.00    -0.070 Cl
ATOM      8 Cl1  UNL d   1       1.397   0.862   0.847  0.00  0.00    -0.070 Cl
ENDROOT
TORSDOF 0
ENDMDL
