MODEL 1
REMARK minimizedAffinity -2.87661195
REMARK minimizedRMSD -1
REMARK  0 active torsions:
REMARK  status: ('A' for Active; 'I' for Inactive)
ROOT
ATOM      1  C   UNL d   1       1.483   0.895  -0.442  0.00  0.00     0.020 A 
ATOM      2  C1  UNL d   1       1.981   0.252   0.692  0.00  0.00     0.020 A 
ATOM      3  C2  UNL d   1       1.231  -0.749   1.312  0.00  0.00     0.034 A 
ATOM      4  C3  UNL d   1      -0.021  -1.111   0.800  0.00  0.00     0.017 A 
ATOM      5  C4  UNL d   1      -0.519  -0.466  -0.338  0.00  0.00     0.017 A 
ATOM      6  C5  UNL d   1       0.236   0.536  -0.955  0.00  0.00     0.034 A 
ATOM      7 Cl   UNL d   1      -2.054  -0.858  -1.028  0.00  0.00    -0.070 Cl
ATOM      8 Cl1  UNL d   1      -0.894  -2.357   1.618  0.00  0.00    -0.070 Cl
ENDROOT
TORSDOF 0
ENDMDL
