MODEL 1
REMARK minimizedAffinity 0.91170758
REMARK minimizedRMSD -1
REMARK  0 active torsions:
REMARK  status: ('A' for Active; 'I' for Inactive)
ROOT
ATOM      1  C   UNL d   1       2.488   2.068   1.572  0.00  0.00     0.020 A 
ATOM      2  C1  UNL d   1       2.970   2.234   0.274  0.00  0.00     0.020 A 
ATOM      3  C2  UNL d   1       2.349   1.578  -0.791  0.00  0.00     0.034 A 
ATOM      4  C3  UNL d   1       1.243   0.752  -0.560  0.00  0.00     0.017 A 
ATOM      5  C4  UNL d   1       0.760   0.586   0.743  0.00  0.00     0.017 A 
ATOM      6  C5  UNL d   1       1.385   1.246   1.806  0.00  0.00     0.034 A 
ATOM      7 Cl   UNL d   1      -0.600  -0.417   1.107  0.00  0.00    -0.070 Cl
ATOM      8 Cl1  UNL d   1       0.525  -0.029  -1.923  0.00  0.00    -0.070 Cl
ENDROOT
TORSDOF 0
ENDMDL
