MODEL 1
REMARK minimizedAffinity -2.60882616
REMARK minimizedRMSD -1
REMARK  0 active torsions:
REMARK  status: ('A' for Active; 'I' for Inactive)
ROOT
ATOM      1  C   UNL d   1       1.295  -1.042   0.421  0.00  0.00     0.020 A 
ATOM      2  C1  UNL d   1       0.454  -1.770   1.262  0.00  0.00     0.020 A 
ATOM      3  C2  UNL d   1      -0.918  -1.818   1.006  0.00  0.00     0.034 A 
ATOM      4  C3  UNL d   1      -1.453  -1.137  -0.094  0.00  0.00     0.017 A 
ATOM      5  C4  UNL d   1      -0.608  -0.407  -0.937  0.00  0.00     0.017 A 
ATOM      6  C5  UNL d   1       0.765  -0.362  -0.676  0.00  0.00     0.034 A 
ATOM      7 Cl   UNL d   1      -1.194   0.459  -2.313  0.00  0.00    -0.070 Cl
ATOM      8 Cl1  UNL d   1      -3.159  -1.240  -0.351  0.00  0.00    -0.070 Cl
ENDROOT
TORSDOF 0
ENDMDL
