MODEL 1
REMARK minimizedAffinity -2.22190595
REMARK minimizedRMSD -1
REMARK  0 active torsions:
REMARK  status: ('A' for Active; 'I' for Inactive)
ROOT
ATOM      1  C   UNL d   1       1.239   0.048  -0.001  0.00  0.00     0.020 A 
ATOM      2  C1  UNL d   1       1.128  -0.199  -1.369  0.00  0.00     0.020 A 
ATOM      3  C2  UNL d   1      -0.089  -0.627  -1.904  0.00  0.00     0.034 A 
ATOM      4  C3  UNL d   1      -1.199  -0.809  -1.072  0.00  0.00     0.017 A 
ATOM      5  C4  UNL d   1      -1.086  -0.561   0.301  0.00  0.00     0.017 A 
ATOM      6  C5  UNL d   1       0.134  -0.133   0.832  0.00  0.00     0.034 A 
ATOM      7 Cl   UNL d   1      -2.412  -0.763   1.392  0.00  0.00    -0.070 Cl
ATOM      8 Cl1  UNL d   1      -2.673  -1.340  -1.802  0.00  0.00    -0.070 Cl
ENDROOT
TORSDOF 0
ENDMDL
