MODEL 1
REMARK minimizedAffinity -2.47976518
REMARK minimizedRMSD -1
REMARK  0 active torsions:
REMARK  status: ('A' for Active; 'I' for Inactive)
ROOT
ATOM      1  C   UNL d   1      -2.371  -1.149  -2.179  0.00  0.00     0.020 A 
ATOM      2  C1  UNL d   1      -1.649  -0.062  -2.670  0.00  0.00     0.020 A 
ATOM      3  C2  UNL d   1      -0.567   0.442  -1.945  0.00  0.00     0.034 A 
ATOM      4  C3  UNL d   1      -0.203  -0.142  -0.726  0.00  0.00     0.017 A 
ATOM      5  C4  UNL d   1      -0.928  -1.234  -0.235  0.00  0.00     0.017 A 
ATOM      6  C5  UNL d   1      -2.011  -1.734  -0.965  0.00  0.00     0.034 A 
ATOM      7 Cl   UNL d   1      -0.539  -2.007   1.261  0.00  0.00    -0.070 Cl
ATOM      8 Cl1  UNL d   1       1.147   0.532   0.117  0.00  0.00    -0.070 Cl
ENDROOT
TORSDOF 0
ENDMDL
