MODEL 1
REMARK minimizedAffinity -4.1507268
REMARK minimizedRMSD -1
REMARK  0 active torsions:
REMARK  status: ('A' for Active; 'I' for Inactive)
ROOT
ATOM      1  C   UNL d   1      -0.916   0.757  -1.935  0.00  0.00     0.020 A 
ATOM      2  C1  UNL d   1      -2.022  -0.053  -1.682  0.00  0.00     0.020 A 
ATOM      3  C2  UNL d   1      -2.008  -0.935  -0.599  0.00  0.00     0.034 A 
ATOM      4  C3  UNL d   1      -0.887  -1.009   0.234  0.00  0.00     0.017 A 
ATOM      5  C4  UNL d   1       0.223  -0.195  -0.020  0.00  0.00     0.017 A 
ATOM      6  C5  UNL d   1       0.204   0.687  -1.106  0.00  0.00     0.034 A 
ATOM      7 Cl   UNL d   1       1.643  -0.230   0.964  0.00  0.00    -0.070 Cl
ATOM      8 Cl1  UNL d   1      -0.939  -2.122   1.555  0.00  0.00    -0.070 Cl
ENDROOT
TORSDOF 0
ENDMDL
