MODEL 1
REMARK minimizedAffinity -0.194137305
REMARK minimizedRMSD -1
REMARK  0 active torsions:
REMARK  status: ('A' for Active; 'I' for Inactive)
ROOT
ATOM      1  C   UNL d   1       0.312  -0.269  -2.288  0.00  0.00     0.020 A 
ATOM      2  C1  UNL d   1      -1.070  -0.308  -2.469  0.00  0.00     0.020 A 
ATOM      3  C2  UNL d   1      -1.912   0.321  -1.549  0.00  0.00     0.034 A 
ATOM      4  C3  UNL d   1      -1.373   0.991  -0.445  0.00  0.00     0.017 A 
ATOM      5  C4  UNL d   1       0.014   1.030  -0.265  0.00  0.00     0.017 A 
ATOM      6  C5  UNL d   1       0.853   0.399  -1.188  0.00  0.00     0.034 A 
ATOM      7 Cl   UNL d   1       0.752   1.837   1.073  0.00  0.00    -0.070 Cl
ATOM      8 Cl1  UNL d   1      -2.474   1.747   0.652  0.00  0.00    -0.070 Cl
ENDROOT
TORSDOF 0
ENDMDL
