MODEL 1
REMARK minimizedAffinity -2.86106515
REMARK minimizedRMSD -1
REMARK  0 active torsions:
REMARK  status: ('A' for Active; 'I' for Inactive)
ROOT
ATOM      1  C   UNL d   1      -2.781  -0.625  -1.495  0.00  0.00     0.020 A 
ATOM      2  C1  UNL d   1      -2.140   0.527  -1.949  0.00  0.00     0.020 A 
ATOM      3  C2  UNL d   1      -0.918   0.912  -1.392  0.00  0.00     0.034 A 
ATOM      4  C3  UNL d   1      -0.334   0.144  -0.378  0.00  0.00     0.017 A 
ATOM      5  C4  UNL d   1      -0.978  -1.012   0.077  0.00  0.00     0.017 A 
ATOM      6  C5  UNL d   1      -2.201  -1.393  -0.485  0.00  0.00     0.034 A 
ATOM      7 Cl   UNL d   1      -0.319  -2.011   1.324  0.00  0.00    -0.070 Cl
ATOM      8 Cl1  UNL d   1       1.178   0.678   0.265  0.00  0.00    -0.070 Cl
ENDROOT
TORSDOF 0
ENDMDL
