MODEL 1
REMARK minimizedAffinity -1.82776439
REMARK minimizedRMSD -1
REMARK  0 active torsions:
REMARK  status: ('A' for Active; 'I' for Inactive)
ROOT
ATOM      1  C   UNL d   1      -1.546   0.365  -0.784  0.00  0.00     0.020 A 
ATOM      2  C1  UNL d   1      -1.858  -0.724   0.029  0.00  0.00     0.020 A 
ATOM      3  C2  UNL d   1      -0.865  -1.319   0.810  0.00  0.00     0.034 A 
ATOM      4  C3  UNL d   1       0.445  -0.826   0.779  0.00  0.00     0.017 A 
ATOM      5  C4  UNL d   1       0.757   0.267  -0.037  0.00  0.00     0.017 A 
ATOM      6  C5  UNL d   1      -0.242   0.860  -0.817  0.00  0.00     0.034 A 
ATOM      7 Cl   UNL d   1       2.350   0.932  -0.128  0.00  0.00    -0.070 Cl
ATOM      8 Cl1  UNL d   1       1.622  -1.610   1.771  0.00  0.00    -0.070 Cl
ENDROOT
TORSDOF 0
ENDMDL
