MODEL 1
REMARK minimizedAffinity -1.46801424
REMARK minimizedRMSD -1
REMARK  0 active torsions:
REMARK  status: ('A' for Active; 'I' for Inactive)
ROOT
ATOM      1  C   UNL d   1      -0.008   0.010  -0.564  0.00  0.00     0.020 A 
ATOM      2  C1  UNL d   1      -0.766   0.969   0.107  0.00  0.00     0.020 A 
ATOM      3  C2  UNL d   1      -0.131   2.001   0.801  0.00  0.00     0.034 A 
ATOM      4  C3  UNL d   1       1.267   2.077   0.824  0.00  0.00     0.017 A 
ATOM      5  C4  UNL d   1       2.027   1.114   0.150  0.00  0.00     0.017 A 
ATOM      6  C5  UNL d   1       1.385   0.082  -0.542  0.00  0.00     0.034 A 
ATOM      7 Cl   UNL d   1       3.755   1.142   0.134  0.00  0.00    -0.070 Cl
ATOM      8 Cl1  UNL d   1       1.986   3.381   1.701  0.00  0.00    -0.070 Cl
ENDROOT
TORSDOF 0
ENDMDL
