MODEL 1
REMARK minimizedAffinity -1.70528424
REMARK minimizedRMSD -1
REMARK  0 active torsions:
REMARK  status: ('A' for Active; 'I' for Inactive)
ROOT
ATOM      1  C   UNL d   1      -0.498   0.702  -1.327  0.00  0.00     0.020 A 
ATOM      2  C1  UNL d   1      -1.621   0.307  -2.053  0.00  0.00     0.020 A 
ATOM      3  C2  UNL d   1      -2.358  -0.808  -1.647  0.00  0.00     0.034 A 
ATOM      4  C3  UNL d   1      -1.973  -1.531  -0.512  0.00  0.00     0.017 A 
ATOM      5  C4  UNL d   1      -0.845  -1.133   0.216  0.00  0.00     0.017 A 
ATOM      6  C5  UNL d   1      -0.111  -0.017  -0.195  0.00  0.00     0.034 A 
ATOM      7 Cl   UNL d   1      -0.308  -1.976   1.626  0.00  0.00    -0.070 Cl
ATOM      8 Cl1  UNL d   1      -2.931  -2.899  -0.068  0.00  0.00    -0.070 Cl
ENDROOT
TORSDOF 0
ENDMDL
