MODEL 1
REMARK minimizedAffinity -2.22897768
REMARK minimizedRMSD -1
REMARK  0 active torsions:
REMARK  status: ('A' for Active; 'I' for Inactive)
ROOT
ATOM      1  C   UNL d   1      -1.074   0.779  -1.573  0.00  0.00     0.020 A 
ATOM      2  C1  UNL d   1      -2.203   0.114  -1.096  0.00  0.00     0.020 A 
ATOM      3  C2  UNL d   1      -2.067  -0.901  -0.147  0.00  0.00     0.034 A 
ATOM      4  C3  UNL d   1      -0.799  -1.254   0.330  0.00  0.00     0.017 A 
ATOM      5  C4  UNL d   1       0.334  -0.586  -0.149  0.00  0.00     0.017 A 
ATOM      6  C5  UNL d   1       0.192   0.429  -1.100  0.00  0.00     0.034 A 
ATOM      7 Cl   UNL d   1       1.931  -0.965   0.391  0.00  0.00    -0.070 Cl
ATOM      8 Cl1  UNL d   1      -0.705  -2.518   1.504  0.00  0.00    -0.070 Cl
ENDROOT
TORSDOF 0
ENDMDL
