MODEL 1
REMARK minimizedAffinity -4.65664291
REMARK minimizedRMSD -1
REMARK  0 active torsions:
REMARK  status: ('A' for Active; 'I' for Inactive)
ROOT
ATOM      1  C   UNL d   1      -2.545  -2.605  -0.091  0.00  0.00     0.020 A 
ATOM      2  C1  UNL d   1      -1.626  -2.780   0.942  0.00  0.00     0.020 A 
ATOM      3  C2  UNL d   1      -0.516  -1.938   1.039  0.00  0.00     0.034 A 
ATOM      4  C3  UNL d   1      -0.321  -0.919   0.100  0.00  0.00     0.017 A 
ATOM      5  C4  UNL d   1      -1.244  -0.744  -0.937  0.00  0.00     0.017 A 
ATOM      6  C5  UNL d   1      -2.355  -1.589  -1.029  0.00  0.00     0.034 A 
ATOM      7 Cl   UNL d   1      -1.072   0.492  -2.132  0.00  0.00    -0.070 Cl
ATOM      8 Cl1  UNL d   1       1.074   0.085   0.281  0.00  0.00    -0.070 Cl
ENDROOT
TORSDOF 0
ENDMDL
