MODEL 1
REMARK minimizedAffinity -2.51410317
REMARK minimizedRMSD -1
REMARK  0 active torsions:
REMARK  status: ('A' for Active; 'I' for Inactive)
ROOT
ATOM      1  C   UNL d   1       1.799   3.174   0.586  0.00  0.00     0.020 A 
ATOM      2  C1  UNL d   1       2.224   2.646   1.804  0.00  0.00     0.020 A 
ATOM      3  C2  UNL d   1       2.087   1.280   2.060  0.00  0.00     0.034 A 
ATOM      4  C3  UNL d   1       1.524   0.437   1.095  0.00  0.00     0.017 A 
ATOM      5  C4  UNL d   1       1.097   0.967  -0.128  0.00  0.00     0.017 A 
ATOM      6  C5  UNL d   1       1.237   2.336  -0.378  0.00  0.00     0.034 A 
ATOM      7 Cl   UNL d   1       0.393  -0.010  -1.367  0.00  0.00    -0.070 Cl
ATOM      8 Cl1  UNL d   1       1.386  -1.242   1.478  0.00  0.00    -0.070 Cl
ENDROOT
TORSDOF 0
ENDMDL
