MODEL 1
REMARK minimizedAffinity -5.5186758
REMARK minimizedRMSD -1
REMARK  1 active torsions:
REMARK  status: ('A' for Active; 'I' for Inactive)
REMARK    1  A    between atoms: C3_4  and  O_7 
ROOT
ATOM      1  C   UNL d   1      -0.026  -0.727  -0.270  0.00  0.00    -0.033 A 
ATOM      2  C1  UNL d   1      -0.765  -0.353  -1.394  0.00  0.00     0.039 A 
ATOM      3  C2  UNL d   1      -2.155  -0.256  -1.318  0.00  0.00    -0.080 A 
ATOM      4  C3  UNL d   1      -2.794  -0.532  -0.112  0.00  0.00     0.150 A 
ATOM      5  C4  UNL d   1      -2.065  -0.901   1.013  0.00  0.00    -0.007 A 
ATOM      6  C5  UNL d   1      -0.676  -0.999   0.935  0.00  0.00     0.039 A 
ENDROOT
BRANCH   4   7
ATOM      7  O   UNL d   1      -4.150  -0.455   0.010  0.00  0.00    -0.526 OA
ATOM      8  H5  UNL d   1      -4.524  -0.217  -0.855  0.00  0.00     0.418 HD
ENDBRANCH   4   7
TORSDOF 1
ENDMDL
