MODEL 1
REMARK minimizedAffinity -4.43408251
REMARK minimizedRMSD -1
REMARK  1 active torsions:
REMARK  status: ('A' for Active; 'I' for Inactive)
REMARK    1  A    between atoms: C3_4  and  O_7 
ROOT
ATOM      1  C   UNL d   1       0.726  -0.110   0.217  0.00  0.00    -0.033 A 
ATOM      2  C1  UNL d   1      -0.155  -0.351   1.272  0.00  0.00     0.039 A 
ATOM      3  C2  UNL d   1      -1.534  -0.300   1.058  0.00  0.00    -0.080 A 
ATOM      4  C3  UNL d   1      -2.018  -0.009  -0.214  0.00  0.00     0.150 A 
ATOM      5  C4  UNL d   1      -1.145   0.228  -1.271  0.00  0.00    -0.007 A 
ATOM      6  C5  UNL d   1       0.231   0.178  -1.055  0.00  0.00     0.039 A 
ENDROOT
BRANCH   4   7
ATOM      7  O   UNL d   1      -3.355   0.056  -0.471  0.00  0.00    -0.526 OA
ATOM      8  H5  UNL d   1      -3.836  -0.101   0.359  0.00  0.00     0.418 HD
ENDBRANCH   4   7
TORSDOF 1
ENDMDL
