MODEL 1
REMARK minimizedAffinity 0.562859595
REMARK minimizedRMSD -1
REMARK  1 active torsions:
REMARK  status: ('A' for Active; 'I' for Inactive)
REMARK    1  A    between atoms: C3_4  and  O_7 
ROOT
ATOM      1  C   UNL d   1      -5.226   5.079   1.883  0.00  0.00    -0.033 A 
ATOM      2  C1  UNL d   1      -4.359   4.168   2.488  0.00  0.00     0.039 A 
ATOM      3  C2  UNL d   1      -4.195   4.173   3.875  0.00  0.00    -0.080 A 
ATOM      4  C3  UNL d   1      -4.904   5.091   4.644  0.00  0.00     0.150 A 
ATOM      5  C4  UNL d   1      -5.774   5.999   4.048  0.00  0.00    -0.007 A 
ATOM      6  C5  UNL d   1      -5.935   5.994   2.663  0.00  0.00     0.039 A 
ENDROOT
BRANCH   4   7
ATOM      7  O   UNL d   1      -4.774   5.137   6.000  0.00  0.00    -0.526 OA
ATOM      8  H5  UNL d   1      -4.119   4.471   6.269  0.00  0.00     0.418 HD
ENDBRANCH   4   7
TORSDOF 1
ENDMDL
