MODEL 1
REMARK minimizedAffinity 0.169102177
REMARK minimizedRMSD -1
REMARK  1 active torsions:
REMARK  status: ('A' for Active; 'I' for Inactive)
REMARK    1  A    between atoms: C3_4  and  O_7 
ROOT
ATOM      1  C   UNL d   1       1.025   0.087  -0.149  0.00  0.00    -0.033 A 
ATOM      2  C1  UNL d   1       1.772   1.259  -0.016  0.00  0.00     0.039 A 
ATOM      3  C2  UNL d   1       1.889   1.877   1.231  0.00  0.00    -0.080 A 
ATOM      4  C3  UNL d   1       1.255   1.313   2.335  0.00  0.00     0.150 A 
ATOM      5  C4  UNL d   1       0.512   0.144   2.210  0.00  0.00    -0.007 A 
ATOM      6  C5  UNL d   1       0.396  -0.471   0.964  0.00  0.00     0.039 A 
ENDROOT
BRANCH   4   7
ATOM      7  O   UNL d   1       1.336   1.882   3.571  0.00  0.00    -0.526 OA
ATOM      8  H5  UNL d   1       1.857   2.699   3.500  0.00  0.00     0.418 HD
ENDBRANCH   4   7
TORSDOF 1
ENDMDL
