MODEL 1
REMARK minimizedAffinity -2.12830997
REMARK minimizedRMSD -1
REMARK  1 active torsions:
REMARK  status: ('A' for Active; 'I' for Inactive)
REMARK    1  A    between atoms: C3_4  and  O_7 
ROOT
ATOM      1  C   UNL d   1      -0.640  -1.062  -0.663  0.00  0.00    -0.033 A 
ATOM      2  C1  UNL d   1      -0.068  -1.503   0.532  0.00  0.00     0.039 A 
ATOM      3  C2  UNL d   1       0.721  -0.637   1.291  0.00  0.00    -0.080 A 
ATOM      4  C3  UNL d   1       0.930   0.666   0.846  0.00  0.00     0.150 A 
ATOM      5  C4  UNL d   1       0.361   1.112  -0.342  0.00  0.00    -0.007 A 
ATOM      6  C5  UNL d   1      -0.426   0.246  -1.100  0.00  0.00     0.039 A 
ENDROOT
BRANCH   4   7
ATOM      7  O   UNL d   1       1.697   1.546   1.550  0.00  0.00    -0.526 OA
ATOM      8  H5  UNL d   1       2.048   1.090   2.333  0.00  0.00     0.418 HD
ENDBRANCH   4   7
TORSDOF 1
ENDMDL
