MODEL 1
REMARK minimizedAffinity -1.35559893
REMARK minimizedRMSD -1
REMARK  1 active torsions:
REMARK  status: ('A' for Active; 'I' for Inactive)
REMARK    1  A    between atoms: C3_4  and  O_7 
ROOT
ATOM      1  C   UNL d   1       1.003   0.273  -0.012  0.00  0.00    -0.033 A 
ATOM      2  C1  UNL d   1       0.307  -0.803   0.542  0.00  0.00     0.039 A 
ATOM      3  C2  UNL d   1      -0.941  -1.166   0.031  0.00  0.00    -0.080 A 
ATOM      4  C3  UNL d   1      -1.480  -0.447  -1.032  0.00  0.00     0.150 A 
ATOM      5  C4  UNL d   1      -0.790   0.624  -1.591  0.00  0.00    -0.007 A 
ATOM      6  C5  UNL d   1       0.456   0.985  -1.079  0.00  0.00     0.039 A 
ENDROOT
BRANCH   4   7
ATOM      7  O   UNL d   1      -2.696  -0.761  -1.561  0.00  0.00    -0.526 OA
ATOM      8  H5  UNL d   1      -3.069  -1.503  -1.056  0.00  0.00     0.418 HD
ENDBRANCH   4   7
TORSDOF 1
ENDMDL
