MODEL 1
REMARK minimizedAffinity -3.58950973
REMARK minimizedRMSD -1
REMARK  1 active torsions:
REMARK  status: ('A' for Active; 'I' for Inactive)
REMARK    1  A    between atoms: C3_4  and  O_7 
ROOT
ATOM      1  C   UNL d   1      -5.070   4.983   4.641  0.00  0.00    -0.033 A 
ATOM      2  C1  UNL d   1      -5.968   4.338   3.788  0.00  0.00     0.039 A 
ATOM      3  C2  UNL d   1      -5.878   4.525   2.407  0.00  0.00    -0.080 A 
ATOM      4  C3  UNL d   1      -4.887   5.357   1.893  0.00  0.00     0.150 A 
ATOM      5  C4  UNL d   1      -3.988   6.000   2.737  0.00  0.00    -0.007 A 
ATOM      6  C5  UNL d   1      -4.079   5.813   4.116  0.00  0.00     0.039 A 
ENDROOT
BRANCH   4   7
ATOM      7  O   UNL d   1      -4.764   5.574   0.553  0.00  0.00    -0.526 OA
ATOM      8  H5  UNL d   1      -5.471   5.088   0.096  0.00  0.00     0.418 HD
ENDBRANCH   4   7
TORSDOF 1
ENDMDL
