MODEL 1
REMARK minimizedAffinity 0.0184951909
REMARK minimizedRMSD -1
REMARK  1 active torsions:
REMARK  status: ('A' for Active; 'I' for Inactive)
REMARK    1  A    between atoms: C3_4  and  O_7 
ROOT
ATOM      1  C   UNL d   1       1.123  -0.758   0.840  0.00  0.00    -0.033 A 
ATOM      2  C1  UNL d   1       1.579   0.552   0.996  0.00  0.00     0.039 A 
ATOM      3  C2  UNL d   1       0.929   1.418   1.878  0.00  0.00    -0.080 A 
ATOM      4  C3  UNL d   1      -0.173   0.962   2.597  0.00  0.00     0.150 A 
ATOM      5  C4  UNL d   1      -0.629  -0.344   2.449  0.00  0.00    -0.007 A 
ATOM      6  C5  UNL d   1       0.021  -1.207   1.567  0.00  0.00     0.039 A 
ENDROOT
BRANCH   4   7
ATOM      7  O   UNL d   1      -0.842   1.771   3.465  0.00  0.00    -0.526 OA
ATOM      8  H5  UNL d   1      -0.432   2.652   3.443  0.00  0.00     0.418 HD
ENDBRANCH   4   7
TORSDOF 1
ENDMDL
