MODEL 1
REMARK minimizedAffinity 4.56149578
REMARK minimizedRMSD -1
REMARK  1 active torsions:
REMARK  status: ('A' for Active; 'I' for Inactive)
REMARK    1  A    between atoms: C3_4  and  O_7 
ROOT
ATOM      1  C   UNL d   1      -3.326  -0.942   0.020  0.00  0.00    -0.033 A 
ATOM      2  C1  UNL d   1      -2.338  -1.248  -0.918  0.00  0.00     0.039 A 
ATOM      3  C2  UNL d   1      -1.047  -1.570  -0.495  0.00  0.00    -0.080 A 
ATOM      4  C3  UNL d   1      -0.758  -1.584   0.867  0.00  0.00     0.150 A 
ATOM      5  C4  UNL d   1      -1.738  -1.284   1.807  0.00  0.00    -0.007 A 
ATOM      6  C5  UNL d   1      -3.027  -0.961   1.383  0.00  0.00     0.039 A 
ENDROOT
BRANCH   4   7
ATOM      7  O   UNL d   1       0.489  -1.887   1.327  0.00  0.00    -0.526 OA
ATOM      8  H5  UNL d   1       1.069  -2.044   0.564  0.00  0.00     0.418 HD
ENDBRANCH   4   7
TORSDOF 1
ENDMDL
