MODEL 1
REMARK minimizedAffinity 1.83740306
REMARK minimizedRMSD -1
REMARK  1 active torsions:
REMARK  status: ('A' for Active; 'I' for Inactive)
REMARK    1  A    between atoms: C3_4  and  O_7 
ROOT
ATOM      1  C   UNL d   1      -2.289  -0.183  -1.788  0.00  0.00    -0.033 A 
ATOM      2  C1  UNL d   1      -3.073   0.914  -2.151  0.00  0.00     0.039 A 
ATOM      3  C2  UNL d   1      -2.534   1.924  -2.951  0.00  0.00    -0.080 A 
ATOM      4  C3  UNL d   1      -1.214   1.824  -3.381  0.00  0.00     0.150 A 
ATOM      5  C4  UNL d   1      -0.429   0.732  -3.026  0.00  0.00    -0.007 A 
ATOM      6  C5  UNL d   1      -0.968  -0.275  -2.226  0.00  0.00     0.039 A 
ENDROOT
BRANCH   4   7
ATOM      7  O   UNL d   1      -0.643   2.787  -4.159  0.00  0.00    -0.526 OA
ATOM      8  H5  UNL d   1      -1.295   3.494  -4.301  0.00  0.00     0.418 HD
ENDBRANCH   4   7
TORSDOF 1
ENDMDL
