MODEL 1
REMARK minimizedAffinity 1.44877708
REMARK minimizedRMSD -1
REMARK  1 active torsions:
REMARK  status: ('A' for Active; 'I' for Inactive)
REMARK    1  A    between atoms: C3_4  and  O_7 
ROOT
ATOM      1  C   UNL d   1      -2.684  -1.123  -0.626  0.00  0.00    -0.033 A 
ATOM      2  C1  UNL d   1      -1.400  -1.379  -1.110  0.00  0.00     0.039 A 
ATOM      3  C2  UNL d   1      -0.800  -0.493  -2.007  0.00  0.00    -0.080 A 
ATOM      4  C3  UNL d   1      -1.493   0.645  -2.410  0.00  0.00     0.150 A 
ATOM      5  C4  UNL d   1      -2.771   0.909  -1.928  0.00  0.00    -0.007 A 
ATOM      6  C5  UNL d   1      -3.369   0.022  -1.034  0.00  0.00     0.039 A 
ENDROOT
BRANCH   4   7
ATOM      7  O   UNL d   1      -0.951   1.537  -3.287  0.00  0.00    -0.526 OA
ATOM      8  H5  UNL d   1      -0.076   1.210  -3.557  0.00  0.00     0.418 HD
ENDBRANCH   4   7
TORSDOF 1
ENDMDL
