MODEL 1
REMARK minimizedAffinity 5.81696081
REMARK minimizedRMSD -1
REMARK  1 active torsions:
REMARK  status: ('A' for Active; 'I' for Inactive)
REMARK    1  A    between atoms: C3_4  and  O_7 
ROOT
ATOM      1  C   UNL d   1      -2.755   0.426   0.525  0.00  0.00    -0.033 A 
ATOM      2  C1  UNL d   1      -3.856  -0.343   0.146  0.00  0.00     0.039 A 
ATOM      3  C2  UNL d   1      -3.774  -1.183  -0.967  0.00  0.00    -0.080 A 
ATOM      4  C3  UNL d   1      -2.586  -1.244  -1.690  0.00  0.00     0.150 A 
ATOM      5  C4  UNL d   1      -1.483  -0.483  -1.316  0.00  0.00    -0.007 A 
ATOM      6  C5  UNL d   1      -1.568   0.355  -0.205  0.00  0.00     0.039 A 
ENDROOT
BRANCH   4   7
ATOM      7  O   UNL d   1      -2.460  -2.045  -2.787  0.00  0.00    -0.526 OA
ATOM      8  H5  UNL d   1      -3.310  -2.489  -2.943  0.00  0.00     0.418 HD
ENDBRANCH   4   7
TORSDOF 1
ENDMDL
