MODEL 1
REMARK minimizedAffinity -2.05786729
REMARK minimizedRMSD -1
REMARK  1 active torsions:
REMARK  status: ('A' for Active; 'I' for Inactive)
REMARK    1  A    between atoms: C3_4  and  O_7 
ROOT
ATOM      1  C   UNL d   1       5.999   3.344  -3.092  0.00  0.00    -0.033 A 
ATOM      2  C1  UNL d   1       5.174   4.452  -3.292  0.00  0.00     0.039 A 
ATOM      3  C2  UNL d   1       4.107   4.696  -2.425  0.00  0.00    -0.080 A 
ATOM      4  C3  UNL d   1       3.877   3.827  -1.363  0.00  0.00     0.150 A 
ATOM      5  C4  UNL d   1       4.698   2.723  -1.155  0.00  0.00    -0.007 A 
ATOM      6  C5  UNL d   1       5.762   2.480  -2.022  0.00  0.00     0.039 A 
ENDROOT
BRANCH   4   7
ATOM      7  O   UNL d   1       2.845   4.021  -0.493  0.00  0.00    -0.526 OA
ATOM      8  H5  UNL d   1       2.347   4.805  -0.778  0.00  0.00     0.418 HD
ENDBRANCH   4   7
TORSDOF 1
ENDMDL
