MODEL 1
REMARK minimizedAffinity 2.40322208
REMARK minimizedRMSD -1
REMARK  1 active torsions:
REMARK  status: ('A' for Active; 'I' for Inactive)
REMARK    1  A    between atoms: C3_4  and  O_7 
ROOT
ATOM      1  C   UNL d   1      -3.075   0.166  -0.937  0.00  0.00    -0.033 A 
ATOM      2  C1  UNL d   1      -2.372  -0.992  -0.598  0.00  0.00     0.039 A 
ATOM      3  C2  UNL d   1      -1.122  -1.243  -1.166  0.00  0.00    -0.080 A 
ATOM      4  C3  UNL d   1      -0.586  -0.330  -2.070  0.00  0.00     0.150 A 
ATOM      5  C4  UNL d   1      -1.280   0.827  -2.410  0.00  0.00    -0.007 A 
ATOM      6  C5  UNL d   1      -2.528   1.076  -1.841  0.00  0.00     0.039 A 
ENDROOT
BRANCH   4   7
ATOM      7  O   UNL d   1       0.628  -0.535  -2.655  0.00  0.00    -0.526 OA
ATOM      8  H5  UNL d   1       0.977  -1.388  -2.348  0.00  0.00     0.418 HD
ENDBRANCH   4   7
TORSDOF 1
ENDMDL
