MODEL 1
REMARK minimizedAffinity 5.82235622
REMARK minimizedRMSD -1
REMARK  1 active torsions:
REMARK  status: ('A' for Active; 'I' for Inactive)
REMARK    1  A    between atoms: C3_4  and  O_7 
ROOT
ATOM      1  C   UNL d   1       2.527   1.551   0.764  0.00  0.00    -0.033 A 
ATOM      2  C1  UNL d   1       2.916   1.257  -0.545  0.00  0.00     0.039 A 
ATOM      3  C2  UNL d   1       3.279   2.286  -1.415  0.00  0.00    -0.080 A 
ATOM      4  C3  UNL d   1       3.251   3.603  -0.965  0.00  0.00     0.150 A 
ATOM      5  C4  UNL d   1       2.868   3.903   0.339  0.00  0.00    -0.007 A 
ATOM      6  C5  UNL d   1       2.504   2.874   1.206  0.00  0.00     0.039 A 
ENDROOT
BRANCH   4   7
ATOM      7  O   UNL d   1       3.592   4.642  -1.779  0.00  0.00    -0.526 OA
ATOM      8  H5  UNL d   1       3.807   4.287  -2.658  0.00  0.00     0.418 HD
ENDBRANCH   4   7
TORSDOF 1
ENDMDL
