MODEL 1
REMARK minimizedAffinity 10.5048418
REMARK minimizedRMSD -1
REMARK  0 active torsions:
REMARK  status: ('A' for Active; 'I' for Inactive)
ROOT
ATOM      1  C   UNL d   1       0.387  -3.632   1.381  0.00  0.00     0.020 A 
ATOM      2  C1  UNL d   1      -0.980  -3.363   1.354  0.00  0.00     0.020 A 
ATOM      3  C2  UNL d   1      -1.431  -2.042   1.292  0.00  0.00     0.034 A 
ATOM      4  C3  UNL d   1      -0.513  -0.986   1.257  0.00  0.00     0.017 A 
ATOM      5  C4  UNL d   1       0.859  -1.257   1.284  0.00  0.00     0.017 A 
ATOM      6  C5  UNL d   1       1.305  -2.581   1.346  0.00  0.00     0.034 A 
ATOM      7 Cl   UNL d   1       2.052  -0.007   1.243  0.00  0.00    -0.070 Cl
ATOM      8 Cl1  UNL d   1      -1.141   0.622   1.181  0.00  0.00    -0.070 Cl
ENDROOT
TORSDOF 0
ENDMDL
