MODEL 1
REMARK minimizedAffinity 12.0962944
REMARK minimizedRMSD -1
REMARK  0 active torsions:
REMARK  status: ('A' for Active; 'I' for Inactive)
ROOT
ATOM      1  C   UNL d   1       2.154  -2.792   2.564  0.00  0.00     0.020 A 
ATOM      2  C1  UNL d   1       1.171  -2.143   3.310  0.00  0.00     0.020 A 
ATOM      3  C2  UNL d   1       0.816  -0.828   3.003  0.00  0.00     0.034 A 
ATOM      4  C3  UNL d   1       1.444  -0.157   1.947  0.00  0.00     0.017 A 
ATOM      5  C4  UNL d   1       2.431  -0.810   1.199  0.00  0.00     0.017 A 
ATOM      6  C5  UNL d   1       2.783  -2.126   1.511  0.00  0.00     0.034 A 
ATOM      7 Cl   UNL d   1       3.250  -0.048  -0.119  0.00  0.00    -0.070 Cl
ATOM      8 Cl1  UNL d   1       0.954   1.467   1.622  0.00  0.00    -0.070 Cl
ENDROOT
TORSDOF 0
ENDMDL
