MODEL 1
REMARK minimizedAffinity 13.9190741
REMARK minimizedRMSD -1
REMARK  0 active torsions:
REMARK  status: ('A' for Active; 'I' for Inactive)
ROOT
ATOM      1  C   UNL d   1       0.180  -1.144   3.076  0.00  0.00     0.020 A 
ATOM      2  C1  UNL d   1       0.260  -0.030   2.241  0.00  0.00     0.020 A 
ATOM      3  C2  UNL d   1       1.335   0.106   1.360  0.00  0.00     0.034 A 
ATOM      4  C3  UNL d   1       2.335  -0.873   1.313  0.00  0.00     0.017 A 
ATOM      5  C4  UNL d   1       2.253  -1.990   2.152  0.00  0.00     0.017 A 
ATOM      6  C5  UNL d   1       1.175  -2.121   3.032  0.00  0.00     0.034 A 
ATOM      7 Cl   UNL d   1       3.448  -3.239   2.151  0.00  0.00    -0.070 Cl
ATOM      8 Cl1  UNL d   1       3.635  -0.640   0.199  0.00  0.00    -0.070 Cl
ENDROOT
TORSDOF 0
ENDMDL
