MODEL 1
REMARK minimizedAffinity 12.3407793
REMARK minimizedRMSD -1
REMARK  0 active torsions:
REMARK  status: ('A' for Active; 'I' for Inactive)
ROOT
ATOM      1  C   UNL d   1       1.360  -2.304   1.544  0.00  0.00     0.020 A 
ATOM      2  C1  UNL d   1       1.688  -0.954   1.661  0.00  0.00     0.020 A 
ATOM      3  C2  UNL d   1       1.503  -0.293   2.877  0.00  0.00     0.034 A 
ATOM      4  C3  UNL d   1       0.988  -0.983   3.981  0.00  0.00     0.017 A 
ATOM      5  C4  UNL d   1       0.660  -2.338   3.863  0.00  0.00     0.017 A 
ATOM      6  C5  UNL d   1       0.847  -2.995   2.642  0.00  0.00     0.034 A 
ATOM      7 Cl   UNL d   1       0.020  -3.256   5.181  0.00  0.00    -0.070 Cl
ATOM      8 Cl1  UNL d   1       0.786  -0.103   5.454  0.00  0.00    -0.070 Cl
ENDROOT
TORSDOF 0
ENDMDL
