MODEL 1
REMARK minimizedAffinity 11.2163076
REMARK minimizedRMSD -1
REMARK  0 active torsions:
REMARK  status: ('A' for Active; 'I' for Inactive)
ROOT
ATOM      1  C   UNL d   1       1.064  -2.621   3.735  0.00  0.00     0.020 A 
ATOM      2  C1  UNL d   1       0.381  -1.517   4.243  0.00  0.00     0.020 A 
ATOM      3  C2  UNL d   1       0.582  -0.254   3.682  0.00  0.00     0.034 A 
ATOM      4  C3  UNL d   1       1.467  -0.092   2.610  0.00  0.00     0.017 A 
ATOM      5  C4  UNL d   1       2.153  -1.201   2.102  0.00  0.00     0.017 A 
ATOM      6  C5  UNL d   1       1.948  -2.464   2.667  0.00  0.00     0.034 A 
ATOM      7 Cl   UNL d   1       3.261  -1.081   0.781  0.00  0.00    -0.070 Cl
ATOM      8 Cl1  UNL d   1       1.667   1.498   1.965  0.00  0.00    -0.070 Cl
ENDROOT
TORSDOF 0
ENDMDL
