MODEL 1
REMARK minimizedAffinity 5.91079807
REMARK minimizedRMSD -1
REMARK  0 active torsions:
REMARK  status: ('A' for Active; 'I' for Inactive)
ROOT
ATOM      1  C   UNL d   1      -5.526  -5.886  -5.548  0.00  0.00     0.020 A 
ATOM      2  C1  UNL d   1      -4.637  -5.991  -4.479  0.00  0.00     0.020 A 
ATOM      3  C2  UNL d   1      -4.152  -4.838  -3.858  0.00  0.00     0.034 A 
ATOM      4  C3  UNL d   1      -4.556  -3.575  -4.306  0.00  0.00     0.017 A 
ATOM      5  C4  UNL d   1      -5.448  -3.471  -5.380  0.00  0.00     0.017 A 
ATOM      6  C5  UNL d   1      -5.931  -4.629  -5.997  0.00  0.00     0.034 A 
ATOM      7 Cl   UNL d   1      -5.992  -1.947  -5.988  0.00  0.00    -0.070 Cl
ATOM      8 Cl1  UNL d   1      -3.917  -2.191  -3.492  0.00  0.00    -0.070 Cl
ENDROOT
TORSDOF 0
ENDMDL
