MODEL 1
REMARK minimizedAffinity 5.49807739
REMARK minimizedRMSD -1
REMARK  0 active torsions:
REMARK  status: ('A' for Active; 'I' for Inactive)
ROOT
ATOM      1  C   UNL d   1       0.461  -1.153   2.184  0.00  0.00     0.020 A 
ATOM      2  C1  UNL d   1       1.047  -1.858   3.235  0.00  0.00     0.020 A 
ATOM      3  C2  UNL d   1       2.408  -2.169   3.193  0.00  0.00     0.034 A 
ATOM      4  C3  UNL d   1       3.186  -1.777   2.099  0.00  0.00     0.017 A 
ATOM      5  C4  UNL d   1       2.597  -1.069   1.045  0.00  0.00     0.017 A 
ATOM      6  C5  UNL d   1       1.234  -0.760   1.092  0.00  0.00     0.034 A 
ATOM      7 Cl   UNL d   1       3.493  -0.551  -0.339  0.00  0.00    -0.070 Cl
ATOM      8 Cl1  UNL d   1       4.863  -2.195   2.114  0.00  0.00    -0.070 Cl
ENDROOT
TORSDOF 0
ENDMDL
