MODEL 1
REMARK minimizedAffinity 5.39086485
REMARK minimizedRMSD -1
REMARK  0 active torsions:
REMARK  status: ('A' for Active; 'I' for Inactive)
ROOT
ATOM      1  C   UNL d   1       0.722  -6.000  -1.959  0.00  0.00     0.020 A 
ATOM      2  C1  UNL d   1       2.014  -5.833  -1.462  0.00  0.00     0.020 A 
ATOM      3  C2  UNL d   1       2.219  -5.666  -0.091  0.00  0.00     0.034 A 
ATOM      4  C3  UNL d   1       1.130  -5.666   0.788  0.00  0.00     0.017 A 
ATOM      5  C4  UNL d   1      -0.167  -5.833   0.289  0.00  0.00     0.017 A 
ATOM      6  C5  UNL d   1      -0.366  -6.000  -1.085  0.00  0.00     0.034 A 
ATOM      7 Cl   UNL d   1      -1.560  -5.844   1.312  0.00  0.00    -0.070 Cl
ATOM      8 Cl1  UNL d   1       1.456  -5.455   2.472  0.00  0.00    -0.070 Cl
ENDROOT
TORSDOF 0
ENDMDL
