MODEL 1
REMARK minimizedAffinity 17.532074
REMARK minimizedRMSD -1
REMARK  0 active torsions:
REMARK  status: ('A' for Active; 'I' for Inactive)
ROOT
ATOM      1  C   UNL d   1       1.829  -0.353   1.272  0.00  0.00     0.020 A 
ATOM      2  C1  UNL d   1       1.171   0.169   2.385  0.00  0.00     0.020 A 
ATOM      3  C2  UNL d   1       0.790  -0.674   3.431  0.00  0.00     0.034 A 
ATOM      4  C3  UNL d   1       1.065  -2.045   3.365  0.00  0.00     0.017 A 
ATOM      5  C4  UNL d   1       1.726  -2.568   2.248  0.00  0.00     0.017 A 
ATOM      6  C5  UNL d   1       2.105  -1.719   1.204  0.00  0.00     0.034 A 
ATOM      7 Cl   UNL d   1       2.101  -4.249   2.095  0.00  0.00    -0.070 Cl
ATOM      8 Cl1  UNL d   1       0.565  -3.030   4.694  0.00  0.00    -0.070 Cl
ENDROOT
TORSDOF 0
ENDMDL
