MODEL 1
REMARK minimizedAffinity -1.16943455
REMARK minimizedRMSD -1
REMARK  0 active torsions:
REMARK  status: ('A' for Active; 'I' for Inactive)
ROOT
ATOM      1  C   UNL d   1       4.493   3.066  -5.799  0.00  0.00     0.020 A 
ATOM      2  C1  UNL d   1       3.457   3.162  -4.870  0.00  0.00     0.020 A 
ATOM      3  C2  UNL d   1       3.065   2.037  -4.143  0.00  0.00     0.034 A 
ATOM      4  C3  UNL d   1       3.708   0.810  -4.342  0.00  0.00     0.017 A 
ATOM      5  C4  UNL d   1       4.748   0.714  -5.274  0.00  0.00     0.017 A 
ATOM      6  C5  UNL d   1       5.137   1.844  -6.000  0.00  0.00     0.034 A 
ATOM      7 Cl   UNL d   1       5.589  -0.765  -5.575  0.00  0.00    -0.070 Cl
ATOM      8 Cl1  UNL d   1       3.171  -0.540  -3.407  0.00  0.00    -0.070 Cl
ENDROOT
TORSDOF 0
ENDMDL
