MODEL 1
REMARK minimizedAffinity 15.2076893
REMARK minimizedRMSD -1
REMARK  0 active torsions:
REMARK  status: ('A' for Active; 'I' for Inactive)
ROOT
ATOM      1  C   UNL d   1       2.156   0.669   2.216  0.00  0.00     0.020 A 
ATOM      2  C1  UNL d   1       1.806  -0.584   1.715  0.00  0.00     0.020 A 
ATOM      3  C2  UNL d   1       1.163  -1.511   2.540  0.00  0.00     0.034 A 
ATOM      4  C3  UNL d   1       0.869  -1.186   3.869  0.00  0.00     0.017 A 
ATOM      5  C4  UNL d   1       1.220   0.073   4.370  0.00  0.00     0.017 A 
ATOM      6  C5  UNL d   1       1.863   0.997   3.541  0.00  0.00     0.034 A 
ATOM      7 Cl   UNL d   1       0.890   0.547   5.999  0.00  0.00    -0.070 Cl
ATOM      8 Cl1  UNL d   1       0.073  -2.380   4.831  0.00  0.00    -0.070 Cl
ENDROOT
TORSDOF 0
ENDMDL
