MODEL 1
REMARK minimizedAffinity -3.7475493
REMARK minimizedRMSD -1
REMARK  0 active torsions:
REMARK  status: ('A' for Active; 'I' for Inactive)
ROOT
ATOM      1  C   UNL d   1      -0.777   0.848  -0.099  0.00  0.00     0.172 C 
ATOM      2  N   UNL d   1      -0.093  -0.307   0.432  0.00  0.00    -0.070 N 
ATOM      3  C1  UNL d   1       1.105  -0.800  -0.014  0.00  0.00    -0.004 A 
ATOM      4  C2  UNL d   1       1.416  -1.905   0.748  0.00  0.00    -0.047 A 
ATOM      5  C3  UNL d   1       0.369  -2.083   1.684  0.00  0.00    -0.047 A 
ATOM      6  C4  UNL d   1      -0.551  -1.080   1.466  0.00  0.00    -0.004 A 
ENDROOT
TORSDOF 0
ENDMDL
