MODEL 1
REMARK minimizedAffinity -3.82649779
REMARK minimizedRMSD -1
REMARK  0 active torsions:
REMARK  status: ('A' for Active; 'I' for Inactive)
ROOT
ATOM      1  C   UNL d   1      -0.969   0.633  -0.048  0.00  0.00     0.172 C 
ATOM      2  N   UNL d   1       0.071  -0.369  -0.028  0.00  0.00    -0.070 N 
ATOM      3  C1  UNL d   1       1.413  -0.128  -0.146  0.00  0.00    -0.004 A 
ATOM      4  C2  UNL d   1       2.067  -1.340  -0.078  0.00  0.00    -0.047 A 
ATOM      5  C3  UNL d   1       1.083  -2.343   0.085  0.00  0.00    -0.047 A 
ATOM      6  C4  UNL d   1      -0.144  -1.714   0.113  0.00  0.00    -0.004 A 
ENDROOT
TORSDOF 0
ENDMDL
