MODEL 1
REMARK minimizedAffinity -4.35817242
REMARK minimizedRMSD -1
REMARK  0 active torsions:
REMARK  status: ('A' for Active; 'I' for Inactive)
ROOT
ATOM      1  C   UNL d   1      -0.087   0.394   0.112  0.00  0.00     0.172 C 
ATOM      2  N   UNL d   1       0.153  -0.822   0.852  0.00  0.00    -0.070 N 
ATOM      3  C1  UNL d   1       1.166  -1.713   0.618  0.00  0.00    -0.004 A 
ATOM      4  C2  UNL d   1       1.050  -2.735   1.535  0.00  0.00    -0.047 A 
ATOM      5  C3  UNL d   1      -0.073  -2.449   2.348  0.00  0.00    -0.047 A 
ATOM      6  C4  UNL d   1      -0.610  -1.259   1.903  0.00  0.00    -0.004 A 
ENDROOT
TORSDOF 0
ENDMDL
