MODEL 1
REMARK minimizedAffinity -3.14751911
REMARK minimizedRMSD -1
REMARK  0 active torsions:
REMARK  status: ('A' for Active; 'I' for Inactive)
ROOT
ATOM      1  C   UNL d   1      -0.477   0.722  -0.541  0.00  0.00     0.172 C 
ATOM      2  N   UNL d   1       0.399  -0.315  -0.048  0.00  0.00    -0.070 N 
ATOM      3  C1  UNL d   1       1.742  -0.413  -0.300  0.00  0.00    -0.004 A 
ATOM      4  C2  UNL d   1       2.212  -1.535   0.346  0.00  0.00    -0.047 A 
ATOM      5  C3  UNL d   1       1.114  -2.133   1.009  0.00  0.00    -0.047 A 
ATOM      6  C4  UNL d   1       0.004  -1.357   0.748  0.00  0.00    -0.004 A 
ENDROOT
TORSDOF 0
ENDMDL
