MODEL 1
REMARK minimizedAffinity -4.15344238
REMARK minimizedRMSD -1
REMARK  0 active torsions:
REMARK  status: ('A' for Active; 'I' for Inactive)
ROOT
ATOM      1  C   UNL d   1       1.330   0.008  -0.524  0.00  0.00     0.172 C 
ATOM      2  N   UNL d   1       1.102  -1.007   0.478  0.00  0.00    -0.070 N 
ATOM      3  C1  UNL d   1       2.044  -1.871   0.969  0.00  0.00    -0.004 A 
ATOM      4  C2  UNL d   1       1.431  -2.677   1.904  0.00  0.00    -0.047 A 
ATOM      5  C3  UNL d   1       0.073  -2.284   1.976  0.00  0.00    -0.047 A 
ATOM      6  C4  UNL d   1      -0.103  -1.249   1.083  0.00  0.00    -0.004 A 
ENDROOT
TORSDOF 0
ENDMDL
