MODEL 1
REMARK minimizedAffinity -2.46153903
REMARK minimizedRMSD -1
REMARK  0 active torsions:
REMARK  status: ('A' for Active; 'I' for Inactive)
ROOT
ATOM      1  C   UNL d   1      -1.629  -1.741   2.542  0.00  0.00     0.172 C 
ATOM      2  N   UNL d   1      -0.366  -1.838   1.849  0.00  0.00    -0.070 N 
ATOM      3  C1  UNL d   1      -0.022  -1.149   0.716  0.00  0.00    -0.004 A 
ATOM      4  C2  UNL d   1       1.260  -1.518   0.371  0.00  0.00    -0.047 A 
ATOM      5  C3  UNL d   1       1.702  -2.462   1.328  0.00  0.00    -0.047 A 
ATOM      6  C4  UNL d   1       0.676  -2.642   2.232  0.00  0.00    -0.004 A 
ENDROOT
TORSDOF 0
ENDMDL
