MODEL 1
REMARK minimizedAffinity -2.84937429
REMARK minimizedRMSD -1
REMARK  0 active torsions:
REMARK  status: ('A' for Active; 'I' for Inactive)
ROOT
ATOM      1  C   UNL d   1      -1.013   0.198   0.707  0.00  0.00     0.172 C 
ATOM      2  N   UNL d   1      -0.174  -0.860   1.217  0.00  0.00    -0.070 N 
ATOM      3  C1  UNL d   1      -0.350  -1.516   2.407  0.00  0.00    -0.004 A 
ATOM      4  C2  UNL d   1       0.655  -2.451   2.526  0.00  0.00    -0.047 A 
ATOM      5  C3  UNL d   1       1.463  -2.354   1.369  0.00  0.00    -0.047 A 
ATOM      6  C4  UNL d   1       0.928  -1.362   0.575  0.00  0.00    -0.004 A 
ENDROOT
TORSDOF 0
ENDMDL
