MODEL 1
REMARK minimizedAffinity -2.9085412
REMARK minimizedRMSD -1
REMARK  0 active torsions:
REMARK  status: ('A' for Active; 'I' for Inactive)
ROOT
ATOM      1  C   UNL d   1      -0.629   1.170  -0.038  0.00  0.00     0.172 C 
ATOM      2  N   UNL d   1      -1.194   1.418  -1.343  0.00  0.00    -0.070 N 
ATOM      3  C1  UNL d   1      -0.839   2.437  -2.186  0.00  0.00    -0.004 A 
ATOM      4  C2  UNL d   1      -1.604   2.328  -3.327  0.00  0.00    -0.047 A 
ATOM      5  C3  UNL d   1      -2.450   1.205  -3.163  0.00  0.00    -0.047 A 
ATOM      6  C4  UNL d   1      -2.175   0.660  -1.927  0.00  0.00    -0.004 A 
ENDROOT
TORSDOF 0
ENDMDL
