MODEL 1
REMARK minimizedAffinity -3.99680376
REMARK minimizedRMSD -1
REMARK  0 active torsions:
REMARK  status: ('A' for Active; 'I' for Inactive)
ROOT
ATOM      1  C   UNL d   1      -0.440   0.682  -0.033  0.00  0.00     0.172 C 
ATOM      2  N   UNL d   1       0.160  -0.504   0.530  0.00  0.00    -0.070 N 
ATOM      3  C1  UNL d   1      -0.364  -1.260   1.544  0.00  0.00    -0.004 A 
ATOM      4  C2  UNL d   1       0.506  -2.300   1.789  0.00  0.00    -0.047 A 
ATOM      5  C3  UNL d   1       1.592  -2.164   0.891  0.00  0.00    -0.047 A 
ATOM      6  C4  UNL d   1       1.352  -1.044   0.124  0.00  0.00    -0.004 A 
ENDROOT
TORSDOF 0
ENDMDL
