MODEL 1
REMARK minimizedAffinity -1.61796677
REMARK minimizedRMSD -1
REMARK  0 active torsions:
REMARK  status: ('A' for Active; 'I' for Inactive)
ROOT
ATOM      1  C   UNL d   1       1.882  -2.202   1.535  0.00  0.00     0.172 C 
ATOM      2  N   UNL d   1       1.264  -1.153   0.760  0.00  0.00    -0.070 N 
ATOM      3  C1  UNL d   1      -0.035  -0.736   0.873  0.00  0.00    -0.004 A 
ATOM      4  C2  UNL d   1      -0.234   0.280  -0.037  0.00  0.00    -0.047 A 
ATOM      5  C3  UNL d   1       0.989   0.480  -0.721  0.00  0.00    -0.047 A 
ATOM      6  C4  UNL d   1       1.899  -0.420  -0.208  0.00  0.00    -0.004 A 
ENDROOT
TORSDOF 0
ENDMDL
