MODEL 1
REMARK minimizedAffinity -4.27618027
REMARK minimizedRMSD -1
REMARK  0 active torsions:
REMARK  status: ('A' for Active; 'I' for Inactive)
ROOT
ATOM      1  C   UNL d   1      -0.187   0.531   0.281  0.00  0.00     0.172 C 
ATOM      2  N   UNL d   1       0.244  -0.705   0.891  0.00  0.00    -0.070 N 
ATOM      3  C1  UNL d   1      -0.311  -1.284   2.000  0.00  0.00    -0.004 A 
ATOM      4  C2  UNL d   1       0.382  -2.446   2.262  0.00  0.00    -0.047 A 
ATOM      5  C3  UNL d   1       1.389  -2.570   1.275  0.00  0.00    -0.047 A 
ATOM      6  C4  UNL d   1       1.281  -1.478   0.440  0.00  0.00    -0.004 A 
ENDROOT
TORSDOF 0
ENDMDL
