MODEL 1
REMARK minimizedAffinity -2.09664965
REMARK minimizedRMSD -1
REMARK  0 active torsions:
REMARK  status: ('A' for Active; 'I' for Inactive)
ROOT
ATOM      1  C   UNL d   1       1.825   0.548  -0.767  0.00  0.00     0.172 C 
ATOM      2  N   UNL d   1       1.380  -0.637  -0.071  0.00  0.00    -0.070 N 
ATOM      3  C1  UNL d   1       0.100  -0.882   0.350  0.00  0.00    -0.004 A 
ATOM      4  C2  UNL d   1       0.088  -2.114   0.967  0.00  0.00    -0.047 A 
ATOM      5  C3  UNL d   1       1.406  -2.627   0.916  0.00  0.00    -0.047 A 
ATOM      6  C4  UNL d   1       2.185  -1.693   0.267  0.00  0.00    -0.004 A 
ENDROOT
TORSDOF 0
ENDMDL
