MODEL 1
REMARK minimizedAffinity -2.86526155
REMARK minimizedRMSD -1
REMARK  0 active torsions:
REMARK  status: ('A' for Active; 'I' for Inactive)
ROOT
ATOM      1  C   UNL d   1      -0.408   0.059   0.004  0.00  0.00     0.172 C 
ATOM      2  N   UNL d   1       0.448  -0.858   0.720  0.00  0.00    -0.070 N 
ATOM      3  C1  UNL d   1       0.118  -1.527   1.868  0.00  0.00    -0.004 A 
ATOM      4  C2  UNL d   1       1.200  -2.299   2.233  0.00  0.00    -0.047 A 
ATOM      5  C3  UNL d   1       2.216  -2.085   1.271  0.00  0.00    -0.047 A 
ATOM      6  C4  UNL d   1       1.724  -1.189   0.346  0.00  0.00    -0.004 A 
ENDROOT
TORSDOF 0
ENDMDL
