MODEL 1
REMARK minimizedAffinity -0.988949656
REMARK minimizedRMSD -1
REMARK  0 active torsions:
REMARK  status: ('A' for Active; 'I' for Inactive)
ROOT
ATOM      1  C   UNL d   1       2.046  -1.819   0.702  0.00  0.00     0.172 C 
ATOM      2  N   UNL d   1       1.044  -0.839   0.358  0.00  0.00    -0.070 N 
ATOM      3  C1  UNL d   1       1.215   0.209  -0.507  0.00  0.00    -0.004 A 
ATOM      4  C2  UNL d   1       0.029   0.908  -0.564  0.00  0.00    -0.047 A 
ATOM      5  C3  UNL d   1      -0.887   0.259   0.298  0.00  0.00    -0.047 A 
ATOM      6  C4  UNL d   1      -0.232  -0.819   0.856  0.00  0.00    -0.004 A 
ENDROOT
TORSDOF 0
ENDMDL
