MODEL 1
REMARK minimizedAffinity -1.51487231
REMARK minimizedRMSD -1
REMARK  0 active torsions:
REMARK  status: ('A' for Active; 'I' for Inactive)
ROOT
ATOM      1  C   UNL d   1      -0.754   1.041   0.093  0.00  0.00     0.172 C 
ATOM      2  N   UNL d   1      -1.494   1.416  -1.088  0.00  0.00    -0.070 N 
ATOM      3  C1  UNL d   1      -2.716   0.918  -1.456  0.00  0.00    -0.004 A 
ATOM      4  C2  UNL d   1      -3.081   1.526  -2.637  0.00  0.00    -0.047 A 
ATOM      5  C3  UNL d   1      -2.043   2.421  -2.992  0.00  0.00    -0.047 A 
ATOM      6  C4  UNL d   1      -1.074   2.332  -2.016  0.00  0.00    -0.004 A 
ENDROOT
TORSDOF 0
ENDMDL
