MODEL 1
REMARK minimizedAffinity 16.0883942
REMARK minimizedRMSD -1
REMARK  1 active torsions:
REMARK  status: ('A' for Active; 'I' for Inactive)
REMARK    1  A    between atoms: C1_2  and  C2_3 
ROOT
ATOM      1  C2  UNL d   1       2.481   0.608  -2.052  0.00  0.00    -0.073 A 
ATOM      2  C3  UNL d   1       3.006   1.757  -1.450  0.00  0.00    -0.002 A 
ATOM      3  C4  UNL d   1       3.994   1.651  -0.470  0.00  0.00     0.004 A 
ATOM      4  C5  UNL d   1       4.473   0.398  -0.088  0.00  0.00    -0.004 A 
ATOM      5  C6  UNL d   1       3.970  -0.762  -0.687  0.00  0.00    -0.075 A 
ATOM      6  C7  UNL d   1       4.472  -2.117  -0.286  0.00  0.00     0.076 C 
ATOM      7  C8  UNL d   1       2.975  -0.647  -1.668  0.00  0.00     0.001 A 
ENDROOT
BRANCH   1   8
ATOM      8  C1  UNL d   1       1.418   0.717  -3.114  0.00  0.00     0.053 C 
ATOM      9  C   UNL d   1       1.486  -0.432  -4.108  0.00  0.00     0.018 C 
ENDBRANCH   1   8
TORSDOF 1
ENDMDL
