MODEL 1
REMARK minimizedAffinity 12.1963415
REMARK minimizedRMSD -1
REMARK  1 active torsions:
REMARK  status: ('A' for Active; 'I' for Inactive)
REMARK    1  A    between atoms: C1_2  and  C2_3 
ROOT
ATOM      1  C2  UNL d   1      -3.716   1.141   5.150  0.00  0.00    -0.073 A 
ATOM      2  C3  UNL d   1      -3.983   1.283   3.784  0.00  0.00    -0.002 A 
ATOM      3  C4  UNL d   1      -4.273   0.164   3.002  0.00  0.00     0.004 A 
ATOM      4  C5  UNL d   1      -4.304  -1.106   3.578  0.00  0.00    -0.004 A 
ATOM      5  C6  UNL d   1      -4.051  -1.267   4.944  0.00  0.00    -0.075 A 
ATOM      6  C7  UNL d   1      -4.079  -2.627   5.578  0.00  0.00     0.076 C 
ATOM      7  C8  UNL d   1      -3.759  -0.139   5.722  0.00  0.00     0.001 A 
ENDROOT
BRANCH   1   8
ATOM      8  C1  UNL d   1      -3.409   2.347   6.000  0.00  0.00     0.053 C 
ATOM      9  C   UNL d   1      -4.552   3.350   5.999  0.00  0.00     0.018 C 
ENDBRANCH   1   8
TORSDOF 1
ENDMDL
