MODEL 1
REMARK minimizedAffinity 4.63231277
REMARK minimizedRMSD -1
REMARK  1 active torsions:
REMARK  status: ('A' for Active; 'I' for Inactive)
REMARK    1  A    between atoms: C1_2  and  C2_3 
ROOT
ATOM      1  C2  UNL d   1       0.218  -2.869  -1.739  0.00  0.00    -0.073 A 
ATOM      2  C3  UNL d   1       1.245  -3.628  -1.169  0.00  0.00    -0.002 A 
ATOM      3  C4  UNL d   1       2.452  -3.025  -0.811  0.00  0.00     0.004 A 
ATOM      4  C5  UNL d   1       2.640  -1.658  -1.013  0.00  0.00    -0.004 A 
ATOM      5  C6  UNL d   1       1.621  -0.880  -1.571  0.00  0.00    -0.075 A 
ATOM      6  C7  UNL d   1       1.809   0.592  -1.796  0.00  0.00     0.076 C 
ATOM      7  C8  UNL d   1       0.413  -1.493  -1.930  0.00  0.00     0.001 A 
ENDROOT
BRANCH   1   8
ATOM      8  C1  UNL d   1      -1.089  -3.514  -2.122  0.00  0.00     0.053 C 
ATOM      9  C   UNL d   1      -0.890  -4.907  -2.698  0.00  0.00     0.018 C 
ENDBRANCH   1   8
TORSDOF 1
ENDMDL
