MODEL 1
REMARK minimizedAffinity 24.1392784
REMARK minimizedRMSD -1
REMARK  1 active torsions:
REMARK  status: ('A' for Active; 'I' for Inactive)
REMARK    1  A    between atoms: C1_2  and  C2_3 
ROOT
ATOM      1  C2  UNL d   1      -0.026  -5.324  -2.394  0.00  0.00    -0.073 A 
ATOM      2  C3  UNL d   1      -0.392  -4.067  -1.901  0.00  0.00    -0.002 A 
ATOM      3  C4  UNL d   1       0.382  -3.442  -0.921  0.00  0.00     0.004 A 
ATOM      4  C5  UNL d   1       1.530  -4.063  -0.431  0.00  0.00    -0.004 A 
ATOM      5  C6  UNL d   1       1.918  -5.314  -0.921  0.00  0.00    -0.075 A 
ATOM      6  C7  UNL d   1       3.150  -5.997  -0.402  0.00  0.00     0.076 C 
ATOM      7  C8  UNL d   1       1.135  -5.937  -1.902  0.00  0.00     0.001 A 
ENDROOT
BRANCH   1   8
ATOM      8  C1  UNL d   1      -0.854  -6.000  -3.456  0.00  0.00     0.053 C 
ATOM      9  C   UNL d   1      -0.810  -5.248  -4.778  0.00  0.00     0.018 C 
ENDBRANCH   1   8
TORSDOF 1
ENDMDL
