MODEL 1
REMARK minimizedAffinity 22.9811268
REMARK minimizedRMSD -1
REMARK  1 active torsions:
REMARK  status: ('A' for Active; 'I' for Inactive)
REMARK    1  A    between atoms: C1_2  and  C2_3 
ROOT
ATOM      1  C2  UNL d   1       2.155   3.329  -0.903  0.00  0.00    -0.073 A 
ATOM      2  C3  UNL d   1       2.589   4.322  -1.788  0.00  0.00    -0.002 A 
ATOM      3  C4  UNL d   1       2.199   5.649  -1.605  0.00  0.00     0.004 A 
ATOM      4  C5  UNL d   1       1.378   5.998  -0.533  0.00  0.00    -0.004 A 
ATOM      5  C6  UNL d   1       0.943   5.022   0.370  0.00  0.00    -0.075 A 
ATOM      6  C7  UNL d   1       0.058   5.380   1.527  0.00  0.00     0.076 C 
ATOM      7  C8  UNL d   1       1.337   3.691   0.178  0.00  0.00     0.001 A 
ENDROOT
BRANCH   1   8
ATOM      8  C1  UNL d   1       2.579   1.896  -1.093  0.00  0.00     0.053 C 
ATOM      9  C   UNL d   1       2.265   1.042   0.126  0.00  0.00     0.018 C 
ENDBRANCH   1   8
TORSDOF 1
ENDMDL
