MODEL 1
REMARK minimizedAffinity 12.5697184
REMARK minimizedRMSD -1
REMARK  1 active torsions:
REMARK  status: ('A' for Active; 'I' for Inactive)
REMARK    1  A    between atoms: C1_2  and  C2_3 
ROOT
ATOM      1  C2  UNL d   1       1.497  -1.179  -1.241  0.00  0.00    -0.073 A 
ATOM      2  C3  UNL d   1       2.407  -1.820  -0.394  0.00  0.00    -0.002 A 
ATOM      3  C4  UNL d   1       2.351  -3.203  -0.216  0.00  0.00     0.004 A 
ATOM      4  C5  UNL d   1       1.390  -3.958  -0.888  0.00  0.00    -0.004 A 
ATOM      5  C6  UNL d   1       0.479  -3.337  -1.748  0.00  0.00    -0.075 A 
ATOM      6  C7  UNL d   1      -0.563  -4.135  -2.476  0.00  0.00     0.076 C 
ATOM      7  C8  UNL d   1       0.540  -1.948  -1.919  0.00  0.00     0.001 A 
ENDROOT
BRANCH   1   8
ATOM      8  C1  UNL d   1       1.558   0.314  -1.442  0.00  0.00     0.053 C 
ATOM      9  C   UNL d   1       2.676   0.952  -0.633  0.00  0.00     0.018 C 
ENDBRANCH   1   8
TORSDOF 1
ENDMDL
