MODEL 1
REMARK minimizedAffinity 24.3178043
REMARK minimizedRMSD -1
REMARK  1 active torsions:
REMARK  status: ('A' for Active; 'I' for Inactive)
REMARK    1  A    between atoms: C1_2  and  C2_3 
ROOT
ATOM      1  C2  UNL d   1      -0.026  -5.338  -2.194  0.00  0.00    -0.073 A 
ATOM      2  C3  UNL d   1      -0.807  -4.365  -1.561  0.00  0.00    -0.002 A 
ATOM      3  C4  UNL d   1      -1.865  -3.759  -2.241  0.00  0.00     0.004 A 
ATOM      4  C5  UNL d   1      -2.157  -4.125  -3.555  0.00  0.00    -0.004 A 
ATOM      5  C6  UNL d   1      -1.395  -5.104  -4.200  0.00  0.00    -0.075 A 
ATOM      6  C7  UNL d   1      -1.695  -5.507  -5.614  0.00  0.00     0.076 C 
ATOM      7  C8  UNL d   1      -0.333  -5.706  -3.512  0.00  0.00     0.001 A 
ENDROOT
BRANCH   1   8
ATOM      8  C1  UNL d   1       1.113  -6.000  -1.462  0.00  0.00     0.053 C 
ATOM      9  C   UNL d   1       1.892  -5.012  -0.609  0.00  0.00     0.018 C 
ENDBRANCH   1   8
TORSDOF 1
ENDMDL
