MODEL 1
REMARK minimizedAffinity 24.7854557
REMARK minimizedRMSD -1
REMARK  1 active torsions:
REMARK  status: ('A' for Active; 'I' for Inactive)
REMARK    1  A    between atoms: C1_2  and  C2_3 
ROOT
ATOM      1  C2  UNL d   1       2.342   0.047  -1.071  0.00  0.00    -0.073 A 
ATOM      2  C3  UNL d   1       2.048   0.224   0.286  0.00  0.00    -0.002 A 
ATOM      3  C4  UNL d   1       2.910   0.955   1.104  0.00  0.00     0.004 A 
ATOM      4  C5  UNL d   1       4.069   1.522   0.574  0.00  0.00    -0.004 A 
ATOM      5  C6  UNL d   1       4.374   1.367  -0.782  0.00  0.00    -0.075 A 
ATOM      6  C7  UNL d   1       5.617   1.968  -1.367  0.00  0.00     0.076 C 
ATOM      7  C8  UNL d   1       3.505   0.629  -1.597  0.00  0.00     0.001 A 
ENDROOT
BRANCH   1   8
ATOM      8  C1  UNL d   1       1.411  -0.737  -1.960  0.00  0.00     0.053 C 
ATOM      9  C   UNL d   1       0.197  -1.249  -1.203  0.00  0.00     0.018 C 
ENDBRANCH   1   8
TORSDOF 1
ENDMDL
