MODEL 1
REMARK minimizedAffinity -4.22451448
REMARK minimizedRMSD -1
REMARK  1 active torsions:
REMARK  status: ('A' for Active; 'I' for Inactive)
REMARK    1  A    between atoms: C3_4  and  O_7 
ROOT
ATOM      1  C   UNL d   1      -0.353   0.120  -0.287  0.00  0.00    -0.033 A 
ATOM      2  C1  UNL d   1       0.306   0.874   0.686  0.00  0.00     0.039 A 
ATOM      3  C2  UNL d   1       1.375   0.322   1.394  0.00  0.00    -0.080 A 
ATOM      4  C3  UNL d   1       1.775  -0.983   1.120  0.00  0.00     0.150 A 
ATOM      5  C4  UNL d   1       1.125  -1.739   0.150  0.00  0.00    -0.007 A 
ATOM      6  C5  UNL d   1       0.057  -1.186  -0.556  0.00  0.00     0.039 A 
ENDROOT
BRANCH   4   7
ATOM      7  O   UNL d   1       2.810  -1.567   1.789  0.00  0.00    -0.526 OA
ATOM      8  H5  UNL d   1       3.144  -0.937   2.449  0.00  0.00     0.418 HD
ENDBRANCH   4   7
TORSDOF 1
ENDMDL
