MODEL 1
REMARK minimizedAffinity -5.41023445
REMARK minimizedRMSD -1
REMARK  1 active torsions:
REMARK  status: ('A' for Active; 'I' for Inactive)
REMARK    1  A    between atoms: C3_4  and  O_7 
ROOT
ATOM      1  C   UNL d   1       3.235  -0.718   0.684  0.00  0.00    -0.033 A 
ATOM      2  C1  UNL d   1       3.020   0.653   0.528  0.00  0.00     0.039 A 
ATOM      3  C2  UNL d   1       1.737   1.134   0.260  0.00  0.00    -0.080 A 
ATOM      4  C3  UNL d   1       0.679   0.236   0.151  0.00  0.00     0.150 A 
ATOM      5  C4  UNL d   1       0.885  -1.131   0.309  0.00  0.00    -0.007 A 
ATOM      6  C5  UNL d   1       2.167  -1.609   0.576  0.00  0.00     0.039 A 
ENDROOT
BRANCH   4   7
ATOM      7  O   UNL d   1      -0.590   0.658  -0.114  0.00  0.00    -0.526 OA
ATOM      8  H5  UNL d   1      -0.576   1.623  -0.227  0.00  0.00     0.418 HD
ENDBRANCH   4   7
TORSDOF 1
ENDMDL
