MODEL 1
REMARK minimizedAffinity -4.55378914
REMARK minimizedRMSD -1
REMARK  1 active torsions:
REMARK  status: ('A' for Active; 'I' for Inactive)
REMARK    1  A    between atoms: C3_4  and  O_7 
ROOT
ATOM      1  C   UNL d   1       0.097   0.671  -0.396  0.00  0.00    -0.033 A 
ATOM      2  C1  UNL d   1       0.023  -0.708  -0.602  0.00  0.00     0.039 A 
ATOM      3  C2  UNL d   1       1.037  -1.542  -0.128  0.00  0.00    -0.080 A 
ATOM      4  C3  UNL d   1       2.118  -0.985   0.551  0.00  0.00     0.150 A 
ATOM      5  C4  UNL d   1       2.196   0.387   0.763  0.00  0.00    -0.007 A 
ATOM      6  C5  UNL d   1       1.182   1.218   0.288  0.00  0.00     0.039 A 
ENDROOT
BRANCH   4   7
ATOM      7  O   UNL d   1       3.134  -1.759   1.028  0.00  0.00    -0.526 OA
ATOM      8  H5  UNL d   1       2.960  -2.682   0.782  0.00  0.00     0.418 HD
ENDBRANCH   4   7
TORSDOF 1
ENDMDL
