MODEL 1
REMARK minimizedAffinity -2.71128249
REMARK minimizedRMSD -1
REMARK  1 active torsions:
REMARK  status: ('A' for Active; 'I' for Inactive)
REMARK    1  A    between atoms: C3_4  and  O_7 
ROOT
ATOM      1  C   UNL d   1       2.867  -1.148   0.430  0.00  0.00    -0.033 A 
ATOM      2  C1  UNL d   1       1.855  -2.061   0.126  0.00  0.00     0.039 A 
ATOM      3  C2  UNL d   1       0.537  -1.623  -0.017  0.00  0.00    -0.080 A 
ATOM      4  C3  UNL d   1       0.245  -0.271   0.146  0.00  0.00     0.150 A 
ATOM      5  C4  UNL d   1       1.249   0.644   0.445  0.00  0.00    -0.007 A 
ATOM      6  C5  UNL d   1       2.564   0.204   0.588  0.00  0.00     0.039 A 
ENDROOT
BRANCH   4   7
ATOM      7  O   UNL d   1      -1.027   0.203   0.020  0.00  0.00    -0.526 OA
ATOM      8  H5  UNL d   1      -1.619  -0.547  -0.159  0.00  0.00     0.418 HD
ENDBRANCH   4   7
TORSDOF 1
ENDMDL
