MODEL 1
REMARK minimizedAffinity 9.71399593
REMARK minimizedRMSD -1
REMARK  0 active torsions:
REMARK  status: ('A' for Active; 'I' for Inactive)
ROOT
ATOM      1  C   UNL d   1      -3.766  -5.745  -5.270  0.00  0.00     0.078 C 
ATOM      2  C1  UNL d   1      -2.959  -5.277  -4.095  0.00  0.00    -0.077 A 
ATOM      3  C2  UNL d   1      -3.308  -4.115  -3.397  0.00  0.00    -0.001 A 
ATOM      4  C3  UNL d   1      -2.542  -3.687  -2.312  0.00  0.00     0.003 A 
ATOM      5  C4  UNL d   1      -1.421  -4.413  -1.916  0.00  0.00    -0.005 A 
ATOM      6  C5  UNL d   1      -1.064  -5.570  -2.607  0.00  0.00     0.003 A 
ATOM      7  C6  UNL d   1      -1.829  -6.000  -3.692  0.00  0.00    -0.001 A 
ENDROOT
TORSDOF 0
ENDMDL
