MODEL 1
REMARK minimizedAffinity 1.71860445
REMARK minimizedRMSD -1
REMARK  0 active torsions:
REMARK  status: ('A' for Active; 'I' for Inactive)
ROOT
ATOM      1  C   UNL d   1       3.394   0.439  -0.444  0.00  0.00     0.078 C 
ATOM      2  C1  UNL d   1       2.670  -0.837  -0.755  0.00  0.00    -0.077 A 
ATOM      3  C2  UNL d   1       3.352  -2.058  -0.814  0.00  0.00    -0.001 A 
ATOM      4  C3  UNL d   1       2.667  -3.236  -1.114  0.00  0.00     0.003 A 
ATOM      5  C4  UNL d   1       1.296  -3.205  -1.359  0.00  0.00    -0.005 A 
ATOM      6  C5  UNL d   1       0.608  -1.994  -1.306  0.00  0.00     0.003 A 
ATOM      7  C6  UNL d   1       1.292  -0.815  -1.005  0.00  0.00    -0.001 A 
ENDROOT
TORSDOF 0
ENDMDL
