MODEL 1
REMARK minimizedAffinity 5.94893503
REMARK minimizedRMSD -1
REMARK  0 active torsions:
REMARK  status: ('A' for Active; 'I' for Inactive)
ROOT
ATOM      1  C   UNL d   1       4.207  -0.104  -0.770  0.00  0.00     0.078 C 
ATOM      2  C1  UNL d   1       3.306  -1.296  -0.890  0.00  0.00    -0.077 A 
ATOM      3  C2  UNL d   1       3.043  -1.879  -2.136  0.00  0.00    -0.001 A 
ATOM      4  C3  UNL d   1       2.194  -2.982  -2.235  0.00  0.00     0.003 A 
ATOM      5  C4  UNL d   1       1.600  -3.512  -1.091  0.00  0.00    -0.005 A 
ATOM      6  C5  UNL d   1       1.853  -2.937   0.153  0.00  0.00     0.003 A 
ATOM      7  C6  UNL d   1       2.702  -1.834   0.253  0.00  0.00    -0.001 A 
ENDROOT
TORSDOF 0
ENDMDL
