MODEL 1
REMARK minimizedAffinity 12.3443127
REMARK minimizedRMSD -1
REMARK  0 active torsions:
REMARK  status: ('A' for Active; 'I' for Inactive)
ROOT
ATOM      1  C   UNL d   1       2.246  -3.261  -1.491  0.00  0.00     0.078 C 
ATOM      2  C1  UNL d   1       0.837  -3.749  -1.645  0.00  0.00    -0.077 A 
ATOM      3  C2  UNL d   1       0.326  -4.753  -0.813  0.00  0.00    -0.001 A 
ATOM      4  C3  UNL d   1      -0.985  -5.204  -0.974  0.00  0.00     0.003 A 
ATOM      5  C4  UNL d   1      -1.796  -4.659  -1.968  0.00  0.00    -0.005 A 
ATOM      6  C5  UNL d   1      -1.296  -3.661  -2.802  0.00  0.00     0.003 A 
ATOM      7  C6  UNL d   1       0.015  -3.209  -2.643  0.00  0.00    -0.001 A 
ENDROOT
TORSDOF 0
ENDMDL
