MODEL 1
REMARK minimizedAffinity 4.92134285
REMARK minimizedRMSD -1
REMARK  0 active torsions:
REMARK  status: ('A' for Active; 'I' for Inactive)
ROOT
ATOM      1  C   UNL d   1       3.065  -1.955  -0.742  0.00  0.00     0.078 C 
ATOM      2  C1  UNL d   1       3.986  -0.772  -0.735  0.00  0.00    -0.077 A 
ATOM      3  C2  UNL d   1       5.157  -0.774   0.034  0.00  0.00    -0.001 A 
ATOM      4  C3  UNL d   1       6.000   0.338   0.039  0.00  0.00     0.003 A 
ATOM      5  C4  UNL d   1       5.681   1.462  -0.721  0.00  0.00    -0.005 A 
ATOM      6  C5  UNL d   1       4.517   1.474  -1.487  0.00  0.00     0.003 A 
ATOM      7  C6  UNL d   1       3.673   0.363  -1.493  0.00  0.00    -0.001 A 
ENDROOT
TORSDOF 0
ENDMDL
