MODEL 1
REMARK minimizedAffinity 4.05343676
REMARK minimizedRMSD -1
REMARK  0 active torsions:
REMARK  status: ('A' for Active; 'I' for Inactive)
ROOT
ATOM      1  C   UNL d   1       4.018   0.789  -1.121  0.00  0.00     0.078 C 
ATOM      2  C1  UNL d   1       4.704   2.090  -0.830  0.00  0.00    -0.077 A 
ATOM      3  C2  UNL d   1       5.374   2.298   0.382  0.00  0.00    -0.001 A 
ATOM      4  C3  UNL d   1       6.000   3.518   0.643  0.00  0.00     0.003 A 
ATOM      5  C4  UNL d   1       5.962   4.540  -0.303  0.00  0.00    -0.005 A 
ATOM      6  C5  UNL d   1       5.296   4.344  -1.511  0.00  0.00     0.003 A 
ATOM      7  C6  UNL d   1       4.669   3.125  -1.774  0.00  0.00    -0.001 A 
ENDROOT
TORSDOF 0
ENDMDL
