MODEL 1
REMARK minimizedAffinity 5.66024494
REMARK minimizedRMSD -1
REMARK  0 active torsions:
REMARK  status: ('A' for Active; 'I' for Inactive)
ROOT
ATOM      1  C   UNL d   1       2.513  -1.020  -0.800  0.00  0.00     0.078 C 
ATOM      2  C1  UNL d   1       3.735  -0.158  -0.686  0.00  0.00    -0.077 A 
ATOM      3  C2  UNL d   1       4.866  -0.598   0.014  0.00  0.00    -0.001 A 
ATOM      4  C3  UNL d   1       5.992   0.218   0.119  0.00  0.00     0.003 A 
ATOM      5  C4  UNL d   1       6.000   1.480  -0.472  0.00  0.00    -0.005 A 
ATOM      6  C5  UNL d   1       4.879   1.928  -1.168  0.00  0.00     0.003 A 
ATOM      7  C6  UNL d   1       3.751   1.112  -1.275  0.00  0.00    -0.001 A 
ENDROOT
TORSDOF 0
ENDMDL
