MODEL 1
REMARK minimizedAffinity 6.34168911
REMARK minimizedRMSD -1
REMARK  0 active torsions:
REMARK  status: ('A' for Active; 'I' for Inactive)
ROOT
ATOM      1  C   UNL d   1       3.363  -1.588  -1.311  0.00  0.00     0.078 C 
ATOM      2  C1  UNL d   1       4.000  -0.248  -1.093  0.00  0.00    -0.077 A 
ATOM      3  C2  UNL d   1       3.219   0.900  -0.905  0.00  0.00    -0.001 A 
ATOM      4  C3  UNL d   1       3.826   2.142  -0.713  0.00  0.00     0.003 A 
ATOM      5  C4  UNL d   1       5.215   2.249  -0.707  0.00  0.00    -0.005 A 
ATOM      6  C5  UNL d   1       6.000   1.113  -0.895  0.00  0.00     0.003 A 
ATOM      7  C6  UNL d   1       5.395  -0.130  -1.088  0.00  0.00    -0.001 A 
ENDROOT
TORSDOF 0
ENDMDL
