MODEL 1
REMARK minimizedAffinity 9.51007652
REMARK minimizedRMSD -1
REMARK  0 active torsions:
REMARK  status: ('A' for Active; 'I' for Inactive)
ROOT
ATOM      1  C   UNL d   1       1.698  -5.718   5.998  0.00  0.00     0.078 C 
ATOM      2  C1  UNL d   1       1.318  -4.669   4.995  0.00  0.00    -0.077 A 
ATOM      3  C2  UNL d   1       2.263  -3.752   4.518  0.00  0.00    -0.001 A 
ATOM      4  C3  UNL d   1       1.893  -2.775   3.592  0.00  0.00     0.003 A 
ATOM      5  C4  UNL d   1       0.578  -2.706   3.136  0.00  0.00    -0.005 A 
ATOM      6  C5  UNL d   1      -0.369  -3.613   3.607  0.00  0.00     0.003 A 
ATOM      7  C6  UNL d   1      -0.001  -4.590   4.533  0.00  0.00    -0.001 A 
ENDROOT
TORSDOF 0
ENDMDL
