MODEL 1
REMARK minimizedAffinity 6.4322176
REMARK minimizedRMSD -1
REMARK  0 active torsions:
REMARK  status: ('A' for Active; 'I' for Inactive)
ROOT
ATOM      1  C   UNL d   1      -3.351  -0.942  -2.344  0.00  0.00     0.078 C 
ATOM      2  C1  UNL d   1      -3.357  -0.008  -3.517  0.00  0.00    -0.077 A 
ATOM      3  C2  UNL d   1      -2.161   0.497  -4.042  0.00  0.00    -0.001 A 
ATOM      4  C3  UNL d   1      -2.181   1.374  -5.128  0.00  0.00     0.003 A 
ATOM      5  C4  UNL d   1      -3.395   1.754  -5.697  0.00  0.00    -0.005 A 
ATOM      6  C5  UNL d   1      -4.590   1.259  -5.180  0.00  0.00     0.003 A 
ATOM      7  C6  UNL d   1      -4.572   0.382  -4.094  0.00  0.00    -0.001 A 
ENDROOT
TORSDOF 0
ENDMDL
