MODEL 1
REMARK minimizedAffinity -3.03852177
REMARK minimizedRMSD -1
REMARK  2 active torsions:
REMARK  status: ('A' for Active; 'I' for Inactive)
REMARK    1  A    between atoms: C2'_3  and  C1'_4 
REMARK    2  A    between atoms: C1'_4  and  C1_5 
ROOT
ATOM      1  C1  I4B d   1      -0.951  -0.851   0.487  0.00  0.00    -0.075 A 
ATOM      2  C2  I4B d   1      -1.593  -1.377  -0.607  0.00  0.00     0.003 A 
ATOM      3  C3  I4B d   1      -0.846  -1.858  -1.709  0.00  0.00     0.002 A 
ATOM      4  C4  I4B d   1       0.530  -1.749  -1.697  0.00  0.00    -0.004 A 
ATOM      5  C5  I4B d   1       1.180  -1.236  -0.579  0.00  0.00     0.002 A 
ATOM      6  C6  I4B d   1       0.436  -0.796   0.526  0.00  0.00     0.003 A 
ENDROOT
BRANCH   1   7
ATOM      7  C1' I4B d   1      -1.772  -0.322   1.619  0.00  0.00     0.060 C 
BRANCH   7   8
ATOM      8  C2' I4B d   1      -2.519   0.899   1.124  0.00  0.00    -0.013 C 
ATOM      9  C4' I4B d   1      -4.007   0.665   1.125  0.00  0.00     0.013 C 
ATOM     10  C3' I4B d   1      -2.152   2.056   2.004  0.00  0.00     0.013 C 
ENDBRANCH   7   8
ENDBRANCH   1   7
TORSDOF 2
ENDMDL
