MODEL 1
REMARK minimizedAffinity 0.568282306
REMARK minimizedRMSD -1
REMARK  2 active torsions:
REMARK  status: ('A' for Active; 'I' for Inactive)
REMARK    1  A    between atoms: C2'_3  and  C1'_4 
REMARK    2  A    between atoms: C1'_4  and  C1_5 
ROOT
ATOM      1  C1  I4B d   1      -0.453  -1.494  -5.255  0.00  0.00    -0.075 A 
ATOM      2  C2  I4B d   1       0.540  -0.905  -5.998  0.00  0.00     0.003 A 
ATOM      3  C3  I4B d   1       0.915   0.438  -5.749  0.00  0.00     0.002 A 
ATOM      4  C4  I4B d   1       0.241   1.165  -4.789  0.00  0.00    -0.004 A 
ATOM      5  C5  I4B d   1      -0.750   0.560  -4.022  0.00  0.00     0.002 A 
ATOM      6  C6  I4B d   1      -1.091  -0.782  -4.247  0.00  0.00     0.003 A 
ENDROOT
BRANCH   1   7
ATOM      7  C1' I4B d   1      -0.846  -2.903  -5.566  0.00  0.00     0.060 C 
BRANCH   7   8
ATOM      8  C2' I4B d   1       0.172  -3.824  -4.924  0.00  0.00    -0.013 C 
ATOM      9  C4' I4B d   1       0.129  -3.722  -3.422  0.00  0.00     0.013 C 
ATOM     10  C3' I4B d   1      -0.118  -5.223  -5.380  0.00  0.00     0.013 C 
ENDBRANCH   7   8
ENDBRANCH   1   7
TORSDOF 2
ENDMDL
