MODEL 1
REMARK minimizedAffinity -0.267920822
REMARK minimizedRMSD -1
REMARK  2 active torsions:
REMARK  status: ('A' for Active; 'I' for Inactive)
REMARK    1  A    between atoms: C2'_3  and  C1'_4 
REMARK    2  A    between atoms: C1'_4  and  C1_5 
ROOT
ATOM      1  C1  I4B d   1       0.178  -1.092   2.683  0.00  0.00    -0.075 A 
ATOM      2  C2  I4B d   1      -0.007   0.177   2.194  0.00  0.00     0.003 A 
ATOM      3  C3  I4B d   1      -1.290   0.595   1.764  0.00  0.00     0.002 A 
ATOM      4  C4  I4B d   1      -2.342  -0.298   1.794  0.00  0.00    -0.004 A 
ATOM      5  C5  I4B d   1      -2.157  -1.577   2.312  0.00  0.00     0.002 A 
ATOM      6  C6  I4B d   1      -0.892  -1.973   2.771  0.00  0.00     0.003 A 
ENDROOT
BRANCH   1   7
ATOM      7  C1' I4B d   1       1.553  -1.511   3.097  0.00  0.00     0.060 C 
BRANCH   7   8
ATOM      8  C2' I4B d   1       1.979  -0.633   4.256  0.00  0.00    -0.013 C 
ATOM      9  C4' I4B d   1       1.321  -1.067   5.539  0.00  0.00     0.013 C 
ATOM     10  C3' I4B d   1       3.473  -0.702   4.364  0.00  0.00     0.013 C 
ENDBRANCH   7   8
ENDBRANCH   1   7
TORSDOF 2
ENDMDL
