MODEL 1
REMARK minimizedAffinity 3.02476311
REMARK minimizedRMSD -1
REMARK  1 active torsions:
REMARK  status: ('A' for Active; 'I' for Inactive)
REMARK    1  A    between atoms: C1_2  and  C2_3 
ROOT
ATOM      1  C2  UNL d   1       0.273  -0.152   0.561  0.00  0.00    -0.073 A 
ATOM      2  C3  UNL d   1      -1.034   0.120   0.144  0.00  0.00    -0.002 A 
ATOM      3  C4  UNL d   1      -2.094   0.040   1.048  0.00  0.00     0.004 A 
ATOM      4  C5  UNL d   1      -1.857  -0.305   2.378  0.00  0.00    -0.004 A 
ATOM      5  C6  UNL d   1      -0.556  -0.569   2.818  0.00  0.00    -0.075 A 
ATOM      6  C7  UNL d   1      -0.284  -0.944   4.245  0.00  0.00     0.076 C 
ATOM      7  C8  UNL d   1       0.503  -0.489   1.903  0.00  0.00     0.001 A 
ENDROOT
BRANCH   1   8
ATOM      8  C1  UNL d   1       1.422  -0.061  -0.410  0.00  0.00     0.053 C 
ATOM      9  C   UNL d   1       2.518   0.868   0.088  0.00  0.00     0.018 C 
ENDBRANCH   1   8
TORSDOF 1
ENDMDL
