MODEL 1
REMARK minimizedAffinity 0.349047452
REMARK minimizedRMSD -1
REMARK  1 active torsions:
REMARK  status: ('A' for Active; 'I' for Inactive)
REMARK    1  A    between atoms: C1_2  and  C2_3 
ROOT
ATOM      1  C2  UNL d   1       0.637   0.557   0.730  0.00  0.00    -0.073 A 
ATOM      2  C3  UNL d   1       0.885  -0.777   0.388  0.00  0.00    -0.002 A 
ATOM      3  C4  UNL d   1      -0.165  -1.613   0.005  0.00  0.00     0.004 A 
ATOM      4  C5  UNL d   1      -1.470  -1.123  -0.047  0.00  0.00    -0.004 A 
ATOM      5  C6  UNL d   1      -1.736   0.211   0.280  0.00  0.00    -0.075 A 
ATOM      6  C7  UNL d   1      -3.134   0.753   0.231  0.00  0.00     0.076 C 
ATOM      7  C8  UNL d   1      -0.677   1.043   0.666  0.00  0.00     0.001 A 
ENDROOT
BRANCH   1   8
ATOM      8  C1  UNL d   1       1.768   1.465   1.138  0.00  0.00     0.053 C 
ATOM      9  C   UNL d   1       1.350   2.927   1.147  0.00  0.00     0.018 C 
ENDBRANCH   1   8
TORSDOF 1
ENDMDL
