MODEL 1
REMARK minimizedAffinity 0.165548712
REMARK minimizedRMSD -1
REMARK  1 active torsions:
REMARK  status: ('A' for Active; 'I' for Inactive)
REMARK    1  A    between atoms: C1_2  and  C2_3 
ROOT
ATOM      1  C2  UNL d   1       0.201  -0.523   0.815  0.00  0.00    -0.073 A 
ATOM      2  C3  UNL d   1      -0.461  -0.347  -0.405  0.00  0.00    -0.002 A 
ATOM      3  C4  UNL d   1      -1.822  -0.038  -0.431  0.00  0.00     0.004 A 
ATOM      4  C5  UNL d   1      -2.532   0.104   0.761  0.00  0.00    -0.004 A 
ATOM      5  C6  UNL d   1      -1.886  -0.056   1.991  0.00  0.00    -0.075 A 
ATOM      6  C7  UNL d   1      -2.636   0.092   3.282  0.00  0.00     0.076 C 
ATOM      7  C8  UNL d   1      -0.520  -0.369   2.008  0.00  0.00     0.001 A 
ENDROOT
BRANCH   1   8
ATOM      8  C1  UNL d   1       1.671  -0.850   0.848  0.00  0.00     0.053 C 
ATOM      9  C   UNL d   1       2.520   0.372   1.162  0.00  0.00     0.018 C 
ENDBRANCH   1   8
TORSDOF 1
ENDMDL
