MODEL 1
REMARK minimizedAffinity 0.787093759
REMARK minimizedRMSD -1
REMARK  1 active torsions:
REMARK  status: ('A' for Active; 'I' for Inactive)
REMARK    1  A    between atoms: C1_2  and  C2_3 
ROOT
ATOM      1  C2  UNL d   1       2.604   0.423  -0.425  0.00  0.00    -0.073 A 
ATOM      2  C3  UNL d   1       3.678   1.220  -0.014  0.00  0.00    -0.002 A 
ATOM      3  C4  UNL d   1       4.396   1.971  -0.946  0.00  0.00     0.004 A 
ATOM      4  C5  UNL d   1       4.044   1.938  -2.295  0.00  0.00    -0.004 A 
ATOM      5  C6  UNL d   1       2.966   1.156  -2.724  0.00  0.00    -0.075 A 
ATOM      6  C7  UNL d   1       2.576   1.107  -4.172  0.00  0.00     0.076 C 
ATOM      7  C8  UNL d   1       2.251   0.403  -1.782  0.00  0.00     0.001 A 
ENDROOT
BRANCH   1   8
ATOM      8  C1  UNL d   1       1.821  -0.384   0.578  0.00  0.00     0.053 C 
ATOM      9  C   UNL d   1       0.348  -0.474   0.213  0.00  0.00     0.018 C 
ENDBRANCH   1   8
TORSDOF 1
ENDMDL
