MODEL 1
REMARK minimizedAffinity -4.71244097
REMARK minimizedRMSD -1
REMARK  0 active torsions:
REMARK  status: ('A' for Active; 'I' for Inactive)
ROOT
ATOM      1  C2' OXE d   1       1.328  -1.470  -1.722  0.00  0.00     0.078 C 
ATOM      2  C1' OXE d   1       0.454  -3.019   0.450  0.00  0.00     0.078 C 
ATOM      3  C1  OXE d   1      -0.145  -1.646   0.278  0.00  0.00    -0.078 A 
ATOM      4  C2  OXE d   1       0.322  -0.877  -0.760  0.00  0.00    -0.078 A 
ATOM      5  C3  OXE d   1      -0.236   0.377  -0.996  0.00  0.00     0.003 A 
ATOM      6  C4  OXE d   1      -1.158   0.922  -0.095  0.00  0.00    -0.002 A 
ATOM      7  C5  OXE d   1      -1.619   0.172   0.992  0.00  0.00    -0.002 A 
ATOM      8  C6  OXE d   1      -1.155  -1.127   1.168  0.00  0.00     0.003 A 
ENDROOT
TORSDOF 0
ENDMDL
