MODEL 1
REMARK minimizedAffinity -3.34024358
REMARK minimizedRMSD -1
REMARK  0 active torsions:
REMARK  status: ('A' for Active; 'I' for Inactive)
ROOT
ATOM      1  C2' OXE d   1      -0.021  -2.613   0.023  0.00  0.00     0.078 C 
ATOM      2  C1' OXE d   1       0.958  -1.245  -2.224  0.00  0.00     0.078 C 
ATOM      3  C1  OXE d   1       0.258  -0.438  -1.159  0.00  0.00    -0.078 A 
ATOM      4  C2  OXE d   1      -0.259  -1.122  -0.085  0.00  0.00    -0.078 A 
ATOM      5  C3  OXE d   1      -0.866  -0.420   0.952  0.00  0.00     0.003 A 
ATOM      6  C4  OXE d   1      -1.091   0.958   0.839  0.00  0.00    -0.002 A 
ATOM      7  C5  OXE d   1      -0.607   1.668  -0.265  0.00  0.00    -0.002 A 
ATOM      8  C6  OXE d   1       0.105   0.993  -1.250  0.00  0.00     0.003 A 
ENDROOT
TORSDOF 0
ENDMDL
