MODEL 1
REMARK minimizedAffinity -4.21474934
REMARK minimizedRMSD -1
REMARK  0 active torsions:
REMARK  status: ('A' for Active; 'I' for Inactive)
ROOT
ATOM      1  C2' OXE d   1      -1.130  -0.783   1.919  0.00  0.00     0.078 C 
ATOM      2  C1' OXE d   1      -0.264  -3.070   0.539  0.00  0.00     0.078 C 
ATOM      3  C1  OXE d   1      -0.031  -1.727  -0.108  0.00  0.00    -0.078 A 
ATOM      4  C2  OXE d   1      -0.500  -0.617   0.553  0.00  0.00    -0.078 A 
ATOM      5  C3  OXE d   1      -0.263   0.649   0.027  0.00  0.00     0.003 A 
ATOM      6  C4  OXE d   1       0.311   0.794  -1.242  0.00  0.00    -0.002 A 
ATOM      7  C5  OXE d   1       0.760  -0.327  -1.950  0.00  0.00    -0.002 A 
ATOM      8  C6  OXE d   1       0.635  -1.588  -1.379  0.00  0.00     0.003 A 
ENDROOT
TORSDOF 0
ENDMDL
