MODEL 1
REMARK minimizedAffinity -4.48123217
REMARK minimizedRMSD -1
REMARK  0 active torsions:
REMARK  status: ('A' for Active; 'I' for Inactive)
ROOT
ATOM      1  C2' OXE d   1      -0.970  -0.196   2.198  0.00  0.00     0.078 C 
ATOM      2  C1' OXE d   1       0.272   1.540   0.374  0.00  0.00     0.078 C 
ATOM      3  C1  OXE d   1       0.005   0.124  -0.072  0.00  0.00    -0.078 A 
ATOM      4  C2  OXE d   1      -0.560  -0.731   0.842  0.00  0.00    -0.078 A 
ATOM      5  C3  OXE d   1      -0.878  -2.033   0.465  0.00  0.00     0.003 A 
ATOM      6  C4  OXE d   1      -0.487  -2.523  -0.787  0.00  0.00    -0.002 A 
ATOM      7  C5  OXE d   1       0.126  -1.680  -1.720  0.00  0.00    -0.002 A 
ATOM      8  C6  OXE d   1       0.340  -0.345  -1.394  0.00  0.00     0.003 A 
ENDROOT
TORSDOF 0
ENDMDL
