MODEL 1
REMARK minimizedAffinity -4.24576998
REMARK minimizedRMSD -1
REMARK  0 active torsions:
REMARK  status: ('A' for Active; 'I' for Inactive)
ROOT
ATOM      1  C2' OXE d   1      -1.275  -0.425   2.653  0.00  0.00     0.078 C 
ATOM      2  C1' OXE d   1      -0.751  -2.492   0.827  0.00  0.00     0.078 C 
ATOM      3  C1  OXE d   1      -0.387  -1.086   0.421  0.00  0.00    -0.078 A 
ATOM      4  C2  OXE d   1      -0.690  -0.075   1.302  0.00  0.00    -0.078 A 
ATOM      5  C3  OXE d   1      -0.326   1.234   1.000  0.00  0.00     0.003 A 
ATOM      6  C4  OXE d   1       0.205   1.551  -0.256  0.00  0.00    -0.002 A 
ATOM      7  C5  OXE d   1       0.484   0.542  -1.183  0.00  0.00    -0.002 A 
ATOM      8  C6  OXE d   1       0.234  -0.784  -0.845  0.00  0.00     0.003 A 
ENDROOT
TORSDOF 0
ENDMDL
