MODEL 1
REMARK minimizedAffinity -4.84014463
REMARK minimizedRMSD -1
REMARK  0 active torsions:
REMARK  status: ('A' for Active; 'I' for Inactive)
ROOT
ATOM      1  C2' OXE d   1      -0.051   0.096   3.127  0.00  0.00     0.078 C 
ATOM      2  C1' OXE d   1       0.494   1.638   0.845  0.00  0.00     0.078 C 
ATOM      3  C1  OXE d   1       0.266   0.159   0.657  0.00  0.00    -0.078 A 
ATOM      4  C2  OXE d   1       0.046  -0.595   1.784  0.00  0.00    -0.078 A 
ATOM      5  C3  OXE d   1      -0.224  -1.955   1.661  0.00  0.00     0.003 A 
ATOM      6  C4  OXE d   1      -0.122  -2.589   0.417  0.00  0.00    -0.002 A 
ATOM      7  C5  OXE d   1       0.140  -1.845  -0.739  0.00  0.00    -0.002 A 
ATOM      8  C6  OXE d   1       0.294  -0.467  -0.642  0.00  0.00     0.003 A 
ENDROOT
TORSDOF 0
ENDMDL
