MODEL 1
REMARK minimizedAffinity -5.46324301
REMARK minimizedRMSD -1
REMARK  0 active torsions:
REMARK  status: ('A' for Active; 'I' for Inactive)
ROOT
ATOM      1  C2' OXE d   1       1.968   1.143   0.775  0.00  0.00     0.078 C 
ATOM      2  C1' OXE d   1      -0.399   1.288  -0.728  0.00  0.00     0.078 C 
ATOM      3  C1  OXE d   1      -0.192   0.074   0.143  0.00  0.00    -0.078 A 
ATOM      4  C2  OXE d   1       0.990  -0.011   0.839  0.00  0.00    -0.078 A 
ATOM      5  C3  OXE d   1       1.208  -1.083   1.699  0.00  0.00     0.003 A 
ATOM      6  C4  OXE d   1       0.304  -2.151   1.745  0.00  0.00    -0.002 A 
ATOM      7  C5  OXE d   1      -0.888  -2.103   1.014  0.00  0.00    -0.002 A 
ATOM      8  C6  OXE d   1      -1.170  -0.981   0.242  0.00  0.00     0.003 A 
ENDROOT
TORSDOF 0
ENDMDL
