MODEL 1
REMARK minimizedAffinity -1.92682004
REMARK minimizedRMSD -1
REMARK  0 active torsions:
REMARK  status: ('A' for Active; 'I' for Inactive)
ROOT
ATOM      1  C2' OXE d   1      -0.500  -0.244   2.001  0.00  0.00     0.078 C 
ATOM      2  C1' OXE d   1       0.557   1.083  -0.236  0.00  0.00     0.078 C 
ATOM      3  C1  OXE d   1       0.148  -0.359  -0.402  0.00  0.00    -0.078 A 
ATOM      4  C2  OXE d   1      -0.325  -1.014   0.710  0.00  0.00    -0.078 A 
ATOM      5  C3  OXE d   1      -0.768  -2.329   0.599  0.00  0.00     0.003 A 
ATOM      6  C4  OXE d   1      -0.594  -3.038  -0.596  0.00  0.00    -0.002 A 
ATOM      7  C5  OXE d   1      -0.078  -2.401  -1.730  0.00  0.00    -0.002 A 
ATOM      8  C6  OXE d   1       0.258  -1.053  -1.661  0.00  0.00     0.003 A 
ENDROOT
TORSDOF 0
ENDMDL
