MODEL 1
REMARK minimizedAffinity -5.34004307
REMARK minimizedRMSD -1
REMARK  0 active torsions:
REMARK  status: ('A' for Active; 'I' for Inactive)
ROOT
ATOM      1  C2' OXE d   1       1.164  -2.393  -2.455  0.00  0.00     0.078 C 
ATOM      2  C1' OXE d   1      -0.045  -4.257  -0.740  0.00  0.00     0.078 C 
ATOM      3  C1  OXE d   1      -0.222  -2.793  -0.424  0.00  0.00    -0.078 A 
ATOM      4  C2  OXE d   1       0.412  -1.889  -1.242  0.00  0.00    -0.078 A 
ATOM      5  C3  OXE d   1       0.237  -0.525  -1.027  0.00  0.00     0.003 A 
ATOM      6  C4  OXE d   1      -0.452  -0.067   0.102  0.00  0.00    -0.002 A 
ATOM      7  C5  OXE d   1      -1.072  -0.972   0.970  0.00  0.00    -0.002 A 
ATOM      8  C6  OXE d   1      -1.003  -2.334   0.698  0.00  0.00     0.003 A 
ENDROOT
TORSDOF 0
ENDMDL
