MODEL 1
REMARK minimizedAffinity -5.15672493
REMARK minimizedRMSD -1
REMARK  0 active torsions:
REMARK  status: ('A' for Active; 'I' for Inactive)
ROOT
ATOM      1  C2' OXE d   1      -0.084   1.298   0.443  0.00  0.00     0.078 C 
ATOM      2  C1' OXE d   1      -1.160   0.008   2.692  0.00  0.00     0.078 C 
ATOM      3  C1  OXE d   1      -0.709  -0.851   1.537  0.00  0.00    -0.078 A 
ATOM      4  C2  OXE d   1      -0.227  -0.208   0.422  0.00  0.00    -0.078 A 
ATOM      5  C3  OXE d   1       0.253  -0.955  -0.650  0.00  0.00     0.003 A 
ATOM      6  C4  OXE d   1       0.108  -2.348  -0.665  0.00  0.00    -0.002 A 
ATOM      7  C5  OXE d   1      -0.417  -3.019   0.444  0.00  0.00    -0.002 A 
ATOM      8  C6  OXE d   1      -0.790  -2.290   1.568  0.00  0.00     0.003 A 
ENDROOT
TORSDOF 0
ENDMDL
