MODEL 1
REMARK minimizedAffinity -3.39104462
REMARK minimizedRMSD -1
REMARK  0 active torsions:
REMARK  status: ('A' for Active; 'I' for Inactive)
ROOT
ATOM      1  C2' OXE d   1      -1.211   0.033   2.250  0.00  0.00     0.078 C 
ATOM      2  C1' OXE d   1       0.269   1.322   0.242  0.00  0.00     0.078 C 
ATOM      3  C1  OXE d   1       0.181  -0.182   0.195  0.00  0.00    -0.078 A 
ATOM      4  C2  OXE d   1      -0.506  -0.808   1.208  0.00  0.00    -0.078 A 
ATOM      5  C3  OXE d   1      -0.663  -2.191   1.182  0.00  0.00     0.003 A 
ATOM      6  C4  OXE d   1       0.001  -2.962   0.221  0.00  0.00    -0.002 A 
ATOM      7  C5  OXE d   1       0.738  -2.348  -0.797  0.00  0.00    -0.002 A 
ATOM      8  C6  OXE d   1       0.803  -0.960  -0.848  0.00  0.00     0.003 A 
ENDROOT
TORSDOF 0
ENDMDL
