MODEL 1
REMARK minimizedAffinity -3.59775543
REMARK minimizedRMSD -1
REMARK  0 active torsions:
REMARK  status: ('A' for Active; 'I' for Inactive)
ROOT
ATOM      1  C2' OXE d   1       0.137   1.490  -0.955  0.00  0.00     0.078 C 
ATOM      2  C1' OXE d   1       0.559  -0.908  -2.353  0.00  0.00     0.078 C 
ATOM      3  C1  OXE d   1       0.126  -1.001  -0.911  0.00  0.00    -0.078 A 
ATOM      4  C2  OXE d   1      -0.033   0.177  -0.222  0.00  0.00    -0.078 A 
ATOM      5  C3  OXE d   1      -0.485   0.149   1.095  0.00  0.00     0.003 A 
ATOM      6  C4  OXE d   1      -0.630  -1.069   1.769  0.00  0.00    -0.002 A 
ATOM      7  C5  OXE d   1      -0.434  -2.280   1.097  0.00  0.00    -0.002 A 
ATOM      8  C6  OXE d   1      -0.098  -2.264  -0.252  0.00  0.00     0.003 A 
ENDROOT
TORSDOF 0
ENDMDL
