MODEL 1
REMARK minimizedAffinity -5.48154163
REMARK minimizedRMSD -1
REMARK  0 active torsions:
REMARK  status: ('A' for Active; 'I' for Inactive)
ROOT
ATOM      1  C2' OXE d   1      -0.958   0.092   1.974  0.00  0.00     0.078 C 
ATOM      2  C1' OXE d   1       0.174   1.358  -0.262  0.00  0.00     0.078 C 
ATOM      3  C1  OXE d   1       0.121  -0.150  -0.259  0.00  0.00    -0.078 A 
ATOM      4  C2  OXE d   1      -0.392  -0.762   0.860  0.00  0.00    -0.078 A 
ATOM      5  C3  OXE d   1      -0.514  -2.148   0.892  0.00  0.00     0.003 A 
ATOM      6  C4  OXE d   1       0.020  -2.931  -0.139  0.00  0.00    -0.002 A 
ATOM      7  C5  OXE d   1       0.583  -2.329  -1.269  0.00  0.00    -0.002 A 
ATOM      8  C6  OXE d   1       0.602  -0.941  -1.364  0.00  0.00     0.003 A 
ENDROOT
TORSDOF 0
ENDMDL
