MODEL 1
REMARK minimizedAffinity -4.67233849
REMARK minimizedRMSD -1
REMARK  0 active torsions:
REMARK  status: ('A' for Active; 'I' for Inactive)
ROOT
ATOM      1  C2' OXE d   1       0.731   0.385   2.120  0.00  0.00     0.078 C 
ATOM      2  C1' OXE d   1       0.383   2.588   0.416  0.00  0.00     0.078 C 
ATOM      3  C1  OXE d   1       0.384   1.213  -0.204  0.00  0.00    -0.078 A 
ATOM      4  C2  OXE d   1       0.601   0.143   0.632  0.00  0.00    -0.078 A 
ATOM      5  C3  OXE d   1       0.558  -1.151   0.120  0.00  0.00     0.003 A 
ATOM      6  C4  OXE d   1       0.448  -1.365  -1.259  0.00  0.00    -0.002 A 
ATOM      7  C5  OXE d   1       0.265  -0.287  -2.132  0.00  0.00    -0.002 A 
ATOM      8  C6  OXE d   1       0.188   1.002  -1.617  0.00  0.00     0.003 A 
ENDROOT
TORSDOF 0
ENDMDL
