MODEL 1
REMARK minimizedAffinity -3.23007965
REMARK minimizedRMSD -1
REMARK  0 active torsions:
REMARK  status: ('A' for Active; 'I' for Inactive)
ROOT
ATOM      1  C2' OXE d   1       0.681   1.548  -0.359  0.00  0.00     0.078 C 
ATOM      2  C1' OXE d   1       0.533  -0.766  -1.942  0.00  0.00     0.078 C 
ATOM      3  C1  OXE d   1       0.207  -0.895  -0.475  0.00  0.00    -0.078 A 
ATOM      4  C2  OXE d   1       0.327   0.233   0.301  0.00  0.00    -0.078 A 
ATOM      5  C3  OXE d   1      -0.014   0.181   1.649  0.00  0.00     0.003 A 
ATOM      6  C4  OXE d   1      -0.330  -1.041   2.254  0.00  0.00    -0.002 A 
ATOM      7  C5  OXE d   1      -0.419  -2.209   1.490  0.00  0.00    -0.002 A 
ATOM      8  C6  OXE d   1      -0.196  -2.145   0.119  0.00  0.00     0.003 A 
ENDROOT
TORSDOF 0
ENDMDL
