MODEL 1
REMARK minimizedAffinity -1.32981539
REMARK minimizedRMSD -1
REMARK  0 active torsions:
REMARK  status: ('A' for Active; 'I' for Inactive)
ROOT
ATOM      1  C1  BNZ d   1       3.689  -0.905   1.967  0.00  0.00     0.000 A 
ATOM      2  C2  BNZ d   1       3.628  -2.200   2.410  0.00  0.00     0.000 A 
ATOM      3  C3  BNZ d   1       2.876  -2.531   3.502  0.00  0.00     0.000 A 
ATOM      4  C4  BNZ d   1       2.218  -1.563   4.172  0.00  0.00     0.000 A 
ATOM      5  C5  BNZ d   1       2.277  -0.252   3.743  0.00  0.00     0.000 A 
ATOM      6  C6  BNZ d   1       3.004   0.072   2.620  0.00  0.00     0.000 A 
ENDROOT
TORSDOF 0
ENDMDL
