MODEL 1
REMARK minimizedAffinity -0.993287027
REMARK minimizedRMSD -1
REMARK  0 active torsions:
REMARK  status: ('A' for Active; 'I' for Inactive)
ROOT
ATOM      1  C1  BNZ d   1       0.880  -3.703   1.072  0.00  0.00     0.000 A 
ATOM      2  C2  BNZ d   1       1.391  -2.435   1.002  0.00  0.00     0.000 A 
ATOM      3  C3  BNZ d   1       1.373  -1.611   2.093  0.00  0.00     0.000 A 
ATOM      4  C4  BNZ d   1       0.808  -2.042   3.240  0.00  0.00     0.000 A 
ATOM      5  C5  BNZ d   1       0.280  -3.315   3.323  0.00  0.00     0.000 A 
ATOM      6  C6  BNZ d   1       0.336  -4.155   2.235  0.00  0.00     0.000 A 
ENDROOT
TORSDOF 0
ENDMDL
