MODEL 1
REMARK minimizedAffinity -1.62805581
REMARK minimizedRMSD -1
REMARK  0 active torsions:
REMARK  status: ('A' for Active; 'I' for Inactive)
ROOT
ATOM      1  C1  BNZ d   1      -5.224  -4.047  -3.773  0.00  0.00     0.000 A 
ATOM      2  C2  BNZ d   1      -4.479  -3.735  -4.878  0.00  0.00     0.000 A 
ATOM      3  C3  BNZ d   1      -4.507  -4.532  -5.989  0.00  0.00     0.000 A 
ATOM      4  C4  BNZ d   1      -5.248  -5.658  -5.978  0.00  0.00     0.000 A 
ATOM      5  C5  BNZ d   1      -5.998  -5.991  -4.868  0.00  0.00     0.000 A 
ATOM      6  C6  BNZ d   1      -5.998  -5.167  -3.766  0.00  0.00     0.000 A 
ENDROOT
TORSDOF 0
ENDMDL
