MODEL 1
REMARK minimizedAffinity 0.372714877
REMARK minimizedRMSD -1
REMARK  0 active torsions:
REMARK  status: ('A' for Active; 'I' for Inactive)
ROOT
ATOM      1  C1  BNZ d   1      -5.762  -3.871  -5.160  0.00  0.00     0.000 A 
ATOM      2  C2  BNZ d   1      -4.671  -3.891  -4.332  0.00  0.00     0.000 A 
ATOM      3  C3  BNZ d   1      -3.804  -4.948  -4.343  0.00  0.00     0.000 A 
ATOM      4  C4  BNZ d   1      -4.050  -5.999  -5.151  0.00  0.00     0.000 A 
ATOM      5  C5  BNZ d   1      -5.151  -5.998  -5.985  0.00  0.00     0.000 A 
ATOM      6  C6  BNZ d   1      -6.000  -4.915  -6.000  0.00  0.00     0.000 A 
ENDROOT
TORSDOF 0
ENDMDL
