MODEL 1
REMARK minimizedAffinity -0.936819315
REMARK minimizedRMSD -1
REMARK  0 active torsions:
REMARK  status: ('A' for Active; 'I' for Inactive)
ROOT
ATOM      1  C1  BNZ d   1      -5.986  -4.021  -4.047  0.00  0.00     0.000 A 
ATOM      2  C2  BNZ d   1      -5.723  -4.018  -5.391  0.00  0.00     0.000 A 
ATOM      3  C3  BNZ d   1      -4.980  -5.013  -5.961  0.00  0.00     0.000 A 
ATOM      4  C4  BNZ d   1      -4.468  -5.988  -5.182  0.00  0.00     0.000 A 
ATOM      5  C5  BNZ d   1      -4.716  -6.000  -3.824  0.00  0.00     0.000 A 
ATOM      6  C6  BNZ d   1      -5.497  -5.017  -3.259  0.00  0.00     0.000 A 
ENDROOT
TORSDOF 0
ENDMDL
