MODEL 1
REMARK minimizedAffinity -3.04214478
REMARK minimizedRMSD -1
REMARK  0 active torsions:
REMARK  status: ('A' for Active; 'I' for Inactive)
ROOT
ATOM      1  C1  BNZ d   1      -4.843  -5.996  -2.885  0.00  0.00     0.000 A 
ATOM      2  C2  BNZ d   1      -4.857  -5.995  -4.254  0.00  0.00     0.000 A 
ATOM      3  C3  BNZ d   1      -5.418  -4.958  -4.947  0.00  0.00     0.000 A 
ATOM      4  C4  BNZ d   1      -5.997  -3.945  -4.271  0.00  0.00     0.000 A 
ATOM      5  C5  BNZ d   1      -5.999  -3.937  -2.891  0.00  0.00     0.000 A 
ATOM      6  C6  BNZ d   1      -5.400  -4.963  -2.197  0.00  0.00     0.000 A 
ENDROOT
TORSDOF 0
ENDMDL
