MODEL 1
REMARK minimizedAffinity -3.56699276
REMARK minimizedRMSD -1
REMARK  0 active torsions:
REMARK  status: ('A' for Active; 'I' for Inactive)
ROOT
ATOM      1  C1  BNZ d   1       3.756   0.765  -4.868  0.00  0.00     0.000 A 
ATOM      2  C2  BNZ d   1       3.754   2.077  -5.259  0.00  0.00     0.000 A 
ATOM      3  C3  BNZ d   1       4.857   2.635  -5.843  0.00  0.00     0.000 A 
ATOM      4  C4  BNZ d   1       5.972   1.892  -5.999  0.00  0.00     0.000 A 
ATOM      5  C5  BNZ d   1       5.992   0.570  -5.601  0.00  0.00     0.000 A 
ATOM      6  C6  BNZ d   1       4.867   0.001  -5.049  0.00  0.00     0.000 A 
ENDROOT
TORSDOF 0
ENDMDL
