MODEL 1
REMARK minimizedAffinity -2.79553509
REMARK minimizedRMSD -1
REMARK  0 active torsions:
REMARK  status: ('A' for Active; 'I' for Inactive)
ROOT
ATOM      1  C1  BNZ d   1      -5.626  -3.666  -4.996  0.00  0.00     0.000 A 
ATOM      2  C2  BNZ d   1      -5.883  -3.687  -3.651  0.00  0.00     0.000 A 
ATOM      3  C3  BNZ d   1      -5.802  -4.852  -2.941  0.00  0.00     0.000 A 
ATOM      4  C4  BNZ d   1      -5.504  -6.000  -3.583  0.00  0.00     0.000 A 
ATOM      5  C5  BNZ d   1      -5.251  -5.997  -4.940  0.00  0.00     0.000 A 
ATOM      6  C6  BNZ d   1      -5.295  -4.816  -5.644  0.00  0.00     0.000 A 
ENDROOT
TORSDOF 0
ENDMDL
