MODEL 1
REMARK minimizedAffinity -3.85280609
REMARK minimizedRMSD -1
REMARK  0 active torsions:
REMARK  status: ('A' for Active; 'I' for Inactive)
ROOT
ATOM      1  C1  BNZ d   1      -5.991  -4.269  -3.055  0.00  0.00     0.000 A 
ATOM      2  C2  BNZ d   1      -6.000  -4.079  -4.412  0.00  0.00     0.000 A 
ATOM      3  C3  BNZ d   1      -5.236  -4.860  -5.233  0.00  0.00     0.000 A 
ATOM      4  C4  BNZ d   1      -4.434  -5.802  -4.695  0.00  0.00     0.000 A 
ATOM      5  C5  BNZ d   1      -4.407  -5.999  -3.329  0.00  0.00     0.000 A 
ATOM      6  C6  BNZ d   1      -5.206  -5.237  -2.508  0.00  0.00     0.000 A 
ENDROOT
TORSDOF 0
ENDMDL
