MODEL 1
REMARK minimizedAffinity -2.99461555
REMARK minimizedRMSD -1
REMARK  0 active torsions:
REMARK  status: ('A' for Active; 'I' for Inactive)
ROOT
ATOM      1  C1  BNZ d   1      -4.203  -5.907  -4.170  0.00  0.00     0.000 A 
ATOM      2  C2  BNZ d   1      -4.215  -6.000  -2.804  0.00  0.00     0.000 A 
ATOM      3  C3  BNZ d   1      -5.118  -5.291  -2.063  0.00  0.00     0.000 A 
ATOM      4  C4  BNZ d   1      -5.981  -4.462  -2.684  0.00  0.00     0.000 A 
ATOM      5  C5  BNZ d   1      -5.975  -4.351  -4.061  0.00  0.00     0.000 A 
ATOM      6  C6  BNZ d   1      -5.090  -5.095  -4.806  0.00  0.00     0.000 A 
ENDROOT
TORSDOF 0
ENDMDL
