MODEL 1
REMARK minimizedAffinity 0.421624213
REMARK minimizedRMSD -1
REMARK  0 active torsions:
REMARK  status: ('A' for Active; 'I' for Inactive)
ROOT
ATOM      1  C   UNL d   1       2.050  -1.519  -0.510  0.00  0.00    -0.002 A 
ATOM      2  C1  UNL d   1       1.739  -1.391   0.837  0.00  0.00     0.010 A 
ATOM      3  C2  UNL d   1       0.665  -0.598   1.246  0.00  0.00     0.041 A 
ATOM      4  C3  UNL d   1      -0.101   0.068   0.270  0.00  0.00    -0.075 A 
ATOM      5  S   UNL d   1      -1.463   1.092   0.537  0.00  0.00     0.015 SA
ATOM      6  C4  UNL d   1      -1.665   1.383  -1.131  0.00  0.00     0.022 A 
ATOM      7  C5  UNL d   1      -0.725   0.723  -1.887  0.00  0.00     0.026 A 
ATOM      8  C6  UNL d   1       0.191  -0.045  -1.093  0.00  0.00    -0.082 A 
ATOM      9  C7  UNL d   1       1.288  -0.855  -1.475  0.00  0.00     0.045 A 
ENDROOT
TORSDOF 0
ENDMDL
