MODEL 1
REMARK minimizedAffinity -2.80696654
REMARK minimizedRMSD -1
REMARK  0 active torsions:
REMARK  status: ('A' for Active; 'I' for Inactive)
ROOT
ATOM      1  C   UNL d   1       1.962  -1.217   0.174  0.00  0.00    -0.002 A 
ATOM      2  C1  UNL d   1       1.415  -1.527   1.411  0.00  0.00     0.010 A 
ATOM      3  C2  UNL d   1       0.265  -0.876   1.861  0.00  0.00     0.041 A 
ATOM      4  C3  UNL d   1      -0.333   0.099   1.039  0.00  0.00    -0.075 A 
ATOM      5  S   UNL d   1      -1.747   1.024   1.383  0.00  0.00     0.015 SA
ATOM      6  C4  UNL d   1      -1.658   1.851  -0.105  0.00  0.00     0.022 A 
ATOM      7  C5  UNL d   1      -0.582   1.444  -0.858  0.00  0.00     0.026 A 
ATOM      8  C6  UNL d   1       0.199   0.427  -0.211  0.00  0.00    -0.082 A 
ATOM      9  C7  UNL d   1       1.366  -0.249  -0.639  0.00  0.00     0.045 A 
ENDROOT
TORSDOF 0
ENDMDL
