MODEL 1
REMARK minimizedAffinity -3.32814908
REMARK minimizedRMSD -1
REMARK  0 active torsions:
REMARK  status: ('A' for Active; 'I' for Inactive)
ROOT
ATOM      1  C   UNL d   1      -1.338   1.049  -3.345  0.00  0.00    -0.002 A 
ATOM      2  C1  UNL d   1      -2.186   1.441  -2.319  0.00  0.00     0.010 A 
ATOM      3  C2  UNL d   1      -1.841   1.213  -0.986  0.00  0.00     0.041 A 
ATOM      4  C3  UNL d   1      -0.616   0.580  -0.698  0.00  0.00    -0.075 A 
ATOM      5  S   UNL d   1       0.016   0.198   0.860  0.00  0.00     0.015 SA
ATOM      6  C4  UNL d   1       1.427  -0.493   0.201  0.00  0.00     0.022 A 
ATOM      7  C5  UNL d   1       1.433  -0.443  -1.173  0.00  0.00     0.026 A 
ATOM      8  C6  UNL d   1       0.256   0.177  -1.714  0.00  0.00    -0.082 A 
ATOM      9  C7  UNL d   1      -0.123   0.421  -3.056  0.00  0.00     0.045 A 
ENDROOT
TORSDOF 0
ENDMDL
