MODEL 1
REMARK minimizedAffinity -0.218095303
REMARK minimizedRMSD -1
REMARK  0 active torsions:
REMARK  status: ('A' for Active; 'I' for Inactive)
ROOT
ATOM      1  C   UNL d   1      -0.364   0.418   0.740  0.00  0.00    -0.002 A 
ATOM      2  C1  UNL d   1       0.472  -0.189  -0.187  0.00  0.00     0.010 A 
ATOM      3  C2  UNL d   1       0.333   0.077  -1.550  0.00  0.00     0.041 A 
ATOM      4  C3  UNL d   1      -0.668   0.975  -1.971  0.00  0.00    -0.075 A 
ATOM      5  S   UNL d   1      -1.023   1.453  -3.589  0.00  0.00     0.015 SA
ATOM      6  C4  UNL d   1      -2.291   2.476  -3.088  0.00  0.00     0.022 A 
ATOM      7  C5  UNL d   1      -2.454   2.464  -1.723  0.00  0.00     0.026 A 
ATOM      8  C6  UNL d   1      -1.521   1.599  -1.056  0.00  0.00    -0.082 A 
ATOM      9  C7  UNL d   1      -1.356   1.308   0.319  0.00  0.00     0.045 A 
ENDROOT
TORSDOF 0
ENDMDL
