MODEL 1
REMARK minimizedAffinity 3.14369464
REMARK minimizedRMSD -1
REMARK  0 active torsions:
REMARK  status: ('A' for Active; 'I' for Inactive)
ROOT
ATOM      1  C   UNL d   1       0.253   1.535  -1.368  0.00  0.00    -0.002 A 
ATOM      2  C1  UNL d   1      -0.922   1.420  -0.639  0.00  0.00     0.010 A 
ATOM      3  C2  UNL d   1      -1.022   0.499   0.406  0.00  0.00     0.041 A 
ATOM      4  C3  UNL d   1       0.090  -0.311   0.710  0.00  0.00    -0.075 A 
ATOM      5  S   UNL d   1       0.197  -1.507   1.946  0.00  0.00     0.015 SA
ATOM      6  C4  UNL d   1       1.806  -1.893   1.536  0.00  0.00     0.022 A 
ATOM      7  C5  UNL d   1       2.265  -1.138   0.483  0.00  0.00     0.026 A 
ATOM      8  C6  UNL d   1       1.284  -0.213  -0.010  0.00  0.00    -0.082 A 
ATOM      9  C7  UNL d   1       1.354   0.730  -1.064  0.00  0.00     0.045 A 
ENDROOT
TORSDOF 0
ENDMDL
