MODEL 1
REMARK minimizedAffinity 1.01063585
REMARK minimizedRMSD -1
REMARK  0 active torsions:
REMARK  status: ('A' for Active; 'I' for Inactive)
ROOT
ATOM      1  C   UNL d   1       1.935  -1.983   2.188  0.00  0.00    -0.002 A 
ATOM      2  C1  UNL d   1       0.784  -1.878   2.957  0.00  0.00     0.010 A 
ATOM      3  C2  UNL d   1      -0.294  -1.106   2.519  0.00  0.00     0.041 A 
ATOM      4  C3  UNL d   1      -0.195  -0.436   1.284  0.00  0.00    -0.075 A 
ATOM      5  S   UNL d   1      -1.389   0.565   0.546  0.00  0.00     0.015 SA
ATOM      6  C4  UNL d   1      -0.400   0.876  -0.807  0.00  0.00     0.022 A 
ATOM      7  C5  UNL d   1       0.815   0.240  -0.714  0.00  0.00     0.026 A 
ATOM      8  C6  UNL d   1       0.953  -0.527   0.492  0.00  0.00    -0.082 A 
ATOM      9  C7  UNL d   1       2.029  -1.318   0.963  0.00  0.00     0.045 A 
ENDROOT
TORSDOF 0
ENDMDL
