MODEL 1
REMARK minimizedAffinity -2.57200551
REMARK minimizedRMSD -1
REMARK  0 active torsions:
REMARK  status: ('A' for Active; 'I' for Inactive)
ROOT
ATOM      1  C   UNL d   1       1.540   0.401  -0.941  0.00  0.00    -0.002 A 
ATOM      2  C1  UNL d   1       2.173  -0.677  -0.339  0.00  0.00     0.010 A 
ATOM      3  C2  UNL d   1       1.624  -1.282   0.793  0.00  0.00     0.041 A 
ATOM      4  C3  UNL d   1       0.415  -0.781   1.315  0.00  0.00    -0.075 A 
ATOM      5  S   UNL d   1      -0.443  -1.363   2.693  0.00  0.00     0.015 SA
ATOM      6  C4  UNL d   1      -1.670  -0.194   2.515  0.00  0.00     0.022 A 
ATOM      7  C5  UNL d   1      -1.447   0.629   1.436  0.00  0.00     0.026 A 
ATOM      8  C6  UNL d   1      -0.241   0.304   0.727  0.00  0.00    -0.082 A 
ATOM      9  C7  UNL d   1       0.341   0.896  -0.420  0.00  0.00     0.045 A 
ENDROOT
TORSDOF 0
ENDMDL
