MODEL 1
REMARK minimizedAffinity -3.59256744
REMARK minimizedRMSD -1
REMARK  0 active torsions:
REMARK  status: ('A' for Active; 'I' for Inactive)
ROOT
ATOM      1  C   UNL d   1       0.711  -0.676  -0.406  0.00  0.00    -0.002 A 
ATOM      2  C1  UNL d   1       0.545   0.477   0.348  0.00  0.00     0.010 A 
ATOM      3  C2  UNL d   1      -0.274   1.512  -0.107  0.00  0.00     0.041 A 
ATOM      4  C3  UNL d   1      -0.931   1.366  -1.345  0.00  0.00    -0.075 A 
ATOM      5  S   UNL d   1      -1.984   2.502  -2.103  0.00  0.00     0.015 SA
ATOM      6  C4  UNL d   1      -2.239   1.483  -3.445  0.00  0.00     0.022 A 
ATOM      7  C5  UNL d   1      -1.545   0.301  -3.334  0.00  0.00     0.026 A 
ATOM      8  C6  UNL d   1      -0.780   0.214  -2.122  0.00  0.00    -0.082 A 
ATOM      9  C7  UNL d   1       0.058  -0.817  -1.633  0.00  0.00     0.045 A 
ENDROOT
TORSDOF 0
ENDMDL
