MODEL 1
REMARK minimizedAffinity -0.662511528
REMARK minimizedRMSD -1
REMARK  0 active torsions:
REMARK  status: ('A' for Active; 'I' for Inactive)
ROOT
ATOM      1  C   UNL d   1      -2.383   2.569  -1.685  0.00  0.00    -0.002 A 
ATOM      2  C1  UNL d   1      -2.429   1.646  -2.720  0.00  0.00     0.010 A 
ATOM      3  C2  UNL d   1      -1.601   0.522  -2.707  0.00  0.00     0.041 A 
ATOM      4  C3  UNL d   1      -0.718   0.338  -1.625  0.00  0.00    -0.075 A 
ATOM      5  S   UNL d   1       0.389  -0.963  -1.396  0.00  0.00     0.015 SA
ATOM      6  C4  UNL d   1       0.949  -0.325   0.082  0.00  0.00     0.022 A 
ATOM      7  C5  UNL d   1       0.318   0.852   0.408  0.00  0.00     0.026 A 
ATOM      8  C6  UNL d   1      -0.653   1.254  -0.571  0.00  0.00    -0.082 A 
ATOM      9  C7  UNL d   1      -1.506   2.383  -0.613  0.00  0.00     0.045 A 
ENDROOT
TORSDOF 0
ENDMDL
