MODEL 1
REMARK minimizedAffinity -3.9128623
REMARK minimizedRMSD -1
REMARK  0 active torsions:
REMARK  status: ('A' for Active; 'I' for Inactive)
ROOT
ATOM      1  C   UNL d   1       0.918  -2.064   3.147  0.00  0.00    -0.002 A 
ATOM      2  C1  UNL d   1      -0.356  -1.562   3.371  0.00  0.00     0.010 A 
ATOM      3  C2  UNL d   1      -0.920  -0.637   2.491  0.00  0.00     0.041 A 
ATOM      4  C3  UNL d   1      -0.176  -0.221   1.369  0.00  0.00    -0.075 A 
ATOM      5  S   UNL d   1      -0.664   0.902   0.156  0.00  0.00     0.015 SA
ATOM      6  C4  UNL d   1       0.807   0.742  -0.690  0.00  0.00     0.022 A 
ATOM      7  C5  UNL d   1       1.662  -0.143  -0.075  0.00  0.00     0.026 A 
ATOM      8  C6  UNL d   1       1.109  -0.713   1.121  0.00  0.00    -0.082 A 
ATOM      9  C7  UNL d   1       1.654  -1.649   2.033  0.00  0.00     0.045 A 
ENDROOT
TORSDOF 0
ENDMDL
