MODEL 1
REMARK minimizedAffinity 0.853978097
REMARK minimizedRMSD -1
REMARK  0 active torsions:
REMARK  status: ('A' for Active; 'I' for Inactive)
ROOT
ATOM      1  C   UNL d   1       1.769  -0.699   0.149  0.00  0.00    -0.002 A 
ATOM      2  C1  UNL d   1       1.888  -1.043  -1.191  0.00  0.00     0.010 A 
ATOM      3  C2  UNL d   1       1.025  -0.497  -2.143  0.00  0.00     0.041 A 
ATOM      4  C3  UNL d   1       0.032   0.410  -1.723  0.00  0.00    -0.075 A 
ATOM      5  S   UNL d   1      -1.135   1.204  -2.713  0.00  0.00     0.015 SA
ATOM      6  C4  UNL d   1      -1.819   2.019  -1.381  0.00  0.00     0.022 A 
ATOM      7  C5  UNL d   1      -1.185   1.704  -0.203  0.00  0.00     0.026 A 
ATOM      8  C6  UNL d   1      -0.107   0.772  -0.381  0.00  0.00    -0.082 A 
ATOM      9  C7  UNL d   1       0.782   0.200   0.561  0.00  0.00     0.045 A 
ENDROOT
TORSDOF 0
ENDMDL
