MODEL 1
REMARK minimizedAffinity -3.08368611
REMARK minimizedRMSD -1
REMARK  0 active torsions:
REMARK  status: ('A' for Active; 'I' for Inactive)
ROOT
ATOM      1  C   UNL d   1      -1.114   1.814  -0.130  0.00  0.00     0.172 C 
ATOM      2  N   UNL d   1      -0.259   0.674  -0.363  0.00  0.00    -0.070 N 
ATOM      3  C1  UNL d   1       1.070   0.594  -0.044  0.00  0.00    -0.004 A 
ATOM      4  C2  UNL d   1       1.521  -0.651  -0.425  0.00  0.00    -0.047 A 
ATOM      5  C3  UNL d   1       0.426  -1.343  -0.993  0.00  0.00    -0.047 A 
ATOM      6  C4  UNL d   1      -0.664  -0.500  -0.942  0.00  0.00    -0.004 A 
ENDROOT
TORSDOF 0
ENDMDL
