MODEL 1
REMARK minimizedAffinity -2.66905189
REMARK minimizedRMSD -1
REMARK  0 active torsions:
REMARK  status: ('A' for Active; 'I' for Inactive)
ROOT
ATOM      1  C   UNL d   1       1.792  -1.271   0.470  0.00  0.00     0.172 C 
ATOM      2  N   UNL d   1       0.827  -0.265   0.097  0.00  0.00    -0.070 N 
ATOM      3  C1  UNL d   1      -0.513  -0.474  -0.091  0.00  0.00    -0.004 A 
ATOM      4  C2  UNL d   1      -1.085   0.731  -0.437  0.00  0.00    -0.047 A 
ATOM      5  C3  UNL d   1      -0.052   1.699  -0.459  0.00  0.00    -0.047 A 
ATOM      6  C4  UNL d   1       1.121   1.055  -0.125  0.00  0.00    -0.004 A 
ENDROOT
TORSDOF 0
ENDMDL
