MODEL 1
REMARK minimizedAffinity -1.84324062
REMARK minimizedRMSD -1
REMARK  0 active torsions:
REMARK  status: ('A' for Active; 'I' for Inactive)
ROOT
ATOM      1  C   UNL d   1      -0.711   0.171  -0.488  0.00  0.00     0.172 C 
ATOM      2  N   UNL d   1       0.239  -0.829  -0.059  0.00  0.00    -0.070 N 
ATOM      3  C1  UNL d   1      -0.050  -2.139   0.216  0.00  0.00    -0.004 A 
ATOM      4  C2  UNL d   1       1.122  -2.760   0.591  0.00  0.00    -0.047 A 
ATOM      5  C3  UNL d   1       2.151  -1.789   0.541  0.00  0.00    -0.047 A 
ATOM      6  C4  UNL d   1       1.576  -0.603   0.136  0.00  0.00    -0.004 A 
ENDROOT
TORSDOF 0
ENDMDL
