MODEL 1
REMARK minimizedAffinity -2.59198737
REMARK minimizedRMSD -1
REMARK  0 active torsions:
REMARK  status: ('A' for Active; 'I' for Inactive)
ROOT
ATOM      1  C   UNL d   1       1.814  -2.132   0.996  0.00  0.00     0.172 C 
ATOM      2  N   UNL d   1       0.933  -1.110   0.481  0.00  0.00    -0.070 N 
ATOM      3  C1  UNL d   1       1.318  -0.025  -0.260  0.00  0.00    -0.004 A 
ATOM      4  C2  UNL d   1       0.188   0.706  -0.556  0.00  0.00    -0.047 A 
ATOM      5  C3  UNL d   1      -0.914   0.037   0.028  0.00  0.00    -0.047 A 
ATOM      6  C4  UNL d   1      -0.424  -1.084   0.664  0.00  0.00    -0.004 A 
ENDROOT
TORSDOF 0
ENDMDL
