MODEL 1
REMARK minimizedAffinity -3.2551558
REMARK minimizedRMSD -1
REMARK  0 active torsions:
REMARK  status: ('A' for Active; 'I' for Inactive)
ROOT
ATOM      1  C   UNL d   1      -0.138   0.704  -0.789  0.00  0.00     0.172 C 
ATOM      2  N   UNL d   1       0.482  -0.452  -0.185  0.00  0.00    -0.070 N 
ATOM      3  C1  UNL d   1      -0.067  -1.704  -0.108  0.00  0.00    -0.004 A 
ATOM      4  C2  UNL d   1       0.835  -2.521   0.537  0.00  0.00    -0.047 A 
ATOM      5  C3  UNL d   1       1.966  -1.734   0.860  0.00  0.00    -0.047 A 
ATOM      6  C4  UNL d   1       1.721  -0.457   0.401  0.00  0.00    -0.004 A 
ENDROOT
TORSDOF 0
ENDMDL
