MODEL 1
REMARK minimizedAffinity -2.83719492
REMARK minimizedRMSD -1
REMARK  0 active torsions:
REMARK  status: ('A' for Active; 'I' for Inactive)
ROOT
ATOM      1  C   UNL d   1      -0.452   0.337  -0.192  0.00  0.00     0.172 C 
ATOM      2  N   UNL d   1       0.472  -0.713   0.167  0.00  0.00    -0.070 N 
ATOM      3  C1  UNL d   1       0.673  -1.202   1.430  0.00  0.00    -0.004 A 
ATOM      4  C2  UNL d   1       1.629  -2.191   1.352  0.00  0.00    -0.047 A 
ATOM      5  C3  UNL d   1       2.017  -2.299  -0.005  0.00  0.00    -0.047 A 
ATOM      6  C4  UNL d   1       1.285  -1.373  -0.716  0.00  0.00    -0.004 A 
ENDROOT
TORSDOF 0
ENDMDL
