MODEL 1
REMARK minimizedAffinity -2.76693678
REMARK minimizedRMSD -1
REMARK  0 active torsions:
REMARK  status: ('A' for Active; 'I' for Inactive)
ROOT
ATOM      1  C   UNL d   1      -4.133   1.207  -2.928  0.00  0.00     0.172 C 
ATOM      2  N   UNL d   1      -2.781   1.710  -2.999  0.00  0.00    -0.070 N 
ATOM      3  C1  UNL d   1      -2.022   2.111  -1.932  0.00  0.00    -0.004 A 
ATOM      4  C2  UNL d   1      -0.798   2.520  -2.416  0.00  0.00    -0.047 A 
ATOM      5  C3  UNL d   1      -0.823   2.360  -3.822  0.00  0.00    -0.047 A 
ATOM      6  C4  UNL d   1      -2.063   1.857  -4.156  0.00  0.00    -0.004 A 
ENDROOT
TORSDOF 0
ENDMDL
