MODEL 1
REMARK minimizedAffinity -2.99547005
REMARK minimizedRMSD -1
REMARK  0 active torsions:
REMARK  status: ('A' for Active; 'I' for Inactive)
ROOT
ATOM      1  C   UNL d   1      -0.335   0.836  -0.272  0.00  0.00     0.172 C 
ATOM      2  N   UNL d   1       0.653  -0.137   0.131  0.00  0.00    -0.070 N 
ATOM      3  C1  UNL d   1       0.542  -0.995   1.193  0.00  0.00    -0.004 A 
ATOM      4  C2  UNL d   1       1.689  -1.758   1.240  0.00  0.00    -0.047 A 
ATOM      5  C3  UNL d   1       2.517  -1.345   0.170  0.00  0.00    -0.047 A 
ATOM      6  C4  UNL d   1       1.852  -0.340  -0.500  0.00  0.00    -0.004 A 
ENDROOT
TORSDOF 0
ENDMDL
