MODEL 1
REMARK minimizedAffinity -2.35229516
REMARK minimizedRMSD -1
REMARK  0 active torsions:
REMARK  status: ('A' for Active; 'I' for Inactive)
ROOT
ATOM      1  C   UNL d   1      -0.843   0.380  -0.818  0.00  0.00     0.172 C 
ATOM      2  N   UNL d   1       0.160  -0.566  -0.389  0.00  0.00    -0.070 N 
ATOM      3  C1  UNL d   1       0.929  -1.342  -1.214  0.00  0.00    -0.004 A 
ATOM      4  C2  UNL d   1       1.760  -2.105  -0.421  0.00  0.00    -0.047 A 
ATOM      5  C3  UNL d   1       1.479  -1.776   0.926  0.00  0.00    -0.047 A 
ATOM      6  C4  UNL d   1       0.484  -0.821   0.917  0.00  0.00    -0.004 A 
ENDROOT
TORSDOF 0
ENDMDL
