MODEL 1
REMARK minimizedAffinity -2.50203705
REMARK minimizedRMSD -1
REMARK  0 active torsions:
REMARK  status: ('A' for Active; 'I' for Inactive)
ROOT
ATOM      1  C   UNL d   1      -0.001   0.269  -0.744  0.00  0.00     0.172 C 
ATOM      2  N   UNL d   1       1.054  -0.382  -0.004  0.00  0.00    -0.070 N 
ATOM      3  C1  UNL d   1       2.223   0.204   0.403  0.00  0.00    -0.004 A 
ATOM      4  C2  UNL d   1       2.960  -0.746   1.076  0.00  0.00    -0.047 A 
ATOM      5  C3  UNL d   1       2.208  -1.945   1.074  0.00  0.00    -0.047 A 
ATOM      6  C4  UNL d   1       1.033  -1.691   0.399  0.00  0.00    -0.004 A 
ENDROOT
TORSDOF 0
ENDMDL
