MODEL 1
REMARK minimizedAffinity -2.91027665
REMARK minimizedRMSD -1
REMARK  0 active torsions:
REMARK  status: ('A' for Active; 'I' for Inactive)
ROOT
ATOM      1  C   UNL d   1       0.401  -0.104  -0.561  0.00  0.00     0.172 C 
ATOM      2  N   UNL d   1       0.599  -1.136   0.430  0.00  0.00    -0.070 N 
ATOM      3  C1  UNL d   1       1.576  -2.095   0.399  0.00  0.00    -0.004 A 
ATOM      4  C2  UNL d   1       1.427  -2.885   1.518  0.00  0.00    -0.047 A 
ATOM      5  C3  UNL d   1       0.322  -2.385   2.246  0.00  0.00    -0.047 A 
ATOM      6  C4  UNL d   1      -0.172  -1.302   1.550  0.00  0.00    -0.004 A 
ENDROOT
TORSDOF 0
ENDMDL
