MODEL 1
REMARK minimizedAffinity -1.49013448
REMARK minimizedRMSD -1
REMARK  0 active torsions:
REMARK  status: ('A' for Active; 'I' for Inactive)
ROOT
ATOM      1  C   UNL d   1       1.575  -1.193   0.038  0.00  0.00     0.172 C 
ATOM      2  N   UNL d   1       0.489  -0.245   0.128  0.00  0.00    -0.070 N 
ATOM      3  C1  UNL d   1      -0.665  -0.419   0.844  0.00  0.00    -0.004 A 
ATOM      4  C2  UNL d   1      -1.441   0.707   0.674  0.00  0.00    -0.047 A 
ATOM      5  C3  UNL d   1      -0.729   1.588  -0.174  0.00  0.00    -0.047 A 
ATOM      6  C4  UNL d   1       0.462   0.973  -0.498  0.00  0.00    -0.004 A 
ENDROOT
TORSDOF 0
ENDMDL
