MODEL 1
REMARK minimizedAffinity -3.64425945
REMARK minimizedRMSD -1
REMARK  0 active torsions:
REMARK  status: ('A' for Active; 'I' for Inactive)
ROOT
ATOM      1  C   UNL d   1      -2.852   1.020  -2.142  0.00  0.00     0.172 C 
ATOM      2  N   UNL d   1      -1.497   0.711  -1.750  0.00  0.00    -0.070 N 
ATOM      3  C1  UNL d   1      -1.005   0.756  -0.473  0.00  0.00    -0.004 A 
ATOM      4  C2  UNL d   1       0.323   0.393  -0.519  0.00  0.00    -0.047 A 
ATOM      5  C3  UNL d   1       0.642   0.121  -1.871  0.00  0.00    -0.047 A 
ATOM      6  C4  UNL d   1      -0.503   0.326  -2.611  0.00  0.00    -0.004 A 
ENDROOT
TORSDOF 0
ENDMDL
