MODEL 1
REMARK minimizedAffinity 0.519976139
REMARK minimizedRMSD -1
REMARK  0 active torsions:
REMARK  status: ('A' for Active; 'I' for Inactive)
ROOT
ATOM      1  C   UNL d   1       5.953  -4.501   4.158  0.00  0.00     0.020 A 
ATOM      2  C1  UNL d   1       5.913  -4.197   5.518  0.00  0.00     0.020 A 
ATOM      3  C2  UNL d   1       5.002  -3.252   5.995  0.00  0.00     0.034 A 
ATOM      4  C3  UNL d   1       4.128  -2.608   5.111  0.00  0.00     0.017 A 
ATOM      5  C4  UNL d   1       4.170  -2.914   3.746  0.00  0.00     0.017 A 
ATOM      6  C5  UNL d   1       5.084  -3.861   3.274  0.00  0.00     0.034 A 
ATOM      7 Cl   UNL d   1       3.123  -2.161   2.595  0.00  0.00    -0.070 Cl
ATOM      8 Cl1  UNL d   1       3.027  -1.450   5.770  0.00  0.00    -0.070 Cl
ENDROOT
TORSDOF 0
ENDMDL
