MODEL 1
REMARK minimizedAffinity -2.60298538
REMARK minimizedRMSD -1
REMARK  0 active torsions:
REMARK  status: ('A' for Active; 'I' for Inactive)
ROOT
ATOM      1  C   UNL d   1      -0.224  -4.453  -0.642  0.00  0.00     0.020 A 
ATOM      2  C1  UNL d   1       0.112  -3.769  -1.810  0.00  0.00     0.020 A 
ATOM      3  C2  UNL d   1       0.327  -2.389  -1.773  0.00  0.00     0.034 A 
ATOM      4  C3  UNL d   1       0.206  -1.690  -0.566  0.00  0.00     0.017 A 
ATOM      5  C4  UNL d   1      -0.131  -2.378   0.605  0.00  0.00     0.017 A 
ATOM      6  C5  UNL d   1      -0.345  -3.760   0.562  0.00  0.00     0.034 A 
ATOM      7 Cl   UNL d   1      -0.298  -1.585   2.131  0.00  0.00    -0.070 Cl
ATOM      8 Cl1  UNL d   1       0.486   0.015  -0.594  0.00  0.00    -0.070 Cl
ENDROOT
TORSDOF 0
ENDMDL
