MODEL 1
REMARK minimizedAffinity 1.95933974
REMARK minimizedRMSD -1
REMARK  0 active torsions:
REMARK  status: ('A' for Active; 'I' for Inactive)
ROOT
ATOM      1  C   UNL d   1       1.030  -2.381   0.841  0.00  0.00     0.020 A 
ATOM      2  C1  UNL d   1      -0.129  -1.609   0.921  0.00  0.00     0.020 A 
ATOM      3  C2  UNL d   1      -1.363  -2.164   0.576  0.00  0.00     0.034 A 
ATOM      4  C3  UNL d   1      -1.442  -3.495   0.150  0.00  0.00     0.017 A 
ATOM      5  C4  UNL d   1      -0.278  -4.269   0.070  0.00  0.00     0.017 A 
ATOM      6  C5  UNL d   1       0.955  -3.708   0.417  0.00  0.00     0.034 A 
ATOM      7 Cl   UNL d   1      -0.296  -5.918  -0.447  0.00  0.00    -0.070 Cl
ATOM      8 Cl1  UNL d   1      -3.001  -4.117  -0.260  0.00  0.00    -0.070 Cl
ENDROOT
TORSDOF 0
ENDMDL
