MODEL 1
REMARK minimizedAffinity 1.68670285
REMARK minimizedRMSD -1
REMARK  0 active torsions:
REMARK  status: ('A' for Active; 'I' for Inactive)
ROOT
ATOM      1  C   UNL d   1      -1.191  -1.870   1.128  0.00  0.00     0.020 A 
ATOM      2  C1  UNL d   1      -0.466  -3.015   0.804  0.00  0.00     0.020 A 
ATOM      3  C2  UNL d   1       0.304  -3.048  -0.361  0.00  0.00     0.034 A 
ATOM      4  C3  UNL d   1       0.351  -1.933  -1.205  0.00  0.00     0.017 A 
ATOM      5  C4  UNL d   1      -0.377  -0.783  -0.879  0.00  0.00     0.017 A 
ATOM      6  C5  UNL d   1      -1.147  -0.756   0.288  0.00  0.00     0.034 A 
ATOM      7 Cl   UNL d   1      -0.369   0.632  -1.871  0.00  0.00    -0.070 Cl
ATOM      8 Cl1  UNL d   1       1.325  -2.043  -2.628  0.00  0.00    -0.070 Cl
ENDROOT
TORSDOF 0
ENDMDL
