MODEL 1
REMARK minimizedAffinity 10.2634544
REMARK minimizedRMSD -1
REMARK  0 active torsions:
REMARK  status: ('A' for Active; 'I' for Inactive)
ROOT
ATOM      1  C   UNL d   1       0.019  -3.935   0.496  0.00  0.00     0.020 A 
ATOM      2  C1  UNL d   1      -0.980  -3.011   0.799  0.00  0.00     0.020 A 
ATOM      3  C2  UNL d   1      -0.991  -1.764   0.171  0.00  0.00     0.034 A 
ATOM      4  C3  UNL d   1      -0.002  -1.438  -0.764  0.00  0.00     0.017 A 
ATOM      5  C4  UNL d   1       1.000  -2.366  -1.068  0.00  0.00     0.017 A 
ATOM      6  C5  UNL d   1       1.007  -3.614  -0.436  0.00  0.00     0.034 A 
ATOM      7 Cl   UNL d   1       2.254  -2.036  -2.211  0.00  0.00    -0.070 Cl
ATOM      8 Cl1  UNL d   1      -0.078   0.122  -1.503  0.00  0.00    -0.070 Cl
ENDROOT
TORSDOF 0
ENDMDL
