MODEL 1
REMARK minimizedAffinity 7.27746487
REMARK minimizedRMSD -1
REMARK  0 active torsions:
REMARK  status: ('A' for Active; 'I' for Inactive)
ROOT
ATOM      1  C   UNL d   1      -1.250  -2.709   0.890  0.00  0.00     0.020 A 
ATOM      2  C1  UNL d   1      -0.308  -3.732   0.796  0.00  0.00     0.020 A 
ATOM      3  C2  UNL d   1       0.770  -3.610  -0.083  0.00  0.00     0.034 A 
ATOM      4  C3  UNL d   1       0.909  -2.461  -0.872  0.00  0.00     0.017 A 
ATOM      5  C4  UNL d   1      -0.038  -1.435  -0.776  0.00  0.00     0.017 A 
ATOM      6  C5  UNL d   1      -1.115  -1.562   0.106  0.00  0.00     0.034 A 
ATOM      7 Cl   UNL d   1       0.066   0.012  -1.716  0.00  0.00    -0.070 Cl
ATOM      8 Cl1  UNL d   1       2.267  -2.377  -1.937  0.00  0.00    -0.070 Cl
ENDROOT
TORSDOF 0
ENDMDL
