MODEL 1
REMARK minimizedAffinity 11.1933126
REMARK minimizedRMSD -1
REMARK  0 active torsions:
REMARK  status: ('A' for Active; 'I' for Inactive)
ROOT
ATOM      1  C   UNL d   1       1.715   2.516   0.326  0.00  0.00     0.020 A 
ATOM      2  C1  UNL d   1       0.612   2.356  -0.511  0.00  0.00     0.020 A 
ATOM      3  C2  UNL d   1       0.531   1.246  -1.356  0.00  0.00     0.034 A 
ATOM      4  C3  UNL d   1       1.556   0.293  -1.365  0.00  0.00     0.017 A 
ATOM      5  C4  UNL d   1       2.664   0.455  -0.525  0.00  0.00     0.017 A 
ATOM      6  C5  UNL d   1       2.739   1.568   0.319  0.00  0.00     0.034 A 
ATOM      7 Cl   UNL d   1       3.967  -0.679  -0.481  0.00  0.00    -0.070 Cl
ATOM      8 Cl1  UNL d   1       1.390  -1.054  -2.435  0.00  0.00    -0.070 Cl
ENDROOT
TORSDOF 0
ENDMDL
