MODEL 1
REMARK minimizedAffinity 8.8723774
REMARK minimizedRMSD -1
REMARK  0 active torsions:
REMARK  status: ('A' for Active; 'I' for Inactive)
ROOT
ATOM      1  C   UNL d   1      -0.344  -2.836   0.486  0.00  0.00     0.020 A 
ATOM      2  C1  UNL d   1       0.244  -4.034   0.083  0.00  0.00     0.020 A 
ATOM      3  C2  UNL d   1       0.986  -4.085  -1.099  0.00  0.00     0.034 A 
ATOM      4  C3  UNL d   1       1.141  -2.936  -1.882  0.00  0.00     0.017 A 
ATOM      5  C4  UNL d   1       0.550  -1.733  -1.477  0.00  0.00     0.017 A 
ATOM      6  C5  UNL d   1      -0.191  -1.688  -0.292  0.00  0.00     0.034 A 
ATOM      7 Cl   UNL d   1       0.697  -0.274  -2.391  0.00  0.00    -0.070 Cl
ATOM      8 Cl1  UNL d   1       2.071  -3.071  -3.332  0.00  0.00    -0.070 Cl
ENDROOT
TORSDOF 0
ENDMDL
