MODEL 1
REMARK minimizedAffinity 2.35784149
REMARK minimizedRMSD -1
REMARK  0 active torsions:
REMARK  status: ('A' for Active; 'I' for Inactive)
ROOT
ATOM      1  C   UNL d   1       5.852   5.388  -3.750  0.00  0.00     0.020 A 
ATOM      2  C1  UNL d   1       6.000   4.003  -3.813  0.00  0.00     0.020 A 
ATOM      3  C2  UNL d   1       4.966   3.170  -3.379  0.00  0.00     0.034 A 
ATOM      4  C3  UNL d   1       3.780   3.721  -2.880  0.00  0.00     0.017 A 
ATOM      5  C4  UNL d   1       3.632   5.111  -2.818  0.00  0.00     0.017 A 
ATOM      6  C5  UNL d   1       4.670   5.941  -3.254  0.00  0.00     0.034 A 
ATOM      7 Cl   UNL d   1       2.199   5.865  -2.215  0.00  0.00    -0.070 Cl
ATOM      8 Cl1  UNL d   1       2.544   2.631  -2.361  0.00  0.00    -0.070 Cl
ENDROOT
TORSDOF 0
ENDMDL
