MODEL 1
REMARK minimizedAffinity 1.64541876
REMARK minimizedRMSD -1
REMARK  0 active torsions:
REMARK  status: ('A' for Active; 'I' for Inactive)
ROOT
ATOM      1  C   UNL d   1      -0.196  -1.638   0.444  0.00  0.00     0.020 A 
ATOM      2  C1  UNL d   1      -0.440  -2.837   1.114  0.00  0.00     0.020 A 
ATOM      3  C2  UNL d   1      -0.070  -4.050   0.531  0.00  0.00     0.034 A 
ATOM      4  C3  UNL d   1       0.546  -4.069  -0.726  0.00  0.00     0.017 A 
ATOM      5  C4  UNL d   1       0.790  -2.865  -1.397  0.00  0.00     0.017 A 
ATOM      6  C5  UNL d   1       0.418  -1.653  -0.809  0.00  0.00     0.034 A 
ATOM      7 Cl   UNL d   1       1.546  -2.808  -2.951  0.00  0.00    -0.070 Cl
ATOM      8 Cl1  UNL d   1       0.977  -5.606  -1.387  0.00  0.00    -0.070 Cl
ENDROOT
TORSDOF 0
ENDMDL
