MODEL 1
REMARK minimizedAffinity 11.9138393
REMARK minimizedRMSD -1
REMARK  0 active torsions:
REMARK  status: ('A' for Active; 'I' for Inactive)
ROOT
ATOM      1  C   UNL d   1      -1.384   3.135  -0.796  0.00  0.00     0.020 A 
ATOM      2  C1  UNL d   1      -0.408   3.832  -0.084  0.00  0.00     0.020 A 
ATOM      3  C2  UNL d   1       0.821   3.228   0.191  0.00  0.00     0.034 A 
ATOM      4  C3  UNL d   1       1.078   1.924  -0.246  0.00  0.00     0.017 A 
ATOM      5  C4  UNL d   1       0.098   1.225  -0.961  0.00  0.00     0.017 A 
ATOM      6  C5  UNL d   1      -1.131   1.834  -1.234  0.00  0.00     0.034 A 
ATOM      7 Cl   UNL d   1       0.342  -0.388  -1.533  0.00  0.00    -0.070 Cl
ATOM      8 Cl1  UNL d   1       2.619   1.240   0.129  0.00  0.00    -0.070 Cl
ENDROOT
TORSDOF 0
ENDMDL
