MODEL 1
REMARK minimizedAffinity 1.05719674
REMARK minimizedRMSD -1
REMARK  0 active torsions:
REMARK  status: ('A' for Active; 'I' for Inactive)
ROOT
ATOM      1  C   UNL d   1      -0.505  -2.575  -0.737  0.00  0.00     0.020 A 
ATOM      2  C1  UNL d   1      -0.467  -3.278   0.466  0.00  0.00     0.020 A 
ATOM      3  C2  UNL d   1      -0.760  -2.627   1.666  0.00  0.00     0.034 A 
ATOM      4  C3  UNL d   1      -1.091  -1.267   1.665  0.00  0.00     0.017 A 
ATOM      5  C4  UNL d   1      -1.129  -0.561   0.457  0.00  0.00     0.017 A 
ATOM      6  C5  UNL d   1      -0.835  -1.219  -0.741  0.00  0.00     0.034 A 
ATOM      7 Cl   UNL d   1      -1.530   1.118   0.376  0.00  0.00    -0.070 Cl
ATOM      8 Cl1  UNL d   1      -1.442  -0.525   3.186  0.00  0.00    -0.070 Cl
ENDROOT
TORSDOF 0
ENDMDL
