MODEL 1
REMARK minimizedAffinity -4.9230485
REMARK minimizedRMSD -1
REMARK  0 active torsions:
REMARK  status: ('A' for Active; 'I' for Inactive)
ROOT
ATOM      1  C   UNL d   1      -0.006  -3.579  -0.015  0.00  0.00     0.020 A 
ATOM      2  C1  UNL d   1       0.912  -3.337  -1.037  0.00  0.00     0.020 A 
ATOM      3  C2  UNL d   1       1.175  -2.027  -1.443  0.00  0.00     0.034 A 
ATOM      4  C3  UNL d   1       0.520  -0.954  -0.827  0.00  0.00     0.017 A 
ATOM      5  C4  UNL d   1      -0.401  -1.199   0.198  0.00  0.00     0.017 A 
ATOM      6  C5  UNL d   1      -0.661  -2.513   0.601  0.00  0.00     0.034 A 
ATOM      7 Cl   UNL d   1      -1.249   0.073   1.005  0.00  0.00    -0.070 Cl
ATOM      8 Cl1  UNL d   1       0.893   0.639  -1.380  0.00  0.00    -0.070 Cl
ENDROOT
TORSDOF 0
ENDMDL
