MODEL 1
REMARK minimizedAffinity 10.2182798
REMARK minimizedRMSD -1
REMARK  0 active torsions:
REMARK  status: ('A' for Active; 'I' for Inactive)
ROOT
ATOM      1  C   UNL d   1       5.589  -4.806   5.962  0.00  0.00     0.020 A 
ATOM      2  C1  UNL d   1       4.485  -5.184   5.200  0.00  0.00     0.020 A 
ATOM      3  C2  UNL d   1       3.778  -4.225   4.471  0.00  0.00     0.034 A 
ATOM      4  C3  UNL d   1       4.174  -2.883   4.503  0.00  0.00     0.017 A 
ATOM      5  C4  UNL d   1       5.283  -2.504   5.268  0.00  0.00     0.017 A 
ATOM      6  C5  UNL d   1       5.988  -3.469   5.996  0.00  0.00     0.034 A 
ATOM      7 Cl   UNL d   1       5.833  -0.868   5.357  0.00  0.00    -0.070 Cl
ATOM      8 Cl1  UNL d   1       3.254  -1.751   3.577  0.00  0.00    -0.070 Cl
ENDROOT
TORSDOF 0
ENDMDL
