MODEL 1
REMARK minimizedAffinity 3.20948958
REMARK minimizedRMSD -1
REMARK  0 active torsions:
REMARK  status: ('A' for Active; 'I' for Inactive)
ROOT
ATOM      1  C   UNL d   1      -1.803  -1.809   1.563  0.00  0.00     0.020 A 
ATOM      2  C1  UNL d   1      -1.080  -0.629   1.735  0.00  0.00     0.020 A 
ATOM      3  C2  UNL d   1      -0.347  -0.098   0.671  0.00  0.00     0.034 A 
ATOM      4  C3  UNL d   1      -0.334  -0.747  -0.568  0.00  0.00     0.017 A 
ATOM      5  C4  UNL d   1      -1.060  -1.932  -0.740  0.00  0.00     0.017 A 
ATOM      6  C5  UNL d   1      -1.792  -2.459   0.328  0.00  0.00     0.034 A 
ATOM      7 Cl   UNL d   1      -1.093  -2.790  -2.240  0.00  0.00    -0.070 Cl
ATOM      8 Cl1  UNL d   1       0.594  -0.035  -1.840  0.00  0.00    -0.070 Cl
ENDROOT
TORSDOF 0
ENDMDL
