MODEL 1
REMARK minimizedAffinity -0.606167495
REMARK minimizedRMSD -1
REMARK  0 active torsions:
REMARK  status: ('A' for Active; 'I' for Inactive)
ROOT
ATOM      1  C   UNL d   1      -0.870  -1.933   1.286  0.00  0.00     0.020 A 
ATOM      2  C1  UNL d   1      -0.320  -0.652   1.289  0.00  0.00     0.020 A 
ATOM      3  C2  UNL d   1       0.043  -0.046   0.084  0.00  0.00     0.034 A 
ATOM      4  C3  UNL d   1      -0.143  -0.721  -1.128  0.00  0.00     0.017 A 
ATOM      5  C4  UNL d   1      -0.695  -2.007  -1.129  0.00  0.00     0.017 A 
ATOM      6  C5  UNL d   1      -1.057  -2.609   0.080  0.00  0.00     0.034 A 
ATOM      7 Cl   UNL d   1      -0.955  -2.902  -2.584  0.00  0.00    -0.070 Cl
ATOM      8 Cl1  UNL d   1       0.329   0.089  -2.579  0.00  0.00    -0.070 Cl
ENDROOT
TORSDOF 0
ENDMDL
