MODEL 1
REMARK minimizedAffinity 4.01648569
REMARK minimizedRMSD -1
REMARK  0 active torsions:
REMARK  status: ('A' for Active; 'I' for Inactive)
ROOT
ATOM      1  C   UNL d   1       5.680   2.605  -1.137  0.00  0.00     0.078 C 
ATOM      2  C1  UNL d   1       4.571   1.597  -1.195  0.00  0.00    -0.077 A 
ATOM      3  C2  UNL d   1       4.534   0.623  -2.200  0.00  0.00    -0.001 A 
ATOM      4  C3  UNL d   1       3.490  -0.303  -2.247  0.00  0.00     0.003 A 
ATOM      5  C4  UNL d   1       2.476  -0.263  -1.293  0.00  0.00    -0.005 A 
ATOM      6  C5  UNL d   1       2.503   0.704  -0.290  0.00  0.00     0.003 A 
ATOM      7  C6  UNL d   1       3.546   1.631  -0.241  0.00  0.00    -0.001 A 
ENDROOT
TORSDOF 0
ENDMDL
