MODEL 1
REMARK minimizedAffinity 8.41119385
REMARK minimizedRMSD -1
REMARK  0 active torsions:
REMARK  status: ('A' for Active; 'I' for Inactive)
ROOT
ATOM      1  C   UNL d   1       2.452   0.016  -0.749  0.00  0.00     0.078 C 
ATOM      2  C1  UNL d   1       3.693   0.801  -1.049  0.00  0.00    -0.077 A 
ATOM      3  C2  UNL d   1       4.385   1.472  -0.034  0.00  0.00    -0.001 A 
ATOM      4  C3  UNL d   1       5.534   2.208  -0.329  0.00  0.00     0.003 A 
ATOM      5  C4  UNL d   1       6.000   2.281  -1.640  0.00  0.00    -0.005 A 
ATOM      6  C5  UNL d   1       5.317   1.619  -2.658  0.00  0.00     0.003 A 
ATOM      7  C6  UNL d   1       4.168   0.883  -2.364  0.00  0.00    -0.001 A 
ENDROOT
TORSDOF 0
ENDMDL
