MODEL 1
REMARK minimizedAffinity 2.82417059
REMARK minimizedRMSD -1
REMARK  0 active torsions:
REMARK  status: ('A' for Active; 'I' for Inactive)
ROOT
ATOM      1  C   UNL d   1       3.242   2.419   5.978  0.00  0.00     0.078 C 
ATOM      2  C1  UNL d   1       4.033   3.494   5.295  0.00  0.00    -0.077 A 
ATOM      3  C2  UNL d   1       4.971   4.258   6.000  0.00  0.00    -0.001 A 
ATOM      4  C3  UNL d   1       5.694   5.261   5.353  0.00  0.00     0.003 A 
ATOM      5  C4  UNL d   1       5.486   5.510   3.998  0.00  0.00    -0.005 A 
ATOM      6  C5  UNL d   1       4.553   4.757   3.288  0.00  0.00     0.003 A 
ATOM      7  C6  UNL d   1       3.829   3.753   3.934  0.00  0.00    -0.001 A 
ENDROOT
TORSDOF 0
ENDMDL
