MODEL 1
REMARK minimizedAffinity 5.06423712
REMARK minimizedRMSD -1
REMARK  0 active torsions:
REMARK  status: ('A' for Active; 'I' for Inactive)
ROOT
ATOM      1  C   UNL d   1       1.326   2.735   4.813  0.00  0.00     0.078 C 
ATOM      2  C1  UNL d   1       2.697   3.343   4.797  0.00  0.00    -0.077 A 
ATOM      3  C2  UNL d   1       3.394   3.519   3.596  0.00  0.00    -0.001 A 
ATOM      4  C3  UNL d   1       4.673   4.078   3.597  0.00  0.00     0.003 A 
ATOM      5  C4  UNL d   1       5.266   4.465   4.797  0.00  0.00    -0.005 A 
ATOM      6  C5  UNL d   1       4.581   4.292   5.998  0.00  0.00     0.003 A 
ATOM      7  C6  UNL d   1       3.302   3.733   5.999  0.00  0.00    -0.001 A 
ENDROOT
TORSDOF 0
ENDMDL
