MODEL 1
REMARK minimizedAffinity -4.4564991
REMARK minimizedRMSD -1
REMARK  0 active torsions:
REMARK  status: ('A' for Active; 'I' for Inactive)
ROOT
ATOM      1  C   UNL d   1       0.790   3.714   5.278  0.00  0.00     0.078 C 
ATOM      2  C1  UNL d   1       2.183   4.000   4.803  0.00  0.00    -0.077 A 
ATOM      3  C2  UNL d   1       2.540   3.818   3.461  0.00  0.00    -0.001 A 
ATOM      4  C3  UNL d   1       3.843   4.079   3.035  0.00  0.00     0.003 A 
ATOM      5  C4  UNL d   1       4.801   4.522   3.945  0.00  0.00    -0.005 A 
ATOM      6  C5  UNL d   1       4.456   4.704   5.283  0.00  0.00     0.003 A 
ATOM      7  C6  UNL d   1       3.153   4.443   5.711  0.00  0.00    -0.001 A 
ENDROOT
TORSDOF 0
ENDMDL
