MODEL 1
REMARK minimizedAffinity -1.71046007
REMARK minimizedRMSD -1
REMARK  0 active torsions:
REMARK  status: ('A' for Active; 'I' for Inactive)
ROOT
ATOM      1  C   UNL d   1       5.564   6.000   5.995  0.00  0.00     0.078 C 
ATOM      2  C1  UNL d   1       4.523   5.426   5.080  0.00  0.00    -0.077 A 
ATOM      3  C2  UNL d   1       4.809   4.327   4.262  0.00  0.00    -0.001 A 
ATOM      4  C3  UNL d   1       3.834   3.809   3.408  0.00  0.00     0.003 A 
ATOM      5  C4  UNL d   1       2.566   4.385   3.363  0.00  0.00    -0.005 A 
ATOM      6  C5  UNL d   1       2.272   5.481   4.173  0.00  0.00     0.003 A 
ATOM      7  C6  UNL d   1       3.246   6.000   5.027  0.00  0.00    -0.001 A 
ENDROOT
TORSDOF 0
ENDMDL
