MODEL 1
REMARK minimizedAffinity 0.614365458
REMARK minimizedRMSD -1
REMARK  0 active torsions:
REMARK  status: ('A' for Active; 'I' for Inactive)
ROOT
ATOM      1  C   UNL d   1      -1.845  -0.779  -2.194  0.00  0.00     0.078 C 
ATOM      2  C1  UNL d   1      -1.368   0.413  -1.420  0.00  0.00    -0.077 A 
ATOM      3  C2  UNL d   1      -2.254   1.168  -0.641  0.00  0.00    -0.001 A 
ATOM      4  C3  UNL d   1      -1.798   2.281   0.067  0.00  0.00     0.003 A 
ATOM      5  C4  UNL d   1      -0.457   2.651   0.002  0.00  0.00    -0.005 A 
ATOM      6  C5  UNL d   1       0.432   1.907  -0.773  0.00  0.00     0.003 A 
ATOM      7  C6  UNL d   1      -0.022   0.794  -1.481  0.00  0.00    -0.001 A 
ENDROOT
TORSDOF 0
ENDMDL
