MODEL 1
REMARK minimizedAffinity 3.83215094
REMARK minimizedRMSD -1
REMARK  0 active torsions:
REMARK  status: ('A' for Active; 'I' for Inactive)
ROOT
ATOM      1  C   UNL d   1       5.999   2.718  -2.628  0.00  0.00     0.078 C 
ATOM      2  C1  UNL d   1       4.987   1.949  -1.834  0.00  0.00    -0.077 A 
ATOM      3  C2  UNL d   1       3.987   1.203  -2.470  0.00  0.00    -0.001 A 
ATOM      4  C3  UNL d   1       3.045   0.499  -1.717  0.00  0.00     0.003 A 
ATOM      5  C4  UNL d   1       3.093   0.535  -0.325  0.00  0.00    -0.005 A 
ATOM      6  C5  UNL d   1       4.083   1.277   0.316  0.00  0.00     0.003 A 
ATOM      7  C6  UNL d   1       5.026   1.981  -0.434  0.00  0.00    -0.001 A 
ENDROOT
TORSDOF 0
ENDMDL
