MODEL 1
REMARK minimizedAffinity -3.15727854
REMARK minimizedRMSD -1
REMARK  0 active torsions:
REMARK  status: ('A' for Active; 'I' for Inactive)
ROOT
ATOM      1  C   UNL d   1      -0.448   2.071   2.050  0.00  0.00     0.020 A 
ATOM      2  C1  UNL d   1      -1.179   1.842   0.885  0.00  0.00     0.020 A 
ATOM      3  C2  UNL d   1      -0.921   0.709   0.110  0.00  0.00     0.034 A 
ATOM      4  C3  UNL d   1       0.070  -0.199   0.499  0.00  0.00     0.017 A 
ATOM      5  C4  UNL d   1       0.804   0.032   1.668  0.00  0.00     0.017 A 
ATOM      6  C5  UNL d   1       0.541   1.167   2.441  0.00  0.00     0.034 A 
ATOM      7 Cl   UNL d   1       2.043  -1.043   2.212  0.00  0.00    -0.070 Cl
ATOM      8 Cl1  UNL d   1       0.336  -1.578  -0.508  0.00  0.00    -0.070 Cl
ENDROOT
TORSDOF 0
ENDMDL
