MODEL 1
REMARK minimizedAffinity -1.3577733
REMARK minimizedRMSD -1
REMARK  0 active torsions:
REMARK  status: ('A' for Active; 'I' for Inactive)
ROOT
ATOM      1  C   UNL d   1       0.155   1.736   3.010  0.00  0.00     0.020 A 
ATOM      2  C1  UNL d   1       0.386   0.377   3.213  0.00  0.00     0.020 A 
ATOM      3  C2  UNL d   1       0.481  -0.487   2.120  0.00  0.00     0.034 A 
ATOM      4  C3  UNL d   1       0.345   0.009   0.818  0.00  0.00     0.017 A 
ATOM      5  C4  UNL d   1       0.113   1.374   0.615  0.00  0.00     0.017 A 
ATOM      6  C5  UNL d   1       0.019   2.234   1.713  0.00  0.00     0.034 A 
ATOM      7 Cl   UNL d   1      -0.065   2.059  -0.962  0.00  0.00    -0.070 Cl
ATOM      8 Cl1  UNL d   1       0.474  -1.116  -0.487  0.00  0.00    -0.070 Cl
ENDROOT
TORSDOF 0
ENDMDL
