MODEL 1
REMARK minimizedAffinity -1.10205221
REMARK minimizedRMSD -1
REMARK  0 active torsions:
REMARK  status: ('A' for Active; 'I' for Inactive)
ROOT
ATOM      1  C   UNL d   1      -0.599   0.182  -0.838  0.00  0.00     0.020 A 
ATOM      2  C1  UNL d   1       0.046  -1.017  -0.537  0.00  0.00     0.020 A 
ATOM      3  C2  UNL d   1       0.645  -1.193   0.712  0.00  0.00     0.034 A 
ATOM      4  C3  UNL d   1       0.600  -0.169   1.665  0.00  0.00     0.017 A 
ATOM      5  C4  UNL d   1      -0.048   1.034   1.362  0.00  0.00     0.017 A 
ATOM      6  C5  UNL d   1      -0.646   1.205   0.110  0.00  0.00     0.034 A 
ATOM      7 Cl   UNL d   1      -0.145   2.343   2.486  0.00  0.00    -0.070 Cl
ATOM      8 Cl1  UNL d   1       1.361  -0.456   3.189  0.00  0.00    -0.070 Cl
ENDROOT
TORSDOF 0
ENDMDL
