MODEL 1
REMARK minimizedAffinity -4.54117393
REMARK minimizedRMSD -1
REMARK  0 active torsions:
REMARK  status: ('A' for Active; 'I' for Inactive)
ROOT
ATOM      1  C   UNL d   1      -1.229   2.431   1.431  0.00  0.00     0.020 A 
ATOM      2  C1  UNL d   1      -1.231   2.195   0.057  0.00  0.00     0.020 A 
ATOM      3  C2  UNL d   1      -0.638   1.038  -0.454  0.00  0.00     0.034 A 
ATOM      4  C3  UNL d   1      -0.041   0.113   0.410  0.00  0.00     0.017 A 
ATOM      5  C4  UNL d   1      -0.039   0.351   1.789  0.00  0.00     0.017 A 
ATOM      6  C5  UNL d   1      -0.634   1.511   2.295  0.00  0.00     0.034 A 
ATOM      7 Cl   UNL d   1       0.678  -0.744   2.917  0.00  0.00    -0.070 Cl
ATOM      8 Cl1  UNL d   1       0.673  -1.296  -0.291  0.00  0.00    -0.070 Cl
ENDROOT
TORSDOF 0
ENDMDL
