MODEL 1
REMARK minimizedAffinity -3.94127965
REMARK minimizedRMSD -1
REMARK  0 active torsions:
REMARK  status: ('A' for Active; 'I' for Inactive)
ROOT
ATOM      1  C   UNL d   1      -1.175   2.123   1.816  0.00  0.00     0.020 A 
ATOM      2  C1  UNL d   1      -1.703   1.789   0.570  0.00  0.00     0.020 A 
ATOM      3  C2  UNL d   1      -1.130   0.759  -0.179  0.00  0.00     0.034 A 
ATOM      4  C3  UNL d   1      -0.025   0.059   0.318  0.00  0.00     0.017 A 
ATOM      5  C4  UNL d   1       0.505   0.395   1.569  0.00  0.00     0.017 A 
ATOM      6  C5  UNL d   1      -0.073   1.427   2.315  0.00  0.00     0.034 A 
ATOM      7 Cl   UNL d   1       1.867  -0.424   2.249  0.00  0.00    -0.070 Cl
ATOM      8 Cl1  UNL d   1       0.633  -1.204  -0.661  0.00  0.00    -0.070 Cl
ENDROOT
TORSDOF 0
ENDMDL
