MODEL 1
REMARK minimizedAffinity -4.09324551
REMARK minimizedRMSD -1
REMARK  0 active torsions:
REMARK  status: ('A' for Active; 'I' for Inactive)
ROOT
ATOM      1  C   UNL d   1      -0.759   2.762   1.738  0.00  0.00     0.020 A 
ATOM      2  C1  UNL d   1      -1.151   2.693   0.402  0.00  0.00     0.020 A 
ATOM      3  C2  UNL d   1      -0.723   1.631  -0.397  0.00  0.00     0.034 A 
ATOM      4  C3  UNL d   1       0.100   0.634   0.139  0.00  0.00     0.017 A 
ATOM      5  C4  UNL d   1       0.493   0.704   1.480  0.00  0.00     0.017 A 
ATOM      6  C5  UNL d   1       0.061   1.770   2.276  0.00  0.00     0.034 A 
ATOM      7 Cl   UNL d   1       1.507  -0.489   2.213  0.00  0.00    -0.070 Cl
ATOM      8 Cl1  UNL d   1       0.591  -0.651  -0.907  0.00  0.00    -0.070 Cl
ENDROOT
TORSDOF 0
ENDMDL
