MODEL 1
REMARK minimizedAffinity -4.3730278
REMARK minimizedRMSD -1
REMARK  0 active torsions:
REMARK  status: ('A' for Active; 'I' for Inactive)
ROOT
ATOM      1  C   UNL d   1      -0.503   0.516  -1.940  0.00  0.00     0.020 A 
ATOM      2  C1  UNL d   1       0.187  -0.579  -1.423  0.00  0.00     0.020 A 
ATOM      3  C2  UNL d   1       0.371  -0.700  -0.044  0.00  0.00     0.034 A 
ATOM      4  C3  UNL d   1      -0.138   0.274   0.823  0.00  0.00     0.017 A 
ATOM      5  C4  UNL d   1      -0.831   1.373   0.302  0.00  0.00     0.017 A 
ATOM      6  C5  UNL d   1      -1.012   1.490  -1.079  0.00  0.00     0.034 A 
ATOM      7 Cl   UNL d   1      -1.487   2.616   1.308  0.00  0.00    -0.070 Cl
ATOM      8 Cl1  UNL d   1       0.126   0.060   2.517  0.00  0.00    -0.070 Cl
ENDROOT
TORSDOF 0
ENDMDL
