MODEL 1
REMARK minimizedAffinity -3.35617447
REMARK minimizedRMSD -1
REMARK  0 active torsions:
REMARK  status: ('A' for Active; 'I' for Inactive)
ROOT
ATOM      1  C   UNL d   1      -0.347   2.093   2.664  0.00  0.00     0.020 A 
ATOM      2  C1  UNL d   1      -1.214   1.900   1.589  0.00  0.00     0.020 A 
ATOM      3  C2  UNL d   1      -0.904   0.960   0.603  0.00  0.00     0.034 A 
ATOM      4  C3  UNL d   1       0.274   0.211   0.690  0.00  0.00     0.017 A 
ATOM      5  C4  UNL d   1       1.144   0.406   1.770  0.00  0.00     0.017 A 
ATOM      6  C5  UNL d   1       0.829   1.348   2.754  0.00  0.00     0.034 A 
ATOM      7 Cl   UNL d   1       2.616  -0.482   1.946  0.00  0.00    -0.070 Cl
ATOM      8 Cl1  UNL d   1       0.593  -0.934  -0.564  0.00  0.00    -0.070 Cl
ENDROOT
TORSDOF 0
ENDMDL
