MODEL 1
REMARK minimizedAffinity 6.84254074
REMARK minimizedRMSD -1
REMARK  0 active torsions:
REMARK  status: ('A' for Active; 'I' for Inactive)
ROOT
ATOM      1  C   UNL d   1      -2.594   2.355  -0.862  0.00  0.00     0.020 A 
ATOM      2  C1  UNL d   1      -3.253   1.130  -0.953  0.00  0.00     0.020 A 
ATOM      3  C2  UNL d   1      -4.301   0.967  -1.862  0.00  0.00     0.034 A 
ATOM      4  C3  UNL d   1      -4.693   2.031  -2.682  0.00  0.00     0.017 A 
ATOM      5  C4  UNL d   1      -4.031   3.260  -2.590  0.00  0.00     0.017 A 
ATOM      6  C5  UNL d   1      -2.982   3.418  -1.679  0.00  0.00     0.034 A 
ATOM      7 Cl   UNL d   1      -4.458   4.619  -3.569  0.00  0.00    -0.070 Cl
ATOM      8 Cl1  UNL d   1      -5.997   1.758  -3.783  0.00  0.00    -0.070 Cl
ENDROOT
TORSDOF 0
ENDMDL
