MODEL 1
REMARK minimizedAffinity 0.706869006
REMARK minimizedRMSD -1
REMARK  1 active torsions:
REMARK  status: ('A' for Active; 'I' for Inactive)
REMARK    1  A    between atoms: C1_2  and  C2_3 
ROOT
ATOM      1  C2  UNL d   1       0.123   0.475  -0.367  0.00  0.00    -0.073 A 
ATOM      2  C3  UNL d   1       0.332   0.014  -1.672  0.00  0.00    -0.002 A 
ATOM      3  C4  UNL d   1      -0.008  -1.293  -2.021  0.00  0.00     0.004 A 
ATOM      4  C5  UNL d   1      -0.567  -2.150  -1.072  0.00  0.00    -0.004 A 
ATOM      5  C6  UNL d   1      -0.795  -1.705   0.234  0.00  0.00    -0.075 A 
ATOM      6  C7  UNL d   1      -1.393  -2.614   1.266  0.00  0.00     0.076 C 
ATOM      7  C8  UNL d   1      -0.447  -0.391   0.577  0.00  0.00     0.001 A 
ENDROOT
BRANCH   1   8
ATOM      8  C1  UNL d   1       0.484   1.888   0.013  0.00  0.00     0.053 C 
ATOM      9  C   UNL d   1       1.938   2.010   0.441  0.00  0.00     0.018 C 
ENDBRANCH   1   8
TORSDOF 1
ENDMDL
