MODEL 1
REMARK minimizedAffinity -0.673331022
REMARK minimizedRMSD -1
REMARK  1 active torsions:
REMARK  status: ('A' for Active; 'I' for Inactive)
REMARK    1  A    between atoms: C1_2  and  C2_3 
ROOT
ATOM      1  C2  UNL d   1       0.774   1.946   0.552  0.00  0.00    -0.073 A 
ATOM      2  C3  UNL d   1      -0.140   1.398   1.460  0.00  0.00    -0.002 A 
ATOM      3  C4  UNL d   1      -0.972   0.347   1.074  0.00  0.00     0.004 A 
ATOM      4  C5  UNL d   1      -0.896  -0.171  -0.219  0.00  0.00    -0.004 A 
ATOM      5  C6  UNL d   1       0.019   0.355  -1.137  0.00  0.00    -0.075 A 
ATOM      6  C7  UNL d   1       0.113  -0.190  -2.532  0.00  0.00     0.076 C 
ATOM      7  C8  UNL d   1       0.850   1.413  -0.742  0.00  0.00     0.001 A 
ENDROOT
BRANCH   1   8
ATOM      8  C1  UNL d   1       1.679   3.077   0.966  0.00  0.00     0.053 C 
ATOM      9  C   UNL d   1       1.145   3.820   2.181  0.00  0.00     0.018 C 
ENDBRANCH   1   8
TORSDOF 1
ENDMDL
