MODEL 1
REMARK minimizedAffinity -2.3258009
REMARK minimizedRMSD -1
REMARK  1 active torsions:
REMARK  status: ('A' for Active; 'I' for Inactive)
REMARK    1  A    between atoms: C1_2  and  C2_3 
ROOT
ATOM      1  C2  UNL d   1       1.024   1.488   0.058  0.00  0.00    -0.073 A 
ATOM      2  C3  UNL d   1       2.340   1.530  -0.417  0.00  0.00    -0.002 A 
ATOM      3  C4  UNL d   1       3.243   2.464   0.091  0.00  0.00     0.004 A 
ATOM      4  C5  UNL d   1       2.843   3.360   1.083  0.00  0.00    -0.004 A 
ATOM      5  C6  UNL d   1       1.536   3.327   1.578  0.00  0.00    -0.075 A 
ATOM      6  C7  UNL d   1       1.090   4.285   2.643  0.00  0.00     0.076 C 
ATOM      7  C8  UNL d   1       0.634   2.387   1.061  0.00  0.00     0.001 A 
ENDROOT
BRANCH   1   8
ATOM      8  C1  UNL d   1       0.047   0.477  -0.482  0.00  0.00     0.053 C 
ATOM      9  C   UNL d   1      -0.902  -0.031   0.592  0.00  0.00     0.018 C 
ENDBRANCH   1   8
TORSDOF 1
ENDMDL
