MODEL 1
REMARK minimizedAffinity 3.58862686
REMARK minimizedRMSD -1
REMARK  1 active torsions:
REMARK  status: ('A' for Active; 'I' for Inactive)
REMARK    1  A    between atoms: C1_2  and  C2_3 
ROOT
ATOM      1  C2  UNL d   1      -0.500   1.076   0.625  0.00  0.00    -0.073 A 
ATOM      2  C3  UNL d   1       0.448   1.041   1.654  0.00  0.00    -0.002 A 
ATOM      3  C4  UNL d   1       0.552  -0.081   2.478  0.00  0.00     0.004 A 
ATOM      4  C5  UNL d   1      -0.283  -1.179   2.278  0.00  0.00    -0.004 A 
ATOM      5  C6  UNL d   1      -1.229  -1.168   1.247  0.00  0.00    -0.075 A 
ATOM      6  C7  UNL d   1      -2.136  -2.341   1.019  0.00  0.00     0.076 C 
ATOM      7  C8  UNL d   1      -1.329  -0.037   0.425  0.00  0.00     0.001 A 
ENDROOT
BRANCH   1   8
ATOM      8  C1  UNL d   1      -0.612   2.282  -0.271  0.00  0.00     0.053 C 
ATOM      9  C   UNL d   1      -0.267   3.570   0.460  0.00  0.00     0.018 C 
ENDBRANCH   1   8
TORSDOF 1
ENDMDL
