MODEL 1
REMARK minimizedAffinity 3.59307384
REMARK minimizedRMSD -1
REMARK  1 active torsions:
REMARK  status: ('A' for Active; 'I' for Inactive)
REMARK    1  A    between atoms: C1_2  and  C2_3 
ROOT
ATOM      1  C2  UNL d   1      -0.363  -0.549  -0.697  0.00  0.00    -0.073 A 
ATOM      2  C3  UNL d   1      -0.818  -1.823  -1.053  0.00  0.00    -0.002 A 
ATOM      3  C4  UNL d   1      -1.266  -2.711  -0.073  0.00  0.00     0.004 A 
ATOM      4  C5  UNL d   1      -1.271  -2.331   1.269  0.00  0.00    -0.004 A 
ATOM      5  C6  UNL d   1      -0.832  -1.057   1.643  0.00  0.00    -0.075 A 
ATOM      6  C7  UNL d   1      -0.829  -0.634   3.083  0.00  0.00     0.076 C 
ATOM      7  C8  UNL d   1      -0.381  -0.172   0.654  0.00  0.00     0.001 A 
ENDROOT
BRANCH   1   8
ATOM      8  C1  UNL d   1       0.115   0.415  -1.751  0.00  0.00     0.053 C 
ATOM      9  C   UNL d   1       0.583  -0.301  -3.008  0.00  0.00     0.018 C 
ENDBRANCH   1   8
TORSDOF 1
ENDMDL
