MODEL 1
REMARK minimizedAffinity 3.7772646
REMARK minimizedRMSD -1
REMARK  1 active torsions:
REMARK  status: ('A' for Active; 'I' for Inactive)
REMARK    1  A    between atoms: C1_2  and  C2_3 
ROOT
ATOM      1  C2  UNL d   1       1.815   2.327   1.002  0.00  0.00    -0.073 A 
ATOM      2  C3  UNL d   1       2.642   1.784   0.012  0.00  0.00    -0.002 A 
ATOM      3  C4  UNL d   1       2.247   0.645  -0.691  0.00  0.00     0.004 A 
ATOM      4  C5  UNL d   1       1.018   0.043  -0.418  0.00  0.00    -0.004 A 
ATOM      5  C6  UNL d   1       0.172   0.578   0.558  0.00  0.00    -0.075 A 
ATOM      6  C7  UNL d   1      -1.152  -0.059   0.865  0.00  0.00     0.076 C 
ATOM      7  C8  UNL d   1       0.578   1.720   1.262  0.00  0.00     0.001 A 
ENDROOT
BRANCH   1   8
ATOM      8  C1  UNL d   1       2.235   3.560   1.759  0.00  0.00     0.053 C 
ATOM      9  C   UNL d   1       1.142   4.054   2.694  0.00  0.00     0.018 C 
ENDBRANCH   1   8
TORSDOF 1
ENDMDL
