MODEL 1
REMARK minimizedAffinity -1.11042571
REMARK minimizedRMSD -1
REMARK  1 active torsions:
REMARK  status: ('A' for Active; 'I' for Inactive)
REMARK    1  A    between atoms: C1_2  and  C2_3 
ROOT
ATOM      1  C2  UNL d   1       0.608   2.244   0.262  0.00  0.00    -0.073 A 
ATOM      2  C3  UNL d   1       0.292   2.096  -1.093  0.00  0.00    -0.002 A 
ATOM      3  C4  UNL d   1      -0.388   0.961  -1.538  0.00  0.00     0.004 A 
ATOM      4  C5  UNL d   1      -0.765  -0.031  -0.634  0.00  0.00    -0.004 A 
ATOM      5  C6  UNL d   1      -0.470   0.105   0.726  0.00  0.00    -0.075 A 
ATOM      6  C7  UNL d   1      -0.867  -0.955   1.712  0.00  0.00     0.076 C 
ATOM      7  C8  UNL d   1       0.216   1.245   1.165  0.00  0.00     0.001 A 
ENDROOT
BRANCH   1   8
ATOM      8  C1  UNL d   1       1.336   3.470   0.749  0.00  0.00     0.053 C 
ATOM      9  C   UNL d   1       2.821   3.416   0.426  0.00  0.00     0.018 C 
ENDBRANCH   1   8
TORSDOF 1
ENDMDL
