MODEL 1
REMARK minimizedAffinity -6.22507858
REMARK minimizedRMSD -1
REMARK  1 active torsions:
REMARK  status: ('A' for Active; 'I' for Inactive)
REMARK    1  A    between atoms: C1_2  and  C2_3 
ROOT
ATOM      1  C2  UNL d   1      -0.262  -0.154   0.274  0.00  0.00    -0.073 A 
ATOM      2  C3  UNL d   1      -0.276  -0.826   1.502  0.00  0.00    -0.002 A 
ATOM      3  C4  UNL d   1      -0.215  -2.220   1.543  0.00  0.00     0.004 A 
ATOM      4  C5  UNL d   1      -0.133  -2.954   0.360  0.00  0.00    -0.004 A 
ATOM      5  C6  UNL d   1      -0.107  -2.300  -0.876  0.00  0.00    -0.075 A 
ATOM      6  C7  UNL d   1      -0.022  -3.075  -2.158  0.00  0.00     0.076 C 
ATOM      7  C8  UNL d   1      -0.171  -0.900  -0.909  0.00  0.00     0.001 A 
ENDROOT
BRANCH   1   8
ATOM      8  C1  UNL d   1      -0.322   1.351   0.225  0.00  0.00     0.053 C 
ATOM      9  C   UNL d   1       0.966   1.989   0.724  0.00  0.00     0.018 C 
ENDBRANCH   1   8
TORSDOF 1
ENDMDL
