MODEL 1
REMARK minimizedAffinity -1.6063869
REMARK minimizedRMSD -1
REMARK  1 active torsions:
REMARK  status: ('A' for Active; 'I' for Inactive)
REMARK    1  A    between atoms: C1_2  and  C2_3 
ROOT
ATOM      1  C2  UNL d   1      -0.594   0.144   0.287  0.00  0.00    -0.073 A 
ATOM      2  C3  UNL d   1       0.265   1.207   0.588  0.00  0.00    -0.002 A 
ATOM      3  C4  UNL d   1       1.165   1.679  -0.369  0.00  0.00     0.004 A 
ATOM      4  C5  UNL d   1       1.210   1.098  -1.637  0.00  0.00    -0.004 A 
ATOM      5  C6  UNL d   1       0.351   0.043  -1.960  0.00  0.00    -0.075 A 
ATOM      6  C7  UNL d   1       0.388  -0.594  -3.318  0.00  0.00     0.076 C 
ATOM      7  C8  UNL d   1      -0.548  -0.427  -0.993  0.00  0.00     0.001 A 
ENDROOT
BRANCH   1   8
ATOM      8  C1  UNL d   1      -1.572  -0.364   1.315  0.00  0.00     0.053 C 
ATOM      9  C   UNL d   1      -1.327  -1.825   1.661  0.00  0.00     0.018 C 
ENDBRANCH   1   8
TORSDOF 1
ENDMDL
