MODEL 1
REMARK minimizedAffinity -3.17181873
REMARK minimizedRMSD -1
REMARK  1 active torsions:
REMARK  status: ('A' for Active; 'I' for Inactive)
REMARK    1  A    between atoms: C1_2  and  C2_3 
ROOT
ATOM      1  C2  UNL d   1      -0.377   0.349   0.136  0.00  0.00    -0.073 A 
ATOM      2  C3  UNL d   1      -0.587   0.185   1.510  0.00  0.00    -0.002 A 
ATOM      3  C4  UNL d   1      -0.958  -1.058   2.023  0.00  0.00     0.004 A 
ATOM      4  C5  UNL d   1      -1.115  -2.151   1.171  0.00  0.00    -0.004 A 
ATOM      5  C6  UNL d   1      -0.898  -2.010  -0.203  0.00  0.00    -0.075 A 
ATOM      6  C7  UNL d   1      -1.066  -3.175  -1.134  0.00  0.00     0.076 C 
ATOM      7  C8  UNL d   1      -0.529  -0.758  -0.712  0.00  0.00     0.001 A 
ENDROOT
BRANCH   1   8
ATOM      8  C1  UNL d   1       0.030   1.688  -0.422  0.00  0.00     0.053 C 
ATOM      9  C   UNL d   1       1.180   2.305   0.358  0.00  0.00     0.018 C 
ENDBRANCH   1   8
TORSDOF 1
ENDMDL
