MODEL 1
REMARK minimizedAffinity -1.37210262
REMARK minimizedRMSD -1
REMARK  1 active torsions:
REMARK  status: ('A' for Active; 'I' for Inactive)
REMARK    1  A    between atoms: C1_2  and  C2_3 
ROOT
ATOM      1  C2  UNL d   1      -0.135  -0.906  -0.924  0.00  0.00    -0.073 A 
ATOM      2  C3  UNL d   1      -0.386  -1.826   0.100  0.00  0.00    -0.002 A 
ATOM      3  C4  UNL d   1      -0.667  -1.383   1.393  0.00  0.00     0.004 A 
ATOM      4  C5  UNL d   1      -0.708  -0.017   1.673  0.00  0.00    -0.004 A 
ATOM      5  C6  UNL d   1      -0.472   0.918   0.661  0.00  0.00    -0.075 A 
ATOM      6  C7  UNL d   1      -0.510   2.391   0.947  0.00  0.00     0.076 C 
ATOM      7  C8  UNL d   1      -0.187   0.465  -0.634  0.00  0.00     0.001 A 
ENDROOT
BRANCH   1   8
ATOM      8  C1  UNL d   1       0.163  -1.380  -2.323  0.00  0.00     0.053 C 
ATOM      9  C   UNL d   1      -0.519  -2.703  -2.634  0.00  0.00     0.018 C 
ENDBRANCH   1   8
TORSDOF 1
ENDMDL
