MODEL 1
REMARK minimizedAffinity 6.68452263
REMARK minimizedRMSD -1
REMARK  1 active torsions:
REMARK  status: ('A' for Active; 'I' for Inactive)
REMARK    1  A    between atoms: C1_2  and  C2_3 
ROOT
ATOM      1  C2  UNL d   1       0.136   1.320   0.618  0.00  0.00    -0.073 A 
ATOM      2  C3  UNL d   1      -0.065   2.639   1.042  0.00  0.00    -0.002 A 
ATOM      3  C4  UNL d   1       0.973   3.568   0.967  0.00  0.00     0.004 A 
ATOM      4  C5  UNL d   1       2.218   3.192   0.462  0.00  0.00    -0.004 A 
ATOM      5  C6  UNL d   1       2.434   1.882   0.022  0.00  0.00    -0.075 A 
ATOM      6  C7  UNL d   1       3.767   1.461  -0.521  0.00  0.00     0.076 C 
ATOM      7  C8  UNL d   1       1.387   0.953   0.104  0.00  0.00     0.001 A 
ENDROOT
BRANCH   1   8
ATOM      8  C1  UNL d   1      -0.984   0.314   0.692  0.00  0.00     0.053 C 
ATOM      9  C   UNL d   1      -1.301  -0.082   2.125  0.00  0.00     0.018 C 
ENDBRANCH   1   8
TORSDOF 1
ENDMDL
