MODEL 1
REMARK minimizedAffinity -4.65433073
REMARK minimizedRMSD -1
REMARK  1 active torsions:
REMARK  status: ('A' for Active; 'I' for Inactive)
REMARK    1  A    between atoms: C1_2  and  C2_3 
ROOT
ATOM      1  C2  UNL d   1      -0.536  -1.064  -0.179  0.00  0.00    -0.073 A 
ATOM      2  C3  UNL d   1      -0.130  -1.386  -1.480  0.00  0.00    -0.002 A 
ATOM      3  C4  UNL d   1       0.293  -0.384  -2.354  0.00  0.00     0.004 A 
ATOM      4  C5  UNL d   1       0.322   0.946  -1.936  0.00  0.00    -0.004 A 
ATOM      5  C6  UNL d   1      -0.068   1.286  -0.637  0.00  0.00    -0.075 A 
ATOM      6  C7  UNL d   1      -0.045   2.713  -0.173  0.00  0.00     0.076 C 
ATOM      7  C8  UNL d   1      -0.495   0.275   0.234  0.00  0.00     0.001 A 
ENDROOT
BRANCH   1   8
ATOM      8  C1  UNL d   1      -0.988  -2.143   0.770  0.00  0.00     0.053 C 
ATOM      9  C   UNL d   1      -0.909  -3.525   0.142  0.00  0.00     0.018 C 
ENDBRANCH   1   8
TORSDOF 1
ENDMDL
