MODEL 1
REMARK minimizedAffinity 0.668751836
REMARK minimizedRMSD -1
REMARK  1 active torsions:
REMARK  status: ('A' for Active; 'I' for Inactive)
REMARK    1  A    between atoms: C1_2  and  C2_3 
ROOT
ATOM      1  C2  UNL d   1      -0.735  -1.352   0.599  0.00  0.00    -0.073 A 
ATOM      2  C3  UNL d   1      -0.883  -0.240   1.437  0.00  0.00    -0.002 A 
ATOM      3  C4  UNL d   1      -0.451   1.019   1.019  0.00  0.00     0.004 A 
ATOM      4  C5  UNL d   1       0.125   1.182  -0.241  0.00  0.00    -0.004 A 
ATOM      5  C6  UNL d   1       0.270   0.086  -1.097  0.00  0.00    -0.075 A 
ATOM      6  C7  UNL d   1       0.890   0.243  -2.454  0.00  0.00     0.076 C 
ATOM      7  C8  UNL d   1      -0.163  -1.177  -0.669  0.00  0.00     0.001 A 
ENDROOT
BRANCH   1   8
ATOM      8  C1  UNL d   1      -1.205  -2.713   1.043  0.00  0.00     0.053 C 
ATOM      9  C   UNL d   1      -1.312  -3.686  -0.120  0.00  0.00     0.018 C 
ENDBRANCH   1   8
TORSDOF 1
ENDMDL
