MODEL 1
REMARK minimizedAffinity 18.7160225
REMARK minimizedRMSD -1
REMARK  0 active torsions:
REMARK  status: ('A' for Active; 'I' for Inactive)
ROOT
ATOM      1  C   UNL d   1       0.831   2.328   0.654  0.00  0.00     0.124 A 
ATOM      2  C1  UNL d   1      -0.173   2.712  -0.224  0.00  0.00     0.062 A 
ATOM      3  C2  UNL d   1      -0.517   1.894  -1.296  0.00  0.00     0.162 A 
ATOM      4  C3  UNL d   1       0.143   0.681  -1.495  0.00  0.00    -0.034 A 
ATOM      5  C4  UNL d   1       1.153   0.301  -0.609  0.00  0.00     0.162 A 
ATOM      6  C5  UNL d   1       1.493   1.123   0.461  0.00  0.00     0.062 A 
ATOM      7  F   UNL d   1       2.463   0.750   1.308  0.00  0.00    -0.097 F 
ATOM      8  F1  UNL d   1       1.807  -0.858  -0.771  0.00  0.00    -0.096 F 
ATOM      9  I   UNL d   1      -0.368  -0.546  -3.097  0.00  0.00    -0.060 I 
ATOM     10  F2  UNL d   1      -1.491   2.290  -2.128  0.00  0.00    -0.096 F 
ATOM     11  F3  UNL d   1      -0.813   3.876  -0.040  0.00  0.00    -0.097 F 
ATOM     12  F4  UNL d   1       1.161   3.118   1.684  0.00  0.00    -0.092 F 
ENDROOT
TORSDOF 0
ENDMDL
