MODEL 1
REMARK minimizedAffinity 24.554966
REMARK minimizedRMSD -1
REMARK  0 active torsions:
REMARK  status: ('A' for Active; 'I' for Inactive)
ROOT
ATOM      1  C   UNL d   1       1.799  -5.569  -1.639  0.00  0.00     0.124 A 
ATOM      2  C1  UNL d   1       1.539  -5.788  -2.985  0.00  0.00     0.062 A 
ATOM      3  C2  UNL d   1       2.580  -5.785  -3.908  0.00  0.00     0.162 A 
ATOM      4  C3  UNL d   1       3.893  -5.565  -3.489  0.00  0.00    -0.034 A 
ATOM      5  C4  UNL d   1       4.146  -5.346  -2.134  0.00  0.00     0.162 A 
ATOM      6  C5  UNL d   1       3.102  -5.349  -1.215  0.00  0.00     0.062 A 
ATOM      7  F   UNL d   1       3.355  -5.138   0.085  0.00  0.00    -0.097 F 
ATOM      8  F1  UNL d   1       5.396  -5.131  -1.696  0.00  0.00    -0.096 F 
ATOM      9  I   UNL d   1       5.452  -5.561  -4.867  0.00  0.00    -0.060 I 
ATOM     10  F2  UNL d   1       2.300  -5.999  -5.202  0.00  0.00    -0.096 F 
ATOM     11  F3  UNL d   1       0.281  -6.000  -3.397  0.00  0.00    -0.097 F 
ATOM     12  F4  UNL d   1       0.795  -5.571  -0.752  0.00  0.00    -0.092 F 
ENDROOT
TORSDOF 0
ENDMDL
