MODEL 1
REMARK minimizedAffinity -1.92098236
REMARK minimizedRMSD -1
REMARK  0 active torsions:
REMARK  status: ('A' for Active; 'I' for Inactive)
ROOT
ATOM      1  C   UNL d   1      -4.073   1.421  -3.068  0.00  0.00     0.124 A 
ATOM      2  C1  UNL d   1      -4.953   1.342  -4.139  0.00  0.00     0.062 A 
ATOM      3  C2  UNL d   1      -5.144   2.443  -4.970  0.00  0.00     0.162 A 
ATOM      4  C3  UNL d   1      -4.453   3.631  -4.734  0.00  0.00    -0.034 A 
ATOM      5  C4  UNL d   1      -3.571   3.703  -3.654  0.00  0.00     0.162 A 
ATOM      6  C5  UNL d   1      -3.384   2.601  -2.827  0.00  0.00     0.062 A 
ATOM      7  F   UNL d   1      -2.534   2.678  -1.792  0.00  0.00    -0.097 F 
ATOM      8  F1  UNL d   1      -2.891   4.830  -3.399  0.00  0.00    -0.096 F 
ATOM      9  I   UNL d   1      -4.736   5.279  -5.974  0.00  0.00    -0.060 I 
ATOM     10  F2  UNL d   1      -6.000   2.338  -5.997  0.00  0.00    -0.096 F 
ATOM     11  F3  UNL d   1      -5.621   0.204  -4.374  0.00  0.00    -0.097 F 
ATOM     12  F4  UNL d   1      -3.892   0.361  -2.270  0.00  0.00    -0.092 F 
ENDROOT
TORSDOF 0
ENDMDL
