MODEL 1
REMARK minimizedAffinity 24.8515453
REMARK minimizedRMSD -1
REMARK  0 active torsions:
REMARK  status: ('A' for Active; 'I' for Inactive)
ROOT
ATOM      1  C   UNL d   1       1.728  -1.072   0.311  0.00  0.00     0.124 A 
ATOM      2  C1  UNL d   1       1.729  -0.028   1.226  0.00  0.00     0.062 A 
ATOM      3  C2  UNL d   1       1.243   1.224   0.860  0.00  0.00     0.162 A 
ATOM      4  C3  UNL d   1       0.750   1.439  -0.427  0.00  0.00    -0.034 A 
ATOM      5  C4  UNL d   1       0.754   0.385  -1.342  0.00  0.00     0.162 A 
ATOM      6  C5  UNL d   1       1.241  -0.865  -0.972  0.00  0.00     0.062 A 
ATOM      7  F   UNL d   1       1.240  -1.872  -1.857  0.00  0.00    -0.097 F 
ATOM      8  F1  UNL d   1       0.288   0.557  -2.588  0.00  0.00    -0.096 F 
ATOM      9  I   UNL d   1       0.022   3.309  -0.977  0.00  0.00    -0.060 I 
ATOM     10  F2  UNL d   1       1.256   2.214   1.765  0.00  0.00    -0.096 F 
ATOM     11  F3  UNL d   1       2.200  -0.226   2.466  0.00  0.00    -0.097 F 
ATOM     12  F4  UNL d   1       2.198  -2.275   0.665  0.00  0.00    -0.092 F 
ENDROOT
TORSDOF 0
ENDMDL
