MODEL 1
REMARK minimizedAffinity 21.5748787
REMARK minimizedRMSD -1
REMARK  0 active torsions:
REMARK  status: ('A' for Active; 'I' for Inactive)
ROOT
ATOM      1  C   UNL d   1      -0.896  -0.490  -4.200  0.00  0.00     0.124 A 
ATOM      2  C1  UNL d   1      -0.940   0.517  -3.246  0.00  0.00     0.062 A 
ATOM      3  C2  UNL d   1      -2.142   0.839  -2.623  0.00  0.00     0.162 A 
ATOM      4  C3  UNL d   1      -3.311   0.152  -2.950  0.00  0.00    -0.034 A 
ATOM      5  C4  UNL d   1      -3.259  -0.859  -3.912  0.00  0.00     0.162 A 
ATOM      6  C5  UNL d   1      -2.056  -1.177  -4.532  0.00  0.00     0.062 A 
ATOM      7  F   UNL d   1      -2.016  -2.150  -5.454  0.00  0.00    -0.097 F 
ATOM      8  F1  UNL d   1      -4.365  -1.539  -4.251  0.00  0.00    -0.096 F 
ATOM      9  I   UNL d   1      -5.110   0.631  -2.020  0.00  0.00    -0.060 I 
ATOM     10  F2  UNL d   1      -2.154   1.817  -1.704  0.00  0.00    -0.096 F 
ATOM     11  F3  UNL d   1       0.179   1.183  -2.925  0.00  0.00    -0.097 F 
ATOM     12  F4  UNL d   1       0.261  -0.797  -4.800  0.00  0.00    -0.092 F 
ENDROOT
TORSDOF 0
ENDMDL
