MODEL 1
REMARK minimizedAffinity 6.63436031
REMARK minimizedRMSD -1
REMARK  0 active torsions:
REMARK  status: ('A' for Active; 'I' for Inactive)
ROOT
ATOM      1  C   UNL d   1       4.569  -3.507  -0.129  0.00  0.00     0.124 A 
ATOM      2  C1  UNL d   1       3.401  -3.602   0.615  0.00  0.00     0.062 A 
ATOM      3  C2  UNL d   1       2.525  -2.523   0.684  0.00  0.00     0.162 A 
ATOM      4  C3  UNL d   1       2.812  -1.339   0.005  0.00  0.00    -0.034 A 
ATOM      5  C4  UNL d   1       3.989  -1.250  -0.741  0.00  0.00     0.162 A 
ATOM      6  C5  UNL d   1       4.862  -2.332  -0.806  0.00  0.00     0.062 A 
ATOM      7  F   UNL d   1       5.990  -2.238  -1.526  0.00  0.00    -0.097 F 
ATOM      8  F1  UNL d   1       4.297  -0.127  -1.406  0.00  0.00    -0.096 F 
ATOM      9  I   UNL d   1       1.505   0.277   0.105  0.00  0.00    -0.060 I 
ATOM     10  F2  UNL d   1       1.404  -2.643   1.410  0.00  0.00    -0.096 F 
ATOM     11  F3  UNL d   1       3.116  -4.737   1.271  0.00  0.00    -0.097 F 
ATOM     12  F4  UNL d   1       5.411  -4.547  -0.193  0.00  0.00    -0.092 F 
ENDROOT
TORSDOF 0
ENDMDL
