MODEL 1
REMARK minimizedAffinity 3.80328751
REMARK minimizedRMSD -1
REMARK  0 active torsions:
REMARK  status: ('A' for Active; 'I' for Inactive)
ROOT
ATOM      1  C   UNL d   1      -3.925   0.374   1.657  0.00  0.00     0.124 A 
ATOM      2  C1  UNL d   1      -4.682  -0.730   1.289  0.00  0.00     0.062 A 
ATOM      3  C2  UNL d   1      -5.274  -1.528   2.263  0.00  0.00     0.162 A 
ATOM      4  C3  UNL d   1      -5.115  -1.225   3.615  0.00  0.00    -0.034 A 
ATOM      5  C4  UNL d   1      -4.352  -0.113   3.977  0.00  0.00     0.162 A 
ATOM      6  C5  UNL d   1      -3.761   0.682   3.000  0.00  0.00     0.062 A 
ATOM      7  F   UNL d   1      -3.031   1.748   3.358  0.00  0.00    -0.097 F 
ATOM      8  F1  UNL d   1      -4.178   0.207   5.268  0.00  0.00    -0.096 F 
ATOM      9  I   UNL d   1      -6.000  -2.416   5.074  0.00  0.00    -0.060 I 
ATOM     10  F2  UNL d   1      -6.000  -2.589   1.878  0.00  0.00    -0.096 F 
ATOM     11  F3  UNL d   1      -4.841  -1.029  -0.008  0.00  0.00    -0.097 F 
ATOM     12  F4  UNL d   1      -3.355   1.140   0.718  0.00  0.00    -0.092 F 
ENDROOT
TORSDOF 0
ENDMDL
