MODEL 1
REMARK minimizedAffinity 3.33322597
REMARK minimizedRMSD -1
REMARK  1 active torsions:
REMARK  status: ('A' for Active; 'I' for Inactive)
REMARK    1  A    between atoms: C3_4  and  O_7 
ROOT
ATOM      1  C   UNL d   1       0.729   4.837  -0.119  0.00  0.00    -0.033 A 
ATOM      2  C1  UNL d   1       1.221   4.331   1.085  0.00  0.00     0.039 A 
ATOM      3  C2  UNL d   1       0.586   3.251   1.703  0.00  0.00    -0.080 A 
ATOM      4  C3  UNL d   1      -0.537   2.687   1.105  0.00  0.00     0.150 A 
ATOM      5  C4  UNL d   1      -1.031   3.183  -0.097  0.00  0.00    -0.007 A 
ATOM      6  C5  UNL d   1      -0.396   4.262  -0.711  0.00  0.00     0.039 A 
ENDROOT
BRANCH   4   7
ATOM      7  O   UNL d   1      -1.194   1.635   1.672  0.00  0.00    -0.526 OA
ATOM      8  H5  UNL d   1      -0.757   1.418   2.513  0.00  0.00     0.418 HD
ENDBRANCH   4   7
TORSDOF 1
ENDMDL
