MODEL 1
REMARK minimizedAffinity 2.18745399
REMARK minimizedRMSD -1
REMARK  1 active torsions:
REMARK  status: ('A' for Active; 'I' for Inactive)
REMARK    1  A    between atoms: C3_4  and  O_7 
ROOT
ATOM      1  C   UNL d   1      -0.841   1.639   0.453  0.00  0.00    -0.033 A 
ATOM      2  C1  UNL d   1       0.210   0.865  -0.044  0.00  0.00     0.039 A 
ATOM      3  C2  UNL d   1       1.021   0.142   0.833  0.00  0.00    -0.080 A 
ATOM      4  C3  UNL d   1       0.771   0.200   2.201  0.00  0.00     0.150 A 
ATOM      5  C4  UNL d   1      -0.276   0.966   2.702  0.00  0.00    -0.007 A 
ATOM      6  C5  UNL d   1      -1.085   1.688   1.826  0.00  0.00     0.039 A 
ENDROOT
BRANCH   4   7
ATOM      7  O   UNL d   1       1.538  -0.485   3.096  0.00  0.00    -0.526 OA
ATOM      8  H5  UNL d   1       2.241  -0.947   2.608  0.00  0.00     0.418 HD
ENDBRANCH   4   7
TORSDOF 1
ENDMDL
