MODEL 1
REMARK minimizedAffinity -1.48408771
REMARK minimizedRMSD -1
REMARK  1 active torsions:
REMARK  status: ('A' for Active; 'I' for Inactive)
REMARK    1  A    between atoms: C3_4  and  O_7 
ROOT
ATOM      1  C   UNL d   1      -2.029   3.780   0.330  0.00  0.00    -0.033 A 
ATOM      2  C1  UNL d   1      -0.884   2.986   0.410  0.00  0.00     0.039 A 
ATOM      3  C2  UNL d   1      -0.887   1.830   1.194  0.00  0.00    -0.080 A 
ATOM      4  C3  UNL d   1      -2.040   1.480   1.890  0.00  0.00     0.150 A 
ATOM      5  C4  UNL d   1      -3.186   2.265   1.812  0.00  0.00    -0.007 A 
ATOM      6  C5  UNL d   1      -3.181   3.419   1.030  0.00  0.00     0.039 A 
ENDROOT
BRANCH   4   7
ATOM      7  O   UNL d   1      -2.089   0.364   2.672  0.00  0.00    -0.526 OA
ATOM      8  H5  UNL d   1      -1.217  -0.064   2.653  0.00  0.00     0.418 HD
ENDBRANCH   4   7
TORSDOF 1
ENDMDL
