MODEL 1
REMARK minimizedAffinity 1.65621603
REMARK minimizedRMSD -1
REMARK  1 active torsions:
REMARK  status: ('A' for Active; 'I' for Inactive)
REMARK    1  A    between atoms: C3_4  and  O_7 
ROOT
ATOM      1  C   UNL d   1      -1.256  -0.043   2.341  0.00  0.00    -0.033 A 
ATOM      2  C1  UNL d   1      -2.441   0.594   1.967  0.00  0.00     0.039 A 
ATOM      3  C2  UNL d   1      -2.396   1.804   1.273  0.00  0.00    -0.080 A 
ATOM      4  C3  UNL d   1      -1.162   2.366   0.958  0.00  0.00     0.150 A 
ATOM      5  C4  UNL d   1       0.022   1.736   1.325  0.00  0.00    -0.007 A 
ATOM      6  C5  UNL d   1      -0.024   0.528   2.019  0.00  0.00     0.039 A 
ENDROOT
BRANCH   4   7
ATOM      7  O   UNL d   1      -1.068   3.549   0.286  0.00  0.00    -0.526 OA
ATOM      8  H5  UNL d   1      -1.966   3.883   0.124  0.00  0.00     0.418 HD
ENDBRANCH   4   7
TORSDOF 1
ENDMDL
