MODEL 1
REMARK minimizedAffinity 1.50217748
REMARK minimizedRMSD -1
REMARK  1 active torsions:
REMARK  status: ('A' for Active; 'I' for Inactive)
REMARK    1  A    between atoms: C3_4  and  O_7 
ROOT
ATOM      1  C   UNL d   1      -0.404   1.284   2.046  0.00  0.00    -0.033 A 
ATOM      2  C1  UNL d   1       0.865   0.720   1.902  0.00  0.00     0.039 A 
ATOM      3  C2  UNL d   1       1.522   0.778   0.671  0.00  0.00    -0.080 A 
ATOM      4  C3  UNL d   1       0.900   1.403  -0.406  0.00  0.00     0.150 A 
ATOM      5  C4  UNL d   1      -0.362   1.971  -0.269  0.00  0.00    -0.007 A 
ATOM      6  C5  UNL d   1      -1.017   1.911   0.961  0.00  0.00     0.039 A 
ENDROOT
BRANCH   4   7
ATOM      7  O   UNL d   1       1.500   1.481  -1.628  0.00  0.00    -0.526 OA
ATOM      8  H5  UNL d   1       2.355   1.021  -1.581  0.00  0.00     0.418 HD
ENDBRANCH   4   7
TORSDOF 1
ENDMDL
