MODEL 1
REMARK minimizedAffinity 3.88631368
REMARK minimizedRMSD -1
REMARK  1 active torsions:
REMARK  status: ('A' for Active; 'I' for Inactive)
REMARK    1  A    between atoms: C3_4  and  O_7 
ROOT
ATOM      1  C   UNL d   1      -0.043   3.638  -0.892  0.00  0.00    -0.033 A 
ATOM      2  C1  UNL d   1      -0.658   4.284   0.182  0.00  0.00     0.039 A 
ATOM      3  C2  UNL d   1      -1.387   3.548   1.118  0.00  0.00    -0.080 A 
ATOM      4  C3  UNL d   1      -1.491   2.168   0.970  0.00  0.00     0.150 A 
ATOM      5  C4  UNL d   1      -0.877   1.517  -0.095  0.00  0.00    -0.007 A 
ATOM      6  C5  UNL d   1      -0.151   2.253  -1.029  0.00  0.00     0.039 A 
ENDROOT
BRANCH   4   7
ATOM      7  O   UNL d   1      -2.196   1.408   1.856  0.00  0.00    -0.526 OA
ATOM      8  H5  UNL d   1      -2.589   1.996   2.522  0.00  0.00     0.418 HD
ENDBRANCH   4   7
TORSDOF 1
ENDMDL
