MODEL 1
REMARK minimizedAffinity 1.00567222
REMARK minimizedRMSD -1
REMARK  1 active torsions:
REMARK  status: ('A' for Active; 'I' for Inactive)
REMARK    1  A    between atoms: C3_4  and  O_7 
ROOT
ATOM      1  C   UNL d   1       0.454   2.483  -1.297  0.00  0.00    -0.033 A 
ATOM      2  C1  UNL d   1      -0.184   3.448  -0.515  0.00  0.00     0.039 A 
ATOM      3  C2  UNL d   1      -0.820   3.077   0.672  0.00  0.00    -0.080 A 
ATOM      4  C3  UNL d   1      -0.809   1.742   1.065  0.00  0.00     0.150 A 
ATOM      5  C4  UNL d   1      -0.172   0.777   0.293  0.00  0.00    -0.007 A 
ATOM      6  C5  UNL d   1       0.461   1.148  -0.893  0.00  0.00     0.039 A 
ENDROOT
BRANCH   4   7
ATOM      7  O   UNL d   1      -1.420   1.332   2.213  0.00  0.00    -0.526 OA
ATOM      8  H5  UNL d   1      -1.843   2.102   2.628  0.00  0.00     0.418 HD
ENDBRANCH   4   7
TORSDOF 1
ENDMDL
