MODEL 1
REMARK minimizedAffinity 1.58907259
REMARK minimizedRMSD -1
REMARK  1 active torsions:
REMARK  status: ('A' for Active; 'I' for Inactive)
REMARK    1  A    between atoms: C3_4  and  O_7 
ROOT
ATOM      1  C   UNL d   1      -2.714  -2.343   4.118  0.00  0.00    -0.033 A 
ATOM      2  C1  UNL d   1      -3.055  -2.902   5.351  0.00  0.00     0.039 A 
ATOM      3  C2  UNL d   1      -2.166  -3.760   6.000  0.00  0.00    -0.080 A 
ATOM      4  C3  UNL d   1      -0.940  -4.051   5.407  0.00  0.00     0.150 A 
ATOM      5  C4  UNL d   1      -0.593  -3.495   4.180  0.00  0.00    -0.007 A 
ATOM      6  C5  UNL d   1      -1.482  -2.638   3.533  0.00  0.00     0.039 A 
ENDROOT
BRANCH   4   7
ATOM      7  O   UNL d   1      -0.042  -4.887   6.000  0.00  0.00    -0.526 OA
ATOM      8  H5  UNL d   1      -0.429  -5.218   6.827  0.00  0.00     0.418 HD
ENDBRANCH   4   7
TORSDOF 1
ENDMDL
