MODEL 1
REMARK minimizedAffinity 1.88467741
REMARK minimizedRMSD -1
REMARK  1 active torsions:
REMARK  status: ('A' for Active; 'I' for Inactive)
REMARK    1  A    between atoms: C3_4  and  O_7 
ROOT
ATOM      1  C   UNL d   1      -0.038   3.444  -1.338  0.00  0.00    -0.033 A 
ATOM      2  C1  UNL d   1       0.036   2.050  -1.289  0.00  0.00     0.039 A 
ATOM      3  C2  UNL d   1      -0.547   1.355  -0.227  0.00  0.00    -0.080 A 
ATOM      4  C3  UNL d   1      -1.201   2.064   0.777  0.00  0.00     0.150 A 
ATOM      5  C4  UNL d   1      -1.282   3.452   0.732  0.00  0.00    -0.007 A 
ATOM      6  C5  UNL d   1      -0.698   4.145  -0.328  0.00  0.00     0.039 A 
ENDROOT
BRANCH   4   7
ATOM      7  O   UNL d   1      -1.781   1.430   1.835  0.00  0.00    -0.526 OA
ATOM      8  H5  UNL d   1      -1.621   0.475   1.747  0.00  0.00     0.418 HD
ENDBRANCH   4   7
TORSDOF 1
ENDMDL
