MODEL 1
REMARK minimizedAffinity 2.80667138
REMARK minimizedRMSD -1
REMARK  1 active torsions:
REMARK  status: ('A' for Active; 'I' for Inactive)
REMARK    1  A    between atoms: C3_4  and  O_7 
ROOT
ATOM      1  C   UNL d   1      -0.874  -3.570   4.470  0.00  0.00    -0.033 A 
ATOM      2  C1  UNL d   1      -1.543  -2.628   3.685  0.00  0.00     0.039 A 
ATOM      3  C2  UNL d   1      -2.814  -2.185   4.056  0.00  0.00    -0.080 A 
ATOM      4  C3  UNL d   1      -3.404  -2.689   5.212  0.00  0.00     0.150 A 
ATOM      5  C4  UNL d   1      -2.741  -3.625   6.000  0.00  0.00    -0.007 A 
ATOM      6  C5  UNL d   1      -1.473  -4.067   5.628  0.00  0.00     0.039 A 
ENDROOT
BRANCH   4   7
ATOM      7  O   UNL d   1      -4.645  -2.290   5.611  0.00  0.00    -0.526 OA
ATOM      8  H5  UNL d   1      -4.992  -1.664   4.955  0.00  0.00     0.418 HD
ENDBRANCH   4   7
TORSDOF 1
ENDMDL
