MODEL 1
REMARK minimizedAffinity 4.83177042
REMARK minimizedRMSD -1
REMARK  1 active torsions:
REMARK  status: ('A' for Active; 'I' for Inactive)
REMARK    1  A    between atoms: C3_4  and  O_7 
ROOT
ATOM      1  C   UNL d   1      -0.714   1.870   1.428  0.00  0.00    -0.033 A 
ATOM      2  C1  UNL d   1      -0.139   1.577   0.189  0.00  0.00     0.039 A 
ATOM      3  C2  UNL d   1       1.037   0.828   0.124  0.00  0.00    -0.080 A 
ATOM      4  C3  UNL d   1       1.627   0.377   1.301  0.00  0.00     0.150 A 
ATOM      5  C4  UNL d   1       1.058   0.662   2.538  0.00  0.00    -0.007 A 
ATOM      6  C5  UNL d   1      -0.117   1.411   2.602  0.00  0.00     0.039 A 
ENDROOT
BRANCH   4   7
ATOM      7  O   UNL d   1       2.778  -0.353   1.287  0.00  0.00    -0.526 OA
ATOM      8  H5  UNL d   1       3.072  -0.447   0.366  0.00  0.00     0.418 HD
ENDBRANCH   4   7
TORSDOF 1
ENDMDL
