MODEL 1
REMARK minimizedAffinity 4.69022942
REMARK minimizedRMSD -1
REMARK  1 active torsions:
REMARK  status: ('A' for Active; 'I' for Inactive)
REMARK    1  A    between atoms: C3_4  and  O_7 
ROOT
ATOM      1  C   UNL d   1      -1.254   2.996   1.252  0.00  0.00    -0.033 A 
ATOM      2  C1  UNL d   1      -0.795   2.432   0.059  0.00  0.00     0.039 A 
ATOM      3  C2  UNL d   1       0.236   1.491   0.081  0.00  0.00    -0.080 A 
ATOM      4  C3  UNL d   1       0.799   1.122   1.299  0.00  0.00     0.150 A 
ATOM      5  C4  UNL d   1       0.344   1.676   2.491  0.00  0.00    -0.007 A 
ATOM      6  C5  UNL d   1      -0.685   2.617   2.468  0.00  0.00     0.039 A 
ENDROOT
BRANCH   4   7
ATOM      7  O   UNL d   1       1.811   0.211   1.370  0.00  0.00    -0.526 OA
ATOM      8  H5  UNL d   1       2.040  -0.065   0.467  0.00  0.00     0.418 HD
ENDBRANCH   4   7
TORSDOF 1
ENDMDL
