MODEL 1
REMARK minimizedAffinity 8.49394608
REMARK minimizedRMSD -1
REMARK  1 active torsions:
REMARK  status: ('A' for Active; 'I' for Inactive)
REMARK    1  A    between atoms: C3_4  and  O_7 
ROOT
ATOM      1  C   UNL d   1      -1.063   2.283   2.769  0.00  0.00    -0.033 A 
ATOM      2  C1  UNL d   1      -1.215   0.954   2.368  0.00  0.00     0.039 A 
ATOM      3  C2  UNL d   1      -0.129   0.255   1.839  0.00  0.00    -0.080 A 
ATOM      4  C3  UNL d   1       1.102   0.894   1.717  0.00  0.00     0.150 A 
ATOM      5  C4  UNL d   1       1.261   2.217   2.117  0.00  0.00    -0.007 A 
ATOM      6  C5  UNL d   1       0.175   2.914   2.645  0.00  0.00     0.039 A 
ENDROOT
BRANCH   4   7
ATOM      7  O   UNL d   1       2.190   0.254   1.201  0.00  0.00    -0.526 OA
ATOM      8  H5  UNL d   1       1.924  -0.644   0.941  0.00  0.00     0.418 HD
ENDBRANCH   4   7
TORSDOF 1
ENDMDL
