MODEL 1
REMARK minimizedAffinity 8.69196606
REMARK minimizedRMSD -1
REMARK  1 active torsions:
REMARK  status: ('A' for Active; 'I' for Inactive)
REMARK    1  A    between atoms: C3_4  and  O_7 
ROOT
ATOM      1  C   UNL d   1      -3.903  -0.043   2.532  0.00  0.00    -0.033 A 
ATOM      2  C1  UNL d   1      -3.202  -0.468   3.662  0.00  0.00     0.039 A 
ATOM      3  C2  UNL d   1      -3.892  -0.820   4.823  0.00  0.00    -0.080 A 
ATOM      4  C3  UNL d   1      -5.282  -0.745   4.841  0.00  0.00     0.150 A 
ATOM      5  C4  UNL d   1      -5.988  -0.327   3.718  0.00  0.00    -0.007 A 
ATOM      6  C5  UNL d   1      -5.297   0.026   2.559  0.00  0.00     0.039 A 
ENDROOT
BRANCH   4   7
ATOM      7  O   UNL d   1      -5.999  -1.075   5.953  0.00  0.00    -0.526 OA
ATOM      8  H5  UNL d   1      -5.377  -1.318   6.659  0.00  0.00     0.418 HD
ENDBRANCH   4   7
TORSDOF 1
ENDMDL
