MODEL 1
REMARK minimizedAffinity 5.21751499
REMARK minimizedRMSD -1
REMARK  1 active torsions:
REMARK  status: ('A' for Active; 'I' for Inactive)
REMARK    1  A    between atoms: C3_4  and  O_7 
ROOT
ATOM      1  C   UNL d   1       5.624  -1.799  -0.745  0.00  0.00    -0.033 A 
ATOM      2  C1  UNL d   1       5.872  -1.133  -1.947  0.00  0.00     0.039 A 
ATOM      3  C2  UNL d   1       6.000  -1.856  -3.135  0.00  0.00    -0.080 A 
ATOM      4  C3  UNL d   1       5.876  -3.242  -3.107  0.00  0.00     0.150 A 
ATOM      5  C4  UNL d   1       5.625  -3.912  -1.915  0.00  0.00    -0.007 A 
ATOM      6  C5  UNL d   1       5.499  -3.189  -0.729  0.00  0.00     0.039 A 
ENDROOT
BRANCH   4   7
ATOM      7  O   UNL d   1       5.998  -3.991  -4.240  0.00  0.00    -0.526 OA
ATOM      8  H5  UNL d   1       6.199  -3.396  -4.982  0.00  0.00     0.418 HD
ENDBRANCH   4   7
TORSDOF 1
ENDMDL
