MODEL 1
REMARK minimizedAffinity 0.454056948
REMARK minimizedRMSD -1
REMARK  1 active torsions:
REMARK  status: ('A' for Active; 'I' for Inactive)
REMARK    1  A    between atoms: C3_4  and  O_7 
ROOT
ATOM      1  C   UNL d   1       4.872  -3.945  -3.442  0.00  0.00    -0.033 A 
ATOM      2  C1  UNL d   1       4.466  -5.270  -3.273  0.00  0.00     0.039 A 
ATOM      3  C2  UNL d   1       4.829  -5.971  -2.121  0.00  0.00    -0.080 A 
ATOM      4  C3  UNL d   1       5.595  -5.337  -1.147  0.00  0.00     0.150 A 
ATOM      5  C4  UNL d   1       6.000  -4.016  -1.308  0.00  0.00    -0.007 A 
ATOM      6  C5  UNL d   1       5.638  -3.317  -2.459  0.00  0.00     0.039 A 
ENDROOT
BRANCH   4   7
ATOM      7  O   UNL d   1       5.977  -5.982  -0.009  0.00  0.00    -0.526 OA
ATOM      8  H5  UNL d   1       5.650  -6.896  -0.048  0.00  0.00     0.418 HD
ENDBRANCH   4   7
TORSDOF 1
ENDMDL
