MODEL 1
REMARK minimizedAffinity 5.56932116
REMARK minimizedRMSD -1
REMARK  1 active torsions:
REMARK  status: ('A' for Active; 'I' for Inactive)
REMARK    1  A    between atoms: C3_4  and  O_7 
ROOT
ATOM      1  C   UNL d   1      -2.700   0.746  -1.055  0.00  0.00    -0.033 A 
ATOM      2  C1  UNL d   1      -2.122  -0.167  -1.939  0.00  0.00     0.039 A 
ATOM      3  C2  UNL d   1      -2.168   0.066  -3.315  0.00  0.00    -0.080 A 
ATOM      4  C3  UNL d   1      -2.794   1.214  -3.793  0.00  0.00     0.150 A 
ATOM      5  C4  UNL d   1      -3.369   2.130  -2.917  0.00  0.00    -0.007 A 
ATOM      6  C5  UNL d   1      -3.322   1.895  -1.544  0.00  0.00     0.039 A 
ENDROOT
BRANCH   4   7
ATOM      7  O   UNL d   1      -2.869   1.482  -5.127  0.00  0.00    -0.526 OA
ATOM      8  H5  UNL d   1      -2.455   0.748  -5.612  0.00  0.00     0.418 HD
ENDBRANCH   4   7
TORSDOF 1
ENDMDL
