MODEL 1
REMARK minimizedAffinity 3.20615554
REMARK minimizedRMSD -1
REMARK  1 active torsions:
REMARK  status: ('A' for Active; 'I' for Inactive)
REMARK    1  A    between atoms: C3_4  and  O_7 
ROOT
ATOM      1  C   UNL d   1      -0.258   5.986  -0.438  0.00  0.00    -0.033 A 
ATOM      2  C1  UNL d   1      -1.195   5.006  -0.104  0.00  0.00     0.039 A 
ATOM      3  C2  UNL d   1      -0.769   3.747   0.322  0.00  0.00    -0.080 A 
ATOM      4  C3  UNL d   1       0.594   3.481   0.412  0.00  0.00     0.150 A 
ATOM      5  C4  UNL d   1       1.533   4.454   0.085  0.00  0.00    -0.007 A 
ATOM      6  C5  UNL d   1       1.106   5.711  -0.342  0.00  0.00     0.039 A 
ENDROOT
BRANCH   4   7
ATOM      7  O   UNL d   1       1.058   2.265   0.819  0.00  0.00    -0.526 OA
ATOM      8  H5  UNL d   1       0.296   1.685   0.983  0.00  0.00     0.418 HD
ENDBRANCH   4   7
TORSDOF 1
ENDMDL
