MODEL 1
REMARK minimizedAffinity 4.66494274
REMARK minimizedRMSD -1
REMARK  1 active torsions:
REMARK  status: ('A' for Active; 'I' for Inactive)
REMARK    1  A    between atoms: C3_4  and  O_7 
ROOT
ATOM      1  C   UNL d   1       1.453  -4.404  -1.999  0.00  0.00    -0.033 A 
ATOM      2  C1  UNL d   1       1.986  -3.246  -1.428  0.00  0.00     0.039 A 
ATOM      3  C2  UNL d   1       1.179  -2.123  -1.239  0.00  0.00    -0.080 A 
ATOM      4  C3  UNL d   1      -0.158  -2.170  -1.624  0.00  0.00     0.150 A 
ATOM      5  C4  UNL d   1      -0.697  -3.321  -2.189  0.00  0.00    -0.007 A 
ATOM      6  C5  UNL d   1       0.111  -4.442  -2.378  0.00  0.00     0.039 A 
ENDROOT
BRANCH   4   7
ATOM      7  O   UNL d   1      -0.984  -1.098  -1.463  0.00  0.00    -0.526 OA
ATOM      8  H5  UNL d   1      -0.468  -0.365  -1.087  0.00  0.00     0.418 HD
ENDBRANCH   4   7
TORSDOF 1
ENDMDL
