MODEL 1
REMARK minimizedAffinity 8.74447346
REMARK minimizedRMSD -1
REMARK  1 active torsions:
REMARK  status: ('A' for Active; 'I' for Inactive)
REMARK    1  A    between atoms: C3_4  and  O_7 
ROOT
ATOM      1  C   UNL d   1      -5.682   4.855   3.950  0.00  0.00    -0.033 A 
ATOM      2  C1  UNL d   1      -6.000   3.828   3.059  0.00  0.00     0.039 A 
ATOM      3  C2  UNL d   1      -5.556   3.885   1.737  0.00  0.00    -0.080 A 
ATOM      4  C3  UNL d   1      -4.795   4.973   1.318  0.00  0.00     0.150 A 
ATOM      5  C4  UNL d   1      -4.472   5.999   2.201  0.00  0.00    -0.007 A 
ATOM      6  C5  UNL d   1      -4.917   5.940   3.521  0.00  0.00     0.039 A 
ENDROOT
BRANCH   4   7
ATOM      7  O   UNL d   1      -4.343   5.075   0.036  0.00  0.00    -0.526 OA
ATOM      8  H5  UNL d   1      -4.668   4.310  -0.467  0.00  0.00     0.418 HD
ENDBRANCH   4   7
TORSDOF 1
ENDMDL
