MODEL 1
REMARK minimizedAffinity -0.467380911
REMARK minimizedRMSD -1
REMARK  1 active torsions:
REMARK  status: ('A' for Active; 'I' for Inactive)
REMARK    1  A    between atoms: C3_4  and  O_7 
ROOT
ATOM      1  C   UNL d   1       1.176   5.312   2.463  0.00  0.00    -0.033 A 
ATOM      2  C1  UNL d   1       1.317   4.768   3.741  0.00  0.00     0.039 A 
ATOM      3  C2  UNL d   1       2.580   4.686   4.331  0.00  0.00    -0.080 A 
ATOM      4  C3  UNL d   1       3.691   5.151   3.634  0.00  0.00     0.150 A 
ATOM      5  C4  UNL d   1       3.558   5.698   2.362  0.00  0.00    -0.007 A 
ATOM      6  C5  UNL d   1       2.296   5.778   1.774  0.00  0.00     0.039 A 
ENDROOT
BRANCH   4   7
ATOM      7  O   UNL d   1       4.944   5.088   4.167  0.00  0.00    -0.526 OA
ATOM      8  H5  UNL d   1       4.887   4.661   5.038  0.00  0.00     0.418 HD
ENDBRANCH   4   7
TORSDOF 1
ENDMDL
