MODEL 1
REMARK minimizedAffinity -1.24593413
REMARK minimizedRMSD -1
REMARK  1 active torsions:
REMARK  status: ('A' for Active; 'I' for Inactive)
REMARK    1  A    between atoms: C3_4  and  O_7 
ROOT
ATOM      1  C   UNL d   1       0.454   4.076   0.952  0.00  0.00    -0.033 A 
ATOM      2  C1  UNL d   1       0.286   5.351   1.496  0.00  0.00     0.039 A 
ATOM      3  C2  UNL d   1       1.273   5.897   2.319  0.00  0.00    -0.080 A 
ATOM      4  C3  UNL d   1       2.422   5.158   2.591  0.00  0.00     0.150 A 
ATOM      5  C4  UNL d   1       2.597   3.888   2.050  0.00  0.00    -0.007 A 
ATOM      6  C5  UNL d   1       1.610   3.345   1.228  0.00  0.00     0.039 A 
ENDROOT
BRANCH   4   7
ATOM      7  O   UNL d   1       3.410   5.646   3.393  0.00  0.00    -0.526 OA
ATOM      8  H5  UNL d   1       3.139   6.521   3.718  0.00  0.00     0.418 HD
ENDBRANCH   4   7
TORSDOF 1
ENDMDL
