MODEL 1
REMARK minimizedAffinity -0.755525649
REMARK minimizedRMSD -1
REMARK  1 active torsions:
REMARK  status: ('A' for Active; 'I' for Inactive)
REMARK    1  A    between atoms: C3_4  and  O_7 
ROOT
ATOM      1  C   UNL d   1      -4.037  -2.795  -5.034  0.00  0.00    -0.033 A 
ATOM      2  C1  UNL d   1      -3.409  -4.022  -4.816  0.00  0.00     0.039 A 
ATOM      3  C2  UNL d   1      -2.211  -4.078  -4.101  0.00  0.00    -0.080 A 
ATOM      4  C3  UNL d   1      -1.654  -2.901  -3.609  0.00  0.00     0.150 A 
ATOM      5  C4  UNL d   1      -2.276  -1.675  -3.819  0.00  0.00    -0.007 A 
ATOM      6  C5  UNL d   1      -3.471  -1.621  -4.535  0.00  0.00     0.039 A 
ENDROOT
BRANCH   4   7
ATOM      7  O   UNL d   1      -0.484  -2.905  -2.909  0.00  0.00    -0.526 OA
ATOM      8  H5  UNL d   1      -0.154  -3.819  -2.866  0.00  0.00     0.418 HD
ENDBRANCH   4   7
TORSDOF 1
ENDMDL
