MODEL 1
REMARK minimizedAffinity -1.99645686
REMARK minimizedRMSD -1
REMARK  1 active torsions:
REMARK  status: ('A' for Active; 'I' for Inactive)
REMARK    1  A    between atoms: C3_4  and  O_7 
ROOT
ATOM      1  C   UNL d   1      -1.870  -4.457  -3.663  0.00  0.00    -0.033 A 
ATOM      2  C1  UNL d   1      -1.232  -3.355  -3.090  0.00  0.00     0.039 A 
ATOM      3  C2  UNL d   1      -1.574  -2.062  -3.488  0.00  0.00    -0.080 A 
ATOM      4  C3  UNL d   1      -2.556  -1.883  -4.459  0.00  0.00     0.150 A 
ATOM      5  C4  UNL d   1      -3.199  -2.976  -5.032  0.00  0.00    -0.007 A 
ATOM      6  C5  UNL d   1      -2.855  -4.267  -4.633  0.00  0.00     0.039 A 
ENDROOT
BRANCH   4   7
ATOM      7  O   UNL d   1      -2.921  -0.640  -4.884  0.00  0.00    -0.526 OA
ATOM      8  H5  UNL d   1      -2.373   0.016  -4.422  0.00  0.00     0.418 HD
ENDBRANCH   4   7
TORSDOF 1
ENDMDL
