MODEL 1
REMARK minimizedAffinity 7.15183783
REMARK minimizedRMSD -1
REMARK  1 active torsions:
REMARK  status: ('A' for Active; 'I' for Inactive)
REMARK    1  A    between atoms: C3_4  and  O_7 
ROOT
ATOM      1  C   UNL d   1       4.783   1.861   0.361  0.00  0.00    -0.033 A 
ATOM      2  C1  UNL d   1       4.436   1.733  -0.985  0.00  0.00     0.039 A 
ATOM      3  C2  UNL d   1       3.297   1.012  -1.349  0.00  0.00    -0.080 A 
ATOM      4  C3  UNL d   1       2.515   0.424  -0.359  0.00  0.00     0.150 A 
ATOM      5  C4  UNL d   1       2.852   0.550   0.985  0.00  0.00    -0.007 A 
ATOM      6  C5  UNL d   1       3.990   1.270   1.346  0.00  0.00     0.039 A 
ENDROOT
BRANCH   4   7
ATOM      7  O   UNL d   1       1.397  -0.293  -0.666  0.00  0.00    -0.526 OA
ATOM      8  H5  UNL d   1       1.304  -0.320  -1.633  0.00  0.00     0.418 HD
ENDBRANCH   4   7
TORSDOF 1
ENDMDL
