MODEL 1
REMARK minimizedAffinity 9.50636292
REMARK minimizedRMSD -1
REMARK  1 active torsions:
REMARK  status: ('A' for Active; 'I' for Inactive)
REMARK    1  A    between atoms: C3_4  and  O_7 
ROOT
ATOM      1  C   UNL d   1      -5.992  -1.529  -2.525  0.00  0.00    -0.033 A 
ATOM      2  C1  UNL d   1      -6.000  -1.932  -1.188  0.00  0.00     0.039 A 
ATOM      3  C2  UNL d   1      -5.300  -1.195  -0.231  0.00  0.00    -0.080 A 
ATOM      4  C3  UNL d   1      -4.599  -0.058  -0.622  0.00  0.00     0.150 A 
ATOM      5  C4  UNL d   1      -4.591   0.352  -1.951  0.00  0.00    -0.007 A 
ATOM      6  C5  UNL d   1      -5.289  -0.385  -2.906  0.00  0.00     0.039 A 
ENDROOT
BRANCH   4   7
ATOM      7  O   UNL d   1      -3.898   0.691   0.276  0.00  0.00    -0.526 OA
ATOM      8  H5  UNL d   1      -3.970   0.272   1.149  0.00  0.00     0.418 HD
ENDBRANCH   4   7
TORSDOF 1
ENDMDL
