MODEL 1
REMARK minimizedAffinity 9.43398476
REMARK minimizedRMSD -1
REMARK  1 active torsions:
REMARK  status: ('A' for Active; 'I' for Inactive)
REMARK    1  A    between atoms: C3_4  and  O_7 
ROOT
ATOM      1  C   UNL d   1       2.682   0.357   4.114  0.00  0.00    -0.033 A 
ATOM      2  C1  UNL d   1       3.356  -0.385   3.142  0.00  0.00     0.039 A 
ATOM      3  C2  UNL d   1       4.475  -1.143   3.492  0.00  0.00    -0.080 A 
ATOM      4  C3  UNL d   1       4.908  -1.153   4.815  0.00  0.00     0.150 A 
ATOM      5  C4  UNL d   1       4.238  -0.420   5.790  0.00  0.00    -0.007 A 
ATOM      6  C5  UNL d   1       3.122   0.338   5.438  0.00  0.00     0.039 A 
ENDROOT
BRANCH   4   7
ATOM      7  O   UNL d   1       5.997  -1.875   5.204  0.00  0.00    -0.526 OA
ATOM      8  H5  UNL d   1       6.375  -2.307   4.420  0.00  0.00     0.418 HD
ENDBRANCH   4   7
TORSDOF 1
ENDMDL
