MODEL 1
REMARK minimizedAffinity 2.83177972
REMARK minimizedRMSD -1
REMARK  1 active torsions:
REMARK  status: ('A' for Active; 'I' for Inactive)
REMARK    1  A    between atoms: C3_4  and  O_7 
ROOT
ATOM      1  C   UNL d   1      -3.775   2.113   1.141  0.00  0.00    -0.033 A 
ATOM      2  C1  UNL d   1      -3.166   1.134   0.353  0.00  0.00     0.039 A 
ATOM      3  C2  UNL d   1      -3.901   0.029  -0.083  0.00  0.00    -0.080 A 
ATOM      4  C3  UNL d   1      -5.242  -0.084   0.274  0.00  0.00     0.150 A 
ATOM      5  C4  UNL d   1      -5.856   0.890   1.055  0.00  0.00    -0.007 A 
ATOM      6  C5  UNL d   1      -5.120   1.991   1.491  0.00  0.00     0.039 A 
ENDROOT
BRANCH   4   7
ATOM      7  O   UNL d   1      -5.998  -1.146  -0.124  0.00  0.00    -0.526 OA
ATOM      8  H5  UNL d   1      -5.434  -1.752  -0.633  0.00  0.00     0.418 HD
ENDBRANCH   4   7
TORSDOF 1
ENDMDL
