MODEL 1
REMARK minimizedAffinity 5.19834375
REMARK minimizedRMSD -1
REMARK  1 active torsions:
REMARK  status: ('A' for Active; 'I' for Inactive)
REMARK    1  A    between atoms: C3_4  and  O_7 
ROOT
ATOM      1  C   UNL d   1       6.000   2.626  -1.489  0.00  0.00    -0.033 A 
ATOM      2  C1  UNL d   1       5.997   2.625  -0.093  0.00  0.00     0.039 A 
ATOM      3  C2  UNL d   1       4.971   1.985   0.605  0.00  0.00    -0.080 A 
ATOM      4  C3  UNL d   1       3.956   1.349  -0.104  0.00  0.00     0.150 A 
ATOM      5  C4  UNL d   1       3.954   1.342  -1.495  0.00  0.00    -0.007 A 
ATOM      6  C5  UNL d   1       4.979   1.983  -2.190  0.00  0.00     0.039 A 
ENDROOT
BRANCH   4   7
ATOM      7  O   UNL d   1       2.931   0.715   0.533  0.00  0.00    -0.526 OA
ATOM      8  H5  UNL d   1       3.049   0.826   1.491  0.00  0.00     0.418 HD
ENDBRANCH   4   7
TORSDOF 1
ENDMDL
