MODEL 1
REMARK minimizedAffinity -2.32872868
REMARK minimizedRMSD -1
REMARK  0 active torsions:
REMARK  status: ('A' for Active; 'I' for Inactive)
ROOT
ATOM      1  O1  BZF d   1      -5.808   3.999  -6.000  0.00  0.00    -0.204 OA
ATOM      2  C2  BZF d   1      -4.762   4.876  -5.789  0.00  0.00     0.174 A 
ATOM      3  C3  BZF d   1      -3.629   4.208  -5.491  0.00  0.00    -0.012 A 
ATOM      4  C3A BZF d   1      -3.968   2.823  -5.607  0.00  0.00    -0.107 A 
ATOM      5  C4  BZF d   1      -3.260   1.666  -5.448  0.00  0.00     0.055 A 
ATOM      6  C5  BZF d   1      -3.904   0.475  -5.562  0.00  0.00    -0.016 A 
ATOM      7  C6  BZF d   1      -5.256   0.404  -5.829  0.00  0.00     0.022 A 
ATOM      8  C7  BZF d   1      -6.000   1.524  -6.000  0.00  0.00     0.029 A 
ATOM      9  C7A BZF d   1      -5.345   2.728  -5.918  0.00  0.00     0.058 A 
ENDROOT
TORSDOF 0
ENDMDL
