MODEL 1
REMARK minimizedAffinity -4.96556139
REMARK minimizedRMSD -1
REMARK  0 active torsions:
REMARK  status: ('A' for Active; 'I' for Inactive)
ROOT
ATOM      1  O1  BZF d   1      -0.790  -0.491   0.266  0.00  0.00    -0.204 OA
ATOM      2  C2  BZF d   1      -0.360   0.437   1.194  0.00  0.00     0.174 A 
ATOM      3  C3  BZF d   1       0.746   1.074   0.756  0.00  0.00    -0.012 A 
ATOM      4  C3A BZF d   1       0.970   0.573  -0.565  0.00  0.00    -0.107 A 
ATOM      5  C4  BZF d   1       1.909   0.834  -1.522  0.00  0.00     0.055 A 
ATOM      6  C5  BZF d   1       1.890   0.120  -2.678  0.00  0.00    -0.016 A 
ATOM      7  C6  BZF d   1       0.952  -0.865  -2.908  0.00  0.00     0.022 A 
ATOM      8  C7  BZF d   1      -0.002  -1.157  -1.991  0.00  0.00     0.029 A 
ATOM      9  C7A BZF d   1      -0.006  -0.414  -0.836  0.00  0.00     0.058 A 
ENDROOT
TORSDOF 0
ENDMDL
