MODEL 1
REMARK minimizedAffinity 2.22473073
REMARK minimizedRMSD -1
REMARK  0 active torsions:
REMARK  status: ('A' for Active; 'I' for Inactive)
ROOT
ATOM      1  O1  BZF d   1       0.522   1.067   0.386  0.00  0.00    -0.204 OA
ATOM      2  C2  BZF d   1       0.137   0.821   1.690  0.00  0.00     0.174 A 
ATOM      3  C3  BZF d   1      -0.219  -0.470   1.849  0.00  0.00    -0.012 A 
ATOM      4  C3A BZF d   1       0.043  -1.090   0.586  0.00  0.00    -0.107 A 
ATOM      5  C4  BZF d   1      -0.093  -2.367   0.121  0.00  0.00     0.055 A 
ATOM      6  C5  BZF d   1       0.182  -2.627  -1.184  0.00  0.00    -0.016 A 
ATOM      7  C6  BZF d   1       0.588  -1.635  -2.052  0.00  0.00     0.022 A 
ATOM      8  C7  BZF d   1       0.741  -0.355  -1.637  0.00  0.00     0.029 A 
ATOM      9  C7A BZF d   1       0.496  -0.095  -0.310  0.00  0.00     0.058 A 
ENDROOT
TORSDOF 0
ENDMDL
