MODEL 1
REMARK minimizedAffinity -2.8571341
REMARK minimizedRMSD -1
REMARK  0 active torsions:
REMARK  status: ('A' for Active; 'I' for Inactive)
ROOT
ATOM      1  O1  BZF d   1      -0.272   1.640   0.910  0.00  0.00    -0.204 OA
ATOM      2  C2  BZF d   1       0.364   0.459   0.581  0.00  0.00     0.174 A 
ATOM      3  C3  BZF d   1      -0.509  -0.569   0.571  0.00  0.00    -0.012 A 
ATOM      4  C3A BZF d   1      -1.787   0.021   0.825  0.00  0.00    -0.107 A 
ATOM      5  C4  BZF d   1      -3.052  -0.484   0.922  0.00  0.00     0.055 A 
ATOM      6  C5  BZF d   1      -4.073   0.349   1.252  0.00  0.00    -0.016 A 
ATOM      7  C6  BZF d   1      -3.865   1.691   1.497  0.00  0.00     0.022 A 
ATOM      8  C7  BZF d   1      -2.629   2.239   1.408  0.00  0.00     0.029 A 
ATOM      9  C7A BZF d   1      -1.600   1.406   1.043  0.00  0.00     0.058 A 
ENDROOT
TORSDOF 0
ENDMDL
