MODEL 1
REMARK minimizedAffinity -1.20091617
REMARK minimizedRMSD -1
REMARK  0 active torsions:
REMARK  status: ('A' for Active; 'I' for Inactive)
ROOT
ATOM      1  O1  BZF d   1       0.269  -2.635   0.949  0.00  0.00    -0.204 OA
ATOM      2  C2  BZF d   1       0.059  -3.683   0.074  0.00  0.00     0.174 A 
ATOM      3  C3  BZF d   1      -0.148  -3.226  -1.178  0.00  0.00    -0.012 A 
ATOM      4  C3A BZF d   1       0.029  -1.809  -1.096  0.00  0.00    -0.107 A 
ATOM      5  C4  BZF d   1      -0.031  -0.800  -2.015  0.00  0.00     0.055 A 
ATOM      6  C5  BZF d   1       0.118   0.484  -1.597  0.00  0.00    -0.016 A 
ATOM      7  C6  BZF d   1       0.324   0.796  -0.269  0.00  0.00     0.022 A 
ATOM      8  C7  BZF d   1       0.397  -0.171   0.678  0.00  0.00     0.029 A 
ATOM      9  C7A BZF d   1       0.279  -1.472   0.254  0.00  0.00     0.058 A 
ENDROOT
TORSDOF 0
ENDMDL
