MODEL 1
REMARK minimizedAffinity -3.26874352
REMARK minimizedRMSD -1
REMARK  0 active torsions:
REMARK  status: ('A' for Active; 'I' for Inactive)
ROOT
ATOM      1  O1  BZF d   1      -3.760   4.432  -5.851  0.00  0.00    -0.204 OA
ATOM      2  C2  BZF d   1      -4.941   5.137  -5.972  0.00  0.00     0.174 A 
ATOM      3  C3  BZF d   1      -5.998   4.300  -5.999  0.00  0.00    -0.012 A 
ATOM      4  C3A BZF d   1      -5.449   2.995  -5.794  0.00  0.00    -0.107 A 
ATOM      5  C4  BZF d   1      -6.000   1.748  -5.703  0.00  0.00     0.055 A 
ATOM      6  C5  BZF d   1      -5.180   0.672  -5.574  0.00  0.00    -0.016 A 
ATOM      7  C6  BZF d   1      -3.808   0.805  -5.536  0.00  0.00     0.022 A 
ATOM      8  C7  BZF d   1      -3.216   2.021  -5.617  0.00  0.00     0.029 A 
ATOM      9  C7A BZF d   1      -4.042   3.114  -5.715  0.00  0.00     0.058 A 
ENDROOT
TORSDOF 0
ENDMDL
