MODEL 1
REMARK minimizedAffinity -2.11963797
REMARK minimizedRMSD -1
REMARK  0 active torsions:
REMARK  status: ('A' for Active; 'I' for Inactive)
ROOT
ATOM      1  O1  BZF d   1      -2.963   0.010   2.410  0.00  0.00    -0.204 OA
ATOM      2  C2  BZF d   1      -4.142   0.360   1.782  0.00  0.00     0.174 A 
ATOM      3  C3  BZF d   1      -3.930   0.618   0.475  0.00  0.00    -0.012 A 
ATOM      4  C3A BZF d   1      -2.547   0.327   0.254  0.00  0.00    -0.107 A 
ATOM      5  C4  BZF d   1      -1.742   0.374  -0.849  0.00  0.00     0.055 A 
ATOM      6  C5  BZF d   1      -0.419   0.097  -0.713  0.00  0.00    -0.016 A 
ATOM      7  C6  BZF d   1       0.134  -0.224   0.510  0.00  0.00     0.022 A 
ATOM      8  C7  BZF d   1      -0.625  -0.288   1.631  0.00  0.00     0.029 A 
ATOM      9  C7A BZF d   1      -1.969  -0.041   1.491  0.00  0.00     0.058 A 
ENDROOT
TORSDOF 0
ENDMDL
