MODEL 1
REMARK minimizedAffinity -5.14453363
REMARK minimizedRMSD -1
REMARK  0 active torsions:
REMARK  status: ('A' for Active; 'I' for Inactive)
ROOT
ATOM      1  O1  BZF d   1       0.047  -1.447   0.271  0.00  0.00    -0.204 OA
ATOM      2  C2  BZF d   1      -0.395  -0.477   1.150  0.00  0.00     0.174 A 
ATOM      3  C3  BZF d   1       0.022   0.746   0.762  0.00  0.00    -0.012 A 
ATOM      4  C3A BZF d   1       0.694   0.536  -0.484  0.00  0.00    -0.107 A 
ATOM      5  C4  BZF d   1       1.312   1.371  -1.370  0.00  0.00     0.055 A 
ATOM      6  C5  BZF d   1       1.934   0.840  -2.455  0.00  0.00    -0.016 A 
ATOM      7  C6  BZF d   1       1.960  -0.520  -2.684  0.00  0.00     0.022 A 
ATOM      8  C7  BZF d   1       1.356  -1.388  -1.837  0.00  0.00     0.029 A 
ATOM      9  C7A BZF d   1       0.699  -0.852  -0.756  0.00  0.00     0.058 A 
ENDROOT
TORSDOF 0
ENDMDL
