MODEL 1
REMARK minimizedAffinity -4.74907398
REMARK minimizedRMSD -1
REMARK  0 active torsions:
REMARK  status: ('A' for Active; 'I' for Inactive)
ROOT
ATOM      1  O1  BZF d   1      -0.335  -1.455  -0.373  0.00  0.00    -0.204 OA
ATOM      2  C2  BZF d   1      -0.826  -1.005   0.837  0.00  0.00     0.174 A 
ATOM      3  C3  BZF d   1      -0.325   0.211   1.134  0.00  0.00    -0.012 A 
ATOM      4  C3A BZF d   1       0.460   0.582  -0.002  0.00  0.00    -0.107 A 
ATOM      5  C4  BZF d   1       1.197   1.689  -0.313  0.00  0.00     0.055 A 
ATOM      6  C5  BZF d   1       1.905   1.708  -1.473  0.00  0.00    -0.016 A 
ATOM      7  C6  BZF d   1       1.902   0.636  -2.342  0.00  0.00     0.022 A 
ATOM      8  C7  BZF d   1       1.182  -0.482  -2.079  0.00  0.00     0.029 A 
ATOM      9  C7A BZF d   1       0.440  -0.490  -0.924  0.00  0.00     0.058 A 
ENDROOT
TORSDOF 0
ENDMDL
