MODEL 1
REMARK minimizedAffinity -4.14569426
REMARK minimizedRMSD -1
REMARK  0 active torsions:
REMARK  status: ('A' for Active; 'I' for Inactive)
ROOT
ATOM      1  O1  BZF d   1       2.352   0.894  -2.156  0.00  0.00    -0.204 OA
ATOM      2  C2  BZF d   1       2.161  -0.193  -2.988  0.00  0.00     0.174 A 
ATOM      3  C3  BZF d   1       1.227  -1.024  -2.482  0.00  0.00    -0.012 A 
ATOM      4  C3A BZF d   1       0.742  -0.372  -1.304  0.00  0.00    -0.107 A 
ATOM      5  C4  BZF d   1      -0.207  -0.694  -0.376  0.00  0.00     0.055 A 
ATOM      6  C5  BZF d   1      -0.388   0.123   0.694  0.00  0.00    -0.016 A 
ATOM      7  C6  BZF d   1       0.365   1.265   0.871  0.00  0.00     0.022 A 
ATOM      8  C7  BZF d   1       1.314   1.629  -0.025  0.00  0.00     0.029 A 
ATOM      9  C7A BZF d   1       1.477   0.823  -1.125  0.00  0.00     0.058 A 
ENDROOT
TORSDOF 0
ENDMDL
