MODEL 1
REMARK minimizedAffinity -5.39799309
REMARK minimizedRMSD -1
REMARK  0 active torsions:
REMARK  status: ('A' for Active; 'I' for Inactive)
ROOT
ATOM      1  O1  BZF d   1      -0.108  -1.222   0.323  0.00  0.00    -0.204 OA
ATOM      2  C2  BZF d   1      -0.305   0.107   0.644  0.00  0.00     0.174 A 
ATOM      3  C3  BZF d   1       0.435   0.906  -0.151  0.00  0.00    -0.012 A 
ATOM      4  C3A BZF d   1       1.069   0.026  -1.084  0.00  0.00    -0.107 A 
ATOM      5  C4  BZF d   1       1.918   0.226  -2.135  0.00  0.00     0.055 A 
ATOM      6  C5  BZF d   1       2.412  -0.852  -2.799  0.00  0.00    -0.016 A 
ATOM      7  C6  BZF d   1       2.084  -2.142  -2.435  0.00  0.00     0.022 A 
ATOM      8  C7  BZF d   1       1.241  -2.390  -1.403  0.00  0.00     0.029 A 
ATOM      9  C7A BZF d   1       0.714  -1.301  -0.751  0.00  0.00     0.058 A 
ENDROOT
TORSDOF 0
ENDMDL
