MODEL 1
REMARK minimizedAffinity -3.76094842
REMARK minimizedRMSD -1
REMARK  0 active torsions:
REMARK  status: ('A' for Active; 'I' for Inactive)
ROOT
ATOM      1  O1  BZF d   1       0.564   0.776   0.600  0.00  0.00    -0.204 OA
ATOM      2  C2  BZF d   1      -0.324   0.064   1.383  0.00  0.00     0.174 A 
ATOM      3  C3  BZF d   1      -0.881  -0.943   0.679  0.00  0.00    -0.012 A 
ATOM      4  C3A BZF d   1      -0.237  -0.910  -0.598  0.00  0.00    -0.107 A 
ATOM      5  C4  BZF d   1      -0.351  -1.671  -1.727  0.00  0.00     0.055 A 
ATOM      6  C5  BZF d   1       0.369  -1.332  -2.828  0.00  0.00    -0.016 A 
ATOM      7  C6  BZF d   1       1.208  -0.236  -2.838  0.00  0.00     0.022 A 
ATOM      8  C7  BZF d   1       1.357   0.546  -1.741  0.00  0.00     0.029 A 
ATOM      9  C7A BZF d   1       0.656   0.186  -0.616  0.00  0.00     0.058 A 
ENDROOT
TORSDOF 0
ENDMDL
