MODEL 1
REMARK minimizedAffinity -4.63996458
REMARK minimizedRMSD -1
REMARK  0 active torsions:
REMARK  status: ('A' for Active; 'I' for Inactive)
ROOT
ATOM      1  O1  BZF d   1       2.279   1.086  -1.641  0.00  0.00    -0.204 OA
ATOM      2  C2  BZF d   1       2.259   0.162  -2.669  0.00  0.00     0.174 A 
ATOM      3  C3  BZF d   1       1.262  -0.729  -2.491  0.00  0.00    -0.012 A 
ATOM      4  C3A BZF d   1       0.561  -0.283  -1.326  0.00  0.00    -0.107 A 
ATOM      5  C4  BZF d   1      -0.534  -0.746  -0.655  0.00  0.00     0.055 A 
ATOM      6  C5  BZF d   1      -0.919  -0.123   0.490  0.00  0.00    -0.016 A 
ATOM      7  C6  BZF d   1      -0.229   0.960   0.995  0.00  0.00     0.022 A 
ATOM      8  C7  BZF d   1       0.861   1.458   0.361  0.00  0.00     0.029 A 
ATOM      9  C7A BZF d   1       1.232   0.851  -0.814  0.00  0.00     0.058 A 
ENDROOT
TORSDOF 0
ENDMDL
