MODEL 1
REMARK minimizedAffinity -1.64524698
REMARK minimizedRMSD -1
REMARK  0 active torsions:
REMARK  status: ('A' for Active; 'I' for Inactive)
ROOT
ATOM      1  O1  BZF d   1       2.095  -0.956  -1.941  0.00  0.00    -0.204 OA
ATOM      2  C2  BZF d   1       2.610   0.295  -2.221  0.00  0.00     0.174 A 
ATOM      3  C3  BZF d   1       2.021   1.237  -1.456  0.00  0.00    -0.012 A 
ATOM      4  C3A BZF d   1       1.144   0.519  -0.583  0.00  0.00    -0.107 A 
ATOM      5  C4  BZF d   1       0.297   0.900   0.418  0.00  0.00     0.055 A 
ATOM      6  C5  BZF d   1      -0.472  -0.041   1.027  0.00  0.00    -0.016 A 
ATOM      7  C6  BZF d   1      -0.422  -1.369   0.657  0.00  0.00     0.022 A 
ATOM      8  C7  BZF d   1       0.407  -1.796  -0.327  0.00  0.00     0.029 A 
ATOM      9  C7A BZF d   1       1.209  -0.853  -0.921  0.00  0.00     0.058 A 
ENDROOT
TORSDOF 0
ENDMDL
