MODEL 1
REMARK minimizedAffinity -0.639172614
REMARK minimizedRMSD -1
REMARK  0 active torsions:
REMARK  status: ('A' for Active; 'I' for Inactive)
ROOT
ATOM      1  O1  BZF d   1      -1.027  -1.461  -0.048  0.00  0.00    -0.204 OA
ATOM      2  C2  BZF d   1       0.172  -0.779   0.020  0.00  0.00     0.174 A 
ATOM      3  C3  BZF d   1       0.035   0.361   0.727  0.00  0.00    -0.012 A 
ATOM      4  C3A BZF d   1      -1.314   0.348   1.205  0.00  0.00    -0.107 A 
ATOM      5  C4  BZF d   1      -2.044   1.204   1.979  0.00  0.00     0.055 A 
ATOM      6  C5  BZF d   1      -3.358   0.936   2.201  0.00  0.00    -0.016 A 
ATOM      7  C6  BZF d   1      -3.974  -0.174   1.660  0.00  0.00     0.022 A 
ATOM      8  C7  BZF d   1      -3.289  -1.054   0.890  0.00  0.00     0.029 A 
ATOM      9  C7A BZF d   1      -1.953  -0.804   0.691  0.00  0.00     0.058 A 
ENDROOT
TORSDOF 0
ENDMDL
