MODEL 1
REMARK minimizedAffinity -1.78824568
REMARK minimizedRMSD -1
REMARK  0 active torsions:
REMARK  status: ('A' for Active; 'I' for Inactive)
ROOT
ATOM      1  O1  BZF d   1       1.271  -2.532  -0.679  0.00  0.00    -0.204 OA
ATOM      2  C2  BZF d   1       2.379  -3.027  -1.338  0.00  0.00     0.174 A 
ATOM      3  C3  BZF d   1       3.121  -2.023  -1.848  0.00  0.00    -0.012 A 
ATOM      4  C3A BZF d   1       2.482  -0.821  -1.406  0.00  0.00    -0.107 A 
ATOM      5  C4  BZF d   1       2.757   0.506  -1.576  0.00  0.00     0.055 A 
ATOM      6  C5  BZF d   1       1.894   1.429  -1.076  0.00  0.00    -0.016 A 
ATOM      7  C6  BZF d   1       0.746   1.061  -0.406  0.00  0.00     0.022 A 
ATOM      8  C7  BZF d   1       0.433  -0.243  -0.208  0.00  0.00     0.029 A 
ATOM      9  C7A BZF d   1       1.320  -1.178  -0.684  0.00  0.00     0.058 A 
ENDROOT
TORSDOF 0
ENDMDL
