MODEL 1
REMARK minimizedAffinity -0.948490381
REMARK minimizedRMSD -1
REMARK  0 active torsions:
REMARK  status: ('A' for Active; 'I' for Inactive)
ROOT
ATOM      1  O1  BZF d   1       0.450  -2.572  -0.446  0.00  0.00    -0.204 OA
ATOM      2  C2  BZF d   1       1.115  -3.430  -1.300  0.00  0.00     0.174 A 
ATOM      3  C3  BZF d   1       1.796  -2.739  -2.237  0.00  0.00    -0.012 A 
ATOM      4  C3A BZF d   1       1.616  -1.362  -1.894  0.00  0.00    -0.107 A 
ATOM      5  C4  BZF d   1       2.064  -0.192  -2.439  0.00  0.00     0.055 A 
ATOM      6  C5  BZF d   1       1.647   0.987  -1.906  0.00  0.00    -0.016 A 
ATOM      7  C6  BZF d   1       0.780   1.033  -0.834  0.00  0.00     0.022 A 
ATOM      8  C7  BZF d   1       0.313  -0.101  -0.257  0.00  0.00     0.029 A 
ATOM      9  C7A BZF d   1       0.759  -1.294  -0.772  0.00  0.00     0.058 A 
ENDROOT
TORSDOF 0
ENDMDL
