MODEL 1
REMARK minimizedAffinity -4.19763041
REMARK minimizedRMSD -1
REMARK  0 active torsions:
REMARK  status: ('A' for Active; 'I' for Inactive)
ROOT
ATOM      1  O1  BZF d   1       0.794  -2.625  -0.780  0.00  0.00    -0.204 OA
ATOM      2  C2  BZF d   1       1.713  -3.074  -1.709  0.00  0.00     0.174 A 
ATOM      3  C3  BZF d   1       2.185  -2.050  -2.449  0.00  0.00    -0.012 A 
ATOM      4  C3A BZF d   1       1.588  -0.876  -1.890  0.00  0.00    -0.107 A 
ATOM      5  C4  BZF d   1       1.681   0.455  -2.184  0.00  0.00     0.055 A 
ATOM      6  C5  BZF d   1       0.912   1.338  -1.495  0.00  0.00    -0.016 A 
ATOM      7  C6  BZF d   1       0.038   0.927  -0.511  0.00  0.00     0.022 A 
ATOM      8  C7  BZF d   1      -0.085  -0.382  -0.180  0.00  0.00     0.029 A 
ATOM      9  C7A BZF d   1       0.715  -1.274  -0.852  0.00  0.00     0.058 A 
ENDROOT
TORSDOF 0
ENDMDL
