MODEL 1
REMARK minimizedAffinity 2.56678081
REMARK minimizedRMSD -1
REMARK  3 active torsions:
REMARK  status: ('A' for Active; 'I' for Inactive)
REMARK    1  A    between atoms: C3'_2  and  C2'_3 
REMARK    2  A    between atoms: C2'_3  and  C1'_4 
REMARK    3  A    between atoms: C1'_4  and  C1_5 
ROOT
ATOM      1  C1  N4B d   1       2.072   3.045  -1.915  0.00  0.00    -0.075 A 
ATOM      2  C2  N4B d   1       2.165   1.690  -2.303  0.00  0.00     0.002 A 
ATOM      3  C3  N4B d   1       2.174   0.702  -1.349  0.00  0.00     0.002 A 
ATOM      4  C4  N4B d   1       2.110   1.044  -0.006  0.00  0.00    -0.004 A 
ATOM      5  C5  N4B d   1       1.996   2.354   0.359  0.00  0.00     0.002 A 
ATOM      6  C6  N4B d   1       1.982   3.357  -0.589  0.00  0.00     0.002 A 
ENDROOT
BRANCH   1   7
ATOM      7  C1' N4B d   1       2.146   4.165  -2.917  0.00  0.00     0.057 C 
BRANCH   7   8
ATOM      8  C2' N4B d   1       0.878   4.161  -3.766  0.00  0.00     0.009 C 
BRANCH   8   9
ATOM      9  C3' N4B d   1       0.889   5.265  -4.809  0.00  0.00     0.004 C 
ATOM     10  C4' N4B d   1      -0.272   5.183  -5.754  0.00  0.00     0.003 C 
ENDBRANCH   8   9
ENDBRANCH   7   8
ENDBRANCH   1   7
TORSDOF 3
ENDMDL
