MODEL 1
REMARK minimizedAffinity 6.26495266
REMARK minimizedRMSD -1
REMARK  3 active torsions:
REMARK  status: ('A' for Active; 'I' for Inactive)
REMARK    1  A    between atoms: C3'_2  and  C2'_3 
REMARK    2  A    between atoms: C2'_3  and  C1'_4 
REMARK    3  A    between atoms: C1'_4  and  C1_5 
ROOT
ATOM      1  C1  N4B d   1      -3.243  -5.962  -4.809  0.00  0.00    -0.075 A 
ATOM      2  C2  N4B d   1      -3.969  -5.954  -3.598  0.00  0.00     0.002 A 
ATOM      3  C3  N4B d   1      -5.339  -5.858  -3.619  0.00  0.00     0.002 A 
ATOM      4  C4  N4B d   1      -6.000  -5.751  -4.834  0.00  0.00    -0.004 A 
ATOM      5  C5  N4B d   1      -5.293  -5.785  -6.000  0.00  0.00     0.002 A 
ATOM      6  C6  N4B d   1      -3.917  -5.885  -5.994  0.00  0.00     0.002 A 
ENDROOT
BRANCH   1   7
ATOM      7  C1' N4B d   1      -1.739  -5.978  -4.834  0.00  0.00     0.057 C 
BRANCH   7   8
ATOM      8  C2' N4B d   1      -1.213  -5.784  -3.415  0.00  0.00     0.009 C 
BRANCH   8   9
ATOM      9  C3' N4B d   1      -0.963  -4.320  -3.097  0.00  0.00     0.004 C 
ATOM     10  C4' N4B d   1      -1.800  -3.822  -1.957  0.00  0.00     0.003 C 
ENDBRANCH   8   9
ENDBRANCH   7   8
ENDBRANCH   1   7
TORSDOF 3
ENDMDL
