MODEL 1
REMARK minimizedAffinity 15.5418005
REMARK minimizedRMSD -1
REMARK  3 active torsions:
REMARK  status: ('A' for Active; 'I' for Inactive)
REMARK    1  A    between atoms: C3'_2  and  C2'_3 
REMARK    2  A    between atoms: C2'_3  and  C1'_4 
REMARK    3  A    between atoms: C1'_4  and  C1_5 
ROOT
ATOM      1  C1  N4B d   1       1.217   4.109  -3.803  0.00  0.00    -0.075 A 
ATOM      2  C2  N4B d   1       1.952   4.874  -4.734  0.00  0.00     0.002 A 
ATOM      3  C3  N4B d   1       1.319   5.432  -5.817  0.00  0.00     0.002 A 
ATOM      4  C4  N4B d   1      -0.040   5.224  -5.999  0.00  0.00    -0.004 A 
ATOM      5  C5  N4B d   1      -0.749   4.505  -5.081  0.00  0.00     0.002 A 
ATOM      6  C6  N4B d   1      -0.126   3.942  -3.986  0.00  0.00     0.002 A 
ENDROOT
BRANCH   1   7
ATOM      7  C1' N4B d   1       1.881   3.407  -2.650  0.00  0.00     0.057 C 
BRANCH   7   8
ATOM      8  C2' N4B d   1       1.062   2.176  -2.274  0.00  0.00     0.009 C 
BRANCH   8   9
ATOM      9  C3' N4B d   1       1.601   1.495  -1.027  0.00  0.00     0.004 C 
ATOM     10  C4' N4B d   1       1.289   2.252   0.229  0.00  0.00     0.003 C 
ENDBRANCH   8   9
ENDBRANCH   7   8
ENDBRANCH   1   7
TORSDOF 3
ENDMDL
