MODEL 1
REMARK minimizedAffinity 9.72298431
REMARK minimizedRMSD -1
REMARK  3 active torsions:
REMARK  status: ('A' for Active; 'I' for Inactive)
REMARK    1  A    between atoms: C3'_2  and  C2'_3 
REMARK    2  A    between atoms: C2'_3  and  C1'_4 
REMARK    3  A    between atoms: C1'_4  and  C1_5 
ROOT
ATOM      1  C1  N4B d   1      -5.774   0.621  -3.394  0.00  0.00    -0.075 A 
ATOM      2  C2  N4B d   1      -5.422  -0.739  -3.538  0.00  0.00     0.002 A 
ATOM      3  C3  N4B d   1      -5.317  -1.293  -4.791  0.00  0.00     0.002 A 
ATOM      4  C4  N4B d   1      -5.578  -0.514  -5.908  0.00  0.00    -0.004 A 
ATOM      5  C5  N4B d   1      -5.893   0.805  -5.762  0.00  0.00     0.002 A 
ATOM      6  C6  N4B d   1      -5.998   1.376  -4.509  0.00  0.00     0.002 A 
ENDROOT
BRANCH   1   7
ATOM      7  C1' N4B d   1      -5.985   1.248  -2.044  0.00  0.00     0.057 C 
BRANCH   7   8
ATOM      8  C2' N4B d   1      -5.993   0.155  -0.979  0.00  0.00     0.009 C 
BRANCH   8   9
ATOM      9  C3' N4B d   1      -4.916   0.374   0.069  0.00  0.00     0.004 C 
ATOM     10  C4' N4B d   1      -4.437  -0.907   0.685  0.00  0.00     0.003 C 
ENDBRANCH   8   9
ENDBRANCH   7   8
ENDBRANCH   1   7
TORSDOF 3
ENDMDL
