MODEL 1
REMARK minimizedAffinity 0.480458379
REMARK minimizedRMSD -1
REMARK  3 active torsions:
REMARK  status: ('A' for Active; 'I' for Inactive)
REMARK    1  A    between atoms: C3'_2  and  C2'_3 
REMARK    2  A    between atoms: C2'_3  and  C1'_4 
REMARK    3  A    between atoms: C1'_4  and  C1_5 
ROOT
ATOM      1  C1  N4B d   1      -2.604  -0.793   3.393  0.00  0.00    -0.075 A 
ATOM      2  C2  N4B d   1      -2.731  -1.512   2.184  0.00  0.00     0.002 A 
ATOM      3  C3  N4B d   1      -3.900  -2.174   1.898  0.00  0.00     0.002 A 
ATOM      4  C4  N4B d   1      -4.944  -2.147   2.811  0.00  0.00    -0.004 A 
ATOM      5  C5  N4B d   1      -4.823  -1.429   3.964  0.00  0.00     0.002 A 
ATOM      6  C6  N4B d   1      -3.655  -0.756   4.263  0.00  0.00     0.002 A 
ENDROOT
BRANCH   1   7
ATOM      7  C1' N4B d   1      -1.316  -0.124   3.788  0.00  0.00     0.057 C 
BRANCH   7   8
ATOM      8  C2' N4B d   1      -0.180  -1.140   3.708  0.00  0.00     0.009 C 
BRANCH   8   9
ATOM      9  C3' N4B d   1       0.596  -1.227   5.011  0.00  0.00     0.004 C 
ATOM     10  C4' N4B d   1       0.655  -2.621   5.560  0.00  0.00     0.003 C 
ENDBRANCH   8   9
ENDBRANCH   7   8
ENDBRANCH   1   7
TORSDOF 3
ENDMDL
