MODEL 1
REMARK minimizedAffinity 6.43239689
REMARK minimizedRMSD -1
REMARK  1 active torsions:
REMARK  status: ('A' for Active; 'I' for Inactive)
REMARK    1  A    between atoms: C3_4  and  O_7 
ROOT
ATOM      1  C   UNL d   1       5.880   0.333   0.966  0.00  0.00    -0.033 A 
ATOM      2  C1  UNL d   1       5.944  -1.060   0.895  0.00  0.00     0.039 A 
ATOM      3  C2  UNL d   1       4.864  -1.786   0.390  0.00  0.00    -0.080 A 
ATOM      4  C3  UNL d   1       3.728  -1.107  -0.043  0.00  0.00     0.150 A 
ATOM      5  C4  UNL d   1       3.659   0.280   0.021  0.00  0.00    -0.007 A 
ATOM      6  C5  UNL d   1       4.738   1.003   0.527  0.00  0.00     0.039 A 
ENDROOT
BRANCH   4   7
ATOM      7  O   UNL d   1       2.646  -1.773  -0.539  0.00  0.00    -0.526 OA
ATOM      8  H5  UNL d   1       2.826  -2.727  -0.496  0.00  0.00     0.418 HD
ENDBRANCH   4   7
TORSDOF 1
ENDMDL
