MODEL 1
REMARK minimizedAffinity 1.72480369
REMARK minimizedRMSD -1
REMARK  1 active torsions:
REMARK  status: ('A' for Active; 'I' for Inactive)
REMARK    1  A    between atoms: C3_4  and  O_7 
ROOT
ATOM      1  C   UNL d   1       0.139  -1.187   3.323  0.00  0.00    -0.033 A 
ATOM      2  C1  UNL d   1      -0.584  -1.532   2.179  0.00  0.00     0.039 A 
ATOM      3  C2  UNL d   1       0.038  -1.529   0.930  0.00  0.00    -0.080 A 
ATOM      4  C3  UNL d   1       1.383  -1.180   0.837  0.00  0.00     0.150 A 
ATOM      5  C4  UNL d   1       2.110  -0.838   1.973  0.00  0.00    -0.007 A 
ATOM      6  C5  UNL d   1       1.487  -0.841   3.219  0.00  0.00     0.039 A 
ENDROOT
BRANCH   4   7
ATOM      7  O   UNL d   1       2.033  -1.158  -0.361  0.00  0.00    -0.526 OA
ATOM      8  H5  UNL d   1       1.398  -1.388  -1.060  0.00  0.00     0.418 HD
ENDBRANCH   4   7
TORSDOF 1
ENDMDL
