MODEL 1
REMARK minimizedAffinity 2.41712427
REMARK minimizedRMSD -1
REMARK  1 active torsions:
REMARK  status: ('A' for Active; 'I' for Inactive)
REMARK    1  A    between atoms: C3_4  and  O_7 
ROOT
ATOM      1  C   UNL d   1       2.618   6.000   5.625  0.00  0.00    -0.033 A 
ATOM      2  C1  UNL d   1       3.101   5.249   4.552  0.00  0.00     0.039 A 
ATOM      3  C2  UNL d   1       2.222   4.492   3.775  0.00  0.00    -0.080 A 
ATOM      4  C3  UNL d   1       0.864   4.496   4.080  0.00  0.00     0.150 A 
ATOM      5  C4  UNL d   1       0.375   5.245   5.146  0.00  0.00    -0.007 A 
ATOM      6  C5  UNL d   1       1.255   5.999   5.921  0.00  0.00     0.039 A 
ENDROOT
BRANCH   4   7
ATOM      7  O   UNL d   1      -0.032   3.769   3.354  0.00  0.00    -0.526 OA
ATOM      8  H5  UNL d   1       0.453   3.280   2.668  0.00  0.00     0.418 HD
ENDBRANCH   4   7
TORSDOF 1
ENDMDL
