MODEL 1
REMARK minimizedAffinity 4.11286163
REMARK minimizedRMSD -1
REMARK  1 active torsions:
REMARK  status: ('A' for Active; 'I' for Inactive)
REMARK    1  A    between atoms: C3_4  and  O_7 
ROOT
ATOM      1  C   UNL d   1       0.440  -1.176   2.923  0.00  0.00    -0.033 A 
ATOM      2  C1  UNL d   1      -0.383  -1.542   1.856  0.00  0.00     0.039 A 
ATOM      3  C2  UNL d   1      -1.578  -0.856   1.627  0.00  0.00    -0.080 A 
ATOM      4  C3  UNL d   1      -1.936   0.193   2.469  0.00  0.00     0.150 A 
ATOM      5  C4  UNL d   1      -1.118   0.565   3.531  0.00  0.00    -0.007 A 
ATOM      6  C5  UNL d   1       0.073  -0.121   3.759  0.00  0.00     0.039 A 
ENDROOT
BRANCH   4   7
ATOM      7  O   UNL d   1      -3.094   0.888   2.288  0.00  0.00    -0.526 OA
ATOM      8  H5  UNL d   1      -3.571   0.502   1.534  0.00  0.00     0.418 HD
ENDBRANCH   4   7
TORSDOF 1
ENDMDL
