MODEL 1
REMARK minimizedAffinity -1.06337249
REMARK minimizedRMSD -1
REMARK  1 active torsions:
REMARK  status: ('A' for Active; 'I' for Inactive)
REMARK    1  A    between atoms: C3_4  and  O_7 
ROOT
ATOM      1  C   UNL d   1      -4.988  -0.220  -4.884  0.00  0.00    -0.033 A 
ATOM      2  C1  UNL d   1      -3.604  -0.041  -4.860  0.00  0.00     0.039 A 
ATOM      3  C2  UNL d   1      -2.829  -0.696  -3.901  0.00  0.00    -0.080 A 
ATOM      4  C3  UNL d   1      -3.451  -1.527  -2.972  0.00  0.00     0.150 A 
ATOM      5  C4  UNL d   1      -4.829  -1.713  -2.992  0.00  0.00    -0.007 A 
ATOM      6  C5  UNL d   1      -5.601  -1.058  -3.951  0.00  0.00     0.039 A 
ENDROOT
BRANCH   4   7
ATOM      7  O   UNL d   1      -2.737  -2.183  -2.014  0.00  0.00    -0.526 OA
ATOM      8  H5  UNL d   1      -1.801  -1.937  -2.104  0.00  0.00     0.418 HD
ENDBRANCH   4   7
TORSDOF 1
ENDMDL
