MODEL 1
REMARK minimizedAffinity 3.35278368
REMARK minimizedRMSD -1
REMARK  1 active torsions:
REMARK  status: ('A' for Active; 'I' for Inactive)
REMARK    1  A    between atoms: C3_4  and  O_7 
ROOT
ATOM      1  C   UNL d   1       0.359  -1.290   2.603  0.00  0.00    -0.033 A 
ATOM      2  C1  UNL d   1      -0.656  -1.618   1.702  0.00  0.00     0.039 A 
ATOM      3  C2  UNL d   1      -1.871  -0.929   1.734  0.00  0.00    -0.080 A 
ATOM      4  C3  UNL d   1      -2.056   0.084   2.671  0.00  0.00     0.150 A 
ATOM      5  C4  UNL d   1      -1.048   0.418   3.569  0.00  0.00    -0.007 A 
ATOM      6  C5  UNL d   1       0.163  -0.271   3.535  0.00  0.00     0.039 A 
ENDROOT
BRANCH   4   7
ATOM      7  O   UNL d   1      -3.226   0.781   2.744  0.00  0.00    -0.526 OA
ATOM      8  H5  UNL d   1      -3.840   0.422   2.082  0.00  0.00     0.418 HD
ENDBRANCH   4   7
TORSDOF 1
ENDMDL
