MODEL 1
REMARK minimizedAffinity 7.01288366
REMARK minimizedRMSD -1
REMARK  1 active torsions:
REMARK  status: ('A' for Active; 'I' for Inactive)
REMARK    1  A    between atoms: C3_4  and  O_7 
ROOT
ATOM      1  C   UNL d   1       1.897  -0.162  -2.341  0.00  0.00    -0.033 A 
ATOM      2  C1  UNL d   1       2.051  -0.727  -1.073  0.00  0.00     0.039 A 
ATOM      3  C2  UNL d   1       2.502   0.054  -0.008  0.00  0.00    -0.080 A 
ATOM      4  C3  UNL d   1       2.795   1.398  -0.222  0.00  0.00     0.150 A 
ATOM      5  C4  UNL d   1       2.640   1.969  -1.481  0.00  0.00    -0.007 A 
ATOM      6  C5  UNL d   1       2.191   1.187  -2.544  0.00  0.00     0.039 A 
ENDROOT
BRANCH   4   7
ATOM      7  O   UNL d   1       3.243   2.199   0.786  0.00  0.00    -0.526 OA
ATOM      8  H5  UNL d   1       3.328   1.662   1.591  0.00  0.00     0.418 HD
ENDBRANCH   4   7
TORSDOF 1
ENDMDL
