MODEL 1
REMARK minimizedAffinity 2.98156762
REMARK minimizedRMSD -1
REMARK  1 active torsions:
REMARK  status: ('A' for Active; 'I' for Inactive)
REMARK    1  A    between atoms: C3_4  and  O_7 
ROOT
ATOM      1  C   UNL d   1      -2.395   2.845   1.904  0.00  0.00    -0.033 A 
ATOM      2  C1  UNL d   1      -1.909   3.133   3.181  0.00  0.00     0.039 A 
ATOM      3  C2  UNL d   1      -0.536   3.090   3.433  0.00  0.00    -0.080 A 
ATOM      4  C3  UNL d   1       0.338   2.760   2.402  0.00  0.00     0.150 A 
ATOM      5  C4  UNL d   1      -0.138   2.476   1.126  0.00  0.00    -0.007 A 
ATOM      6  C5  UNL d   1      -1.509   2.518   0.876  0.00  0.00     0.039 A 
ENDROOT
BRANCH   4   7
ATOM      7  O   UNL d   1       1.686   2.701   2.602  0.00  0.00    -0.526 OA
ATOM      8  H5  UNL d   1       1.867   2.893   3.537  0.00  0.00     0.418 HD
ENDBRANCH   4   7
TORSDOF 1
ENDMDL
