MODEL 1
REMARK minimizedAffinity -3.6374445
REMARK minimizedRMSD -1
REMARK  1 active torsions:
REMARK  status: ('A' for Active; 'I' for Inactive)
REMARK    1  A    between atoms: C3_4  and  O_7 
ROOT
ATOM      1  C   UNL d   1      -0.605   1.578   0.502  0.00  0.00    -0.033 A 
ATOM      2  C1  UNL d   1      -0.512   2.768   1.226  0.00  0.00     0.039 A 
ATOM      3  C2  UNL d   1       0.670   3.089   1.896  0.00  0.00    -0.080 A 
ATOM      4  C3  UNL d   1       1.751   2.213   1.833  0.00  0.00     0.150 A 
ATOM      5  C4  UNL d   1       1.666   1.028   1.110  0.00  0.00    -0.007 A 
ATOM      6  C5  UNL d   1       0.485   0.709   0.442  0.00  0.00     0.039 A 
ENDROOT
BRANCH   4   7
ATOM      7  O   UNL d   1       2.924   2.481   2.474  0.00  0.00    -0.526 OA
ATOM      8  H5  UNL d   1       2.826   3.319   2.956  0.00  0.00     0.418 HD
ENDBRANCH   4   7
TORSDOF 1
ENDMDL
