MODEL 1
REMARK minimizedAffinity 0.248629212
REMARK minimizedRMSD -1
REMARK  1 active torsions:
REMARK  status: ('A' for Active; 'I' for Inactive)
REMARK    1  A    between atoms: C3_4  and  O_7 
ROOT
ATOM      1  C   UNL d   1       2.753   2.538   2.005  0.00  0.00    -0.033 A 
ATOM      2  C1  UNL d   1       2.629   1.378   1.237  0.00  0.00     0.039 A 
ATOM      3  C2  UNL d   1       1.382   1.002   0.734  0.00  0.00    -0.080 A 
ATOM      4  C3  UNL d   1       0.269   1.793   1.005  0.00  0.00     0.150 A 
ATOM      5  C4  UNL d   1       0.386   2.952   1.765  0.00  0.00    -0.007 A 
ATOM      6  C5  UNL d   1       1.632   3.326   2.267  0.00  0.00     0.039 A 
ENDROOT
BRANCH   4   7
ATOM      7  O   UNL d   1      -0.969   1.464   0.540  0.00  0.00    -0.526 OA
ATOM      8  H5  UNL d   1      -0.903   0.625   0.055  0.00  0.00     0.418 HD
ENDBRANCH   4   7
TORSDOF 1
ENDMDL
