MODEL 1
REMARK minimizedAffinity -0.0155394655
REMARK minimizedRMSD -1
REMARK  1 active torsions:
REMARK  status: ('A' for Active; 'I' for Inactive)
REMARK    1  A    between atoms: C3_4  and  O_7 
ROOT
ATOM      1  C   UNL d   1      -2.005   1.826   0.673  0.00  0.00    -0.033 A 
ATOM      2  C1  UNL d   1      -1.907   0.440   0.541  0.00  0.00     0.039 A 
ATOM      3  C2  UNL d   1      -0.654  -0.165   0.424  0.00  0.00    -0.080 A 
ATOM      4  C3  UNL d   1       0.491   0.626   0.441  0.00  0.00     0.150 A 
ATOM      5  C4  UNL d   1       0.401   2.007   0.576  0.00  0.00    -0.007 A 
ATOM      6  C5  UNL d   1      -0.851   2.610   0.691  0.00  0.00     0.039 A 
ENDROOT
BRANCH   4   7
ATOM      7  O   UNL d   1       1.735   0.081   0.326  0.00  0.00    -0.526 OA
ATOM      8  H5  UNL d   1       1.641  -0.879   0.211  0.00  0.00     0.418 HD
ENDBRANCH   4   7
TORSDOF 1
ENDMDL
