MODEL 1
REMARK minimizedAffinity 3.17034864
REMARK minimizedRMSD -1
REMARK  1 active torsions:
REMARK  status: ('A' for Active; 'I' for Inactive)
REMARK    1  A    between atoms: C3_4  and  O_7 
ROOT
ATOM      1  C   UNL d   1      -2.429   2.392   1.062  0.00  0.00    -0.033 A 
ATOM      2  C1  UNL d   1      -2.437   1.126   0.474  0.00  0.00     0.039 A 
ATOM      3  C2  UNL d   1      -1.233   0.503   0.137  0.00  0.00    -0.080 A 
ATOM      4  C3  UNL d   1      -0.031   1.156   0.394  0.00  0.00     0.150 A 
ATOM      5  C4  UNL d   1      -0.015   2.416   0.983  0.00  0.00    -0.007 A 
ATOM      6  C5  UNL d   1      -1.218   3.036   1.318  0.00  0.00     0.039 A 
ENDROOT
BRANCH   4   7
ATOM      7  O   UNL d   1       1.169   0.590   0.079  0.00  0.00    -0.526 OA
ATOM      8  H5  UNL d   1       1.002  -0.268  -0.348  0.00  0.00     0.418 HD
ENDBRANCH   4   7
TORSDOF 1
ENDMDL
