MODEL 1
REMARK minimizedAffinity -3.00942183
REMARK minimizedRMSD -1
REMARK  1 active torsions:
REMARK  status: ('A' for Active; 'I' for Inactive)
REMARK    1  A    between atoms: C3_4  and  O_7 
ROOT
ATOM      1  C   UNL d   1      -1.798   2.836   2.018  0.00  0.00    -0.033 A 
ATOM      2  C1  UNL d   1      -1.446   2.993   3.360  0.00  0.00     0.039 A 
ATOM      3  C2  UNL d   1      -0.102   2.983   3.737  0.00  0.00    -0.080 A 
ATOM      4  C3  UNL d   1       0.879   2.816   2.764  0.00  0.00     0.150 A 
ATOM      5  C4  UNL d   1       0.537   2.663   1.425  0.00  0.00    -0.007 A 
ATOM      6  C5  UNL d   1      -0.806   2.672   1.050  0.00  0.00     0.039 A 
ENDROOT
BRANCH   4   7
ATOM      7  O   UNL d   1       2.204   2.794   3.085  0.00  0.00    -0.526 OA
ATOM      8  H5  UNL d   1       2.289   2.883   4.049  0.00  0.00     0.418 HD
ENDBRANCH   4   7
TORSDOF 1
ENDMDL
