MODEL 1
REMARK minimizedAffinity 2.68571568
REMARK minimizedRMSD -1
REMARK  1 active torsions:
REMARK  status: ('A' for Active; 'I' for Inactive)
REMARK    1  A    between atoms: C3_4  and  O_7 
ROOT
ATOM      1  C   UNL d   1       2.525  -0.611  -2.415  0.00  0.00    -0.033 A 
ATOM      2  C1  UNL d   1       1.994  -1.287  -1.315  0.00  0.00     0.039 A 
ATOM      3  C2  UNL d   1       1.977  -0.677  -0.059  0.00  0.00    -0.080 A 
ATOM      4  C3  UNL d   1       2.494   0.608   0.083  0.00  0.00     0.150 A 
ATOM      5  C4  UNL d   1       3.021   1.289  -1.010  0.00  0.00    -0.007 A 
ATOM      6  C5  UNL d   1       3.038   0.677  -2.262  0.00  0.00     0.039 A 
ENDROOT
BRANCH   4   7
ATOM      7  O   UNL d   1       2.504   1.243   1.289  0.00  0.00    -0.526 OA
ATOM      8  H5  UNL d   1       2.134   0.641   1.957  0.00  0.00     0.418 HD
ENDBRANCH   4   7
TORSDOF 1
ENDMDL
