MODEL 1
REMARK minimizedAffinity -1.52327991
REMARK minimizedRMSD -1
REMARK  1 active torsions:
REMARK  status: ('A' for Active; 'I' for Inactive)
REMARK    1  A    between atoms: C3_4  and  O_7 
ROOT
ATOM      1  C   UNL d   1      -2.507   3.061  -5.958  0.00  0.00    -0.033 A 
ATOM      2  C1  UNL d   1      -3.852   2.687  -5.981  0.00  0.00     0.039 A 
ATOM      3  C2  UNL d   1      -4.850   3.664  -5.996  0.00  0.00    -0.080 A 
ATOM      4  C3  UNL d   1      -4.490   5.008  -5.989  0.00  0.00     0.150 A 
ATOM      5  C4  UNL d   1      -3.152   5.388  -5.970  0.00  0.00    -0.007 A 
ATOM      6  C5  UNL d   1      -2.157   4.412  -5.954  0.00  0.00     0.039 A 
ENDROOT
BRANCH   4   7
ATOM      7  O   UNL d   1      -5.429   5.997  -5.998  0.00  0.00    -0.526 OA
ATOM      8  H5  UNL d   1      -6.309   5.586  -5.982  0.00  0.00     0.418 HD
ENDBRANCH   4   7
TORSDOF 1
ENDMDL
