MODEL 1
REMARK minimizedAffinity 5.86235523
REMARK minimizedRMSD -1
REMARK  1 active torsions:
REMARK  status: ('A' for Active; 'I' for Inactive)
REMARK    1  A    between atoms: C3_4  and  O_7 
ROOT
ATOM      1  C   UNL d   1      -0.729  -3.027  -1.380  0.00  0.00    -0.033 A 
ATOM      2  C1  UNL d   1      -1.288  -2.969  -0.102  0.00  0.00     0.039 A 
ATOM      3  C2  UNL d   1      -2.299  -3.861   0.260  0.00  0.00    -0.080 A 
ATOM      4  C3  UNL d   1      -2.740  -4.805  -0.663  0.00  0.00     0.150 A 
ATOM      5  C4  UNL d   1      -2.185  -4.871  -1.937  0.00  0.00    -0.007 A 
ATOM      6  C5  UNL d   1      -1.176  -3.978  -2.297  0.00  0.00     0.039 A 
ENDROOT
BRANCH   4   7
ATOM      7  O   UNL d   1      -3.728  -5.694  -0.358  0.00  0.00    -0.526 OA
ATOM      8  H5  UNL d   1      -4.037  -5.512   0.546  0.00  0.00     0.418 HD
ENDBRANCH   4   7
TORSDOF 1
ENDMDL
