MODEL 1
REMARK minimizedAffinity 4.56448317
REMARK minimizedRMSD -1
REMARK  1 active torsions:
REMARK  status: ('A' for Active; 'I' for Inactive)
REMARK    1  A    between atoms: C3_4  and  O_7 
ROOT
ATOM      1  C   UNL d   1      -1.393  -0.796   0.475  0.00  0.00    -0.033 A 
ATOM      2  C1  UNL d   1      -2.627  -0.214   0.774  0.00  0.00     0.039 A 
ATOM      3  C2  UNL d   1      -2.714   1.160   1.008  0.00  0.00    -0.080 A 
ATOM      4  C3  UNL d   1      -1.563   1.940   0.938  0.00  0.00     0.150 A 
ATOM      5  C4  UNL d   1      -0.332   1.367   0.637  0.00  0.00    -0.007 A 
ATOM      6  C5  UNL d   1      -0.246  -0.005   0.405  0.00  0.00     0.039 A 
ENDROOT
BRANCH   4   7
ATOM      7  O   UNL d   1      -1.598   3.284   1.163  0.00  0.00    -0.526 OA
ATOM      8  H5  UNL d   1      -2.510   3.534   1.388  0.00  0.00     0.418 HD
ENDBRANCH   4   7
TORSDOF 1
ENDMDL
