MODEL 1
REMARK minimizedAffinity 3.26148009
REMARK minimizedRMSD -1
REMARK  1 active torsions:
REMARK  status: ('A' for Active; 'I' for Inactive)
REMARK    1  A    between atoms: C3_4  and  O_7 
ROOT
ATOM      1  C   UNL d   1       1.864   3.290   2.601  0.00  0.00    -0.033 A 
ATOM      2  C1  UNL d   1       0.921   3.149   1.581  0.00  0.00     0.039 A 
ATOM      3  C2  UNL d   1      -0.442   3.206   1.874  0.00  0.00    -0.080 A 
ATOM      4  C3  UNL d   1      -0.850   3.406   3.190  0.00  0.00     0.150 A 
ATOM      5  C4  UNL d   1       0.083   3.551   4.211  0.00  0.00    -0.007 A 
ATOM      6  C5  UNL d   1       1.444   3.493   3.916  0.00  0.00     0.039 A 
ENDROOT
BRANCH   4   7
ATOM      7  O   UNL d   1      -2.170   3.465   3.526  0.00  0.00    -0.526 OA
ATOM      8  H5  UNL d   1      -2.699   3.320   2.724  0.00  0.00     0.418 HD
ENDBRANCH   4   7
TORSDOF 1
ENDMDL
