MODEL 1
REMARK minimizedAffinity 2.624089
REMARK minimizedRMSD -1
REMARK  1 active torsions:
REMARK  status: ('A' for Active; 'I' for Inactive)
REMARK    1  A    between atoms: C3_4  and  O_7 
ROOT
ATOM      1  C   UNL d   1      -0.765  -2.771  -1.325  0.00  0.00    -0.033 A 
ATOM      2  C1  UNL d   1      -1.985  -2.126  -1.113  0.00  0.00     0.039 A 
ATOM      3  C2  UNL d   1      -3.113  -2.863  -0.748  0.00  0.00    -0.080 A 
ATOM      4  C3  UNL d   1      -3.007  -4.243  -0.597  0.00  0.00     0.150 A 
ATOM      5  C4  UNL d   1      -1.794  -4.892  -0.803  0.00  0.00    -0.007 A 
ATOM      6  C5  UNL d   1      -0.670  -4.154  -1.169  0.00  0.00     0.039 A 
ENDROOT
BRANCH   4   7
ATOM      7  O   UNL d   1      -4.082  -5.006  -0.247  0.00  0.00    -0.526 OA
ATOM      8  H5  UNL d   1      -4.857  -4.426  -0.166  0.00  0.00     0.418 HD
ENDBRANCH   4   7
TORSDOF 1
ENDMDL
