MODEL 1
REMARK minimizedAffinity 2.49622774
REMARK minimizedRMSD -1
REMARK  1 active torsions:
REMARK  status: ('A' for Active; 'I' for Inactive)
REMARK    1  A    between atoms: C3_4  and  O_7 
ROOT
ATOM      1  C   UNL d   1      -4.082  -5.614   0.157  0.00  0.00    -0.033 A 
ATOM      2  C1  UNL d   1      -2.742  -5.438   0.510  0.00  0.00     0.039 A 
ATOM      3  C2  UNL d   1      -1.924  -4.596  -0.247  0.00  0.00    -0.080 A 
ATOM      4  C3  UNL d   1      -2.457  -3.937  -1.351  0.00  0.00     0.150 A 
ATOM      5  C4  UNL d   1      -3.792  -4.105  -1.706  0.00  0.00    -0.007 A 
ATOM      6  C5  UNL d   1      -4.607  -4.946  -0.950  0.00  0.00     0.039 A 
ENDROOT
BRANCH   4   7
ATOM      7  O   UNL d   1      -1.696  -3.110  -2.122  0.00  0.00    -0.526 OA
ATOM      8  H5  UNL d   1      -0.789  -3.113  -1.775  0.00  0.00     0.418 HD
ENDBRANCH   4   7
TORSDOF 1
ENDMDL
