MODEL 1
REMARK minimizedAffinity 1.94146454
REMARK minimizedRMSD -1
REMARK  1 active torsions:
REMARK  status: ('A' for Active; 'I' for Inactive)
REMARK    1  A    between atoms: C3_4  and  O_7 
ROOT
ATOM      1  C   UNL d   1       3.269  -0.869  -2.241  0.00  0.00    -0.033 A 
ATOM      2  C1  UNL d   1       2.359   0.147  -2.541  0.00  0.00     0.039 A 
ATOM      3  C2  UNL d   1       1.670   0.795  -1.514  0.00  0.00    -0.080 A 
ATOM      4  C3  UNL d   1       1.901   0.420  -0.193  0.00  0.00     0.150 A 
ATOM      5  C4  UNL d   1       2.809  -0.588   0.113  0.00  0.00    -0.007 A 
ATOM      6  C5  UNL d   1       3.495  -1.235  -0.914  0.00  0.00     0.039 A 
ENDROOT
BRANCH   4   7
ATOM      7  O   UNL d   1       1.249   1.021   0.843  0.00  0.00    -0.526 OA
ATOM      8  H5  UNL d   1       0.632   1.678   0.478  0.00  0.00     0.418 HD
ENDBRANCH   4   7
TORSDOF 1
ENDMDL
