MODEL 1
REMARK minimizedAffinity 8.73361206
REMARK minimizedRMSD -1
REMARK  1 active torsions:
REMARK  status: ('A' for Active; 'I' for Inactive)
REMARK    1  A    between atoms: C3_4  and  O_7 
ROOT
ATOM      1  C   UNL d   1       1.525   0.055   0.934  0.00  0.00    -0.033 A 
ATOM      2  C1  UNL d   1       1.475  -1.128   0.196  0.00  0.00     0.039 A 
ATOM      3  C2  UNL d   1       1.792  -1.119  -1.164  0.00  0.00    -0.080 A 
ATOM      4  C3  UNL d   1       2.156   0.079  -1.772  0.00  0.00     0.150 A 
ATOM      5  C4  UNL d   1       2.212   1.262  -1.042  0.00  0.00    -0.007 A 
ATOM      6  C5  UNL d   1       1.894   1.250   0.316  0.00  0.00     0.039 A 
ENDROOT
BRANCH   4   7
ATOM      7  O   UNL d   1       2.469   0.139  -3.098  0.00  0.00    -0.526 OA
ATOM      8  H5  UNL d   1       2.360  -0.747  -3.480  0.00  0.00     0.418 HD
ENDBRANCH   4   7
TORSDOF 1
ENDMDL
