MODEL 1
REMARK minimizedAffinity 1.20363653
REMARK minimizedRMSD -1
REMARK  1 active torsions:
REMARK  status: ('A' for Active; 'I' for Inactive)
REMARK    1  A    between atoms: C3_4  and  O_7 
ROOT
ATOM      1  C   UNL d   1      -2.369   1.164   1.323  0.00  0.00    -0.033 A 
ATOM      2  C1  UNL d   1      -1.437   2.203   1.301  0.00  0.00     0.039 A 
ATOM      3  C2  UNL d   1      -0.085   1.926   1.091  0.00  0.00    -0.080 A 
ATOM      4  C3  UNL d   1       0.321   0.607   0.904  0.00  0.00     0.150 A 
ATOM      5  C4  UNL d   1      -0.603  -0.432   0.921  0.00  0.00    -0.007 A 
ATOM      6  C5  UNL d   1      -1.952  -0.153   1.132  0.00  0.00     0.039 A 
ENDROOT
BRANCH   4   7
ATOM      7  O   UNL d   1       1.631   0.287   0.700  0.00  0.00    -0.526 OA
ATOM      8  H5  UNL d   1       2.157   1.103   0.742  0.00  0.00     0.418 HD
ENDBRANCH   4   7
TORSDOF 1
ENDMDL
