MODEL 1
REMARK minimizedAffinity -3.47138739
REMARK minimizedRMSD -1
REMARK  0 active torsions:
REMARK  status: ('A' for Active; 'I' for Inactive)
ROOT
ATOM      1  C   UNL d   1       1.132   2.535   0.866  0.00  0.00     0.023 A 
ATOM      2  C1  UNL d   1       1.603   1.498   1.671  0.00  0.00     0.003 A 
ATOM      3  C2  UNL d   1       1.076   0.212   1.534  0.00  0.00     0.048 A 
ATOM      4  C3  UNL d   1       0.079  -0.030   0.589  0.00  0.00     0.023 A 
ATOM      5  C4  UNL d   1      -0.395   1.005  -0.218  0.00  0.00     0.048 A 
ATOM      6  C5  UNL d   1       0.134   2.289  -0.077  0.00  0.00     0.003 A 
ATOM      7  I   UNL d   1      -0.706  -1.943   0.383  0.00  0.00    -0.146 I 
ENDROOT
TORSDOF 0
ENDMDL
