MODEL 1
REMARK minimizedAffinity -0.340658456
REMARK minimizedRMSD -1
REMARK  0 active torsions:
REMARK  status: ('A' for Active; 'I' for Inactive)
ROOT
ATOM      1  C   UNL d   1       0.197   0.232  -2.393  0.00  0.00     0.023 A 
ATOM      2  C1  UNL d   1      -0.058   1.175  -1.397  0.00  0.00     0.003 A 
ATOM      3  C2  UNL d   1      -0.531   0.764  -0.149  0.00  0.00     0.048 A 
ATOM      4  C3  UNL d   1      -0.746  -0.592   0.096  0.00  0.00     0.023 A 
ATOM      5  C4  UNL d   1      -0.491  -1.539  -0.897  0.00  0.00     0.048 A 
ATOM      6  C5  UNL d   1      -0.020  -1.123  -2.143  0.00  0.00     0.003 A 
ATOM      7  I   UNL d   1      -1.449  -1.207   1.953  0.00  0.00    -0.146 I 
ENDROOT
TORSDOF 0
ENDMDL
