MODEL 1
REMARK minimizedAffinity -2.89975119
REMARK minimizedRMSD -1
REMARK  0 active torsions:
REMARK  status: ('A' for Active; 'I' for Inactive)
ROOT
ATOM      1  C   UNL d   1      -0.687  -1.222   1.162  0.00  0.00     0.023 A 
ATOM      2  C1  UNL d   1      -1.297  -0.283   0.331  0.00  0.00     0.003 A 
ATOM      3  C2  UNL d   1      -0.626   0.894  -0.006  0.00  0.00     0.048 A 
ATOM      4  C3  UNL d   1       0.657   1.125   0.490  0.00  0.00     0.023 A 
ATOM      5  C4  UNL d   1       1.272   0.187   1.321  0.00  0.00     0.048 A 
ATOM      6  C5  UNL d   1       0.596  -0.988   1.656  0.00  0.00     0.003 A 
ATOM      7  I   UNL d   1       1.658   2.876  -0.011  0.00  0.00    -0.146 I 
ENDROOT
TORSDOF 0
ENDMDL
