MODEL 1
REMARK minimizedAffinity -2.87008619
REMARK minimizedRMSD -1
REMARK  0 active torsions:
REMARK  status: ('A' for Active; 'I' for Inactive)
ROOT
ATOM      1  C   UNL d   1      -1.002  -2.468   0.134  0.00  0.00     0.023 A 
ATOM      2  C1  UNL d   1      -0.551  -1.843  -1.029  0.00  0.00     0.003 A 
ATOM      3  C2  UNL d   1      -0.060  -0.537  -0.975  0.00  0.00     0.048 A 
ATOM      4  C3  UNL d   1      -0.022   0.138   0.245  0.00  0.00     0.023 A 
ATOM      5  C4  UNL d   1      -0.471  -0.484   1.411  0.00  0.00     0.048 A 
ATOM      6  C5  UNL d   1      -0.963  -1.790   1.352  0.00  0.00     0.003 A 
ATOM      7  I   UNL d   1       0.709   2.082   0.328  0.00  0.00    -0.146 I 
ENDROOT
TORSDOF 0
ENDMDL
