MODEL 1
REMARK minimizedAffinity -2.56851315
REMARK minimizedRMSD -1
REMARK  0 active torsions:
REMARK  status: ('A' for Active; 'I' for Inactive)
ROOT
ATOM      1  C   UNL d   1       1.230   2.256   0.199  0.00  0.00     0.023 A 
ATOM      2  C1  UNL d   1       0.029   1.936  -0.434  0.00  0.00     0.003 A 
ATOM      3  C2  UNL d   1      -0.520   0.661  -0.289  0.00  0.00     0.048 A 
ATOM      4  C3  UNL d   1       0.137  -0.290   0.491  0.00  0.00     0.023 A 
ATOM      5  C4  UNL d   1       1.339   0.025   1.127  0.00  0.00     0.048 A 
ATOM      6  C5  UNL d   1       1.884   1.302   0.978  0.00  0.00     0.003 A 
ATOM      7  I   UNL d   1      -0.678  -2.190   0.708  0.00  0.00    -0.146 I 
ENDROOT
TORSDOF 0
ENDMDL
