MODEL 1
REMARK minimizedAffinity -2.37524748
REMARK minimizedRMSD -1
REMARK  0 active torsions:
REMARK  status: ('A' for Active; 'I' for Inactive)
ROOT
ATOM      1  C   UNL d   1      -0.940  -1.064   1.179  0.00  0.00     0.023 A 
ATOM      2  C1  UNL d   1      -0.147  -0.645   2.247  0.00  0.00     0.003 A 
ATOM      3  C2  UNL d   1       0.717   0.441   2.093  0.00  0.00     0.048 A 
ATOM      4  C3  UNL d   1       0.782   1.105   0.868  0.00  0.00     0.023 A 
ATOM      5  C4  UNL d   1      -0.011   0.690  -0.203  0.00  0.00     0.048 A 
ATOM      6  C5  UNL d   1      -0.872  -0.397  -0.045  0.00  0.00     0.003 A 
ATOM      7  I   UNL d   1       2.066   2.722   0.637  0.00  0.00    -0.146 I 
ENDROOT
TORSDOF 0
ENDMDL
