MODEL 1
REMARK minimizedAffinity -2.46067262
REMARK minimizedRMSD -1
REMARK  0 active torsions:
REMARK  status: ('A' for Active; 'I' for Inactive)
ROOT
ATOM      1  C   UNL d   1       2.733   3.335   0.827  0.00  0.00     0.023 A 
ATOM      2  C1  UNL d   1       3.113   2.025   1.118  0.00  0.00     0.003 A 
ATOM      3  C2  UNL d   1       2.155   1.009   1.150  0.00  0.00     0.048 A 
ATOM      4  C3  UNL d   1       0.819   1.311   0.888  0.00  0.00     0.023 A 
ATOM      5  C4  UNL d   1       0.434   2.621   0.595  0.00  0.00     0.048 A 
ATOM      6  C5  UNL d   1       1.396   3.633   0.565  0.00  0.00     0.003 A 
ATOM      7  I   UNL d   1      -0.609  -0.198   0.935  0.00  0.00    -0.146 I 
ENDROOT
TORSDOF 0
ENDMDL
