MODEL 1
REMARK minimizedAffinity -1.33278131
REMARK minimizedRMSD -1
REMARK  0 active torsions:
REMARK  status: ('A' for Active; 'I' for Inactive)
ROOT
ATOM      1  C   UNL d   1       0.879   2.800   0.113  0.00  0.00     0.023 A 
ATOM      2  C1  UNL d   1      -0.340   2.480  -0.486  0.00  0.00     0.003 A 
ATOM      3  C2  UNL d   1      -0.892   1.209  -0.313  0.00  0.00     0.048 A 
ATOM      4  C3  UNL d   1      -0.221   0.263   0.461  0.00  0.00     0.023 A 
ATOM      5  C4  UNL d   1       0.998   0.579   1.063  0.00  0.00     0.048 A 
ATOM      6  C5  UNL d   1       1.547   1.850   0.887  0.00  0.00     0.003 A 
ATOM      7  I   UNL d   1      -1.041  -1.629   0.719  0.00  0.00    -0.146 I 
ENDROOT
TORSDOF 0
ENDMDL
