MODEL 1
REMARK minimizedAffinity 0.828959584
REMARK minimizedRMSD -1
REMARK  0 active torsions:
REMARK  status: ('A' for Active; 'I' for Inactive)
ROOT
ATOM      1  C   UNL d   1      -0.227  -1.217  -0.938  0.00  0.00     0.023 A 
ATOM      2  C1  UNL d   1      -0.114  -0.902   0.416  0.00  0.00     0.003 A 
ATOM      3  C2  UNL d   1       0.171   0.408   0.808  0.00  0.00     0.048 A 
ATOM      4  C3  UNL d   1       0.341   1.398  -0.159  0.00  0.00     0.023 A 
ATOM      5  C4  UNL d   1       0.228   1.087  -1.515  0.00  0.00     0.048 A 
ATOM      6  C5  UNL d   1      -0.056  -0.224  -1.902  0.00  0.00     0.003 A 
ATOM      7  I   UNL d   1       0.764   3.348   0.422  0.00  0.00    -0.146 I 
ENDROOT
TORSDOF 0
ENDMDL
