MODEL 1
REMARK minimizedAffinity -2.72779107
REMARK minimizedRMSD -1
REMARK  0 active torsions:
REMARK  status: ('A' for Active; 'I' for Inactive)
ROOT
ATOM      1  C   UNL d   1       1.330   2.079  -0.026  0.00  0.00     0.023 A 
ATOM      2  C1  UNL d   1       1.929   1.064   0.718  0.00  0.00     0.003 A 
ATOM      3  C2  UNL d   1       1.280  -0.162   0.880  0.00  0.00     0.048 A 
ATOM      4  C3  UNL d   1       0.032  -0.366   0.293  0.00  0.00     0.023 A 
ATOM      5  C4  UNL d   1      -0.572   0.648  -0.454  0.00  0.00     0.048 A 
ATOM      6  C5  UNL d   1       0.081   1.872  -0.612  0.00  0.00     0.003 A 
ATOM      7  I   UNL d   1      -0.937  -2.189   0.532  0.00  0.00    -0.146 I 
ENDROOT
TORSDOF 0
ENDMDL
