MODEL 1
REMARK minimizedAffinity -3.83373046
REMARK minimizedRMSD -1
REMARK  0 active torsions:
REMARK  status: ('A' for Active; 'I' for Inactive)
ROOT
ATOM      1  C   UNL d   1      -1.245  -2.434   0.269  0.00  0.00     0.023 A 
ATOM      2  C1  UNL d   1      -0.740  -1.971  -0.946  0.00  0.00     0.003 A 
ATOM      3  C2  UNL d   1      -0.052  -0.757  -1.001  0.00  0.00     0.048 A 
ATOM      4  C3  UNL d   1       0.128  -0.011   0.163  0.00  0.00     0.023 A 
ATOM      5  C4  UNL d   1      -0.375  -0.470   1.382  0.00  0.00     0.048 A 
ATOM      6  C5  UNL d   1      -1.063  -1.684   1.431  0.00  0.00     0.003 A 
ATOM      7  I   UNL d   1       1.151   1.797   0.084  0.00  0.00    -0.146 I 
ENDROOT
TORSDOF 0
ENDMDL
