MODEL 1
REMARK minimizedAffinity -1.38978386
REMARK minimizedRMSD -1
REMARK  0 active torsions:
REMARK  status: ('A' for Active; 'I' for Inactive)
ROOT
ATOM      1  C   UNL d   1      -0.765  -2.692  -0.017  0.00  0.00     0.023 A 
ATOM      2  C1  UNL d   1      -0.097  -2.108  -1.093  0.00  0.00     0.003 A 
ATOM      3  C2  UNL d   1       0.313  -0.775  -1.021  0.00  0.00     0.048 A 
ATOM      4  C3  UNL d   1       0.053  -0.033   0.130  0.00  0.00     0.023 A 
ATOM      5  C4  UNL d   1      -0.614  -0.613   1.210  0.00  0.00     0.048 A 
ATOM      6  C5  UNL d   1      -1.023  -1.946   1.133  0.00  0.00     0.003 A 
ATOM      7  I   UNL d   1       0.664   1.951   0.240  0.00  0.00    -0.146 I 
ENDROOT
TORSDOF 0
ENDMDL
