MODEL 1
REMARK minimizedAffinity -3.05825853
REMARK minimizedRMSD -1
REMARK  0 active torsions:
REMARK  status: ('A' for Active; 'I' for Inactive)
ROOT
ATOM      1  C   UNL d   1       1.357   2.384   0.234  0.00  0.00     0.023 A 
ATOM      2  C1  UNL d   1       1.966   1.401   1.014  0.00  0.00     0.003 A 
ATOM      3  C2  UNL d   1       1.335   0.170   1.206  0.00  0.00     0.048 A 
ATOM      4  C3  UNL d   1       0.096  -0.071   0.614  0.00  0.00     0.023 A 
ATOM      5  C4  UNL d   1      -0.517   0.909  -0.167  0.00  0.00     0.048 A 
ATOM      6  C5  UNL d   1       0.117   2.139  -0.355  0.00  0.00     0.003 A 
ATOM      7  I   UNL d   1      -0.845  -1.903   0.898  0.00  0.00    -0.146 I 
ENDROOT
TORSDOF 0
ENDMDL
