MODEL 1
REMARK minimizedAffinity -1.15556216
REMARK minimizedRMSD -1
REMARK  0 active torsions:
REMARK  status: ('A' for Active; 'I' for Inactive)
ROOT
ATOM      1  C   UNL d   1      -0.815  -0.791  -0.486  0.00  0.00     0.023 A 
ATOM      2  C1  UNL d   1      -0.371   0.025  -1.527  0.00  0.00     0.003 A 
ATOM      3  C2  UNL d   1       0.448   1.123  -1.255  0.00  0.00     0.048 A 
ATOM      4  C3  UNL d   1       0.821   1.398   0.061  0.00  0.00     0.023 A 
ATOM      5  C4  UNL d   1       0.381   0.583   1.105  0.00  0.00     0.048 A 
ATOM      6  C5  UNL d   1      -0.439  -0.512   0.828  0.00  0.00     0.003 A 
ATOM      7  I   UNL d   1       2.041   3.030   0.468  0.00  0.00    -0.146 I 
ENDROOT
TORSDOF 0
ENDMDL
