MODEL 1
REMARK minimizedAffinity -1.99110091
REMARK minimizedRMSD -1
REMARK  0 active torsions:
REMARK  status: ('A' for Active; 'I' for Inactive)
ROOT
ATOM      1  C   UNL d   1      -0.345  -0.692   1.740  0.00  0.00     0.023 A 
ATOM      2  C1  UNL d   1      -0.598  -2.058   1.615  0.00  0.00     0.003 A 
ATOM      3  C2  UNL d   1      -0.622  -2.652   0.351  0.00  0.00     0.048 A 
ATOM      4  C3  UNL d   1      -0.392  -1.874  -0.783  0.00  0.00     0.023 A 
ATOM      5  C4  UNL d   1      -0.138  -0.507  -0.662  0.00  0.00     0.048 A 
ATOM      6  C5  UNL d   1      -0.115   0.082   0.603  0.00  0.00     0.003 A 
ATOM      7  I   UNL d   1      -0.428  -2.756  -2.665  0.00  0.00    -0.146 I 
ENDROOT
TORSDOF 0
ENDMDL
