MODEL 1
REMARK minimizedAffinity -2.48849106
REMARK minimizedRMSD -1
REMARK  0 active torsions:
REMARK  status: ('A' for Active; 'I' for Inactive)
ROOT
ATOM      1  C   UNL d   1      -0.904  -1.240   1.655  0.00  0.00     0.023 A 
ATOM      2  C1  UNL d   1      -1.085  -0.705   0.380  0.00  0.00     0.003 A 
ATOM      3  C2  UNL d   1      -0.514   0.525   0.049  0.00  0.00     0.048 A 
ATOM      4  C3  UNL d   1       0.240   1.215   0.998  0.00  0.00     0.023 A 
ATOM      5  C4  UNL d   1       0.425   0.684   2.276  0.00  0.00     0.048 A 
ATOM      6  C5  UNL d   1      -0.149  -0.546   2.602  0.00  0.00     0.003 A 
ATOM      7  I   UNL d   1       1.092   3.046   0.509  0.00  0.00    -0.146 I 
ENDROOT
TORSDOF 0
ENDMDL
