MODEL 1
REMARK minimizedAffinity -1.64214051
REMARK minimizedRMSD -1
REMARK  0 active torsions:
REMARK  status: ('A' for Active; 'I' for Inactive)
ROOT
ATOM      1  N1  IND d   1       2.382   1.528  -1.591  0.00  0.00    -0.196 N 
ATOM      2  C2  IND d   1       3.023   1.954  -2.721  0.00  0.00     0.054 A 
ATOM      3  C3  IND d   1       4.363   1.868  -2.562  0.00  0.00    -0.031 A 
ATOM      4  C4  IND d   1       5.719   0.961  -0.571  0.00  0.00     0.051 A 
ATOM      5  C5  IND d   1       5.576   0.492   0.705  0.00  0.00    -0.031 A 
ATOM      6  C6  IND d   1       4.337   0.340   1.292  0.00  0.00     0.015 A 
ATOM      7  C7  IND d   1       3.187   0.640   0.617  0.00  0.00    -0.016 A 
ATOM      8  C8  IND d   1       3.328   1.123  -0.676  0.00  0.00    -0.047 A 
ATOM      9  C9  IND d   1       4.586   1.320  -1.262  0.00  0.00    -0.096 A 
ATOM     10  HN1 IND d   1       1.530   1.516  -1.472  0.00  0.00     0.298 HD
ENDROOT
TORSDOF 0
ENDMDL
