MODEL 1
REMARK minimizedAffinity -1.45611703
REMARK minimizedRMSD -1
REMARK  0 active torsions:
REMARK  status: ('A' for Active; 'I' for Inactive)
ROOT
ATOM      1  N1  IND d   1       4.113   1.574  -3.430  0.00  0.00    -0.196 N 
ATOM      2  C2  IND d   1       2.825   1.695  -3.873  0.00  0.00     0.054 A 
ATOM      3  C3  IND d   1       1.959   1.279  -2.922  0.00  0.00    -0.031 A 
ATOM      4  C4  IND d   1       2.431   0.456  -0.529  0.00  0.00     0.051 A 
ATOM      5  C5  IND d   1       3.455   0.138   0.319  0.00  0.00    -0.031 A 
ATOM      6  C6  IND d   1       4.777   0.289  -0.046  0.00  0.00     0.015 A 
ATOM      7  C7  IND d   1       5.126   0.775  -1.274  0.00  0.00    -0.016 A 
ATOM      8  C8  IND d   1       4.089   1.092  -2.140  0.00  0.00    -0.047 A 
ATOM      9  C9  IND d   1       2.746   0.901  -1.791  0.00  0.00    -0.096 A 
ATOM     10  HN1 IND d   1       4.819   1.767  -3.882  0.00  0.00     0.298 HD
ENDROOT
TORSDOF 0
ENDMDL
