MODEL 1
REMARK minimizedAffinity -1.48096859
REMARK minimizedRMSD -1
REMARK  0 active torsions:
REMARK  status: ('A' for Active; 'I' for Inactive)
ROOT
ATOM      1  N1  IND d   1       1.494  -0.067   4.137  0.00  0.00    -0.196 N 
ATOM      2  C2  IND d   1       0.435   0.777   3.950  0.00  0.00     0.054 A 
ATOM      3  C3  IND d   1       0.693   1.639   2.941  0.00  0.00    -0.031 A 
ATOM      4  C4  IND d   1       2.745   1.778   1.393  0.00  0.00     0.051 A 
ATOM      5  C5  IND d   1       3.987   1.240   1.199  0.00  0.00    -0.031 A 
ATOM      6  C6  IND d   1       4.469   0.217   1.989  0.00  0.00     0.015 A 
ATOM      7  C7  IND d   1       3.721  -0.317   2.999  0.00  0.00    -0.016 A 
ATOM      8  C8  IND d   1       2.462   0.231   3.203  0.00  0.00    -0.047 A 
ATOM      9  C9  IND d   1       1.984   1.298   2.432  0.00  0.00    -0.096 A 
ATOM     10  HN1 IND d   1       1.546  -0.681   4.736  0.00  0.00     0.298 HD
ENDROOT
TORSDOF 0
ENDMDL
