MODEL 1
REMARK minimizedAffinity 2.37718725
REMARK minimizedRMSD -1
REMARK  0 active torsions:
REMARK  status: ('A' for Active; 'I' for Inactive)
ROOT
ATOM      1  N1  IND d   1       2.159   1.765  -1.273  0.00  0.00    -0.196 N 
ATOM      2  C2  IND d   1       2.970   1.874  -2.367  0.00  0.00     0.054 A 
ATOM      3  C3  IND d   1       4.170   1.302  -2.122  0.00  0.00    -0.031 A 
ATOM      4  C4  IND d   1       4.983   0.040  -0.030  0.00  0.00     0.051 A 
ATOM      5  C5  IND d   1       4.611  -0.287   1.243  0.00  0.00    -0.031 A 
ATOM      6  C6  IND d   1       3.375   0.058   1.752  0.00  0.00     0.015 A 
ATOM      7  C7  IND d   1       2.459   0.736   1.000  0.00  0.00    -0.016 A 
ATOM      8  C8  IND d   1       2.836   1.076  -0.291  0.00  0.00    -0.047 A 
ATOM      9  C9  IND d   1       4.104   0.766  -0.799  0.00  0.00    -0.096 A 
ATOM     10  HN1 IND d   1       1.359   2.076  -1.208  0.00  0.00     0.298 HD
ENDROOT
TORSDOF 0
ENDMDL
