MODEL 1
REMARK minimizedAffinity 10.6835041
REMARK minimizedRMSD -1
REMARK  0 active torsions:
REMARK  status: ('A' for Active; 'I' for Inactive)
ROOT
ATOM      1  N1  IND d   1      -3.490  -2.311  -3.198  0.00  0.00    -0.196 N 
ATOM      2  C2  IND d   1      -2.256  -2.355  -2.611  0.00  0.00     0.054 A 
ATOM      3  C3  IND d   1      -2.174  -3.408  -1.767  0.00  0.00    -0.031 A 
ATOM      4  C4  IND d   1      -3.908  -5.246  -1.272  0.00  0.00     0.051 A 
ATOM      5  C5  IND d   1      -5.197  -5.611  -1.540  0.00  0.00    -0.031 A 
ATOM      6  C6  IND d   1      -5.999  -4.881  -2.394  0.00  0.00     0.015 A 
ATOM      7  C7  IND d   1      -5.535  -3.760  -3.023  0.00  0.00    -0.016 A 
ATOM      8  C8  IND d   1      -4.228  -3.383  -2.748  0.00  0.00    -0.047 A 
ATOM      9  C9  IND d   1      -3.424  -4.096  -1.849  0.00  0.00    -0.096 A 
ATOM     10  HN1 IND d   1      -3.759  -1.713  -3.754  0.00  0.00     0.298 HD
ENDROOT
TORSDOF 0
ENDMDL
