MODEL 1
REMARK minimizedAffinity -2.86523199
REMARK minimizedRMSD -1
REMARK  0 active torsions:
REMARK  status: ('A' for Active; 'I' for Inactive)
ROOT
ATOM      1  N1  IND d   1       4.658   1.772  -1.765  0.00  0.00    -0.196 N 
ATOM      2  C2  IND d   1       3.499   1.121  -2.087  0.00  0.00     0.054 A 
ATOM      3  C3  IND d   1       3.023   0.449  -1.016  0.00  0.00    -0.031 A 
ATOM      4  C4  IND d   1       3.927   0.360   1.393  0.00  0.00     0.051 A 
ATOM      5  C5  IND d   1       4.981   0.764   2.164  0.00  0.00    -0.031 A 
ATOM      6  C6  IND d   1       6.000   1.543   1.655  0.00  0.00     0.015 A 
ATOM      7  C7  IND d   1       5.997   1.958   0.353  0.00  0.00    -0.016 A 
ATOM      8  C8  IND d   1       4.932   1.544  -0.434  0.00  0.00    -0.047 A 
ATOM      9  C9  IND d   1       3.917   0.718   0.066  0.00  0.00    -0.096 A 
ATOM     10  HN1 IND d   1       5.134   2.244  -2.302  0.00  0.00     0.298 HD
ENDROOT
TORSDOF 0
ENDMDL
