MODEL 1
REMARK minimizedAffinity 11.1099348
REMARK minimizedRMSD -1
REMARK  0 active torsions:
REMARK  status: ('A' for Active; 'I' for Inactive)
ROOT
ATOM      1  N1  IND d   1      -1.877  -1.873  -5.155  0.00  0.00    -0.196 N 
ATOM      2  C2  IND d   1      -1.223  -2.727  -6.000  0.00  0.00     0.054 A 
ATOM      3  C3  IND d   1      -0.906  -3.874  -5.357  0.00  0.00    -0.031 A 
ATOM      4  C4  IND d   1      -1.453  -4.604  -2.950  0.00  0.00     0.051 A 
ATOM      5  C5  IND d   1      -2.003  -4.148  -1.784  0.00  0.00    -0.031 A 
ATOM      6  C6  IND d   1      -2.552  -2.886  -1.682  0.00  0.00     0.015 A 
ATOM      7  C7  IND d   1      -2.582  -2.034  -2.749  0.00  0.00    -0.016 A 
ATOM      8  C8  IND d   1      -2.019  -2.490  -3.932  0.00  0.00    -0.047 A 
ATOM      9  C9  IND d   1      -1.422  -3.754  -4.030  0.00  0.00    -0.096 A 
ATOM     10  HN1 IND d   1      -2.153  -1.084  -5.355  0.00  0.00     0.298 HD
ENDROOT
TORSDOF 0
ENDMDL
