MODEL 1
REMARK minimizedAffinity 8.03286266
REMARK minimizedRMSD -1
REMARK  0 active torsions:
REMARK  status: ('A' for Active; 'I' for Inactive)
ROOT
ATOM      1  N1  IND d   1       2.353  -0.622   1.122  0.00  0.00    -0.196 N 
ATOM      2  C2  IND d   1       1.548   0.401   0.706  0.00  0.00     0.054 A 
ATOM      3  C3  IND d   1       2.288   1.494   0.416  0.00  0.00    -0.031 A 
ATOM      4  C4  IND d   1       4.845   1.795   0.453  0.00  0.00     0.051 A 
ATOM      5  C5  IND d   1       6.000   1.152   0.800  0.00  0.00    -0.031 A 
ATOM      6  C6  IND d   1       5.999  -0.142   1.278  0.00  0.00     0.015 A 
ATOM      7  C7  IND d   1       4.838  -0.849   1.418  0.00  0.00    -0.016 A 
ATOM      8  C8  IND d   1       3.662  -0.197   1.074  0.00  0.00    -0.047 A 
ATOM      9  C9  IND d   1       3.653   1.131   0.628  0.00  0.00    -0.096 A 
ATOM     10  HN1 IND d   1       2.086  -1.401   1.371  0.00  0.00     0.298 HD
ENDROOT
TORSDOF 0
ENDMDL
