MODEL 1
REMARK minimizedAffinity 4.47421837
REMARK minimizedRMSD -1
REMARK  0 active torsions:
REMARK  status: ('A' for Active; 'I' for Inactive)
ROOT
ATOM      1  N1  IND d   1       5.231  -0.090  -0.354  0.00  0.00    -0.196 N 
ATOM      2  C2  IND d   1       4.893  -0.679   0.832  0.00  0.00     0.054 A 
ATOM      3  C3  IND d   1       3.633  -0.338   1.185  0.00  0.00    -0.031 A 
ATOM      4  C4  IND d   1       1.910   1.093  -0.084  0.00  0.00     0.051 A 
ATOM      5  C5  IND d   1       1.770   1.876  -1.195  0.00  0.00    -0.031 A 
ATOM      6  C6  IND d   1       2.796   2.046  -2.103  0.00  0.00     0.015 A 
ATOM      7  C7  IND d   1       4.002   1.426  -1.937  0.00  0.00    -0.016 A 
ATOM      8  C8  IND d   1       4.151   0.635  -0.807  0.00  0.00    -0.047 A 
ATOM      9  C9  IND d   1       3.127   0.494   0.139  0.00  0.00    -0.096 A 
ATOM     10  HN1 IND d   1       5.991  -0.160  -0.751  0.00  0.00     0.298 HD
ENDROOT
TORSDOF 0
ENDMDL
