MODEL 1
REMARK minimizedAffinity 4.42671871
REMARK minimizedRMSD -1
REMARK  0 active torsions:
REMARK  status: ('A' for Active; 'I' for Inactive)
ROOT
ATOM      1  N1  IND d   1       2.902   0.324   1.497  0.00  0.00    -0.196 N 
ATOM      2  C2  IND d   1       4.051  -0.408   1.610  0.00  0.00     0.054 A 
ATOM      3  C3  IND d   1       4.741  -0.382   0.448  0.00  0.00    -0.031 A 
ATOM      4  C4  IND d   1       4.222   0.881  -1.735  0.00  0.00     0.051 A 
ATOM      5  C5  IND d   1       3.265   1.653  -2.331  0.00  0.00    -0.031 A 
ATOM      6  C6  IND d   1       2.116   2.032  -1.667  0.00  0.00     0.015 A 
ATOM      7  C7  IND d   1       1.886   1.660  -0.373  0.00  0.00    -0.016 A 
ATOM      8  C8  IND d   1       2.852   0.870   0.233  0.00  0.00    -0.047 A 
ATOM      9  C9  IND d   1       4.000   0.447  -0.449  0.00  0.00    -0.096 A 
ATOM     10  HN1 IND d   1       2.310   0.426   2.112  0.00  0.00     0.298 HD
ENDROOT
TORSDOF 0
ENDMDL
