MODEL 1
REMARK minimizedAffinity 3.91191053
REMARK minimizedRMSD -1
REMARK  0 active torsions:
REMARK  status: ('A' for Active; 'I' for Inactive)
ROOT
ATOM      1  N1  IND d   1       3.738   0.061  -1.335  0.00  0.00    -0.196 N 
ATOM      2  C2  IND d   1       2.781   0.296  -0.388  0.00  0.00     0.054 A 
ATOM      3  C3  IND d   1       1.814   1.098  -0.885  0.00  0.00    -0.031 A 
ATOM      4  C4  IND d   1       1.546   2.060  -3.258  0.00  0.00     0.051 A 
ATOM      5  C5  IND d   1       2.186   2.151  -4.462  0.00  0.00    -0.031 A 
ATOM      6  C6  IND d   1       3.400   1.535  -4.691  0.00  0.00     0.015 A 
ATOM      7  C7  IND d   1       4.015   0.793  -3.723  0.00  0.00    -0.016 A 
ATOM      8  C8  IND d   1       3.371   0.704  -2.497  0.00  0.00    -0.047 A 
ATOM      9  C9  IND d   1       2.161   1.362  -2.245  0.00  0.00    -0.096 A 
ATOM     10  HN1 IND d   1       4.449  -0.410  -1.225  0.00  0.00     0.298 HD
ENDROOT
TORSDOF 0
ENDMDL
