MODEL 1
REMARK minimizedAffinity 2.90536189
REMARK minimizedRMSD -1
REMARK  0 active torsions:
REMARK  status: ('A' for Active; 'I' for Inactive)
ROOT
ATOM      1  N1  IND d   1      -3.346  -4.706  -1.688  0.00  0.00    -0.196 N 
ATOM      2  C2  IND d   1      -3.497  -3.627  -2.515  0.00  0.00     0.054 A 
ATOM      3  C3  IND d   1      -2.714  -2.605  -2.102  0.00  0.00    -0.031 A 
ATOM      4  C4  IND d   1      -1.029  -2.518  -0.158  0.00  0.00     0.051 A 
ATOM      5  C5  IND d   1      -0.568  -3.247   0.902  0.00  0.00    -0.031 A 
ATOM      6  C6  IND d   1      -1.017  -4.527   1.156  0.00  0.00     0.015 A 
ATOM      7  C7  IND d   1      -1.939  -5.132   0.350  0.00  0.00    -0.016 A 
ATOM      8  C8  IND d   1      -2.415  -4.392  -0.724  0.00  0.00    -0.047 A 
ATOM      9  C9  IND d   1      -1.994  -3.077  -0.962  0.00  0.00    -0.096 A 
ATOM     10  HN1 IND d   1      -3.764  -5.454  -1.759  0.00  0.00     0.298 HD
ENDROOT
TORSDOF 0
ENDMDL
