MODEL 1
REMARK minimizedAffinity 14.0415668
REMARK minimizedRMSD -1
REMARK  0 active torsions:
REMARK  status: ('A' for Active; 'I' for Inactive)
ROOT
ATOM      1  N1  IND d   1      -3.804  -3.119  -1.799  0.00  0.00    -0.196 N 
ATOM      2  C2  IND d   1      -3.508  -2.842  -3.105  0.00  0.00     0.054 A 
ATOM      3  C3  IND d   1      -2.190  -2.575  -3.241  0.00  0.00    -0.031 A 
ATOM      4  C4  IND d   1      -0.317  -2.635  -1.475  0.00  0.00     0.051 A 
ATOM      5  C5  IND d   1      -0.105  -2.801  -0.136  0.00  0.00    -0.031 A 
ATOM      6  C6  IND d   1      -1.136  -3.090   0.735  0.00  0.00     0.015 A 
ATOM      7  C7  IND d   1      -2.421  -3.236   0.295  0.00  0.00    -0.016 A 
ATOM      8  C8  IND d   1      -2.641  -3.061  -1.064  0.00  0.00    -0.047 A 
ATOM      9  C9  IND d   1      -1.606  -2.725  -1.946  0.00  0.00    -0.096 A 
ATOM     10  HN1 IND d   1      -4.586  -3.299  -1.490  0.00  0.00     0.298 HD
ENDROOT
TORSDOF 0
ENDMDL
