MODEL 1
REMARK minimizedAffinity 19.2497082
REMARK minimizedRMSD -1
REMARK  0 active torsions:
REMARK  status: ('A' for Active; 'I' for Inactive)
ROOT
ATOM      1  N1  IND d   1       2.798   5.631   1.376  0.00  0.00    -0.196 N 
ATOM      2  C2  IND d   1       4.106   5.867   1.056  0.00  0.00     0.054 A 
ATOM      3  C3  IND d   1       4.700   4.730   0.630  0.00  0.00    -0.031 A 
ATOM      4  C4  IND d   1       3.687   2.389   0.279  0.00  0.00     0.051 A 
ATOM      5  C5  IND d   1       2.539   1.673   0.468  0.00  0.00    -0.031 A 
ATOM      6  C6  IND d   1       1.394   2.252   0.976  0.00  0.00     0.015 A 
ATOM      7  C7  IND d   1       1.352   3.577   1.306  0.00  0.00    -0.016 A 
ATOM      8  C8  IND d   1       2.518   4.306   1.123  0.00  0.00    -0.047 A 
ATOM      9  C9  IND d   1       3.696   3.714   0.647  0.00  0.00    -0.096 A 
ATOM     10  HN1 IND d   1       2.244   6.211   1.683  0.00  0.00     0.298 HD
ENDROOT
TORSDOF 0
ENDMDL
