MODEL 1
REMARK minimizedAffinity 17.9557037
REMARK minimizedRMSD -1
REMARK  0 active torsions:
REMARK  status: ('A' for Active; 'I' for Inactive)
ROOT
ATOM      1  N1  IND d   1      -3.249  -4.041  -1.588  0.00  0.00    -0.196 N 
ATOM      2  C2  IND d   1      -2.954  -3.013  -2.439  0.00  0.00     0.054 A 
ATOM      3  C3  IND d   1      -2.151  -2.112  -1.829  0.00  0.00    -0.031 A 
ATOM      4  C4  IND d   1      -1.115  -2.177   0.527  0.00  0.00     0.051 A 
ATOM      5  C5  IND d   1      -1.122  -2.898   1.687  0.00  0.00    -0.031 A 
ATOM      6  C6  IND d   1      -1.852  -4.062   1.818  0.00  0.00     0.015 A 
ATOM      7  C7  IND d   1      -2.595  -4.557   0.783  0.00  0.00    -0.016 A 
ATOM      8  C8  IND d   1      -2.595  -3.823  -0.395  0.00  0.00    -0.047 A 
ATOM      9  C9  IND d   1      -1.891  -2.618  -0.519  0.00  0.00    -0.096 A 
ATOM     10  HN1 IND d   1      -3.757  -4.711  -1.767  0.00  0.00     0.298 HD
ENDROOT
TORSDOF 0
ENDMDL
