MODEL 1
REMARK minimizedAffinity 2.41605997
REMARK minimizedRMSD -1
REMARK  0 active torsions:
REMARK  status: ('A' for Active; 'I' for Inactive)
ROOT
ATOM      1  N1  IND d   1       4.419  -0.839   1.981  0.00  0.00    -0.196 N 
ATOM      2  C2  IND d   1       5.720  -0.422   1.942  0.00  0.00     0.054 A 
ATOM      3  C3  IND d   1       5.799   0.825   1.427  0.00  0.00    -0.031 A 
ATOM      4  C4  IND d   1       3.912   2.409   0.680  0.00  0.00     0.051 A 
ATOM      5  C5  IND d   1       2.559   2.460   0.494  0.00  0.00    -0.031 A 
ATOM      6  C6  IND d   1       1.740   1.393   0.803  0.00  0.00     0.015 A 
ATOM      7  C7  IND d   1       2.245   0.234   1.322  0.00  0.00    -0.016 A 
ATOM      8  C8  IND d   1       3.619   0.177   1.506  0.00  0.00    -0.047 A 
ATOM      9  C9  IND d   1       4.460   1.240   1.154  0.00  0.00    -0.096 A 
ATOM     10  HN1 IND d   1       4.146  -1.607   2.256  0.00  0.00     0.298 HD
ENDROOT
TORSDOF 0
ENDMDL
