MODEL 1
REMARK minimizedAffinity 11.6758032
REMARK minimizedRMSD -1
REMARK  0 active torsions:
REMARK  status: ('A' for Active; 'I' for Inactive)
ROOT
ATOM      1  N1  IND d   1      -2.209  -3.821   0.539  0.00  0.00    -0.196 N 
ATOM      2  C2  IND d   1      -1.175  -3.061   1.011  0.00  0.00     0.054 A 
ATOM      3  C3  IND d   1      -0.712  -2.242   0.040  0.00  0.00    -0.031 A 
ATOM      4  C4  IND d   1      -1.567  -1.910  -2.366  0.00  0.00     0.051 A 
ATOM      5  C5  IND d   1      -2.468  -2.405  -3.266  0.00  0.00    -0.031 A 
ATOM      6  C6  IND d   1      -3.348  -3.416  -2.937  0.00  0.00     0.015 A 
ATOM      7  C7  IND d   1      -3.367  -3.964  -1.686  0.00  0.00    -0.016 A 
ATOM      8  C8  IND d   1      -2.449  -3.469  -0.771  0.00  0.00    -0.047 A 
ATOM      9  C9  IND d   1      -1.526  -2.472  -1.112  0.00  0.00    -0.096 A 
ATOM     10  HN1 IND d   1      -2.636  -4.418   0.985  0.00  0.00     0.298 HD
ENDROOT
TORSDOF 0
ENDMDL
