MODEL 1
REMARK minimizedAffinity 14.1300201
REMARK minimizedRMSD -1
REMARK  0 active torsions:
REMARK  status: ('A' for Active; 'I' for Inactive)
ROOT
ATOM      1  N1  IND d   1       4.834   1.144  -2.929  0.00  0.00    -0.196 N 
ATOM      2  C2  IND d   1       3.830   1.936  -3.411  0.00  0.00     0.054 A 
ATOM      3  C3  IND d   1       2.792   1.959  -2.546  0.00  0.00    -0.031 A 
ATOM      4  C4  IND d   1       2.567   0.852  -0.232  0.00  0.00     0.051 A 
ATOM      5  C5  IND d   1       3.209  -0.001   0.621  0.00  0.00    -0.031 A 
ATOM      6  C6  IND d   1       4.452  -0.524   0.329  0.00  0.00     0.015 A 
ATOM      7  C7  IND d   1       5.107  -0.204  -0.826  0.00  0.00    -0.016 A 
ATOM      8  C8  IND d   1       4.455   0.656  -1.698  0.00  0.00    -0.047 A 
ATOM      9  C9  IND d   1       3.175   1.157  -1.427  0.00  0.00    -0.096 A 
ATOM     10  HN1 IND d   1       5.578   0.977  -3.328  0.00  0.00     0.298 HD
ENDROOT
TORSDOF 0
ENDMDL
