MODEL 1
REMARK minimizedAffinity 1.46882856
REMARK minimizedRMSD -1
REMARK  0 active torsions:
REMARK  status: ('A' for Active; 'I' for Inactive)
ROOT
ATOM      1  N1  IND d   1      -1.535  -2.564  -0.055  0.00  0.00    -0.196 N 
ATOM      2  C2  IND d   1      -1.618  -3.258   1.119  0.00  0.00     0.054 A 
ATOM      3  C3  IND d   1      -2.366  -4.372   0.955  0.00  0.00    -0.031 A 
ATOM      4  C4  IND d   1      -3.466  -5.304  -1.178  0.00  0.00     0.051 A 
ATOM      5  C5  IND d   1      -3.698  -5.001  -2.490  0.00  0.00    -0.031 A 
ATOM      6  C6  IND d   1      -3.208  -3.849  -3.071  0.00  0.00     0.015 A 
ATOM      7  C7  IND d   1      -2.456  -2.958  -2.360  0.00  0.00    -0.016 A 
ATOM      8  C8  IND d   1      -2.224  -3.258  -1.025  0.00  0.00    -0.047 A 
ATOM      9  C9  IND d   1      -2.754  -4.405  -0.419  0.00  0.00    -0.096 A 
ATOM     10  HN1 IND d   1      -1.122  -1.818  -0.169  0.00  0.00     0.298 HD
ENDROOT
TORSDOF 0
ENDMDL
