MODEL 1
REMARK minimizedAffinity -3.74499059
REMARK minimizedRMSD -1
REMARK  1 active torsions:
REMARK  status: ('A' for Active; 'I' for Inactive)
REMARK    1  A    between atoms: N_2  and  C1_3 
ROOT
ATOM      1  C1  UNL d   1      -0.029   0.177  -0.038  0.00  0.00     0.143 A 
ATOM      2  C2  UNL d   1      -1.274  -0.338   0.338  0.00  0.00    -0.057 A 
ATOM      3  C3  UNL d   1      -1.447  -0.999   1.560  0.00  0.00     0.033 A 
ATOM      4  C4  UNL d   1      -0.367  -1.182   2.418  0.00  0.00    -0.042 A 
ATOM      5  C5  UNL d   1       0.885  -0.700   2.054  0.00  0.00     0.033 A 
ATOM      6  C6  UNL d   1       1.050  -0.035   0.835  0.00  0.00    -0.057 A 
ENDROOT
BRANCH   1   7
ATOM      7  N   UNL d   1       0.230   0.757  -1.282  0.00  0.00    -0.732 N 
ATOM      8  C   UNL d   1      -0.761   1.593  -1.926  0.00  0.00     0.284 C 
ATOM      9  H3  UNL d   1       1.182   1.109  -1.357  0.00  0.00     0.395 HD
ENDBRANCH   1   7
TORSDOF 1
ENDMDL
