MODEL 1
REMARK minimizedAffinity -2.78158212
REMARK minimizedRMSD -1
REMARK  1 active torsions:
REMARK  status: ('A' for Active; 'I' for Inactive)
REMARK    1  A    between atoms: N_2  and  C1_3 
ROOT
ATOM      1  C1  UNL d   1      -0.305  -0.400   1.461  0.00  0.00     0.143 A 
ATOM      2  C2  UNL d   1      -1.489   0.242   1.081  0.00  0.00    -0.057 A 
ATOM      3  C3  UNL d   1      -1.699   0.657  -0.240  0.00  0.00     0.033 A 
ATOM      4  C4  UNL d   1      -0.713   0.462  -1.201  0.00  0.00    -0.042 A 
ATOM      5  C5  UNL d   1       0.482  -0.152  -0.841  0.00  0.00     0.033 A 
ATOM      6  C6  UNL d   1       0.682  -0.570   0.478  0.00  0.00    -0.057 A 
ENDROOT
BRANCH   1   7
ATOM      7  N   UNL d   1       0.003  -0.748   2.778  0.00  0.00    -0.732 N 
ATOM      8  C   UNL d   1       0.749  -1.954   3.067  0.00  0.00     0.284 C 
ATOM      9  H3  UNL d   1       0.279   0.056   3.337  0.00  0.00     0.395 HD
ENDBRANCH   1   7
TORSDOF 1
ENDMDL
