MODEL 1
REMARK minimizedAffinity -0.302753031
REMARK minimizedRMSD -1
REMARK  1 active torsions:
REMARK  status: ('A' for Active; 'I' for Inactive)
REMARK    1  A    between atoms: N_2  and  C1_3 
ROOT
ATOM      1  C1  UNL d   1      -0.817   1.340  -1.103  0.00  0.00     0.143 A 
ATOM      2  C2  UNL d   1       0.466   1.523  -0.575  0.00  0.00    -0.057 A 
ATOM      3  C3  UNL d   1       1.096   0.516   0.166  0.00  0.00     0.033 A 
ATOM      4  C4  UNL d   1       0.440  -0.685   0.418  0.00  0.00    -0.042 A 
ATOM      5  C5  UNL d   1      -0.846  -0.878  -0.076  0.00  0.00     0.033 A 
ATOM      6  C6  UNL d   1      -1.467   0.128  -0.821  0.00  0.00    -0.057 A 
ENDROOT
BRANCH   1   7
ATOM      7  N   UNL d   1      -1.535   2.340  -1.765  0.00  0.00    -0.732 N 
ATOM      8  C   UNL d   1      -0.941   3.069  -2.865  0.00  0.00     0.284 C 
ATOM      9  H3  UNL d   1      -2.509   2.085  -1.912  0.00  0.00     0.395 HD
ENDBRANCH   1   7
TORSDOF 1
ENDMDL
