MODEL 1
REMARK minimizedAffinity -3.56610608
REMARK minimizedRMSD -1
REMARK  1 active torsions:
REMARK  status: ('A' for Active; 'I' for Inactive)
REMARK    1  A    between atoms: N_2  and  C1_3 
ROOT
ATOM      1  C1  UNL d   1       0.135  -0.183   0.079  0.00  0.00     0.143 A 
ATOM      2  C2  UNL d   1      -0.420  -0.081   1.359  0.00  0.00    -0.057 A 
ATOM      3  C3  UNL d   1       0.124  -0.777   2.445  0.00  0.00     0.033 A 
ATOM      4  C4  UNL d   1       1.220  -1.615   2.263  0.00  0.00    -0.042 A 
ATOM      5  C5  UNL d   1       1.773  -1.751   0.995  0.00  0.00     0.033 A 
ATOM      6  C6  UNL d   1       1.229  -1.048  -0.084  0.00  0.00    -0.057 A 
ENDROOT
BRANCH   1   7
ATOM      7  N   UNL d   1      -0.419   0.407  -1.059  0.00  0.00    -0.732 N 
ATOM      8  C   UNL d   1      -0.561   1.844  -1.150  0.00  0.00     0.284 C 
ATOM      9  H3  UNL d   1      -0.103  -0.035  -1.919  0.00  0.00     0.395 HD
ENDBRANCH   1   7
TORSDOF 1
ENDMDL
