MODEL 1
REMARK minimizedAffinity -4.880867
REMARK minimizedRMSD -1
REMARK  1 active torsions:
REMARK  status: ('A' for Active; 'I' for Inactive)
REMARK    1  A    between atoms: N_2  and  C1_3 
ROOT
ATOM      1  C1  UNL d   1       0.828  -0.204   0.990  0.00  0.00     0.143 A 
ATOM      2  C2  UNL d   1       0.732  -0.571   2.337  0.00  0.00    -0.057 A 
ATOM      3  C3  UNL d   1       1.598  -1.519   2.895  0.00  0.00     0.033 A 
ATOM      4  C4  UNL d   1       2.560  -2.141   2.106  0.00  0.00    -0.042 A 
ATOM      5  C5  UNL d   1       2.657  -1.810   0.759  0.00  0.00     0.033 A 
ATOM      6  C6  UNL d   1       1.794  -0.858   0.209  0.00  0.00    -0.057 A 
ENDROOT
BRANCH   1   7
ATOM      7  N   UNL d   1      -0.067   0.659   0.353  0.00  0.00    -0.732 N 
ATOM      8  C   UNL d   1      -0.519   0.388  -0.995  0.00  0.00     0.284 C 
ATOM      9  H3  UNL d   1      -0.798   0.991   0.978  0.00  0.00     0.395 HD
ENDBRANCH   1   7
TORSDOF 1
ENDMDL
