MODEL 1
REMARK minimizedAffinity -4.87109947
REMARK minimizedRMSD -1
REMARK  1 active torsions:
REMARK  status: ('A' for Active; 'I' for Inactive)
REMARK    1  A    between atoms: N_2  and  C1_3 
ROOT
ATOM      1  C1  UNL d   1       0.378  -0.301   0.004  0.00  0.00     0.143 A 
ATOM      2  C2  UNL d   1       1.387  -1.269   0.030  0.00  0.00    -0.057 A 
ATOM      3  C3  UNL d   1       1.859  -1.794   1.240  0.00  0.00     0.033 A 
ATOM      4  C4  UNL d   1       1.346  -1.338   2.450  0.00  0.00    -0.042 A 
ATOM      5  C5  UNL d   1       0.360  -0.358   2.449  0.00  0.00     0.033 A 
ATOM      6  C6  UNL d   1      -0.111   0.158   1.237  0.00  0.00    -0.057 A 
ENDROOT
BRANCH   1   7
ATOM      7  N   UNL d   1      -0.064   0.331  -1.161  0.00  0.00    -0.732 N 
ATOM      8  C   UNL d   1       0.430   1.643  -1.520  0.00  0.00     0.284 C 
ATOM      9  H3  UNL d   1      -0.144  -0.312  -1.945  0.00  0.00     0.395 HD
ENDBRANCH   1   7
TORSDOF 1
ENDMDL
