MODEL 1
REMARK minimizedAffinity -3.9204967
REMARK minimizedRMSD -1
REMARK  1 active torsions:
REMARK  status: ('A' for Active; 'I' for Inactive)
REMARK    1  A    between atoms: N_2  and  C1_3 
ROOT
ATOM      1  C1  UNL d   1      -1.020   0.688  -0.978  0.00  0.00     0.143 A 
ATOM      2  C2  UNL d   1       0.151  -0.073  -0.889  0.00  0.00    -0.057 A 
ATOM      3  C3  UNL d   1       0.572  -0.619   0.329  0.00  0.00     0.033 A 
ATOM      4  C4  UNL d   1      -0.159  -0.390   1.490  0.00  0.00    -0.042 A 
ATOM      5  C5  UNL d   1      -1.313   0.383   1.431  0.00  0.00     0.033 A 
ATOM      6  C6  UNL d   1      -1.731   0.921   0.210  0.00  0.00    -0.057 A 
ENDROOT
BRANCH   1   7
ATOM      7  N   UNL d   1      -1.438   1.340  -2.140  0.00  0.00    -0.732 N 
ATOM      8  C   UNL d   1      -0.947   2.664  -2.460  0.00  0.00     0.284 C 
ATOM      9  H3  UNL d   1      -1.492   0.713  -2.939  0.00  0.00     0.395 HD
ENDBRANCH   1   7
TORSDOF 1
ENDMDL
