MODEL 1
REMARK minimizedAffinity -3.35687876
REMARK minimizedRMSD -1
REMARK  1 active torsions:
REMARK  status: ('A' for Active; 'I' for Inactive)
REMARK    1  A    between atoms: N_2  and  C1_3 
ROOT
ATOM      1  C1  UNL d   1      -0.658   1.394  -1.197  0.00  0.00     0.143 A 
ATOM      2  C2  UNL d   1      -0.148   2.108  -2.288  0.00  0.00    -0.057 A 
ATOM      3  C3  UNL d   1      -0.824   3.218  -2.808  0.00  0.00     0.033 A 
ATOM      4  C4  UNL d   1      -2.039   3.619  -2.263  0.00  0.00    -0.042 A 
ATOM      5  C5  UNL d   1      -2.577   2.909  -1.195  0.00  0.00     0.033 A 
ATOM      6  C6  UNL d   1      -1.894   1.805  -0.676  0.00  0.00    -0.057 A 
ENDROOT
BRANCH   1   7
ATOM      7  N   UNL d   1      -0.083   0.223  -0.697  0.00  0.00    -0.732 N 
ATOM      8  C   UNL d   1      -0.594  -0.392   0.509  0.00  0.00     0.284 C 
ATOM      9  H3  UNL d   1       0.153  -0.439  -1.433  0.00  0.00     0.395 HD
ENDBRANCH   1   7
TORSDOF 1
ENDMDL
