MODEL 1
REMARK minimizedAffinity -0.756920218
REMARK minimizedRMSD -1
REMARK  1 active torsions:
REMARK  status: ('A' for Active; 'I' for Inactive)
REMARK    1  A    between atoms: N_2  and  C1_3 
ROOT
ATOM      1  C1  UNL d   1      -0.774   0.103   0.310  0.00  0.00     0.143 A 
ATOM      2  C2  UNL d   1      -1.032   0.648   1.572  0.00  0.00    -0.057 A 
ATOM      3  C3  UNL d   1      -0.742  -0.063   2.743  0.00  0.00     0.033 A 
ATOM      4  C4  UNL d   1      -0.216  -1.348   2.671  0.00  0.00    -0.042 A 
ATOM      5  C5  UNL d   1       0.024  -1.920   1.427  0.00  0.00     0.033 A 
ATOM      6  C6  UNL d   1      -0.260  -1.202   0.261  0.00  0.00    -0.057 A 
ENDROOT
BRANCH   1   7
ATOM      7  N   UNL d   1      -1.131   0.720  -0.892  0.00  0.00    -0.732 N 
ATOM      8  C   UNL d   1      -0.737   2.086  -1.164  0.00  0.00     0.284 C 
ATOM      9  H3  UNL d   1      -1.045   0.095  -1.690  0.00  0.00     0.395 HD
ENDBRANCH   1   7
TORSDOF 1
ENDMDL
