MODEL 1
REMARK minimizedAffinity 8.05503941
REMARK minimizedRMSD -1
REMARK  1 active torsions:
REMARK  status: ('A' for Active; 'I' for Inactive)
REMARK    1  A    between atoms: N_2  and  C1_3 
ROOT
ATOM      1  C1  UNL d   1       0.128   3.184   0.163  0.00  0.00     0.143 A 
ATOM      2  C2  UNL d   1       0.273   3.798  -1.086  0.00  0.00    -0.057 A 
ATOM      3  C3  UNL d   1       0.331   5.191  -1.207  0.00  0.00     0.033 A 
ATOM      4  C4  UNL d   1       0.214   5.999  -0.081  0.00  0.00    -0.042 A 
ATOM      5  C5  UNL d   1       0.044   5.411   1.168  0.00  0.00     0.033 A 
ATOM      6  C6  UNL d   1      -0.006   4.019   1.283  0.00  0.00    -0.057 A 
ENDROOT
BRANCH   1   7
ATOM      7  N   UNL d   1      -0.035   1.807   0.338  0.00  0.00    -0.732 N 
ATOM      8  C   UNL d   1       0.590   0.869  -0.570  0.00  0.00     0.284 C 
ATOM      9  H3  UNL d   1       0.012   1.532   1.317  0.00  0.00     0.395 HD
ENDBRANCH   1   7
TORSDOF 1
ENDMDL
