MODEL 1
REMARK minimizedAffinity 8.01767349
REMARK minimizedRMSD -1
REMARK  1 active torsions:
REMARK  status: ('A' for Active; 'I' for Inactive)
REMARK    1  A    between atoms: N_2  and  C1_3 
ROOT
ATOM      1  C1  UNL d   1      -0.480   1.960  -0.433  0.00  0.00     0.143 A 
ATOM      2  C2  UNL d   1      -1.863   1.782  -0.548  0.00  0.00    -0.057 A 
ATOM      3  C3  UNL d   1      -2.399   0.680  -1.225  0.00  0.00     0.033 A 
ATOM      4  C4  UNL d   1      -1.558  -0.251  -1.826  0.00  0.00    -0.042 A 
ATOM      5  C5  UNL d   1      -0.181  -0.081  -1.746  0.00  0.00     0.033 A 
ATOM      6  C6  UNL d   1       0.348   1.018  -1.063  0.00  0.00    -0.057 A 
ENDROOT
BRANCH   1   7
ATOM      7  N   UNL d   1       0.113   3.087   0.142  0.00  0.00    -0.732 N 
ATOM      8  C   UNL d   1      -0.088   4.400  -0.432  0.00  0.00     0.284 C 
ATOM      9  H3  UNL d   1       0.080   3.067   1.158  0.00  0.00     0.395 HD
ENDBRANCH   1   7
TORSDOF 1
ENDMDL
