MODEL 1
REMARK minimizedAffinity 5.41349745
REMARK minimizedRMSD -1
REMARK  1 active torsions:
REMARK  status: ('A' for Active; 'I' for Inactive)
REMARK    1  A    between atoms: N_2  and  C1_3 
ROOT
ATOM      1  C1  UNL d   1       0.686   3.957   1.465  0.00  0.00     0.143 A 
ATOM      2  C2  UNL d   1       0.213   3.231   0.367  0.00  0.00    -0.057 A 
ATOM      3  C3  UNL d   1      -0.139   3.869  -0.829  0.00  0.00     0.033 A 
ATOM      4  C4  UNL d   1      -0.050   5.253  -0.938  0.00  0.00    -0.042 A 
ATOM      5  C5  UNL d   1       0.394   5.997   0.149  0.00  0.00     0.033 A 
ATOM      6  C6  UNL d   1       0.750   5.354   1.338  0.00  0.00    -0.057 A 
ENDROOT
BRANCH   1   7
ATOM      7  N   UNL d   1       0.958   3.391   2.713  0.00  0.00    -0.732 N 
ATOM      8  C   UNL d   1       2.316   3.315   3.208  0.00  0.00     0.284 C 
ATOM      9  H3  UNL d   1       0.273   3.657   3.417  0.00  0.00     0.395 HD
ENDBRANCH   1   7
TORSDOF 1
ENDMDL
