MODEL 1
REMARK minimizedAffinity 8.82613945
REMARK minimizedRMSD -1
REMARK  1 active torsions:
REMARK  status: ('A' for Active; 'I' for Inactive)
REMARK    1  A    between atoms: N_2  and  C1_3 
ROOT
ATOM      1  C1  UNL d   1       0.267   5.051  -0.833  0.00  0.00     0.143 A 
ATOM      2  C2  UNL d   1       0.334   3.748  -0.327  0.00  0.00    -0.057 A 
ATOM      3  C3  UNL d   1      -0.328   3.394   0.856  0.00  0.00     0.033 A 
ATOM      4  C4  UNL d   1      -1.046   4.348   1.570  0.00  0.00    -0.042 A 
ATOM      5  C5  UNL d   1      -1.105   5.654   1.099  0.00  0.00     0.033 A 
ATOM      6  C6  UNL d   1      -0.448   6.000  -0.086  0.00  0.00    -0.057 A 
ENDROOT
BRANCH   1   7
ATOM      7  N   UNL d   1       0.982   5.489  -1.950  0.00  0.00    -0.732 N 
ATOM      8  C   UNL d   1       0.374   5.484  -3.263  0.00  0.00     0.284 C 
ATOM      9  H3  UNL d   1       1.541   6.316  -1.754  0.00  0.00     0.395 HD
ENDBRANCH   1   7
TORSDOF 1
ENDMDL
