MODEL 1
REMARK minimizedAffinity 3.92209172
REMARK minimizedRMSD -1
REMARK  1 active torsions:
REMARK  status: ('A' for Active; 'I' for Inactive)
REMARK    1  A    between atoms: N_2  and  C1_3 
ROOT
ATOM      1  C1  UNL d   1       0.963   4.000   0.799  0.00  0.00     0.143 A 
ATOM      2  C2  UNL d   1       0.247   2.997   1.460  0.00  0.00    -0.057 A 
ATOM      3  C3  UNL d   1       0.716   2.436   2.654  0.00  0.00     0.033 A 
ATOM      4  C4  UNL d   1       1.930   2.849   3.193  0.00  0.00    -0.042 A 
ATOM      5  C5  UNL d   1       2.672   3.827   2.540  0.00  0.00     0.033 A 
ATOM      6  C6  UNL d   1       2.194   4.388   1.352  0.00  0.00    -0.057 A 
ENDROOT
BRANCH   1   7
ATOM      7  N   UNL d   1       0.598   4.528  -0.442  0.00  0.00    -0.732 N 
ATOM      8  C   UNL d   1      -0.335   5.631  -0.528  0.00  0.00     0.284 C 
ATOM      9  H3  UNL d   1       1.386   4.599  -1.081  0.00  0.00     0.395 HD
ENDBRANCH   1   7
TORSDOF 1
ENDMDL
