MODEL 1
REMARK minimizedAffinity 9.59287357
REMARK minimizedRMSD -1
REMARK  1 active torsions:
REMARK  status: ('A' for Active; 'I' for Inactive)
REMARK    1  A    between atoms: N_2  and  C1_3 
ROOT
ATOM      1  C1  UNL d   1      -2.125   0.433  -3.448  0.00  0.00     0.143 A 
ATOM      2  C2  UNL d   1      -1.058  -0.461  -3.307  0.00  0.00    -0.057 A 
ATOM      3  C3  UNL d   1      -0.723  -1.000  -2.058  0.00  0.00     0.033 A 
ATOM      4  C4  UNL d   1      -1.433  -0.629  -0.921  0.00  0.00    -0.042 A 
ATOM      5  C5  UNL d   1      -2.481   0.277  -1.034  0.00  0.00     0.033 A 
ATOM      6  C6  UNL d   1      -2.815   0.806  -2.284  0.00  0.00    -0.057 A 
ENDROOT
BRANCH   1   7
ATOM      7  N   UNL d   1      -2.445   1.079  -4.645  0.00  0.00    -0.732 N 
ATOM      8  C   UNL d   1      -3.521   2.045  -4.696  0.00  0.00     0.284 C 
ATOM      9  H3  UNL d   1      -1.619   1.348  -5.174  0.00  0.00     0.395 HD
ENDBRANCH   1   7
TORSDOF 1
ENDMDL
