MODEL 1
REMARK minimizedAffinity 7.67806005
REMARK minimizedRMSD -1
REMARK  1 active torsions:
REMARK  status: ('A' for Active; 'I' for Inactive)
REMARK    1  A    between atoms: N_2  and  C1_3 
ROOT
ATOM      1  C1  UNL d   1      -5.334   3.568  -5.286  0.00  0.00     0.143 A 
ATOM      2  C2  UNL d   1      -4.868   3.567  -3.967  0.00  0.00    -0.057 A 
ATOM      3  C3  UNL d   1      -4.389   4.738  -3.366  0.00  0.00     0.033 A 
ATOM      4  C4  UNL d   1      -4.340   5.927  -4.086  0.00  0.00    -0.042 A 
ATOM      5  C5  UNL d   1      -4.775   5.945  -5.406  0.00  0.00     0.033 A 
ATOM      6  C6  UNL d   1      -5.258   4.775  -5.999  0.00  0.00    -0.057 A 
ENDROOT
BRANCH   1   7
ATOM      7  N   UNL d   1      -5.730   2.417  -5.972  0.00  0.00    -0.732 N 
ATOM      8  C   UNL d   1      -4.980   1.186  -5.840  0.00  0.00     0.284 C 
ATOM      9  H3  UNL d   1      -6.740   2.291  -5.968  0.00  0.00     0.395 HD
ENDBRANCH   1   7
TORSDOF 1
ENDMDL
