MODEL 1
REMARK minimizedAffinity 5.01703882
REMARK minimizedRMSD -1
REMARK  0 active torsions:
REMARK  status: ('A' for Active; 'I' for Inactive)
ROOT
ATOM      1  C4' PXY d   1       2.999   0.810  -1.468  0.00  0.00     0.077 C 
ATOM      2  C1' PXY d   1       6.000   2.777  -6.000  0.00  0.00     0.077 C 
ATOM      3  C1  PXY d   1       5.223   2.253  -4.808  0.00  0.00    -0.082 A 
ATOM      4  C2  PXY d   1       3.901   2.301  -4.817  0.00  0.00     0.003 A 
ATOM      5  C3  PXY d   1       3.183   1.861  -3.734  0.00  0.00     0.003 A 
ATOM      6  C4  PXY d   1       3.824   1.318  -2.653  0.00  0.00    -0.082 A 
ATOM      7  C5  PXY d   1       5.172   1.256  -2.641  0.00  0.00     0.003 A 
ATOM      8  C6  PXY d   1       5.884   1.745  -3.733  0.00  0.00     0.003 A 
ENDROOT
TORSDOF 0
ENDMDL
