MODEL 1
REMARK minimizedAffinity 8.90748501
REMARK minimizedRMSD -1
REMARK  0 active torsions:
REMARK  status: ('A' for Active; 'I' for Inactive)
ROOT
ATOM      1  C4' PXY d   1      -4.869   3.071   0.674  0.00  0.00     0.077 C 
ATOM      2  C1' PXY d   1      -4.869  -1.500   4.212  0.00  0.00     0.077 C 
ATOM      3  C1  PXY d   1      -4.856  -0.299   3.287  0.00  0.00    -0.082 A 
ATOM      4  C2  PXY d   1      -5.988   0.331   3.018  0.00  0.00     0.003 A 
ATOM      5  C3  PXY d   1      -6.000   1.399   2.158  0.00  0.00     0.003 A 
ATOM      6  C4  PXY d   1      -4.833   1.860   1.610  0.00  0.00    -0.082 A 
ATOM      7  C5  PXY d   1      -3.672   1.230   1.889  0.00  0.00     0.003 A 
ATOM      8  C6  PXY d   1      -3.688   0.122   2.732  0.00  0.00     0.003 A 
ENDROOT
TORSDOF 0
ENDMDL
