MODEL 1
REMARK minimizedAffinity 7.63602591
REMARK minimizedRMSD -1
REMARK  0 active torsions:
REMARK  status: ('A' for Active; 'I' for Inactive)
ROOT
ATOM      1  C4' PXY d   1       1.132   0.381  -4.941  0.00  0.00     0.077 C 
ATOM      2  C1' PXY d   1       2.311   0.188   0.715  0.00  0.00     0.077 C 
ATOM      3  C1  PXY d   1       2.014   0.238  -0.771  0.00  0.00    -0.082 A 
ATOM      4  C2  PXY d   1       0.903   0.816  -1.198  0.00  0.00     0.003 A 
ATOM      5  C3  PXY d   1       0.604   0.841  -2.536  0.00  0.00     0.003 A 
ATOM      6  C4  PXY d   1       1.477   0.316  -3.451  0.00  0.00    -0.082 A 
ATOM      7  C5  PXY d   1       2.618  -0.266  -3.024  0.00  0.00     0.003 A 
ATOM      8  C6  PXY d   1       2.883  -0.318  -1.659  0.00  0.00     0.003 A 
ENDROOT
TORSDOF 0
ENDMDL
