MODEL 1
REMARK minimizedAffinity 7.71026134
REMARK minimizedRMSD -1
REMARK  0 active torsions:
REMARK  status: ('A' for Active; 'I' for Inactive)
ROOT
ATOM      1  C4' PXY d   1      -5.698   5.991  -5.970  0.00  0.00     0.077 C 
ATOM      2  C1' PXY d   1      -1.383   2.145  -5.991  0.00  0.00     0.077 C 
ATOM      3  C1  PXY d   1      -2.522   3.145  -5.991  0.00  0.00    -0.082 A 
ATOM      4  C2  PXY d   1      -2.256   4.441  -5.985  0.00  0.00     0.003 A 
ATOM      5  C3  PXY d   1      -3.274   5.358  -5.952  0.00  0.00     0.003 A 
ATOM      6  C4  PXY d   1      -4.579   4.946  -5.980  0.00  0.00    -0.082 A 
ATOM      7  C5  PXY d   1      -4.860   3.626  -5.997  0.00  0.00     0.003 A 
ATOM      8  C6  PXY d   1      -3.812   2.710  -5.988  0.00  0.00     0.003 A 
ENDROOT
TORSDOF 0
ENDMDL
