MODEL 1
REMARK minimizedAffinity 18.6423435
REMARK minimizedRMSD -1
REMARK  0 active torsions:
REMARK  status: ('A' for Active; 'I' for Inactive)
ROOT
ATOM      1  C4' PXY d   1       4.675   2.993   3.686  0.00  0.00     0.077 C 
ATOM      2  C1' PXY d   1       0.838   1.676  -0.432  0.00  0.00     0.077 C 
ATOM      3  C1  PXY d   1       1.853   2.025   0.638  0.00  0.00    -0.082 A 
ATOM      4  C2  PXY d   1       1.755   1.473   1.837  0.00  0.00     0.003 A 
ATOM      5  C3  PXY d   1       2.645   1.801   2.827  0.00  0.00     0.003 A 
ATOM      6  C4  PXY d   1       3.678   2.663   2.571  0.00  0.00    -0.082 A 
ATOM      7  C5  PXY d   1       3.791   3.223   1.348  0.00  0.00     0.003 A 
ATOM      8  C6  PXY d   1       2.853   2.907   0.369  0.00  0.00     0.003 A 
ENDROOT
TORSDOF 0
ENDMDL
