MODEL 1
REMARK minimizedAffinity 7.41934013
REMARK minimizedRMSD -1
REMARK  0 active torsions:
REMARK  status: ('A' for Active; 'I' for Inactive)
ROOT
ATOM      1  C4' PXY d   1      -5.786   5.998  -5.978  0.00  0.00     0.077 C 
ATOM      2  C1' PXY d   1      -1.911   1.708  -5.999  0.00  0.00     0.077 C 
ATOM      3  C1  PXY d   1      -2.936   2.825  -5.999  0.00  0.00    -0.082 A 
ATOM      4  C2  PXY d   1      -2.531   4.085  -6.000  0.00  0.00     0.003 A 
ATOM      5  C3  PXY d   1      -3.444   5.107  -5.967  0.00  0.00     0.003 A 
ATOM      6  C4  PXY d   1      -4.786   4.838  -5.988  0.00  0.00    -0.082 A 
ATOM      7  C5  PXY d   1      -5.208   3.555  -5.998  0.00  0.00     0.003 A 
ATOM      8  C6  PXY d   1      -4.265   2.532  -5.989  0.00  0.00     0.003 A 
ENDROOT
TORSDOF 0
ENDMDL
