MODEL 1
REMARK minimizedAffinity 0.306183487
REMARK minimizedRMSD -1
REMARK  0 active torsions:
REMARK  status: ('A' for Active; 'I' for Inactive)
ROOT
ATOM      1  C4' PXY d   1       5.952  -5.926  -4.409  0.00  0.00     0.077 C 
ATOM      2  C1' PXY d   1       0.209  -6.000  -5.059  0.00  0.00     0.077 C 
ATOM      3  C1  PXY d   1       1.716  -5.986  -4.900  0.00  0.00    -0.082 A 
ATOM      4  C2  PXY d   1       2.247  -5.975  -3.688  0.00  0.00     0.003 A 
ATOM      5  C3  PXY d   1       3.607  -5.930  -3.526  0.00  0.00     0.003 A 
ATOM      6  C4  PXY d   1       4.435  -5.950  -4.617  0.00  0.00    -0.082 A 
ATOM      7  C5  PXY d   1       3.902  -5.971  -5.857  0.00  0.00     0.003 A 
ATOM      8  C6  PXY d   1       2.518  -5.975  -6.000  0.00  0.00     0.003 A 
ENDROOT
TORSDOF 0
ENDMDL
