MODEL 1
REMARK minimizedAffinity 2.08657432
REMARK minimizedRMSD -1
REMARK  0 active torsions:
REMARK  status: ('A' for Active; 'I' for Inactive)
ROOT
ATOM      1  C4' PXY d   1       3.627   4.960   4.619  0.00  0.00     0.077 C 
ATOM      2  C1' PXY d   1       2.676   4.724  -1.078  0.00  0.00     0.077 C 
ATOM      3  C1  PXY d   1       2.919   4.774   0.417  0.00  0.00    -0.082 A 
ATOM      4  C2  PXY d   1       3.148   5.938   1.003  0.00  0.00     0.003 A 
ATOM      5  C3  PXY d   1       3.401   5.999   2.350  0.00  0.00     0.003 A 
ATOM      6  C4  PXY d   1       3.367   4.862   3.113  0.00  0.00    -0.082 A 
ATOM      7  C5  PXY d   1       3.123   3.672   2.524  0.00  0.00     0.003 A 
ATOM      8  C6  PXY d   1       2.909   3.627   1.149  0.00  0.00     0.003 A 
ENDROOT
TORSDOF 0
ENDMDL
