MODEL 1
REMARK minimizedAffinity 6.62826014
REMARK minimizedRMSD -1
REMARK  0 active torsions:
REMARK  status: ('A' for Active; 'I' for Inactive)
ROOT
ATOM      1  C4' PXY d   1      -2.048   1.701  -5.921  0.00  0.00     0.077 C 
ATOM      2  C1' PXY d   1      -5.919   5.994  -5.985  0.00  0.00     0.077 C 
ATOM      3  C1  PXY d   1      -4.895   4.876  -5.974  0.00  0.00    -0.082 A 
ATOM      4  C2  PXY d   1      -5.301   3.617  -5.946  0.00  0.00     0.003 A 
ATOM      5  C3  PXY d   1      -4.388   2.594  -5.904  0.00  0.00     0.003 A 
ATOM      6  C4  PXY d   1      -3.046   2.862  -5.943  0.00  0.00    -0.082 A 
ATOM      7  C5  PXY d   1      -2.624   4.143  -5.982  0.00  0.00     0.003 A 
ATOM      8  C6  PXY d   1      -3.566   5.168  -5.983  0.00  0.00     0.003 A 
ENDROOT
TORSDOF 0
ENDMDL
