MODEL 1
REMARK minimizedAffinity 4.63175869
REMARK minimizedRMSD -1
REMARK  0 active torsions:
REMARK  status: ('A' for Active; 'I' for Inactive)
ROOT
ATOM      1  C4' PXY d   1       3.011  -2.624  -0.314  0.00  0.00     0.077 C 
ATOM      2  C1' PXY d   1       2.855   3.141   0.073  0.00  0.00     0.077 C 
ATOM      3  C1  PXY d   1       2.898   1.630  -0.041  0.00  0.00    -0.082 A 
ATOM      4  C2  PXY d   1       2.311   0.887   0.883  0.00  0.00     0.003 A 
ATOM      5  C3  PXY d   1       2.367  -0.481   0.812  0.00  0.00     0.003 A 
ATOM      6  C4  PXY d   1       2.985  -1.095  -0.244  0.00  0.00    -0.082 A 
ATOM      7  C5  PXY d   1       3.577  -0.344  -1.197  0.00  0.00     0.003 A 
ATOM      8  C6  PXY d   1       3.544   1.043  -1.085  0.00  0.00     0.003 A 
ENDROOT
TORSDOF 0
ENDMDL
