MODEL 1
REMARK minimizedAffinity 4.47991848
REMARK minimizedRMSD -1
REMARK  0 active torsions:
REMARK  status: ('A' for Active; 'I' for Inactive)
ROOT
ATOM      1  C4' PXY d   1      -2.143   4.404  -6.000  0.00  0.00     0.077 C 
ATOM      2  C1' PXY d   1       2.371   0.793  -5.977  0.00  0.00     0.077 C 
ATOM      3  C1  PXY d   1       1.194   1.749  -5.978  0.00  0.00    -0.082 A 
ATOM      4  C2  PXY d   1      -0.039   1.270  -5.967  0.00  0.00     0.003 A 
ATOM      5  C3  PXY d   1      -1.114   2.120  -6.000  0.00  0.00     0.003 A 
ATOM      6  C4  PXY d   1      -0.925   3.476  -5.990  0.00  0.00    -0.082 A 
ATOM      7  C5  PXY d   1       0.330   3.973  -5.991  0.00  0.00     0.003 A 
ATOM      8  C6  PXY d   1       1.408   3.093  -5.999  0.00  0.00     0.003 A 
ENDROOT
TORSDOF 0
ENDMDL
