MODEL 1
REMARK minimizedAffinity 11.162137
REMARK minimizedRMSD -1
REMARK  0 active torsions:
REMARK  status: ('A' for Active; 'I' for Inactive)
ROOT
ATOM      1  C4' PXY d   1       3.085   5.088  -0.504  0.00  0.00     0.077 C 
ATOM      2  C1' PXY d   1       6.000   0.695  -2.876  0.00  0.00     0.077 C 
ATOM      3  C1  PXY d   1       5.224   1.840  -2.255  0.00  0.00    -0.082 A 
ATOM      4  C2  PXY d   1       5.741   3.059  -2.261  0.00  0.00     0.003 A 
ATOM      5  C3  PXY d   1       5.067   4.100  -1.676  0.00  0.00     0.003 A 
ATOM      6  C4  PXY d   1       3.829   3.903  -1.127  0.00  0.00    -0.082 A 
ATOM      7  C5  PXY d   1       3.290   2.665  -1.127  0.00  0.00     0.003 A 
ATOM      8  C6  PXY d   1       4.008   1.613  -1.689  0.00  0.00     0.003 A 
ENDROOT
TORSDOF 0
ENDMDL
