MODEL 1
REMARK minimizedAffinity 5.01084185
REMARK minimizedRMSD -1
REMARK  0 active torsions:
REMARK  status: ('A' for Active; 'I' for Inactive)
ROOT
ATOM      1  C4' PXY d   1       2.506   1.706  -4.150  0.00  0.00     0.077 C 
ATOM      2  C1' PXY d   1       2.445   1.766   1.629  0.00  0.00     0.077 C 
ATOM      3  C1  PXY d   1       2.449   1.756   0.113  0.00  0.00    -0.082 A 
ATOM      4  C2  PXY d   1       3.226   0.902  -0.533  0.00  0.00     0.003 A 
ATOM      5  C3  PXY d   1       3.266   0.901  -1.903  0.00  0.00     0.003 A 
ATOM      6  C4  PXY d   1       2.462   1.746  -2.620  0.00  0.00    -0.082 A 
ATOM      7  C5  PXY d   1       1.658   2.612  -1.969  0.00  0.00     0.003 A 
ATOM      8  C6  PXY d   1       1.663   2.626  -0.577  0.00  0.00     0.003 A 
ENDROOT
TORSDOF 0
ENDMDL
