MODEL 1
REMARK minimizedAffinity 1.95066321
REMARK minimizedRMSD -1
REMARK  0 active torsions:
REMARK  status: ('A' for Active; 'I' for Inactive)
ROOT
ATOM      1  C4' PXY d   1       2.714   1.901   2.221  0.00  0.00     0.077 C 
ATOM      2  C1' PXY d   1       4.242   6.000   6.000  0.00  0.00     0.077 C 
ATOM      3  C1  PXY d   1       3.854   4.923   5.005  0.00  0.00    -0.082 A 
ATOM      4  C2  PXY d   1       2.632   4.911   4.498  0.00  0.00     0.003 A 
ATOM      5  C3  PXY d   1       2.254   3.926   3.622  0.00  0.00     0.003 A 
ATOM      6  C4  PXY d   1       3.153   2.974   3.221  0.00  0.00    -0.082 A 
ATOM      7  C5  PXY d   1       4.405   2.986   3.726  0.00  0.00     0.003 A 
ATOM      8  C6  PXY d   1       4.756   3.970   4.645  0.00  0.00     0.003 A 
ENDROOT
TORSDOF 0
ENDMDL
