MODEL 1
REMARK minimizedAffinity 18.0111046
REMARK minimizedRMSD -1
REMARK  0 active torsions:
REMARK  status: ('A' for Active; 'I' for Inactive)
ROOT
ATOM      1  C4' PXY d   1       3.125   1.582   2.648  0.00  0.00     0.077 C 
ATOM      2  C1' PXY d   1       6.000   5.313   5.999  0.00  0.00     0.077 C 
ATOM      3  C1  PXY d   1       5.235   4.341   5.122  0.00  0.00    -0.082 A 
ATOM      4  C2  PXY d   1       5.696   3.113   4.950  0.00  0.00     0.003 A 
ATOM      5  C3  PXY d   1       5.034   2.232   4.135  0.00  0.00     0.003 A 
ATOM      6  C4  PXY d   1       3.859   2.594   3.532  0.00  0.00    -0.082 A 
ATOM      7  C5  PXY d   1       3.376   3.842   3.712  0.00  0.00     0.003 A 
ATOM      8  C6  PXY d   1       4.085   4.734   4.510  0.00  0.00     0.003 A 
ENDROOT
TORSDOF 0
ENDMDL
