MODEL 1
REMARK minimizedAffinity 6.54947901
REMARK minimizedRMSD -1
REMARK  0 active torsions:
REMARK  status: ('A' for Active; 'I' for Inactive)
ROOT
ATOM      1  C4' PXY d   1       3.932   2.231   3.205  0.00  0.00     0.077 C 
ATOM      2  C1' PXY d   1       0.488   1.761  -1.413  0.00  0.00     0.077 C 
ATOM      3  C1  PXY d   1       1.401   1.889  -0.210  0.00  0.00    -0.082 A 
ATOM      4  C2  PXY d   1       1.173   1.152   0.865  0.00  0.00     0.003 A 
ATOM      5  C3  PXY d   1       1.969   1.278   1.974  0.00  0.00     0.003 A 
ATOM      6  C4  PXY d   1       3.042   2.128   1.964  0.00  0.00    -0.082 A 
ATOM      7  C5  PXY d   1       3.288   2.876   0.867  0.00  0.00     0.003 A 
ATOM      8  C6  PXY d   1       2.443   2.763  -0.234  0.00  0.00     0.003 A 
ENDROOT
TORSDOF 0
ENDMDL
