MODEL 1
REMARK minimizedAffinity 14.5453148
REMARK minimizedRMSD -1
REMARK  0 active torsions:
REMARK  status: ('A' for Active; 'I' for Inactive)
ROOT
ATOM      1  C4' PXY d   1       2.372   1.269   2.205  0.00  0.00     0.077 C 
ATOM      2  C1' PXY d   1       4.380   5.953   4.933  0.00  0.00     0.077 C 
ATOM      3  C1  PXY d   1       3.842   4.727   4.223  0.00  0.00    -0.082 A 
ATOM      4  C2  PXY d   1       4.666   3.744   3.898  0.00  0.00     0.003 A 
ATOM      5  C3  PXY d   1       4.202   2.643   3.226  0.00  0.00     0.003 A 
ATOM      6  C4  PXY d   1       2.870   2.521   2.932  0.00  0.00    -0.082 A 
ATOM      7  C5  PXY d   1       2.021   3.515   3.269  0.00  0.00     0.003 A 
ATOM      8  C6  PXY d   1       2.519   4.643   3.914  0.00  0.00     0.003 A 
ENDROOT
TORSDOF 0
ENDMDL
