MODEL 1
REMARK minimizedAffinity 19.3199444
REMARK minimizedRMSD -1
REMARK  0 active torsions:
REMARK  status: ('A' for Active; 'I' for Inactive)
ROOT
ATOM      1  C4' PXY d   1       3.368   0.025  -3.919  0.00  0.00     0.077 C 
ATOM      2  C1' PXY d   1      -1.241   2.826  -5.999  0.00  0.00     0.077 C 
ATOM      3  C1  PXY d   1      -0.026   2.093  -5.465  0.00  0.00    -0.082 A 
ATOM      4  C2  PXY d   1      -0.172   1.205  -4.495  0.00  0.00     0.003 A 
ATOM      5  C3  PXY d   1       0.920   0.557  -3.978  0.00  0.00     0.003 A 
ATOM      6  C4  PXY d   1       2.168   0.781  -4.496  0.00  0.00    -0.082 A 
ATOM      7  C5  PXY d   1       2.323   1.678  -5.493  0.00  0.00     0.003 A 
ATOM      8  C6  PXY d   1       1.207   2.356  -5.975  0.00  0.00     0.003 A 
ENDROOT
TORSDOF 0
ENDMDL
