MODEL 1
REMARK minimizedAffinity 16.7288017
REMARK minimizedRMSD -1
REMARK  0 active torsions:
REMARK  status: ('A' for Active; 'I' for Inactive)
ROOT
ATOM      1  C4' PXY d   1      -5.385   5.885  -5.964  0.00  0.00     0.077 C 
ATOM      2  C1' PXY d   1      -0.964   2.161  -5.998  0.00  0.00     0.077 C 
ATOM      3  C1  PXY d   1      -2.131   3.129  -5.994  0.00  0.00    -0.082 A 
ATOM      4  C2  PXY d   1      -1.901   4.432  -5.984  0.00  0.00     0.003 A 
ATOM      5  C3  PXY d   1      -2.944   5.320  -5.948  0.00  0.00     0.003 A 
ATOM      6  C4  PXY d   1      -4.237   4.872  -5.978  0.00  0.00    -0.082 A 
ATOM      7  C5  PXY d   1      -4.481   3.544  -5.999  0.00  0.00     0.003 A 
ATOM      8  C6  PXY d   1      -3.407   2.658  -5.993  0.00  0.00     0.003 A 
ENDROOT
TORSDOF 0
ENDMDL
