MODEL 1
REMARK minimizedAffinity 17.6119499
REMARK minimizedRMSD -1
REMARK  0 active torsions:
REMARK  status: ('A' for Active; 'I' for Inactive)
ROOT
ATOM      1  C4' PXY d   1      -5.387  -4.178   5.901  0.00  0.00     0.077 C 
ATOM      2  C1' PXY d   1      -3.438  -0.464   1.923  0.00  0.00     0.077 C 
ATOM      3  C1  PXY d   1      -3.960  -1.431   2.967  0.00  0.00    -0.082 A 
ATOM      4  C2  PXY d   1      -3.108  -2.164   3.665  0.00  0.00     0.003 A 
ATOM      5  C3  PXY d   1      -3.564  -3.067   4.590  0.00  0.00     0.003 A 
ATOM      6  C4  PXY d   1      -4.905  -3.182   4.843  0.00  0.00    -0.082 A 
ATOM      7  C5  PXY d   1      -5.781  -2.430   4.143  0.00  0.00     0.003 A 
ATOM      8  C6  PXY d   1      -5.299  -1.550   3.179  0.00  0.00     0.003 A 
ENDROOT
TORSDOF 0
ENDMDL
