MODEL 1
REMARK minimizedAffinity -4.07705116
REMARK minimizedRMSD -1
REMARK  1 active torsions:
REMARK  status: ('A' for Active; 'I' for Inactive)
REMARK    1  A    between atoms: C1_2  and  C2_3 
ROOT
ATOM      1  C2  UNL d   1       1.845  -0.970  -1.232  0.00  0.00    -0.081 A 
ATOM      2  C3  UNL d   1       0.729  -1.591  -0.659  0.00  0.00     0.006 A 
ATOM      3  C4  UNL d   1      -0.266  -0.830  -0.041  0.00  0.00     0.002 A 
ATOM      4  C5  UNL d   1      -0.165   0.565   0.006  0.00  0.00    -0.080 A 
ATOM      5  C6  UNL d   1      -1.241   1.396   0.640  0.00  0.00     0.076 C 
ATOM      6  C7  UNL d   1       0.958   1.184  -0.551  0.00  0.00     0.002 A 
ATOM      7  C8  UNL d   1       1.954   0.423  -1.168  0.00  0.00     0.006 A 
ENDROOT
BRANCH   1   8
ATOM      8  C1  UNL d   1       2.888  -1.784  -1.956  0.00  0.00     0.054 C 
ATOM      9  C   UNL d   1       2.253  -2.918  -2.747  0.00  0.00     0.018 C 
ENDBRANCH   1   8
TORSDOF 1
ENDMDL
