MODEL 1
REMARK minimizedAffinity -5.83621454
REMARK minimizedRMSD -1
REMARK  1 active torsions:
REMARK  status: ('A' for Active; 'I' for Inactive)
REMARK    1  A    between atoms: C1_2  and  C2_3 
ROOT
ATOM      1  C2  UNL d   1      -0.353   0.135   0.372  0.00  0.00    -0.081 A 
ATOM      2  C3  UNL d   1       0.644  -0.847   0.322  0.00  0.00     0.006 A 
ATOM      3  C4  UNL d   1       1.594  -0.839  -0.702  0.00  0.00     0.002 A 
ATOM      4  C5  UNL d   1       1.568   0.154  -1.687  0.00  0.00    -0.080 A 
ATOM      5  C6  UNL d   1       2.601   0.191  -2.775  0.00  0.00     0.076 C 
ATOM      6  C7  UNL d   1       0.562   1.124  -1.647  0.00  0.00     0.002 A 
ATOM      7  C8  UNL d   1      -0.389   1.117  -0.624  0.00  0.00     0.006 A 
ENDROOT
BRANCH   1   8
ATOM      8  C1  UNL d   1      -1.340   0.168   1.511  0.00  0.00     0.054 C 
ATOM      9  C   UNL d   1      -0.820   1.007   2.670  0.00  0.00     0.018 C 
ENDBRANCH   1   8
TORSDOF 1
ENDMDL
