MODEL 1
REMARK minimizedAffinity -4.05184507
REMARK minimizedRMSD -1
REMARK  1 active torsions:
REMARK  status: ('A' for Active; 'I' for Inactive)
REMARK    1  A    between atoms: C1_2  and  C2_3 
ROOT
ATOM      1  C2  UNL d   1      -1.110   0.419   1.579  0.00  0.00    -0.081 A 
ATOM      2  C3  UNL d   1      -1.236   0.285   0.191  0.00  0.00     0.006 A 
ATOM      3  C4  UNL d   1      -0.446  -0.633  -0.507  0.00  0.00     0.002 A 
ATOM      4  C5  UNL d   1       0.476  -1.436   0.173  0.00  0.00    -0.080 A 
ATOM      5  C6  UNL d   1       1.309  -2.446  -0.560  0.00  0.00     0.076 C 
ATOM      6  C7  UNL d   1       0.614  -1.289   1.557  0.00  0.00     0.002 A 
ATOM      7  C8  UNL d   1      -0.175  -0.372   2.255  0.00  0.00     0.006 A 
ENDROOT
BRANCH   1   8
ATOM      8  C1  UNL d   1      -2.006   1.361   2.342  0.00  0.00     0.054 C 
ATOM      9  C   UNL d   1      -2.391   0.783   3.696  0.00  0.00     0.018 C 
ENDBRANCH   1   8
TORSDOF 1
ENDMDL
