MODEL 1
REMARK minimizedAffinity -5.18524122
REMARK minimizedRMSD -1
REMARK  1 active torsions:
REMARK  status: ('A' for Active; 'I' for Inactive)
REMARK    1  A    between atoms: C1_2  and  C2_3 
ROOT
ATOM      1  C2  UNL d   1      -0.639  -0.010   0.242  0.00  0.00    -0.081 A 
ATOM      2  C3  UNL d   1      -0.045  -1.276   0.180  0.00  0.00     0.006 A 
ATOM      3  C4  UNL d   1       1.165  -1.459  -0.493  0.00  0.00     0.002 A 
ATOM      4  C5  UNL d   1       1.806  -0.378  -1.108  0.00  0.00    -0.080 A 
ATOM      5  C6  UNL d   1       3.120  -0.555  -1.808  0.00  0.00     0.076 C 
ATOM      6  C7  UNL d   1       1.204   0.884  -1.062  0.00  0.00     0.002 A 
ATOM      7  C8  UNL d   1      -0.006   1.067  -0.389  0.00  0.00     0.006 A 
ENDROOT
BRANCH   1   8
ATOM      8  C1  UNL d   1      -1.911   0.204   1.022  0.00  0.00     0.054 C 
ATOM      9  C   UNL d   1      -1.617   0.576   2.468  0.00  0.00     0.018 C 
ENDBRANCH   1   8
TORSDOF 1
ENDMDL
