MODEL 1
REMARK minimizedAffinity -1.5804925
REMARK minimizedRMSD -1
REMARK  1 active torsions:
REMARK  status: ('A' for Active; 'I' for Inactive)
REMARK    1  A    between atoms: C1_2  and  C2_3 
ROOT
ATOM      1  C2  UNL d   1      -0.749   0.651   0.463  0.00  0.00    -0.081 A 
ATOM      2  C3  UNL d   1      -0.211   1.149  -0.730  0.00  0.00     0.006 A 
ATOM      3  C4  UNL d   1       0.680   0.379  -1.481  0.00  0.00     0.002 A 
ATOM      4  C5  UNL d   1       1.042  -0.904  -1.057  0.00  0.00    -0.080 A 
ATOM      5  C6  UNL d   1       1.975  -1.753  -1.869  0.00  0.00     0.076 C 
ATOM      6  C7  UNL d   1       0.518  -1.395   0.144  0.00  0.00     0.002 A 
ATOM      7  C8  UNL d   1      -0.372  -0.625   0.896  0.00  0.00     0.006 A 
ENDROOT
BRANCH   1   8
ATOM      8  C1  UNL d   1      -1.760   1.453   1.241  0.00  0.00     0.054 C 
ATOM      9  C   UNL d   1      -2.213   0.710   2.490  0.00  0.00     0.018 C 
ENDBRANCH   1   8
TORSDOF 1
ENDMDL
