MODEL 1
REMARK minimizedAffinity -3.10235
REMARK minimizedRMSD -1
REMARK  1 active torsions:
REMARK  status: ('A' for Active; 'I' for Inactive)
REMARK    1  A    between atoms: C1_2  and  C2_3 
ROOT
ATOM      1  C2  UNL d   1      -0.794   0.242  -0.076  0.00  0.00    -0.081 A 
ATOM      2  C3  UNL d   1      -0.062   1.038  -0.965  0.00  0.00     0.006 A 
ATOM      3  C4  UNL d   1       1.075   0.531  -1.598  0.00  0.00     0.002 A 
ATOM      4  C5  UNL d   1       1.494  -0.783  -1.360  0.00  0.00    -0.080 A 
ATOM      5  C6  UNL d   1       2.695  -1.350  -2.057  0.00  0.00     0.076 C 
ATOM      6  C7  UNL d   1       0.772  -1.573  -0.459  0.00  0.00     0.002 A 
ATOM      7  C8  UNL d   1      -0.364  -1.066   0.176  0.00  0.00     0.006 A 
ENDROOT
BRANCH   1   8
ATOM      8  C1  UNL d   1      -2.057   0.765   0.560  0.00  0.00     0.054 C 
ATOM      9  C   UNL d   1      -1.860   1.030   2.046  0.00  0.00     0.018 C 
ENDBRANCH   1   8
TORSDOF 1
ENDMDL
