MODEL 1
REMARK minimizedAffinity -3.52908349
REMARK minimizedRMSD -1
REMARK  1 active torsions:
REMARK  status: ('A' for Active; 'I' for Inactive)
REMARK    1  A    between atoms: C1_2  and  C2_3 
ROOT
ATOM      1  C2  UNL d   1      -1.461   0.735   1.482  0.00  0.00    -0.081 A 
ATOM      2  C3  UNL d   1      -0.538  -0.230   1.904  0.00  0.00     0.006 A 
ATOM      3  C4  UNL d   1       0.394  -0.757   1.007  0.00  0.00     0.002 A 
ATOM      4  C5  UNL d   1       0.424  -0.323  -0.323  0.00  0.00    -0.080 A 
ATOM      5  C6  UNL d   1       1.440  -0.858  -1.288  0.00  0.00     0.076 C 
ATOM      6  C7  UNL d   1      -0.509   0.629  -0.748  0.00  0.00     0.002 A 
ATOM      7  C8  UNL d   1      -1.442   1.155   0.148  0.00  0.00     0.006 A 
ENDROOT
BRANCH   1   8
ATOM      8  C1  UNL d   1      -2.425   1.353   2.463  0.00  0.00     0.054 C 
ATOM      9  C   UNL d   1      -2.223   0.794   3.864  0.00  0.00     0.018 C 
ENDBRANCH   1   8
TORSDOF 1
ENDMDL
