MODEL 1
REMARK minimizedAffinity -3.93901873
REMARK minimizedRMSD -1
REMARK  1 active torsions:
REMARK  status: ('A' for Active; 'I' for Inactive)
REMARK    1  A    between atoms: C1_2  and  C2_3 
ROOT
ATOM      1  C2  UNL d   1      -1.366  -0.114   0.831  0.00  0.00    -0.081 A 
ATOM      2  C3  UNL d   1      -0.932  -1.440   0.953  0.00  0.00     0.006 A 
ATOM      3  C4  UNL d   1       0.138  -1.908   0.186  0.00  0.00     0.002 A 
ATOM      4  C5  UNL d   1       0.796  -1.057  -0.708  0.00  0.00    -0.080 A 
ATOM      5  C6  UNL d   1       1.966  -1.538  -1.515  0.00  0.00     0.076 C 
ATOM      6  C7  UNL d   1       0.351   0.263  -0.842  0.00  0.00     0.002 A 
ATOM      7  C8  UNL d   1      -0.719   0.731  -0.077  0.00  0.00     0.006 A 
ENDROOT
BRANCH   1   8
ATOM      8  C1  UNL d   1      -2.477   0.411   1.704  0.00  0.00     0.054 C 
ATOM      9  C   UNL d   1      -1.928   1.100   2.945  0.00  0.00     0.018 C 
ENDBRANCH   1   8
TORSDOF 1
ENDMDL
