MODEL 1
REMARK minimizedAffinity 14.7433681
REMARK minimizedRMSD -1
REMARK  3 active torsions:
REMARK  status: ('A' for Active; 'I' for Inactive)
REMARK    1  A    between atoms: C3'_2  and  C2'_3 
REMARK    2  A    between atoms: C2'_3  and  C1'_4 
REMARK    3  A    between atoms: C1'_4  and  C1_5 
ROOT
ATOM      1  C1  N4B d   1      -0.767  -2.885  -5.361  0.00  0.00    -0.075 A 
ATOM      2  C2  N4B d   1       0.331  -2.217  -5.947  0.00  0.00     0.002 A 
ATOM      3  C3  N4B d   1       0.746  -1.007  -5.447  0.00  0.00     0.002 A 
ATOM      4  C4  N4B d   1       0.069  -0.438  -4.378  0.00  0.00    -0.004 A 
ATOM      5  C5  N4B d   1      -0.975  -1.102  -3.802  0.00  0.00     0.002 A 
ATOM      6  C6  N4B d   1      -1.400  -2.320  -4.292  0.00  0.00     0.002 A 
ENDROOT
BRANCH   1   7
ATOM      7  C1' N4B d   1      -1.310  -4.168  -5.927  0.00  0.00     0.057 C 
BRANCH   7   8
ATOM      8  C2' N4B d   1      -2.527  -4.599  -5.113  0.00  0.00     0.009 C 
BRANCH   8   9
ATOM      9  C3' N4B d   1      -2.359  -5.994  -4.536  0.00  0.00     0.004 C 
ATOM     10  C4' N4B d   1      -1.966  -5.980  -3.089  0.00  0.00     0.003 C 
ENDBRANCH   8   9
ENDBRANCH   7   8
ENDBRANCH   1   7
TORSDOF 3
ENDMDL
