MODEL 1
REMARK minimizedAffinity 16.4768162
REMARK minimizedRMSD -1
REMARK  3 active torsions:
REMARK  status: ('A' for Active; 'I' for Inactive)
REMARK    1  A    between atoms: C3'_2  and  C2'_3 
REMARK    2  A    between atoms: C2'_3  and  C1'_4 
REMARK    3  A    between atoms: C1'_4  and  C1_5 
ROOT
ATOM      1  C1  N4B d   1       0.387   0.740   3.289  0.00  0.00    -0.075 A 
ATOM      2  C2  N4B d   1       0.707  -0.607   3.010  0.00  0.00     0.002 A 
ATOM      3  C3  N4B d   1      -0.050  -1.321   2.114  0.00  0.00     0.002 A 
ATOM      4  C4  N4B d   1      -1.138  -0.718   1.501  0.00  0.00    -0.004 A 
ATOM      5  C5  N4B d   1      -1.425   0.591   1.757  0.00  0.00     0.002 A 
ATOM      6  C6  N4B d   1      -0.671   1.322   2.652  0.00  0.00     0.002 A 
ENDROOT
BRANCH   1   7
ATOM      7  C1' N4B d   1       1.133   1.535   4.325  0.00  0.00     0.057 C 
BRANCH   7   8
ATOM      8  C2' N4B d   1       0.220   1.776   5.524  0.00  0.00     0.009 C 
BRANCH   8   9
ATOM      9  C3' N4B d   1       0.275   3.218   6.000  0.00  0.00     0.004 C 
ATOM     10  C4' N4B d   1       1.667   3.777   6.000  0.00  0.00     0.003 C 
ENDBRANCH   8   9
ENDBRANCH   7   8
ENDBRANCH   1   7
TORSDOF 3
ENDMDL
