MODEL 1
REMARK minimizedAffinity 10.0009212
REMARK minimizedRMSD -1
REMARK  3 active torsions:
REMARK  status: ('A' for Active; 'I' for Inactive)
REMARK    1  A    between atoms: C3'_2  and  C2'_3 
REMARK    2  A    between atoms: C2'_3  and  C1'_4 
REMARK    3  A    between atoms: C1'_4  and  C1_5 
ROOT
ATOM      1  C1  N4B d   1       0.373   0.257   3.111  0.00  0.00    -0.075 A 
ATOM      2  C2  N4B d   1      -0.486   1.325   2.769  0.00  0.00     0.002 A 
ATOM      3  C3  N4B d   1      -0.712   2.338   3.668  0.00  0.00     0.002 A 
ATOM      4  C4  N4B d   1      -0.108   2.296   4.915  0.00  0.00    -0.004 A 
ATOM      5  C5  N4B d   1       0.740   1.275   5.228  0.00  0.00     0.002 A 
ATOM      6  C6  N4B d   1       0.980   0.251   4.333  0.00  0.00     0.002 A 
ENDROOT
BRANCH   1   7
ATOM      7  C1' N4B d   1       0.584  -0.917   2.194  0.00  0.00     0.057 C 
BRANCH   7   8
ATOM      8  C2' N4B d   1      -0.295  -0.752   0.958  0.00  0.00     0.009 C 
BRANCH   8   9
ATOM      9  C3' N4B d   1       0.353  -1.343  -0.283  0.00  0.00     0.004 C 
ATOM     10  C4' N4B d   1      -0.650  -1.855  -1.273  0.00  0.00     0.003 C 
ENDBRANCH   8   9
ENDBRANCH   7   8
ENDBRANCH   1   7
TORSDOF 3
ENDMDL
