MODEL 1
REMARK minimizedAffinity 20.3583374
REMARK minimizedRMSD -1
REMARK  3 active torsions:
REMARK  status: ('A' for Active; 'I' for Inactive)
REMARK    1  A    between atoms: C3'_2  and  C2'_3 
REMARK    2  A    between atoms: C2'_3  and  C1'_4 
REMARK    3  A    between atoms: C1'_4  and  C1_5 
ROOT
ATOM      1  C1  N4B d   1       2.745   0.402   4.153  0.00  0.00    -0.075 A 
ATOM      2  C2  N4B d   1       1.887   1.093   3.269  0.00  0.00     0.002 A 
ATOM      3  C3  N4B d   1       1.027   0.392   2.459  0.00  0.00     0.002 A 
ATOM      4  C4  N4B d   1       1.022  -0.994   2.500  0.00  0.00    -0.004 A 
ATOM      5  C5  N4B d   1       1.836  -1.653   3.375  0.00  0.00     0.002 A 
ATOM      6  C6  N4B d   1       2.701  -0.962   4.198  0.00  0.00     0.002 A 
ENDROOT
BRANCH   1   7
ATOM      7  C1' N4B d   1       3.762   1.121   4.996  0.00  0.00     0.057 C 
BRANCH   7   8
ATOM      8  C2' N4B d   1       5.089   0.372   4.927  0.00  0.00     0.009 C 
BRANCH   8   9
ATOM      9  C3' N4B d   1       5.189  -0.707   5.993  0.00  0.00     0.004 C 
ATOM     10  C4' N4B d   1       5.973  -1.902   5.538  0.00  0.00     0.003 C 
ENDBRANCH   8   9
ENDBRANCH   7   8
ENDBRANCH   1   7
TORSDOF 3
ENDMDL
