MODEL 1
REMARK minimizedAffinity 2.93516397
REMARK minimizedRMSD -1
REMARK  3 active torsions:
REMARK  status: ('A' for Active; 'I' for Inactive)
REMARK    1  A    between atoms: C3'_2  and  C2'_3 
REMARK    2  A    between atoms: C2'_3  and  C1'_4 
REMARK    3  A    between atoms: C1'_4  and  C1_5 
ROOT
ATOM      1  C1  N4B d   1       1.851  -0.199   4.112  0.00  0.00    -0.075 A 
ATOM      2  C2  N4B d   1       1.301  -1.456   4.445  0.00  0.00     0.002 A 
ATOM      3  C3  N4B d   1       1.912  -2.243   5.391  0.00  0.00     0.002 A 
ATOM      4  C4  N4B d   1       3.078  -1.804   6.000  0.00  0.00    -0.004 A 
ATOM      5  C5  N4B d   1       3.588  -0.577   5.691  0.00  0.00     0.002 A 
ATOM      6  C6  N4B d   1       2.982   0.226   4.745  0.00  0.00     0.002 A 
ENDROOT
BRANCH   1   7
ATOM      7  C1' N4B d   1       1.267   0.659   3.022  0.00  0.00     0.057 C 
BRANCH   7   8
ATOM      8  C2' N4B d   1       0.161  -0.116   2.313  0.00  0.00     0.009 C 
BRANCH   8   9
ATOM      9  C3' N4B d   1      -1.219   0.406   2.672  0.00  0.00     0.004 C 
ATOM     10  C4' N4B d   1      -2.312  -0.566   2.342  0.00  0.00     0.003 C 
ENDBRANCH   8   9
ENDBRANCH   7   8
ENDBRANCH   1   7
TORSDOF 3
ENDMDL
