MODEL 1
REMARK minimizedAffinity 3.67706537
REMARK minimizedRMSD -1
REMARK  3 active torsions:
REMARK  status: ('A' for Active; 'I' for Inactive)
REMARK    1  A    between atoms: C3'_2  and  C2'_3 
REMARK    2  A    between atoms: C2'_3  and  C1'_4 
REMARK    3  A    between atoms: C1'_4  and  C1_5 
ROOT
ATOM      1  C1  N4B d   1       4.097   1.477  -5.392  0.00  0.00    -0.075 A 
ATOM      2  C2  N4B d   1       4.109   2.753  -5.996  0.00  0.00     0.002 A 
ATOM      3  C3  N4B d   1       5.063   3.674  -5.639  0.00  0.00     0.002 A 
ATOM      4  C4  N4B d   1       6.000   3.350  -4.669  0.00  0.00    -0.004 A 
ATOM      5  C5  N4B d   1       5.998   2.106  -4.108  0.00  0.00     0.002 A 
ATOM      6  C6  N4B d   1       5.047   1.169  -4.461  0.00  0.00     0.002 A 
ENDROOT
BRANCH   1   7
ATOM      7  C1' N4B d   1       3.022   0.467  -5.687  0.00  0.00     0.057 C 
BRANCH   7   8
ATOM      8  C2' N4B d   1       2.045   0.419  -4.517  0.00  0.00     0.009 C 
BRANCH   8   9
ATOM      9  C3' N4B d   1       0.758  -0.302  -4.881  0.00  0.00     0.004 C 
ATOM     10  C4' N4B d   1       0.209  -1.117  -3.748  0.00  0.00     0.003 C 
ENDBRANCH   8   9
ENDBRANCH   7   8
ENDBRANCH   1   7
TORSDOF 3
ENDMDL
