MODEL 1
REMARK minimizedAffinity 18.0592613
REMARK minimizedRMSD -1
REMARK  3 active torsions:
REMARK  status: ('A' for Active; 'I' for Inactive)
REMARK    1  A    between atoms: C3'_2  and  C2'_3 
REMARK    2  A    between atoms: C2'_3  and  C1'_4 
REMARK    3  A    between atoms: C1'_4  and  C1_5 
ROOT
ATOM      1  C1  N4B d   1      -0.366  -0.858   0.938  0.00  0.00    -0.075 A 
ATOM      2  C2  N4B d   1      -0.442   0.539   1.128  0.00  0.00     0.002 A 
ATOM      3  C3  N4B d   1       0.421   1.162   1.996  0.00  0.00     0.002 A 
ATOM      4  C4  N4B d   1       1.351   0.409   2.696  0.00  0.00    -0.004 A 
ATOM      5  C5  N4B d   1       1.435  -0.937   2.488  0.00  0.00     0.002 A 
ATOM      6  C6  N4B d   1       0.577  -1.575   1.615  0.00  0.00     0.002 A 
ENDROOT
BRANCH   1   7
ATOM      7  C1' N4B d   1      -1.345  -1.595   0.064  0.00  0.00     0.057 C 
BRANCH   7   8
ATOM      8  C2' N4B d   1      -0.616  -2.126  -1.167  0.00  0.00     0.009 C 
BRANCH   8   9
ATOM      9  C3' N4B d   1      -1.413  -1.901  -2.440  0.00  0.00     0.004 C 
ATOM     10  C4' N4B d   1      -0.835  -0.819  -3.303  0.00  0.00     0.003 C 
ENDBRANCH   8   9
ENDBRANCH   7   8
ENDBRANCH   1   7
TORSDOF 3
ENDMDL
