MODEL 1
REMARK minimizedAffinity 15.7767448
REMARK minimizedRMSD -1
REMARK  3 active torsions:
REMARK  status: ('A' for Active; 'I' for Inactive)
REMARK    1  A    between atoms: C3'_2  and  C2'_3 
REMARK    2  A    between atoms: C2'_3  and  C1'_4 
REMARK    3  A    between atoms: C1'_4  and  C1_5 
ROOT
ATOM      1  C1  N4B d   1      -0.243  -1.046  -3.580  0.00  0.00    -0.075 A 
ATOM      2  C2  N4B d   1      -1.541  -1.140  -4.128  0.00  0.00     0.002 A 
ATOM      3  C3  N4B d   1      -2.529  -1.805  -3.444  0.00  0.00     0.002 A 
ATOM      4  C4  N4B d   1      -2.238  -2.397  -2.224  0.00  0.00    -0.004 A 
ATOM      5  C5  N4B d   1      -0.989  -2.280  -1.689  0.00  0.00     0.002 A 
ATOM      6  C6  N4B d   1       0.012  -1.611  -2.364  0.00  0.00     0.002 A 
ENDROOT
BRANCH   1   7
ATOM      7  C1' N4B d   1       0.891  -0.403  -4.331  0.00  0.00     0.057 C 
BRANCH   7   8
ATOM      8  C2' N4B d   1       1.021  -1.060  -5.701  0.00  0.00     0.009 C 
BRANCH   8   9
ATOM      9  C3' N4B d   1       1.514  -2.493  -5.599  0.00  0.00     0.004 C 
ATOM     10  C4' N4B d   1       0.474  -3.496  -6.000  0.00  0.00     0.003 C 
ENDBRANCH   8   9
ENDBRANCH   7   8
ENDBRANCH   1   7
TORSDOF 3
ENDMDL
