MODEL 1
REMARK minimizedAffinity -1.82258737
REMARK minimizedRMSD -1
REMARK  0 active torsions:
REMARK  status: ('A' for Active; 'I' for Inactive)
ROOT
ATOM      1  C   UNL d   1       0.663  -1.313   2.362  0.00  0.00     0.077 C 
ATOM      2  C1  UNL d   1       0.111  -0.338   1.365  0.00  0.00    -0.074 A 
ATOM      3  C2  UNL d   1       0.299  -0.529  -0.008  0.00  0.00    -0.005 A 
ATOM      4  C3  UNL d   1      -0.229   0.381  -0.924  0.00  0.00     0.006 A 
ATOM      5  C4  UNL d   1      -0.948   1.490  -0.477  0.00  0.00    -0.005 A 
ATOM      6  C5  UNL d   1      -1.148   1.697   0.892  0.00  0.00    -0.074 A 
ATOM      7  C6  UNL d   1      -1.927   2.878   1.388  0.00  0.00     0.077 C 
ATOM      8  C7  UNL d   1      -0.620   0.774   1.805  0.00  0.00    -0.001 A 
ENDROOT
TORSDOF 0
ENDMDL
