MODEL 1
REMARK minimizedAffinity -3.52747273
REMARK minimizedRMSD -1
REMARK  0 active torsions:
REMARK  status: ('A' for Active; 'I' for Inactive)
ROOT
ATOM      1  C   UNL d   1       1.461   0.181  -1.106  0.00  0.00     0.077 C 
ATOM      2  C1  UNL d   1       0.521   0.151   0.062  0.00  0.00    -0.074 A 
ATOM      3  C2  UNL d   1       0.718  -0.742   1.120  0.00  0.00    -0.005 A 
ATOM      4  C3  UNL d   1      -0.159  -0.753   2.205  0.00  0.00     0.006 A 
ATOM      5  C4  UNL d   1      -1.241   0.129   2.242  0.00  0.00    -0.005 A 
ATOM      6  C5  UNL d   1      -1.453   1.029   1.193  0.00  0.00    -0.074 A 
ATOM      7  C6  UNL d   1      -2.605   1.990   1.222  0.00  0.00     0.077 C 
ATOM      8  C7  UNL d   1      -0.563   1.038   0.111  0.00  0.00    -0.001 A 
ENDROOT
TORSDOF 0
ENDMDL
