MODEL 1
REMARK minimizedAffinity -1.24857926
REMARK minimizedRMSD -1
REMARK  0 active torsions:
REMARK  status: ('A' for Active; 'I' for Inactive)
ROOT
ATOM      1  C   UNL d   1      -0.067   2.669  -1.600  0.00  0.00     0.077 C 
ATOM      2  C1  UNL d   1      -0.064   1.335  -0.914  0.00  0.00    -0.074 A 
ATOM      3  C2  UNL d   1      -0.747   1.146   0.292  0.00  0.00    -0.005 A 
ATOM      4  C3  UNL d   1      -0.743  -0.103   0.913  0.00  0.00     0.006 A 
ATOM      5  C4  UNL d   1      -0.058  -1.173   0.337  0.00  0.00    -0.005 A 
ATOM      6  C5  UNL d   1       0.630  -1.003  -0.869  0.00  0.00    -0.074 A 
ATOM      7  C6  UNL d   1       1.363  -2.145  -1.508  0.00  0.00     0.077 C 
ATOM      8  C7  UNL d   1       0.615   0.253  -1.491  0.00  0.00    -0.001 A 
ENDROOT
TORSDOF 0
ENDMDL
