MODEL 1
REMARK minimizedAffinity -1.43252778
REMARK minimizedRMSD -1
REMARK  0 active torsions:
REMARK  status: ('A' for Active; 'I' for Inactive)
ROOT
ATOM      1  C   UNL d   1      -0.799   2.377  -1.179  0.00  0.00     0.077 C 
ATOM      2  C1  UNL d   1      -0.404   1.111  -0.479  0.00  0.00    -0.074 A 
ATOM      3  C2  UNL d   1      -0.387   1.037   0.917  0.00  0.00    -0.005 A 
ATOM      4  C3  UNL d   1      -0.026  -0.150   1.554  0.00  0.00     0.006 A 
ATOM      5  C4  UNL d   1       0.321  -1.274   0.802  0.00  0.00    -0.005 A 
ATOM      6  C5  UNL d   1       0.310  -1.218  -0.595  0.00  0.00    -0.074 A 
ATOM      7  C6  UNL d   1       0.670  -2.419  -1.418  0.00  0.00     0.077 C 
ATOM      8  C7  UNL d   1      -0.061  -0.024  -1.228  0.00  0.00    -0.001 A 
ENDROOT
TORSDOF 0
ENDMDL
