MODEL 1
REMARK minimizedAffinity -1.37096572
REMARK minimizedRMSD -1
REMARK  0 active torsions:
REMARK  status: ('A' for Active; 'I' for Inactive)
ROOT
ATOM      1  C   UNL d   1      -0.074   0.182  -0.406  0.00  0.00     0.077 C 
ATOM      2  C1  UNL d   1       0.384  -1.157  -0.902  0.00  0.00    -0.074 A 
ATOM      3  C2  UNL d   1       1.575  -1.726  -0.438  0.00  0.00    -0.005 A 
ATOM      4  C3  UNL d   1       1.984  -2.977  -0.902  0.00  0.00     0.006 A 
ATOM      5  C4  UNL d   1       1.208  -3.670  -1.831  0.00  0.00    -0.005 A 
ATOM      6  C5  UNL d   1       0.014  -3.117  -2.306  0.00  0.00    -0.074 A 
ATOM      7  C6  UNL d   1      -0.837  -3.853  -3.298  0.00  0.00     0.077 C 
ATOM      8  C7  UNL d   1      -0.394  -1.863  -1.830  0.00  0.00    -0.001 A 
ENDROOT
TORSDOF 0
ENDMDL
