MODEL 1
REMARK minimizedAffinity -2.90014887
REMARK minimizedRMSD -1
REMARK  0 active torsions:
REMARK  status: ('A' for Active; 'I' for Inactive)
ROOT
ATOM      1  C   UNL d   1       1.357  -2.680  -1.766  0.00  0.00     0.077 C 
ATOM      2  C1  UNL d   1       1.089  -1.288  -1.275  0.00  0.00    -0.074 A 
ATOM      3  C2  UNL d   1       1.693  -0.183  -1.882  0.00  0.00    -0.005 A 
ATOM      4  C3  UNL d   1       1.427   1.106  -1.421  0.00  0.00     0.006 A 
ATOM      5  C4  UNL d   1       0.555   1.303  -0.348  0.00  0.00    -0.005 A 
ATOM      6  C5  UNL d   1      -0.058   0.210   0.271  0.00  0.00    -0.074 A 
ATOM      7  C6  UNL d   1      -1.005   0.404   1.418  0.00  0.00     0.077 C 
ATOM      8  C7  UNL d   1       0.209  -1.082  -0.203  0.00  0.00    -0.001 A 
ENDROOT
TORSDOF 0
ENDMDL
