MODEL 1
REMARK minimizedAffinity -3.02212405
REMARK minimizedRMSD -1
REMARK  0 active torsions:
REMARK  status: ('A' for Active; 'I' for Inactive)
ROOT
ATOM      1  C   UNL d   1      -1.278   0.932   2.445  0.00  0.00     0.077 C 
ATOM      2  C1  UNL d   1      -0.566   0.712   1.144  0.00  0.00    -0.074 A 
ATOM      3  C2  UNL d   1      -0.257   1.786   0.303  0.00  0.00    -0.005 A 
ATOM      4  C3  UNL d   1       0.414   1.567  -0.900  0.00  0.00     0.006 A 
ATOM      5  C4  UNL d   1       0.781   0.274  -1.274  0.00  0.00    -0.005 A 
ATOM      6  C5  UNL d   1       0.481  -0.812  -0.446  0.00  0.00    -0.074 A 
ATOM      7  C6  UNL d   1       0.877  -2.207  -0.829  0.00  0.00     0.077 C 
ATOM      8  C7  UNL d   1      -0.187  -0.583   0.764  0.00  0.00    -0.001 A 
ENDROOT
TORSDOF 0
ENDMDL
