MODEL 1
REMARK minimizedAffinity -4.2501111
REMARK minimizedRMSD -1
REMARK  0 active torsions:
REMARK  status: ('A' for Active; 'I' for Inactive)
ROOT
ATOM      1  C   UNL d   1       0.795  -2.281  -1.145  0.00  0.00     0.077 C 
ATOM      2  C1  UNL d   1       0.254  -0.922  -0.813  0.00  0.00    -0.074 A 
ATOM      3  C2  UNL d   1       0.980   0.234  -1.114  0.00  0.00    -0.005 A 
ATOM      4  C3  UNL d   1       0.460   1.491  -0.808  0.00  0.00     0.006 A 
ATOM      5  C4  UNL d   1      -0.790   1.605  -0.199  0.00  0.00    -0.005 A 
ATOM      6  C5  UNL d   1      -1.532   0.460   0.109  0.00  0.00    -0.074 A 
ATOM      7  C6  UNL d   1      -2.881   0.564   0.755  0.00  0.00     0.077 C 
ATOM      8  C7  UNL d   1      -1.005  -0.800  -0.208  0.00  0.00    -0.001 A 
ENDROOT
TORSDOF 0
ENDMDL
