MODEL 1
REMARK minimizedAffinity -5.36331844
REMARK minimizedRMSD -1
REMARK  0 active torsions:
REMARK  status: ('A' for Active; 'I' for Inactive)
ROOT
ATOM      1  C   UNL d   1      -1.301  -2.873  -2.598  0.00  0.00     0.077 C 
ATOM      2  C1  UNL d   1      -0.693  -1.865  -1.668  0.00  0.00    -0.074 A 
ATOM      3  C2  UNL d   1       0.690  -1.662  -1.633  0.00  0.00    -0.005 A 
ATOM      4  C3  UNL d   1       1.241  -0.714  -0.770  0.00  0.00     0.006 A 
ATOM      5  C4  UNL d   1       0.415   0.039   0.065  0.00  0.00    -0.005 A 
ATOM      6  C5  UNL d   1      -0.971  -0.149   0.043  0.00  0.00    -0.074 A 
ATOM      7  C6  UNL d   1      -1.874   0.659   0.927  0.00  0.00     0.077 C 
ATOM      8  C7  UNL d   1      -1.517  -1.099  -0.832  0.00  0.00    -0.001 A 
ENDROOT
TORSDOF 0
ENDMDL
