MODEL 1
REMARK minimizedAffinity -4.90063763
REMARK minimizedRMSD -1
REMARK  0 active torsions:
REMARK  status: ('A' for Active; 'I' for Inactive)
ROOT
ATOM      1  C   UNL d   1      -0.312  -1.023   0.260  0.00  0.00     0.077 C 
ATOM      2  C1  UNL d   1      -0.690   0.411   0.478  0.00  0.00    -0.074 A 
ATOM      3  C2  UNL d   1      -1.407   0.801   1.614  0.00  0.00    -0.005 A 
ATOM      4  C3  UNL d   1      -1.744   2.141   1.808  0.00  0.00     0.006 A 
ATOM      5  C4  UNL d   1      -1.368   3.103   0.869  0.00  0.00    -0.005 A 
ATOM      6  C5  UNL d   1      -0.651   2.732  -0.273  0.00  0.00    -0.074 A 
ATOM      7  C6  UNL d   1      -0.231   3.754  -1.287  0.00  0.00     0.077 C 
ATOM      8  C7  UNL d   1      -0.310   1.385  -0.457  0.00  0.00    -0.001 A 
ENDROOT
TORSDOF 0
ENDMDL
