MODEL 1
REMARK minimizedAffinity -4.81230116
REMARK minimizedRMSD -1
REMARK  0 active torsions:
REMARK  status: ('A' for Active; 'I' for Inactive)
ROOT
ATOM      1  C   UNL d   1      -0.038   3.749  -1.178  0.00  0.00     0.077 C 
ATOM      2  C1  UNL d   1      -0.480   2.710  -0.191  0.00  0.00    -0.074 A 
ATOM      3  C2  UNL d   1      -1.251   3.058   0.923  0.00  0.00    -0.005 A 
ATOM      4  C3  UNL d   1      -1.663   2.080   1.827  0.00  0.00     0.006 A 
ATOM      5  C4  UNL d   1      -1.309   0.745   1.627  0.00  0.00    -0.005 A 
ATOM      6  C5  UNL d   1      -0.539   0.377   0.519  0.00  0.00    -0.074 A 
ATOM      7  C6  UNL d   1      -0.158  -1.054   0.285  0.00  0.00     0.077 C 
ATOM      8  C7  UNL d   1      -0.135   1.365  -0.389  0.00  0.00    -0.001 A 
ENDROOT
TORSDOF 0
ENDMDL
