MODEL 1
REMARK minimizedAffinity -2.15552139
REMARK minimizedRMSD -1
REMARK  0 active torsions:
REMARK  status: ('A' for Active; 'I' for Inactive)
ROOT
ATOM      1  C   UNL d   1      -2.353   2.069   1.144  0.00  0.00     0.077 C 
ATOM      2  C1  UNL d   1      -1.315   1.150   0.572  0.00  0.00    -0.074 A 
ATOM      3  C2  UNL d   1      -1.310  -0.213   0.889  0.00  0.00    -0.005 A 
ATOM      4  C3  UNL d   1      -0.345  -1.058   0.341  0.00  0.00     0.006 A 
ATOM      5  C4  UNL d   1       0.623  -0.550  -0.526  0.00  0.00    -0.005 A 
ATOM      6  C5  UNL d   1       0.633   0.809  -0.855  0.00  0.00    -0.074 A 
ATOM      7  C6  UNL d   1       1.660   1.369  -1.793  0.00  0.00     0.077 C 
ATOM      8  C7  UNL d   1      -0.345   1.651  -0.306  0.00  0.00    -0.001 A 
ENDROOT
TORSDOF 0
ENDMDL
