MODEL 1
REMARK minimizedAffinity -4.01480913
REMARK minimizedRMSD -1
REMARK  0 active torsions:
REMARK  status: ('A' for Active; 'I' for Inactive)
ROOT
ATOM      1  C   UNL d   1       0.519  -0.609   1.919  0.00  0.00     0.077 C 
ATOM      2  C1  UNL d   1      -0.471   0.148   1.085  0.00  0.00    -0.074 A 
ATOM      3  C2  UNL d   1      -1.123  -0.466   0.010  0.00  0.00    -0.005 A 
ATOM      4  C3  UNL d   1      -2.048   0.248  -0.752  0.00  0.00     0.006 A 
ATOM      5  C4  UNL d   1      -2.331   1.580  -0.446  0.00  0.00    -0.005 A 
ATOM      6  C5  UNL d   1      -1.690   2.210   0.625  0.00  0.00    -0.074 A 
ATOM      7  C6  UNL d   1      -1.990   3.637   0.973  0.00  0.00     0.077 C 
ATOM      8  C7  UNL d   1      -0.767   1.484   1.390  0.00  0.00    -0.001 A 
ENDROOT
TORSDOF 0
ENDMDL
