MODEL 1
REMARK minimizedAffinity -5.09196663
REMARK minimizedRMSD -1
REMARK  0 active torsions:
REMARK  status: ('A' for Active; 'I' for Inactive)
ROOT
ATOM      1  C   UNL d   1      -2.410   3.077   1.071  0.00  0.00     0.077 C 
ATOM      2  C1  UNL d   1      -1.483   1.899   1.025  0.00  0.00    -0.074 A 
ATOM      3  C2  UNL d   1      -1.569   0.879   1.978  0.00  0.00    -0.005 A 
ATOM      4  C3  UNL d   1      -0.706  -0.215   1.916  0.00  0.00     0.006 A 
ATOM      5  C4  UNL d   1       0.250  -0.300   0.904  0.00  0.00    -0.005 A 
ATOM      6  C5  UNL d   1       0.351   0.710  -0.058  0.00  0.00    -0.074 A 
ATOM      7  C6  UNL d   1       1.366   0.630  -1.159  0.00  0.00     0.077 C 
ATOM      8  C7  UNL d   1      -0.525   1.803   0.006  0.00  0.00    -0.001 A 
ENDROOT
TORSDOF 0
ENDMDL
