MODEL 1
REMARK minimizedAffinity -2.74866295
REMARK minimizedRMSD -1
REMARK  0 active torsions:
REMARK  status: ('A' for Active; 'I' for Inactive)
ROOT
ATOM      1  C   UNL d   1       0.154  -3.459  -1.494  0.00  0.00     0.077 C 
ATOM      2  C1  UNL d   1       0.355  -2.025  -1.102  0.00  0.00    -0.074 A 
ATOM      3  C2  UNL d   1       1.388  -1.265  -1.659  0.00  0.00    -0.005 A 
ATOM      4  C3  UNL d   1       1.556   0.070  -1.292  0.00  0.00     0.006 A 
ATOM      5  C4  UNL d   1       0.694   0.658  -0.366  0.00  0.00    -0.005 A 
ATOM      6  C5  UNL d   1      -0.346  -0.086   0.201  0.00  0.00    -0.074 A 
ATOM      7  C6  UNL d   1      -1.287   0.534   1.190  0.00  0.00     0.077 C 
ATOM      8  C7  UNL d   1      -0.512  -1.425  -0.178  0.00  0.00    -0.001 A 
ENDROOT
TORSDOF 0
ENDMDL
