MODEL 1
REMARK minimizedAffinity -6.08345366
REMARK minimizedRMSD -1
REMARK  0 active torsions:
REMARK  status: ('A' for Active; 'I' for Inactive)
ROOT
ATOM      1  C   UNL d   1      -2.281  -1.570  -2.802  0.00  0.00     0.077 C 
ATOM      2  C1  UNL d   1      -1.192  -0.765  -2.157  0.00  0.00    -0.074 A 
ATOM      3  C2  UNL d   1      -0.289  -0.028  -2.930  0.00  0.00    -0.005 A 
ATOM      4  C3  UNL d   1       0.713   0.724  -2.315  0.00  0.00     0.006 A 
ATOM      5  C4  UNL d   1       0.821   0.745  -0.924  0.00  0.00    -0.005 A 
ATOM      6  C5  UNL d   1      -0.073   0.015  -0.135  0.00  0.00    -0.074 A 
ATOM      7  C6  UNL d   1       0.024   0.036   1.362  0.00  0.00     0.077 C 
ATOM      8  C7  UNL d   1      -1.081  -0.732  -0.760  0.00  0.00    -0.001 A 
ENDROOT
TORSDOF 0
ENDMDL
