MODEL 1
REMARK minimizedAffinity -4.20482779
REMARK minimizedRMSD -1
REMARK  0 active torsions:
REMARK  status: ('A' for Active; 'I' for Inactive)
ROOT
ATOM      1  C   UNL d   1       1.739   0.775  -1.402  0.00  0.00     0.077 C 
ATOM      2  C1  UNL d   1       0.504   0.357  -0.661  0.00  0.00    -0.074 A 
ATOM      3  C2  UNL d   1       0.071  -0.973  -0.678  0.00  0.00    -0.005 A 
ATOM      4  C3  UNL d   1      -1.074  -1.349   0.024  0.00  0.00     0.006 A 
ATOM      5  C4  UNL d   1      -1.797  -0.400   0.748  0.00  0.00    -0.005 A 
ATOM      6  C5  UNL d   1      -1.380   0.934   0.776  0.00  0.00    -0.074 A 
ATOM      7  C6  UNL d   1      -2.141   1.964   1.557  0.00  0.00     0.077 C 
ATOM      8  C7  UNL d   1      -0.224   1.303   0.074  0.00  0.00    -0.001 A 
ENDROOT
TORSDOF 0
ENDMDL
