MODEL 1
REMARK minimizedAffinity -1.41843879
REMARK minimizedRMSD -1
REMARK  0 active torsions:
REMARK  status: ('A' for Active; 'I' for Inactive)
ROOT
ATOM      1  C   UNL d   1      -0.957   1.281  -0.126  0.00  0.00     0.172 C 
ATOM      2  N   UNL d   1       0.134   0.365   0.110  0.00  0.00    -0.070 N 
ATOM      3  C1  UNL d   1       1.383   0.451  -0.446  0.00  0.00    -0.004 A 
ATOM      4  C2  UNL d   1       2.129  -0.606   0.029  0.00  0.00    -0.047 A 
ATOM      5  C3  UNL d   1       1.300  -1.354   0.899  0.00  0.00    -0.047 A 
ATOM      6  C4  UNL d   1       0.071  -0.730   0.930  0.00  0.00    -0.004 A 
ENDROOT
TORSDOF 0
ENDMDL
