MODEL 1
REMARK minimizedAffinity -2.93071818
REMARK minimizedRMSD -1
REMARK  0 active torsions:
REMARK  status: ('A' for Active; 'I' for Inactive)
ROOT
ATOM      1  C   UNL d   1      -0.567   1.130  -0.377  0.00  0.00     0.172 C 
ATOM      2  N   UNL d   1       0.407   0.135   0.006  0.00  0.00    -0.070 N 
ATOM      3  C1  UNL d   1       0.309  -0.706   1.083  0.00  0.00    -0.004 A 
ATOM      4  C2  UNL d   1       1.434  -1.500   1.102  0.00  0.00    -0.047 A 
ATOM      5  C3  UNL d   1       2.237  -1.124  -0.002  0.00  0.00    -0.047 A 
ATOM      6  C4  UNL d   1       1.577  -0.110  -0.663  0.00  0.00    -0.004 A 
ENDROOT
TORSDOF 0
ENDMDL
