MODEL 1
REMARK minimizedAffinity -2.59723568
REMARK minimizedRMSD -1
REMARK  0 active torsions:
REMARK  status: ('A' for Active; 'I' for Inactive)
ROOT
ATOM      1  C   UNL d   1      -0.781   1.292  -0.027  0.00  0.00     0.172 C 
ATOM      2  N   UNL d   1      -1.345   1.513  -1.338  0.00  0.00    -0.070 N 
ATOM      3  C1  UNL d   1      -1.309   2.692  -2.034  0.00  0.00    -0.004 A 
ATOM      4  C2  UNL d   1      -1.952   2.493  -3.236  0.00  0.00    -0.047 A 
ATOM      5  C3  UNL d   1      -2.392   1.148  -3.263  0.00  0.00    -0.047 A 
ATOM      6  C4  UNL d   1      -2.003   0.565  -2.075  0.00  0.00    -0.004 A 
ENDROOT
TORSDOF 0
ENDMDL
