MODEL 1
REMARK minimizedAffinity -2.79670763
REMARK minimizedRMSD -1
REMARK  0 active torsions:
REMARK  status: ('A' for Active; 'I' for Inactive)
ROOT
ATOM      1  C   UNL d   1      -0.071   0.225  -0.168  0.00  0.00     0.172 C 
ATOM      2  N   UNL d   1       0.311  -0.603   0.951  0.00  0.00    -0.070 N 
ATOM      3  C1  UNL d   1       1.483  -1.303   1.064  0.00  0.00    -0.004 A 
ATOM      4  C2  UNL d   1       1.466  -1.963   2.273  0.00  0.00    -0.047 A 
ATOM      5  C3  UNL d   1       0.241  -1.650   2.909  0.00  0.00    -0.047 A 
ATOM      6  C4  UNL d   1      -0.455  -0.807   2.069  0.00  0.00    -0.004 A 
ENDROOT
TORSDOF 0
ENDMDL
