MODEL 1
REMARK minimizedAffinity -1.93047452
REMARK minimizedRMSD -1
REMARK  0 active torsions:
REMARK  status: ('A' for Active; 'I' for Inactive)
ROOT
ATOM      1  C   UNL d   1      -0.868   2.006  -0.648  0.00  0.00     0.172 C 
ATOM      2  N   UNL d   1      -0.036   0.922  -0.180  0.00  0.00    -0.070 N 
ATOM      3  C1  UNL d   1      -0.443  -0.103   0.631  0.00  0.00    -0.004 A 
ATOM      4  C2  UNL d   1       0.642  -0.927   0.846  0.00  0.00    -0.047 A 
ATOM      5  C3  UNL d   1       1.738  -0.376   0.140  0.00  0.00    -0.047 A 
ATOM      6  C4  UNL d   1       1.290   0.768  -0.486  0.00  0.00    -0.004 A 
ENDROOT
TORSDOF 0
ENDMDL
