MODEL 1
REMARK minimizedAffinity -1.51777482
REMARK minimizedRMSD -1
REMARK  0 active torsions:
REMARK  status: ('A' for Active; 'I' for Inactive)
ROOT
ATOM      1  C   UNL d   1       0.232   0.330  -0.136  0.00  0.00     0.172 C 
ATOM      2  N   UNL d   1       0.558  -0.760   0.754  0.00  0.00    -0.070 N 
ATOM      3  C1  UNL d   1      -0.127  -1.094   1.891  0.00  0.00    -0.004 A 
ATOM      4  C2  UNL d   1       0.496  -2.187   2.454  0.00  0.00    -0.047 A 
ATOM      5  C3  UNL d   1       1.594  -2.521   1.627  0.00  0.00    -0.047 A 
ATOM      6  C4  UNL d   1       1.609  -1.622   0.581  0.00  0.00    -0.004 A 
ENDROOT
TORSDOF 0
ENDMDL
