MODEL 1
REMARK minimizedAffinity -2.60943961
REMARK minimizedRMSD -1
REMARK  0 active torsions:
REMARK  status: ('A' for Active; 'I' for Inactive)
ROOT
ATOM      1  C   UNL d   1      -0.794   1.028  -0.295  0.00  0.00     0.172 C 
ATOM      2  N   UNL d   1       0.209   0.143   0.250  0.00  0.00    -0.070 N 
ATOM      3  C1  UNL d   1       0.061  -0.643   1.361  0.00  0.00    -0.004 A 
ATOM      4  C2  UNL d   1       1.238  -1.335   1.548  0.00  0.00    -0.047 A 
ATOM      5  C3  UNL d   1       2.125  -0.949   0.515  0.00  0.00    -0.047 A 
ATOM      6  C4  UNL d   1       1.462  -0.034  -0.275  0.00  0.00    -0.004 A 
ENDROOT
TORSDOF 0
ENDMDL
