MODEL 1
REMARK minimizedAffinity -2.50371146
REMARK minimizedRMSD -1
REMARK  0 active torsions:
REMARK  status: ('A' for Active; 'I' for Inactive)
ROOT
ATOM      1  C   UNL d   1      -0.693   0.679  -0.701  0.00  0.00     0.172 C 
ATOM      2  N   UNL d   1       0.218  -0.179   0.020  0.00  0.00    -0.070 N 
ATOM      3  C1  UNL d   1       1.363  -0.732  -0.487  0.00  0.00    -0.004 A 
ATOM      4  C2  UNL d   1       1.948  -1.481   0.511  0.00  0.00    -0.047 A 
ATOM      5  C3  UNL d   1       1.126  -1.374   1.658  0.00  0.00    -0.047 A 
ATOM      6  C4  UNL d   1       0.062  -0.562   1.326  0.00  0.00    -0.004 A 
ENDROOT
TORSDOF 0
ENDMDL
