MODEL 1
REMARK minimizedAffinity -2.16059184
REMARK minimizedRMSD -1
REMARK  0 active torsions:
REMARK  status: ('A' for Active; 'I' for Inactive)
ROOT
ATOM      1  C   UNL d   1      -4.615   1.802  -0.933  0.00  0.00     0.172 C 
ATOM      2  N   UNL d   1      -3.276   1.861  -1.472  0.00  0.00    -0.070 N 
ATOM      3  C1  UNL d   1      -2.183   2.390  -0.839  0.00  0.00    -0.004 A 
ATOM      4  C2  UNL d   1      -1.101   2.255  -1.681  0.00  0.00    -0.047 A 
ATOM      5  C3  UNL d   1      -1.560   1.623  -2.862  0.00  0.00    -0.047 A 
ATOM      6  C4  UNL d   1      -2.910   1.391  -2.705  0.00  0.00    -0.004 A 
ENDROOT
TORSDOF 0
ENDMDL
