MODEL 1
REMARK minimizedAffinity -2.86005116
REMARK minimizedRMSD -1
REMARK  0 active torsions:
REMARK  status: ('A' for Active; 'I' for Inactive)
ROOT
ATOM      1  C   UNL d   1      -0.513   0.663  -0.410  0.00  0.00     0.172 C 
ATOM      2  N   UNL d   1       0.666  -0.157  -0.262  0.00  0.00    -0.070 N 
ATOM      3  C1  UNL d   1       1.834  -0.009  -0.962  0.00  0.00    -0.004 A 
ATOM      4  C2  UNL d   1       2.710  -0.981  -0.531  0.00  0.00    -0.047 A 
ATOM      5  C3  UNL d   1       2.045  -1.741   0.461  0.00  0.00    -0.047 A 
ATOM      6  C4  UNL d   1       0.782  -1.209   0.607  0.00  0.00    -0.004 A 
ENDROOT
TORSDOF 0
ENDMDL
