MODEL 1
REMARK minimizedAffinity -1.72665024
REMARK minimizedRMSD -1
REMARK  0 active torsions:
REMARK  status: ('A' for Active; 'I' for Inactive)
ROOT
ATOM      1  C   UNL d   1      -2.643   1.513  -2.740  0.00  0.00     0.172 C 
ATOM      2  N   UNL d   1      -1.648   1.243  -1.729  0.00  0.00    -0.070 N 
ATOM      3  C1  UNL d   1      -1.111   0.016  -1.445  0.00  0.00    -0.004 A 
ATOM      4  C2  UNL d   1      -0.202   0.180  -0.422  0.00  0.00    -0.047 A 
ATOM      5  C3  UNL d   1      -0.193   1.553  -0.079  0.00  0.00    -0.047 A 
ATOM      6  C4  UNL d   1      -1.098   2.188  -0.903  0.00  0.00    -0.004 A 
ENDROOT
TORSDOF 0
ENDMDL
