MODEL 1
REMARK minimizedAffinity -2.65456152
REMARK minimizedRMSD -1
REMARK  0 active torsions:
REMARK  status: ('A' for Active; 'I' for Inactive)
ROOT
ATOM      1  C   UNL d   1      -0.652   0.834  -0.309  0.00  0.00     0.172 C 
ATOM      2  N   UNL d   1       0.133  -0.215   0.299  0.00  0.00    -0.070 N 
ATOM      3  C1  UNL d   1      -0.256  -0.994   1.355  0.00  0.00    -0.004 A 
ATOM      4  C2  UNL d   1       0.770  -1.871   1.633  0.00  0.00    -0.047 A 
ATOM      5  C3  UNL d   1       1.813  -1.609   0.713  0.00  0.00    -0.047 A 
ATOM      6  C4  UNL d   1       1.392  -0.579  -0.102  0.00  0.00    -0.004 A 
ENDROOT
TORSDOF 0
ENDMDL
