MODEL 1
REMARK minimizedAffinity -2.98485279
REMARK minimizedRMSD -1
REMARK  0 active torsions:
REMARK  status: ('A' for Active; 'I' for Inactive)
ROOT
ATOM      1  C   UNL d   1      -2.382   1.850  -2.684  0.00  0.00     0.172 C 
ATOM      2  N   UNL d   1      -1.605   1.275  -1.611  0.00  0.00    -0.070 N 
ATOM      3  C1  UNL d   1      -1.036   1.970  -0.576  0.00  0.00    -0.004 A 
ATOM      4  C2  UNL d   1      -0.383   1.064   0.232  0.00  0.00    -0.047 A 
ATOM      5  C3  UNL d   1      -0.564  -0.218  -0.337  0.00  0.00    -0.047 A 
ATOM      6  C4  UNL d   1      -1.324  -0.059  -1.477  0.00  0.00    -0.004 A 
ENDROOT
TORSDOF 0
ENDMDL
