MODEL 1
REMARK minimizedAffinity -3.0767231
REMARK minimizedRMSD -1
REMARK  0 active torsions:
REMARK  status: ('A' for Active; 'I' for Inactive)
ROOT
ATOM      1  C   UNL d   1      -0.492   1.199  -0.334  0.00  0.00     0.172 C 
ATOM      2  N   UNL d   1       0.443   0.210   0.150  0.00  0.00    -0.070 N 
ATOM      3  C1  UNL d   1       1.769   0.135  -0.182  0.00  0.00    -0.004 A 
ATOM      4  C2  UNL d   1       2.311  -0.942   0.485  0.00  0.00    -0.047 A 
ATOM      5  C3  UNL d   1       1.275  -1.535   1.244  0.00  0.00    -0.047 A 
ATOM      6  C4  UNL d   1       0.129  -0.802   1.018  0.00  0.00    -0.004 A 
ENDROOT
TORSDOF 0
ENDMDL
