MODEL 1
REMARK minimizedAffinity -1.26604426
REMARK minimizedRMSD -1
REMARK  0 active torsions:
REMARK  status: ('A' for Active; 'I' for Inactive)
ROOT
ATOM      1  C   UNL d   1      -1.085   1.575  -0.123  0.00  0.00     0.172 C 
ATOM      2  N   UNL d   1      -1.634   1.876  -1.424  0.00  0.00    -0.070 N 
ATOM      3  C1  UNL d   1      -2.763   1.318  -1.963  0.00  0.00    -0.004 A 
ATOM      4  C2  UNL d   1      -2.950   1.867  -3.213  0.00  0.00    -0.047 A 
ATOM      5  C3  UNL d   1      -1.897   2.786  -3.434  0.00  0.00    -0.047 A 
ATOM      6  C4  UNL d   1      -1.097   2.772  -2.311  0.00  0.00    -0.004 A 
ENDROOT
TORSDOF 0
ENDMDL
