MODEL 1
REMARK minimizedAffinity -3.084342
REMARK minimizedRMSD -1
REMARK  0 active torsions:
REMARK  status: ('A' for Active; 'I' for Inactive)
ROOT
ATOM      1  C   UNL d   1      -1.173   1.769   0.096  0.00  0.00     0.172 C 
ATOM      2  N   UNL d   1      -1.570   1.921  -1.284  0.00  0.00    -0.070 N 
ATOM      3  C1  UNL d   1      -2.521   1.175  -1.928  0.00  0.00    -0.004 A 
ATOM      4  C2  UNL d   1      -2.605   1.629  -3.227  0.00  0.00    -0.047 A 
ATOM      5  C3  UNL d   1      -1.672   2.683  -3.369  0.00  0.00    -0.047 A 
ATOM      6  C4  UNL d   1      -1.045   2.843  -2.151  0.00  0.00    -0.004 A 
ENDROOT
TORSDOF 0
ENDMDL
