MODEL 1
REMARK minimizedAffinity -3.01089048
REMARK minimizedRMSD -1
REMARK  1 active torsions:
REMARK  status: ('A' for Active; 'I' for Inactive)
REMARK    1  A    between atoms: C1_2  and  C2_3 
ROOT
ATOM      1  C2  UNL d   1      -1.533  -0.776   0.161  0.00  0.00    -0.076 A 
ATOM      2  C3  UNL d   1      -2.534  -0.759   1.148  0.00  0.00     0.004 A 
ATOM      3  C4  UNL d   1      -2.460   0.117   2.230  0.00  0.00    -0.003 A 
ATOM      4  C5  UNL d   1      -1.384   0.990   2.342  0.00  0.00     0.000 A 
ATOM      5  C6  UNL d   1      -0.391   1.000   1.363  0.00  0.00     0.000 A 
ATOM      6  C7  UNL d   1      -0.458   0.135   0.257  0.00  0.00    -0.073 A 
ATOM      7  C8  UNL d   1       0.643   0.183  -0.765  0.00  0.00     0.078 C 
ENDROOT
BRANCH   1   8
ATOM      8  C1  UNL d   1      -1.653  -1.766  -0.975  0.00  0.00     0.053 C 
ATOM      9  C   UNL d   1      -2.541  -2.949  -0.626  0.00  0.00     0.018 C 
ENDBRANCH   1   8
TORSDOF 1
ENDMDL
