MODEL 1
REMARK minimizedAffinity -2.99827766
REMARK minimizedRMSD -1
REMARK  1 active torsions:
REMARK  status: ('A' for Active; 'I' for Inactive)
REMARK    1  A    between atoms: C1_2  and  C2_3 
ROOT
ATOM      1  C2  UNL d   1       0.593   0.222   0.182  0.00  0.00    -0.076 A 
ATOM      2  C3  UNL d   1       1.736   0.531   0.940  0.00  0.00     0.004 A 
ATOM      3  C4  UNL d   1       1.643   1.309   2.093  0.00  0.00    -0.003 A 
ATOM      4  C5  UNL d   1       0.406   1.790   2.507  0.00  0.00     0.000 A 
ATOM      5  C6  UNL d   1      -0.741   1.478   1.777  0.00  0.00     0.000 A 
ATOM      6  C7  UNL d   1      -0.667   0.682   0.621  0.00  0.00    -0.073 A 
ATOM      7  C8  UNL d   1      -1.935   0.383  -0.131  0.00  0.00     0.078 C 
ENDROOT
BRANCH   1   8
ATOM      8  C1  UNL d   1       0.758  -0.603  -1.075  0.00  0.00     0.053 C 
ATOM      9  C   UNL d   1       1.528   0.135  -2.159  0.00  0.00     0.018 C 
ENDBRANCH   1   8
TORSDOF 1
ENDMDL
