MODEL 1
REMARK minimizedAffinity 0.125355765
REMARK minimizedRMSD -1
REMARK  1 active torsions:
REMARK  status: ('A' for Active; 'I' for Inactive)
REMARK    1  A    between atoms: C1_2  and  C2_3 
ROOT
ATOM      1  C2  UNL d   1       0.054   0.889   1.780  0.00  0.00    -0.076 A 
ATOM      2  C3  UNL d   1       1.287   0.610   2.394  0.00  0.00     0.004 A 
ATOM      3  C4  UNL d   1       2.148  -0.353   1.870  0.00  0.00    -0.003 A 
ATOM      4  C5  UNL d   1       1.790  -1.053   0.723  0.00  0.00     0.000 A 
ATOM      5  C6  UNL d   1       0.578  -0.777   0.091  0.00  0.00     0.000 A 
ATOM      6  C7  UNL d   1      -0.294   0.202   0.597  0.00  0.00    -0.073 A 
ATOM      7  C8  UNL d   1      -1.592   0.454  -0.122  0.00  0.00     0.078 C 
ENDROOT
BRANCH   1   8
ATOM      8  C1  UNL d   1      -0.851   1.924   2.408  0.00  0.00     0.053 C 
ATOM      9  C   UNL d   1      -0.832   3.247   1.658  0.00  0.00     0.018 C 
ENDBRANCH   1   8
TORSDOF 1
ENDMDL
