MODEL 1
REMARK minimizedAffinity -5.87226915
REMARK minimizedRMSD -1
REMARK  1 active torsions:
REMARK  status: ('A' for Active; 'I' for Inactive)
REMARK    1  A    between atoms: C1_2  and  C2_3 
ROOT
ATOM      1  C2  UNL d   1      -0.394  -0.388   0.561  0.00  0.00    -0.076 A 
ATOM      2  C3  UNL d   1      -1.700   0.116   0.691  0.00  0.00     0.004 A 
ATOM      3  C4  UNL d   1      -2.094   0.799   1.840  0.00  0.00    -0.003 A 
ATOM      4  C5  UNL d   1      -1.188   0.992   2.878  0.00  0.00     0.000 A 
ATOM      5  C6  UNL d   1       0.117   0.515   2.758  0.00  0.00     0.000 A 
ATOM      6  C7  UNL d   1       0.535  -0.163   1.600  0.00  0.00    -0.073 A 
ATOM      7  C8  UNL d   1       1.952  -0.661   1.527  0.00  0.00     0.078 C 
ENDROOT
BRANCH   1   8
ATOM      8  C1  UNL d   1      -0.032  -1.145  -0.696  0.00  0.00     0.053 C 
ATOM      9  C   UNL d   1      -1.012  -2.266  -1.004  0.00  0.00     0.018 C 
ENDBRANCH   1   8
TORSDOF 1
ENDMDL
