MODEL 1
REMARK minimizedAffinity -2.11319256
REMARK minimizedRMSD -1
REMARK  1 active torsions:
REMARK  status: ('A' for Active; 'I' for Inactive)
REMARK    1  A    between atoms: C1_2  and  C2_3 
ROOT
ATOM      1  C2  UNL d   1      -1.569  -0.707   0.322  0.00  0.00    -0.076 A 
ATOM      2  C3  UNL d   1      -0.643  -1.132  -0.647  0.00  0.00     0.004 A 
ATOM      3  C4  UNL d   1       0.715  -0.845  -0.516  0.00  0.00    -0.003 A 
ATOM      4  C5  UNL d   1       1.169  -0.130   0.587  0.00  0.00     0.000 A 
ATOM      5  C6  UNL d   1       0.267   0.283   1.567  0.00  0.00     0.000 A 
ATOM      6  C7  UNL d   1      -1.103  -0.011   1.458  0.00  0.00    -0.073 A 
ATOM      7  C8  UNL d   1      -2.032   0.464   2.541  0.00  0.00     0.078 C 
ENDROOT
BRANCH   1   8
ATOM      8  C1  UNL d   1      -3.033  -1.024   0.113  0.00  0.00     0.053 C 
ATOM      9  C   UNL d   1      -3.245  -2.320  -0.654  0.00  0.00     0.018 C 
ENDBRANCH   1   8
TORSDOF 1
ENDMDL
