MODEL 1
REMARK minimizedAffinity -0.520083249
REMARK minimizedRMSD -1
REMARK  1 active torsions:
REMARK  status: ('A' for Active; 'I' for Inactive)
REMARK    1  A    between atoms: C1_2  and  C2_3 
ROOT
ATOM      1  C2  UNL d   1      -0.372  -1.513  -0.878  0.00  0.00    -0.076 A 
ATOM      2  C3  UNL d   1      -0.657  -1.413   0.495  0.00  0.00     0.004 A 
ATOM      3  C4  UNL d   1      -0.034  -0.451   1.289  0.00  0.00    -0.003 A 
ATOM      4  C5  UNL d   1       0.883   0.427   0.723  0.00  0.00     0.000 A 
ATOM      5  C6  UNL d   1       1.165   0.354  -0.641  0.00  0.00     0.000 A 
ATOM      6  C7  UNL d   1       0.534  -0.599  -1.459  0.00  0.00    -0.073 A 
ATOM      7  C8  UNL d   1       0.880  -0.637  -2.922  0.00  0.00     0.078 C 
ENDROOT
BRANCH   1   8
ATOM      8  C1  UNL d   1      -1.057  -2.593  -1.683  0.00  0.00     0.053 C 
ATOM      9  C   UNL d   1      -2.574  -2.516  -1.590  0.00  0.00     0.018 C 
ENDBRANCH   1   8
TORSDOF 1
ENDMDL
