MODEL 1
REMARK minimizedAffinity 8.98694134
REMARK minimizedRMSD -1
REMARK  0 active torsions:
REMARK  status: ('A' for Active; 'I' for Inactive)
ROOT
ATOM      1  C   UNL d   1       1.033   3.853   0.070  0.00  0.00    -0.002 A 
ATOM      2  C1  UNL d   1       1.364   3.150   1.220  0.00  0.00     0.010 A 
ATOM      3  C2  UNL d   1       1.622   1.779   1.165  0.00  0.00     0.041 A 
ATOM      4  C3  UNL d   1       1.544   1.120  -0.078  0.00  0.00    -0.075 A 
ATOM      5  S   UNL d   1       1.820  -0.553  -0.387  0.00  0.00     0.015 SA
ATOM      6  C4  UNL d   1       1.507  -0.374  -2.053  0.00  0.00     0.022 A 
ATOM      7  C5  UNL d   1       1.197   0.924  -2.382  0.00  0.00     0.026 A 
ATOM      8  C6  UNL d   1       1.214   1.807  -1.250  0.00  0.00    -0.082 A 
ATOM      9  C7  UNL d   1       0.957   3.196  -1.161  0.00  0.00     0.045 A 
ENDROOT
TORSDOF 0
ENDMDL
