MODEL 1
REMARK minimizedAffinity 9.0334444
REMARK minimizedRMSD -1
REMARK  0 active torsions:
REMARK  status: ('A' for Active; 'I' for Inactive)
ROOT
ATOM      1  C   UNL d   1       1.452  -0.141  -0.906  0.00  0.00    -0.002 A 
ATOM      2  C1  UNL d   1       1.700   0.020   0.449  0.00  0.00     0.010 A 
ATOM      3  C2  UNL d   1       1.698   1.292   1.026  0.00  0.00     0.041 A 
ATOM      4  C3  UNL d   1       1.437   2.410   0.209  0.00  0.00    -0.075 A 
ATOM      5  S   UNL d   1       1.383   4.063   0.696  0.00  0.00     0.015 SA
ATOM      6  C4  UNL d   1       1.028   4.594  -0.884  0.00  0.00     0.022 A 
ATOM      7  C5  UNL d   1       0.950   3.550  -1.774  0.00  0.00     0.026 A 
ATOM      8  C6  UNL d   1       1.184   2.273  -1.159  0.00  0.00    -0.082 A 
ATOM      9  C7  UNL d   1       1.194   0.971  -1.713  0.00  0.00     0.045 A 
ENDROOT
TORSDOF 0
ENDMDL
