MODEL 1
REMARK minimizedAffinity 2.66725445
REMARK minimizedRMSD -1
REMARK  0 active torsions:
REMARK  status: ('A' for Active; 'I' for Inactive)
ROOT
ATOM      1  C   UNL d   1       0.982   4.646  -0.437  0.00  0.00    -0.002 A 
ATOM      2  C1  UNL d   1       1.261   4.133   0.822  0.00  0.00     0.010 A 
ATOM      3  C2  UNL d   1       1.467   2.764   1.002  0.00  0.00     0.041 A 
ATOM      4  C3  UNL d   1       1.390   1.911  -0.116  0.00  0.00    -0.075 A 
ATOM      5  S   UNL d   1       1.608   0.201  -0.136  0.00  0.00     0.015 SA
ATOM      6  C4  UNL d   1       1.336   0.110  -1.816  0.00  0.00     0.022 A 
ATOM      7  C5  UNL d   1       1.084   1.345  -2.365  0.00  0.00     0.026 A 
ATOM      8  C6  UNL d   1       1.111   2.403  -1.394  0.00  0.00    -0.082 A 
ATOM      9  C7  UNL d   1       0.906   3.796  -1.543  0.00  0.00     0.045 A 
ENDROOT
TORSDOF 0
ENDMDL
