MODEL 1
REMARK minimizedAffinity 5.73999929
REMARK minimizedRMSD -1
REMARK  0 active torsions:
REMARK  status: ('A' for Active; 'I' for Inactive)
ROOT
ATOM      1  C   UNL d   1       1.501   0.365  -1.315  0.00  0.00    -0.002 A 
ATOM      2  C1  UNL d   1       1.799   0.278   0.038  0.00  0.00     0.010 A 
ATOM      3  C2  UNL d   1       1.854   1.428   0.828  0.00  0.00     0.041 A 
ATOM      4  C3  UNL d   1       1.601   2.679   0.231  0.00  0.00    -0.075 A 
ATOM      5  S   UNL d   1       1.613   4.220   1.002  0.00  0.00     0.015 SA
ATOM      6  C4  UNL d   1       1.221   5.031  -0.445  0.00  0.00     0.022 A 
ATOM      7  C5  UNL d   1       1.082   4.162  -1.501  0.00  0.00     0.026 A 
ATOM      8  C6  UNL d   1       1.298   2.792  -1.129  0.00  0.00    -0.082 A 
ATOM      9  C7  UNL d   1       1.250   1.608  -1.904  0.00  0.00     0.045 A 
ENDROOT
TORSDOF 0
ENDMDL
