MODEL 1
REMARK minimizedAffinity -1.39392197
REMARK minimizedRMSD -1
REMARK  0 active torsions:
REMARK  status: ('A' for Active; 'I' for Inactive)
ROOT
ATOM      1  C   UNL d   1       1.511   0.074  -1.084  0.00  0.00    -0.002 A 
ATOM      2  C1  UNL d   1       1.579   0.105   0.302  0.00  0.00     0.010 A 
ATOM      3  C2  UNL d   1       1.499   1.317   0.990  0.00  0.00     0.041 A 
ATOM      4  C3  UNL d   1       1.345   2.509   0.256  0.00  0.00    -0.075 A 
ATOM      5  S   UNL d   1       1.224   4.109   0.885  0.00  0.00     0.015 SA
ATOM      6  C4  UNL d   1       1.078   4.790  -0.671  0.00  0.00     0.022 A 
ATOM      7  C5  UNL d   1       1.119   3.834  -1.658  0.00  0.00     0.026 A 
ATOM      8  C6  UNL d   1       1.273   2.504  -1.140  0.00  0.00    -0.082 A 
ATOM      9  C7  UNL d   1       1.359   1.259  -1.809  0.00  0.00     0.045 A 
ENDROOT
TORSDOF 0
ENDMDL
