MODEL 1
REMARK minimizedAffinity 4.36600161
REMARK minimizedRMSD -1
REMARK  0 active torsions:
REMARK  status: ('A' for Active; 'I' for Inactive)
ROOT
ATOM      1  C   UNL d   1      -1.857   1.773   5.873  0.00  0.00    -0.002 A 
ATOM      2  C1  UNL d   1      -1.820   3.156   5.977  0.00  0.00     0.010 A 
ATOM      3  C2  UNL d   1      -2.185   3.960   4.895  0.00  0.00     0.041 A 
ATOM      4  C3  UNL d   1      -2.594   3.344   3.696  0.00  0.00    -0.075 A 
ATOM      5  S   UNL d   1      -3.087   4.127   2.241  0.00  0.00     0.015 SA
ATOM      6  C4  UNL d   1      -3.360   2.644   1.448  0.00  0.00     0.022 A 
ATOM      7  C5  UNL d   1      -3.086   1.567   2.258  0.00  0.00     0.026 A 
ATOM      8  C6  UNL d   1      -2.641   1.953   3.568  0.00  0.00    -0.082 A 
ATOM      9  C7  UNL d   1      -2.264   1.166   4.682  0.00  0.00     0.045 A 
ENDROOT
TORSDOF 0
ENDMDL
