MODEL 1
REMARK minimizedAffinity 3.23049164
REMARK minimizedRMSD -1
REMARK  0 active torsions:
REMARK  status: ('A' for Active; 'I' for Inactive)
ROOT
ATOM      1  C   UNL d   1       1.225   3.809  -2.002  0.00  0.00    -0.002 A 
ATOM      2  C1  UNL d   1       1.202   4.135  -0.653  0.00  0.00     0.010 A 
ATOM      3  C2  UNL d   1       1.110   3.135   0.318  0.00  0.00     0.041 A 
ATOM      4  C3  UNL d   1       1.043   1.789  -0.094  0.00  0.00    -0.075 A 
ATOM      5  S   UNL d   1       0.927   0.397   0.916  0.00  0.00     0.015 SA
ATOM      6  C4  UNL d   1       0.906  -0.662  -0.418  0.00  0.00     0.022 A 
ATOM      7  C5  UNL d   1       0.984   0.013  -1.614  0.00  0.00     0.026 A 
ATOM      8  C6  UNL d   1       1.065   1.437  -1.447  0.00  0.00    -0.082 A 
ATOM      9  C7  UNL d   1       1.158   2.473  -2.406  0.00  0.00     0.045 A 
ENDROOT
TORSDOF 0
ENDMDL
