MODEL 1
REMARK minimizedAffinity 1.99749291
REMARK minimizedRMSD -1
REMARK  0 active torsions:
REMARK  status: ('A' for Active; 'I' for Inactive)
ROOT
ATOM      1  C   UNL d   1       1.608   0.600   1.370  0.00  0.00    -0.002 A 
ATOM      2  C1  UNL d   1       1.565   1.883   1.897  0.00  0.00     0.010 A 
ATOM      3  C2  UNL d   1       1.367   2.986   1.065  0.00  0.00     0.041 A 
ATOM      4  C3  UNL d   1       1.209   2.776  -0.320  0.00  0.00    -0.075 A 
ATOM      5  S   UNL d   1       0.954   3.976  -1.531  0.00  0.00     0.015 SA
ATOM      6  C4  UNL d   1       0.896   2.814  -2.776  0.00  0.00     0.022 A 
ATOM      7  C5  UNL d   1       1.065   1.537  -2.297  0.00  0.00     0.026 A 
ATOM      8  C6  UNL d   1       1.248   1.494  -0.874  0.00  0.00    -0.082 A 
ATOM      9  C7  UNL d   1       1.452   0.396  -0.004  0.00  0.00     0.045 A 
ENDROOT
TORSDOF 0
ENDMDL
