MODEL 1
REMARK minimizedAffinity -1.44143665
REMARK minimizedRMSD -1
REMARK  0 active torsions:
REMARK  status: ('A' for Active; 'I' for Inactive)
ROOT
ATOM      1  C   UNL d   1       0.729   4.247  -0.621  0.00  0.00    -0.002 A 
ATOM      2  C1  UNL d   1       0.780   3.713   0.658  0.00  0.00     0.010 A 
ATOM      3  C2  UNL d   1       0.957   2.341   0.848  0.00  0.00     0.041 A 
ATOM      4  C3  UNL d   1       1.085   1.507  -0.281  0.00  0.00    -0.075 A 
ATOM      5  S   UNL d   1       1.311  -0.202  -0.291  0.00  0.00     0.015 SA
ATOM      6  C4  UNL d   1       1.345  -0.262  -1.994  0.00  0.00     0.022 A 
ATOM      7  C5  UNL d   1       1.190   0.982  -2.557  0.00  0.00     0.026 A 
ATOM      8  C6  UNL d   1       1.038   2.023  -1.579  0.00  0.00    -0.082 A 
ATOM      9  C7  UNL d   1       0.856   3.418  -1.739  0.00  0.00     0.045 A 
ENDROOT
TORSDOF 0
ENDMDL
