MODEL 1
REMARK minimizedAffinity 3.13703179
REMARK minimizedRMSD -1
REMARK  0 active torsions:
REMARK  status: ('A' for Active; 'I' for Inactive)
ROOT
ATOM      1  C   UNL d   1       0.981  -0.478   0.224  0.00  0.00    -0.002 A 
ATOM      2  C1  UNL d   1       1.019  -0.195  -1.134  0.00  0.00     0.010 A 
ATOM      3  C2  UNL d   1       1.093   1.125  -1.583  0.00  0.00     0.041 A 
ATOM      4  C3  UNL d   1       1.131   2.166  -0.635  0.00  0.00    -0.075 A 
ATOM      5  S   UNL d   1       1.223   3.858  -0.953  0.00  0.00     0.015 SA
ATOM      6  C4  UNL d   1       1.215   4.246   0.707  0.00  0.00     0.022 A 
ATOM      7  C5  UNL d   1       1.144   3.124   1.498  0.00  0.00     0.026 A 
ATOM      8  C6  UNL d   1       1.095   1.907   0.738  0.00  0.00    -0.082 A 
ATOM      9  C7  UNL d   1       1.019   0.558   1.162  0.00  0.00     0.045 A 
ENDROOT
TORSDOF 0
ENDMDL
