MODEL 1
REMARK minimizedAffinity 5.85914612
REMARK minimizedRMSD -1
REMARK  0 active torsions:
REMARK  status: ('A' for Active; 'I' for Inactive)
ROOT
ATOM      1  C   UNL d   1       1.448   0.019   0.793  0.00  0.00    -0.002 A 
ATOM      2  C1  UNL d   1       1.334  -0.654  -0.415  0.00  0.00     0.010 A 
ATOM      3  C2  UNL d   1       1.111   0.047  -1.601  0.00  0.00     0.041 A 
ATOM      4  C3  UNL d   1       1.005   1.451  -1.553  0.00  0.00    -0.075 A 
ATOM      5  S   UNL d   1       0.734   2.519  -2.879  0.00  0.00     0.015 SA
ATOM      6  C4  UNL d   1       0.763   3.895  -1.874  0.00  0.00     0.022 A 
ATOM      7  C5  UNL d   1       0.973   3.566  -0.556  0.00  0.00     0.026 A 
ATOM      8  C6  UNL d   1       1.117   2.152  -0.349  0.00  0.00    -0.082 A 
ATOM      9  C7  UNL d   1       1.342   1.412   0.836  0.00  0.00     0.045 A 
ENDROOT
TORSDOF 0
ENDMDL
