MODEL 1
REMARK minimizedAffinity 10.1983128
REMARK minimizedRMSD -1
REMARK  0 active torsions:
REMARK  status: ('A' for Active; 'I' for Inactive)
ROOT
ATOM      1  C   UNL d   1       3.221  -0.925   0.031  0.00  0.00    -0.002 A 
ATOM      2  C1  UNL d   1       3.858   0.036   0.803  0.00  0.00     0.010 A 
ATOM      3  C2  UNL d   1       3.238   1.258   1.070  0.00  0.00     0.041 A 
ATOM      4  C3  UNL d   1       1.953   1.500   0.544  0.00  0.00    -0.075 A 
ATOM      5  S   UNL d   1       1.001   2.923   0.741  0.00  0.00     0.015 SA
ATOM      6  C4  UNL d   1      -0.275   2.289  -0.195  0.00  0.00     0.022 A 
ATOM      7  C5  UNL d   1       0.003   1.024  -0.655  0.00  0.00     0.026 A 
ATOM      8  C6  UNL d   1       1.291   0.548  -0.236  0.00  0.00    -0.082 A 
ATOM      9  C7  UNL d   1       1.947  -0.681  -0.490  0.00  0.00     0.045 A 
ENDROOT
TORSDOF 0
ENDMDL
