MODEL 1
REMARK minimizedAffinity 4.78359175
REMARK minimizedRMSD -1
REMARK  0 active torsions:
REMARK  status: ('A' for Active; 'I' for Inactive)
ROOT
ATOM      1  C   UNL d   1       1.912  -0.315  -1.111  0.00  0.00    -0.002 A 
ATOM      2  C1  UNL d   1       1.994   0.424  -2.283  0.00  0.00     0.010 A 
ATOM      3  C2  UNL d   1       1.788   1.805  -2.268  0.00  0.00     0.041 A 
ATOM      4  C3  UNL d   1       1.498   2.437  -1.043  0.00  0.00    -0.075 A 
ATOM      5  S   UNL d   1       1.209   4.117  -0.783  0.00  0.00     0.015 SA
ATOM      6  C4  UNL d   1       0.971   3.894   0.890  0.00  0.00     0.022 A 
ATOM      7  C5  UNL d   1       1.105   2.576   1.258  0.00  0.00     0.026 A 
ATOM      8  C6  UNL d   1       1.411   1.715   0.150  0.00  0.00    -0.082 A 
ATOM      9  C7  UNL d   1       1.623   0.316   0.102  0.00  0.00     0.045 A 
ENDROOT
TORSDOF 0
ENDMDL
