MODEL 1
REMARK minimizedAffinity 6.72948456
REMARK minimizedRMSD -1
REMARK  0 active torsions:
REMARK  status: ('A' for Active; 'I' for Inactive)
ROOT
ATOM      1  C   UNL d   1       1.475  -0.199   0.404  0.00  0.00    -0.002 A 
ATOM      2  C1  UNL d   1       1.044  -0.814  -0.762  0.00  0.00     0.010 A 
ATOM      3  C2  UNL d   1       0.647  -0.052  -1.863  0.00  0.00     0.041 A 
ATOM      4  C3  UNL d   1       0.694   1.353  -1.771  0.00  0.00    -0.075 A 
ATOM      5  S   UNL d   1       0.257   2.489  -2.992  0.00  0.00     0.015 SA
ATOM      6  C4  UNL d   1       0.634   3.819  -1.995  0.00  0.00     0.022 A 
ATOM      7  C5  UNL d   1       1.083   3.424  -0.757  0.00  0.00     0.026 A 
ATOM      8  C6  UNL d   1       1.125   1.996  -0.608  0.00  0.00    -0.082 A 
ATOM      9  C7  UNL d   1       1.520   1.195   0.491  0.00  0.00     0.045 A 
ENDROOT
TORSDOF 0
ENDMDL
