MODEL 1
REMARK minimizedAffinity 3.04516387
REMARK minimizedRMSD -1
REMARK  1 active torsions:
REMARK  status: ('A' for Active; 'I' for Inactive)
REMARK    1  A    between atoms: C1_2  and  C2_3 
ROOT
ATOM      1  C2  UNL d   1      -1.681   2.010  -1.195  0.00  0.00    -0.077 A 
ATOM      2  C3  UNL d   1      -2.040   2.568  -2.430  0.00  0.00     0.002 A 
ATOM      3  C4  UNL d   1      -3.104   2.037  -3.162  0.00  0.00     0.002 A 
ATOM      4  C5  UNL d   1      -3.819   0.949  -2.666  0.00  0.00    -0.004 A 
ATOM      5  C6  UNL d   1      -3.468   0.385  -1.440  0.00  0.00     0.002 A 
ATOM      6  C7  UNL d   1      -2.405   0.914  -0.707  0.00  0.00     0.002 A 
ENDROOT
BRANCH   1   7
ATOM      7  C1  UNL d   1      -0.566   2.611  -0.381  0.00  0.00     0.055 C 
ATOM      8  C   UNL d   1      -1.085   3.185   0.930  0.00  0.00     0.019 C 
ENDBRANCH   1   7
TORSDOF 1
ENDMDL
