MODEL 1
REMARK minimizedAffinity -2.05391765
REMARK minimizedRMSD -1
REMARK  1 active torsions:
REMARK  status: ('A' for Active; 'I' for Inactive)
REMARK    1  A    between atoms: C1_2  and  C2_3 
ROOT
ATOM      1  C2  UNL d   1       0.125   2.723   0.459  0.00  0.00    -0.077 A 
ATOM      2  C3  UNL d   1      -0.611   1.588   0.828  0.00  0.00     0.002 A 
ATOM      3  C4  UNL d   1      -0.528   1.084   2.127  0.00  0.00     0.002 A 
ATOM      4  C5  UNL d   1       0.287   1.710   3.069  0.00  0.00    -0.004 A 
ATOM      5  C6  UNL d   1       1.024   2.838   2.711  0.00  0.00     0.002 A 
ATOM      6  C7  UNL d   1       0.943   3.343   1.412  0.00  0.00     0.002 A 
ENDROOT
BRANCH   1   7
ATOM      7  C1  UNL d   1      -0.002   3.297  -0.928  0.00  0.00     0.055 C 
ATOM      8  C   UNL d   1       0.638   4.675  -1.017  0.00  0.00     0.019 C 
ENDBRANCH   1   7
TORSDOF 1
ENDMDL
