MODEL 1
REMARK minimizedAffinity 1.58220828
REMARK minimizedRMSD -1
REMARK  1 active torsions:
REMARK  status: ('A' for Active; 'I' for Inactive)
REMARK    1  A    between atoms: C1_2  and  C2_3 
ROOT
ATOM      1  C2  UNL d   1       4.258  -2.510  -3.005  0.00  0.00    -0.077 A 
ATOM      2  C3  UNL d   1       4.285  -2.059  -4.332  0.00  0.00     0.002 A 
ATOM      3  C4  UNL d   1       5.154  -2.640  -5.258  0.00  0.00     0.002 A 
ATOM      4  C5  UNL d   1       6.000  -3.676  -4.867  0.00  0.00    -0.004 A 
ATOM      5  C6  UNL d   1       5.982  -4.129  -3.548  0.00  0.00     0.002 A 
ATOM      6  C7  UNL d   1       5.115  -3.549  -2.622  0.00  0.00     0.002 A 
ENDROOT
BRANCH   1   7
ATOM      7  C1  UNL d   1       3.286  -1.918  -2.018  0.00  0.00     0.055 C 
ATOM      8  C   UNL d   1       2.616  -3.001  -1.184  0.00  0.00     0.019 C 
ENDBRANCH   1   7
TORSDOF 1
ENDMDL
