MODEL 1
REMARK minimizedAffinity -4.39266634
REMARK minimizedRMSD -1
REMARK  1 active torsions:
REMARK  status: ('A' for Active; 'I' for Inactive)
REMARK    1  A    between atoms: C1_2  and  C2_3 
ROOT
ATOM      1  C2  UNL d   1      -0.001   2.910   0.396  0.00  0.00    -0.077 A 
ATOM      2  C3  UNL d   1      -0.210   2.465   1.709  0.00  0.00     0.002 A 
ATOM      3  C4  UNL d   1      -0.105   1.108   2.019  0.00  0.00     0.002 A 
ATOM      4  C5  UNL d   1       0.214   0.186   1.024  0.00  0.00    -0.004 A 
ATOM      5  C6  UNL d   1       0.422   0.619  -0.285  0.00  0.00     0.002 A 
ATOM      6  C7  UNL d   1       0.316   1.975  -0.598  0.00  0.00     0.002 A 
ENDROOT
BRANCH   1   7
ATOM      7  C1  UNL d   1      -0.065   4.379   0.069  0.00  0.00     0.055 C 
ATOM      8  C   UNL d   1       0.634   4.685  -1.248  0.00  0.00     0.019 C 
ENDBRANCH   1   7
TORSDOF 1
ENDMDL
