MODEL 1
REMARK minimizedAffinity 13.2662802
REMARK minimizedRMSD -1
REMARK  1 active torsions:
REMARK  status: ('A' for Active; 'I' for Inactive)
REMARK    1  A    between atoms: C1_2  and  C2_3 
ROOT
ATOM      1  C2  UNL d   1      -1.983   2.338  -0.518  0.00  0.00    -0.077 A 
ATOM      2  C3  UNL d   1      -2.378   3.282  -1.476  0.00  0.00     0.002 A 
ATOM      3  C4  UNL d   1      -3.577   3.122  -2.174  0.00  0.00     0.002 A 
ATOM      4  C5  UNL d   1      -4.392   2.022  -1.917  0.00  0.00    -0.004 A 
ATOM      5  C6  UNL d   1      -4.007   1.076  -0.967  0.00  0.00     0.002 A 
ATOM      6  C7  UNL d   1      -2.809   1.234  -0.271  0.00  0.00     0.002 A 
ENDROOT
BRANCH   1   7
ATOM      7  C1  UNL d   1      -0.715   2.535   0.270  0.00  0.00     0.055 C 
ATOM      8  C   UNL d   1       0.418   3.029  -0.619  0.00  0.00     0.019 C 
ENDBRANCH   1   7
TORSDOF 1
ENDMDL
