MODEL 1
REMARK minimizedAffinity 9.01489067
REMARK minimizedRMSD -1
REMARK  1 active torsions:
REMARK  status: ('A' for Active; 'I' for Inactive)
REMARK    1  A    between atoms: C1_2  and  C2_3 
ROOT
ATOM      1  C2  UNL d   1      -1.380   3.997  -1.209  0.00  0.00    -0.077 A 
ATOM      2  C3  UNL d   1      -0.156   4.414  -1.749  0.00  0.00     0.002 A 
ATOM      3  C4  UNL d   1       1.046   3.918  -1.240  0.00  0.00     0.002 A 
ATOM      4  C5  UNL d   1       1.035   2.999  -0.193  0.00  0.00    -0.004 A 
ATOM      5  C6  UNL d   1      -0.178   2.579   0.352  0.00  0.00     0.002 A 
ATOM      6  C7  UNL d   1      -1.380   3.075  -0.155  0.00  0.00     0.002 A 
ENDROOT
BRANCH   1   7
ATOM      7  C1  UNL d   1      -2.679   4.493  -1.789  0.00  0.00     0.055 C 
ATOM      8  C   UNL d   1      -3.534   3.342  -2.299  0.00  0.00     0.019 C 
ENDBRANCH   1   7
TORSDOF 1
ENDMDL
