MODEL 1
REMARK minimizedAffinity 8.2557745
REMARK minimizedRMSD -1
REMARK  1 active torsions:
REMARK  status: ('A' for Active; 'I' for Inactive)
REMARK    1  A    between atoms: C1_2  and  C2_3 
ROOT
ATOM      1  C2  UNL d   1       0.908   3.479   1.803  0.00  0.00    -0.077 A 
ATOM      2  C3  UNL d   1      -0.171   4.077   1.136  0.00  0.00     0.002 A 
ATOM      3  C4  UNL d   1      -1.483   3.759   1.491  0.00  0.00     0.002 A 
ATOM      4  C5  UNL d   1      -1.729   2.847   2.514  0.00  0.00    -0.004 A 
ATOM      5  C6  UNL d   1      -0.663   2.245   3.181  0.00  0.00     0.002 A 
ATOM      6  C7  UNL d   1       0.650   2.560   2.828  0.00  0.00     0.002 A 
ENDROOT
BRANCH   1   7
ATOM      7  C1  UNL d   1       2.325   3.857   1.455  0.00  0.00     0.055 C 
ATOM      8  C   UNL d   1       2.374   4.743   0.219  0.00  0.00     0.019 C 
ENDBRANCH   1   7
TORSDOF 1
ENDMDL
