MODEL 1
REMARK minimizedAffinity -2.32573962
REMARK minimizedRMSD -1
REMARK  0 active torsions:
REMARK  status: ('A' for Active; 'I' for Inactive)
ROOT
ATOM      1  N1  IND d   1       1.162   0.568  -0.503  0.00  0.00    -0.196 N 
ATOM      2  C2  IND d   1      -0.175   0.334  -0.340  0.00  0.00     0.054 A 
ATOM      3  C3  IND d   1      -0.723   1.275   0.461  0.00  0.00    -0.031 A 
ATOM      4  C4  IND d   1       0.366   3.346   1.533  0.00  0.00     0.051 A 
ATOM      5  C5  IND d   1       1.575   3.963   1.700  0.00  0.00    -0.031 A 
ATOM      6  C6  IND d   1       2.730   3.471   1.128  0.00  0.00     0.015 A 
ATOM      7  C7  IND d   1       2.718   2.345   0.354  0.00  0.00    -0.016 A 
ATOM      8  C8  IND d   1       1.494   1.713   0.187  0.00  0.00    -0.047 A 
ATOM      9  C9  IND d   1       0.326   2.183   0.801  0.00  0.00    -0.096 A 
ATOM     10  HN1 IND d   1       1.704   0.082  -0.961  0.00  0.00     0.298 HD
ENDROOT
TORSDOF 0
ENDMDL
