MODEL 1
REMARK minimizedAffinity -2.3462646
REMARK minimizedRMSD -1
REMARK  0 active torsions:
REMARK  status: ('A' for Active; 'I' for Inactive)
ROOT
ATOM      1  N1  IND d   1      -0.898  -2.313   0.173  0.00  0.00    -0.196 N 
ATOM      2  C2  IND d   1      -0.997  -1.958   1.489  0.00  0.00     0.054 A 
ATOM      3  C3  IND d   1      -0.534  -0.701   1.673  0.00  0.00    -0.031 A 
ATOM      4  C4  IND d   1       0.337   0.991  -0.061  0.00  0.00     0.051 A 
ATOM      5  C5  IND d   1       0.649   1.111  -1.386  0.00  0.00    -0.031 A 
ATOM      6  C6  IND d   1       0.455   0.076  -2.278  0.00  0.00     0.015 A 
ATOM      7  C7  IND d   1      -0.071  -1.119  -1.878  0.00  0.00    -0.016 A 
ATOM      8  C8  IND d   1      -0.383  -1.247  -0.532  0.00  0.00    -0.047 A 
ATOM      9  C9  IND d   1      -0.148  -0.215   0.386  0.00  0.00    -0.096 A 
ATOM     10  HN1 IND d   1      -1.121  -3.075  -0.160  0.00  0.00     0.298 HD
ENDROOT
TORSDOF 0
ENDMDL
