MODEL 1
REMARK minimizedAffinity 2.12278748
REMARK minimizedRMSD -1
REMARK  0 active torsions:
REMARK  status: ('A' for Active; 'I' for Inactive)
ROOT
ATOM      1  N1  IND d   1      -0.126  -1.373  -2.167  0.00  0.00    -0.196 N 
ATOM      2  C2  IND d   1       0.252  -0.128  -2.585  0.00  0.00     0.054 A 
ATOM      3  C3  IND d   1      -0.014   0.791  -1.630  0.00  0.00    -0.031 A 
ATOM      4  C4  IND d   1      -0.973   0.459   0.736  0.00  0.00     0.051 A 
ATOM      5  C5  IND d   1      -1.503  -0.495   1.559  0.00  0.00    -0.031 A 
ATOM      6  C6  IND d   1      -1.601  -1.817   1.176  0.00  0.00     0.015 A 
ATOM      7  C7  IND d   1      -1.159  -2.238  -0.046  0.00  0.00    -0.016 A 
ATOM      8  C8  IND d   1      -0.627  -1.272  -0.888  0.00  0.00    -0.047 A 
ATOM      9  C9  IND d   1      -0.564   0.079  -0.520  0.00  0.00    -0.096 A 
ATOM     10  HN1 IND d   1      -0.061  -2.097  -2.625  0.00  0.00     0.298 HD
ENDROOT
TORSDOF 0
ENDMDL
