MODEL 1
REMARK minimizedAffinity -0.172701597
REMARK minimizedRMSD -1
REMARK  0 active torsions:
REMARK  status: ('A' for Active; 'I' for Inactive)
ROOT
ATOM      1  N1  IND d   1      -0.086  -1.214  -2.365  0.00  0.00    -0.196 N 
ATOM      2  C2  IND d   1       0.922  -0.455  -2.893  0.00  0.00     0.054 A 
ATOM      3  C3  IND d   1       1.495   0.301  -1.930  0.00  0.00    -0.031 A 
ATOM      4  C4  IND d   1       1.006   0.378   0.597  0.00  0.00     0.051 A 
ATOM      5  C5  IND d   1       0.150  -0.108   1.544  0.00  0.00    -0.031 A 
ATOM      6  C6  IND d   1      -0.848  -1.009   1.230  0.00  0.00     0.015 A 
ATOM      7  C7  IND d   1      -1.019  -1.467  -0.046  0.00  0.00    -0.016 A 
ATOM      8  C8  IND d   1      -0.155  -0.969  -1.011  0.00  0.00    -0.047 A 
ATOM      9  C9  IND d   1       0.832  -0.023  -0.707  0.00  0.00    -0.096 A 
ATOM     10  HN1 IND d   1      -0.591  -1.753  -2.805  0.00  0.00     0.298 HD
ENDROOT
TORSDOF 0
ENDMDL
