MODEL 1
REMARK minimizedAffinity 0.100206785
REMARK minimizedRMSD -1
REMARK  0 active torsions:
REMARK  status: ('A' for Active; 'I' for Inactive)
ROOT
ATOM      1  N1  IND d   1       2.145   2.303   0.209  0.00  0.00    -0.196 N 
ATOM      2  C2  IND d   1       1.611   3.555   0.343  0.00  0.00     0.054 A 
ATOM      3  C3  IND d   1       0.280   3.477   0.570  0.00  0.00    -0.031 A 
ATOM      4  C4  IND d   1      -1.210   1.398   0.862  0.00  0.00     0.051 A 
ATOM      5  C5  IND d   1      -1.182   0.034   0.789  0.00  0.00    -0.031 A 
ATOM      6  C6  IND d   1      -0.020  -0.658   0.516  0.00  0.00     0.015 A 
ATOM      7  C7  IND d   1       1.166  -0.009   0.316  0.00  0.00    -0.016 A 
ATOM      8  C8  IND d   1       1.139   1.377   0.383  0.00  0.00    -0.047 A 
ATOM      9  C9  IND d   1      -0.045   2.087   0.617  0.00  0.00    -0.096 A 
ATOM     10  HN1 IND d   1       2.969   2.125   0.044  0.00  0.00     0.298 HD
ENDROOT
TORSDOF 0
ENDMDL
