MODEL 1
REMARK minimizedAffinity -1.87112582
REMARK minimizedRMSD -1
REMARK  0 active torsions:
REMARK  status: ('A' for Active; 'I' for Inactive)
ROOT
ATOM      1  N1  IND d   1      -0.296  -0.233  -1.663  0.00  0.00    -0.196 N 
ATOM      2  C2  IND d   1       0.086   1.066  -1.478  0.00  0.00     0.054 A 
ATOM      3  C3  IND d   1      -0.014   1.405  -0.173  0.00  0.00    -0.031 A 
ATOM      4  C4  IND d   1      -0.684  -0.044   1.846  0.00  0.00     0.051 A 
ATOM      5  C5  IND d   1      -1.152  -1.286   2.172  0.00  0.00    -0.031 A 
ATOM      6  C6  IND d   1      -1.361  -2.261   1.218  0.00  0.00     0.015 A 
ATOM      7  C7  IND d   1      -1.096  -2.033  -0.103  0.00  0.00    -0.016 A 
ATOM      8  C8  IND d   1      -0.627  -0.771  -0.439  0.00  0.00    -0.047 A 
ATOM      9  C9  IND d   1      -0.454   0.236   0.520  0.00  0.00    -0.096 A 
ATOM     10  HN1 IND d   1      -0.324  -0.645  -2.417  0.00  0.00     0.298 HD
ENDROOT
TORSDOF 0
ENDMDL
