MODEL 1
REMARK minimizedAffinity -5.04463482
REMARK minimizedRMSD -1
REMARK  0 active torsions:
REMARK  status: ('A' for Active; 'I' for Inactive)
ROOT
ATOM      1  N1  IND d   1      -0.049  -1.677  -2.898  0.00  0.00    -0.196 N 
ATOM      2  C2  IND d   1      -0.143  -3.040  -2.930  0.00  0.00     0.054 A 
ATOM      3  C3  IND d   1      -0.466  -3.519  -1.708  0.00  0.00    -0.031 A 
ATOM      4  C4  IND d   1      -0.985  -2.239   0.465  0.00  0.00     0.051 A 
ATOM      5  C5  IND d   1      -0.993  -0.981   0.998  0.00  0.00    -0.031 A 
ATOM      6  C6  IND d   1      -0.683   0.133   0.244  0.00  0.00     0.015 A 
ATOM      7  C7  IND d   1      -0.363   0.030  -1.080  0.00  0.00    -0.016 A 
ATOM      8  C8  IND d   1      -0.347  -1.247  -1.623  0.00  0.00    -0.047 A 
ATOM      9  C9  IND d   1      -0.619  -2.385  -0.853  0.00  0.00    -0.096 A 
ATOM     10  HN1 IND d   1       0.162  -1.172  -3.561  0.00  0.00     0.298 HD
ENDROOT
TORSDOF 0
ENDMDL
