MODEL 1
REMARK minimizedAffinity 6.398561
REMARK minimizedRMSD -1
REMARK  0 active torsions:
REMARK  status: ('A' for Active; 'I' for Inactive)
ROOT
ATOM      1  N1  IND d   1      -0.752   0.235  -1.233  0.00  0.00    -0.196 N 
ATOM      2  C2  IND d   1       0.563  -0.065  -1.455  0.00  0.00     0.054 A 
ATOM      3  C3  IND d   1       1.169  -0.409  -0.297  0.00  0.00    -0.031 A 
ATOM      4  C4  IND d   1       0.170  -0.647   2.064  0.00  0.00     0.051 A 
ATOM      5  C5  IND d   1      -0.982  -0.445   2.772  0.00  0.00    -0.031 A 
ATOM      6  C6  IND d   1      -2.140   0.000   2.168  0.00  0.00     0.015 A 
ATOM      7  C7  IND d   1      -2.193   0.250   0.826  0.00  0.00    -0.016 A 
ATOM      8  C8  IND d   1      -1.023   0.053   0.106  0.00  0.00    -0.047 A 
ATOM      9  C9  IND d   1       0.167  -0.358   0.720  0.00  0.00    -0.096 A 
ATOM     10  HN1 IND d   1      -1.315   0.494  -1.829  0.00  0.00     0.298 HD
ENDROOT
TORSDOF 0
ENDMDL
