MODEL 1
REMARK minimizedAffinity -4.48340416
REMARK minimizedRMSD -1
REMARK  0 active torsions:
REMARK  status: ('A' for Active; 'I' for Inactive)
ROOT
ATOM      1  N1  IND d   1       0.371   0.952  -1.332  0.00  0.00    -0.196 N 
ATOM      2  C2  IND d   1       0.158   1.601  -0.148  0.00  0.00     0.054 A 
ATOM      3  C3  IND d   1      -0.400   0.763   0.754  0.00  0.00    -0.031 A 
ATOM      4  C4  IND d   1      -0.957  -1.741   0.535  0.00  0.00     0.051 A 
ATOM      5  C5  IND d   1      -0.976  -2.765  -0.369  0.00  0.00    -0.031 A 
ATOM      6  C6  IND d   1      -0.536  -2.600  -1.667  0.00  0.00     0.015 A 
ATOM      7  C7  IND d   1      -0.047  -1.402  -2.106  0.00  0.00    -0.016 A 
ATOM      8  C8  IND d   1      -0.033  -0.358  -1.192  0.00  0.00    -0.047 A 
ATOM      9  C9  IND d   1      -0.518  -0.508   0.113  0.00  0.00    -0.096 A 
ATOM     10  HN1 IND d   1       0.701   1.302  -2.044  0.00  0.00     0.298 HD
ENDROOT
TORSDOF 0
ENDMDL
