MODEL 1
REMARK minimizedAffinity -0.916388273
REMARK minimizedRMSD -1
REMARK  0 active torsions:
REMARK  status: ('A' for Active; 'I' for Inactive)
ROOT
ATOM      1  N1  IND d   1       0.605   0.175  -0.374  0.00  0.00    -0.196 N 
ATOM      2  C2  IND d   1      -0.611  -0.051   0.209  0.00  0.00     0.054 A 
ATOM      3  C3  IND d   1      -0.925   0.960   1.050  0.00  0.00    -0.031 A 
ATOM      4  C4  IND d   1       0.362   3.134   1.546  0.00  0.00     0.051 A 
ATOM      5  C5  IND d   1       1.541   3.773   1.281  0.00  0.00    -0.031 A 
ATOM      6  C6  IND d   1       2.486   3.235   0.431  0.00  0.00     0.015 A 
ATOM      7  C7  IND d   1       2.282   2.039  -0.196  0.00  0.00    -0.016 A 
ATOM      8  C8  IND d   1       1.089   1.384   0.076  0.00  0.00    -0.047 A 
ATOM      9  C9  IND d   1       0.144   1.905   0.970  0.00  0.00    -0.096 A 
ATOM     10  HN1 IND d   1       1.001  -0.349  -0.928  0.00  0.00     0.298 HD
ENDROOT
TORSDOF 0
ENDMDL
