MODEL 1
REMARK minimizedAffinity -2.26781034
REMARK minimizedRMSD -1
REMARK  0 active torsions:
REMARK  status: ('A' for Active; 'I' for Inactive)
ROOT
ATOM      1  N1  IND d   1       1.154   0.153  -0.454  0.00  0.00    -0.196 N 
ATOM      2  C2  IND d   1      -0.096  -0.260  -0.084  0.00  0.00     0.054 A 
ATOM      3  C3  IND d   1      -0.805   0.777   0.414  0.00  0.00    -0.031 A 
ATOM      4  C4  IND d   1      -0.150   3.258   0.620  0.00  0.00     0.051 A 
ATOM      5  C5  IND d   1       0.902   4.112   0.447  0.00  0.00    -0.031 A 
ATOM      6  C6  IND d   1       2.116   3.682  -0.048  0.00  0.00     0.015 A 
ATOM      7  C7  IND d   1       2.320   2.378  -0.401  0.00  0.00    -0.016 A 
ATOM      8  C8  IND d   1       1.256   1.506  -0.220  0.00  0.00    -0.047 A 
ATOM      9  C9  IND d   1       0.035   1.929   0.322  0.00  0.00    -0.096 A 
ATOM     10  HN1 IND d   1       1.772  -0.349  -0.779  0.00  0.00     0.298 HD
ENDROOT
TORSDOF 0
ENDMDL
