MODEL 1
REMARK minimizedAffinity -0.437904924
REMARK minimizedRMSD -1
REMARK  0 active torsions:
REMARK  status: ('A' for Active; 'I' for Inactive)
ROOT
ATOM      1  N1  IND d   1      -1.921  -0.289   0.006  0.00  0.00    -0.196 N 
ATOM      2  C2  IND d   1      -1.787   0.075   1.317  0.00  0.00     0.054 A 
ATOM      3  C3  IND d   1      -0.542   0.548   1.550  0.00  0.00    -0.031 A 
ATOM      4  C4  IND d   1       1.404   0.910  -0.096  0.00  0.00     0.051 A 
ATOM      5  C5  IND d   1       1.771   0.694  -1.395  0.00  0.00    -0.031 A 
ATOM      6  C6  IND d   1       0.907   0.130  -2.312  0.00  0.00     0.015 A 
ATOM      7  C7  IND d   1      -0.364  -0.230  -1.966  0.00  0.00    -0.016 A 
ATOM      8  C8  IND d   1      -0.738  -0.018  -0.646  0.00  0.00    -0.047 A 
ATOM      9  C9  IND d   1       0.148   0.515   0.299  0.00  0.00    -0.096 A 
ATOM     10  HN1 IND d   1      -2.625  -0.629  -0.351  0.00  0.00     0.298 HD
ENDROOT
TORSDOF 0
ENDMDL
