MODEL 1
REMARK minimizedAffinity -4.57815218
REMARK minimizedRMSD -1
REMARK  0 active torsions:
REMARK  status: ('A' for Active; 'I' for Inactive)
ROOT
ATOM      1  N1  IND d   1       1.933   1.947   0.037  0.00  0.00    -0.196 N 
ATOM      2  C2  IND d   1       1.364   3.189   0.070  0.00  0.00     0.054 A 
ATOM      3  C3  IND d   1       0.034   3.091   0.294  0.00  0.00    -0.031 A 
ATOM      4  C4  IND d   1      -1.400   0.999   0.736  0.00  0.00     0.051 A 
ATOM      5  C5  IND d   1      -1.333  -0.365   0.769  0.00  0.00    -0.031 A 
ATOM      6  C6  IND d   1      -0.150  -1.042   0.559  0.00  0.00     0.015 A 
ATOM      7  C7  IND d   1       1.019  -0.377   0.317  0.00  0.00    -0.016 A 
ATOM      8  C8  IND d   1       0.953   1.009   0.276  0.00  0.00    -0.047 A 
ATOM      9  C9  IND d   1      -0.253   1.700   0.446  0.00  0.00    -0.096 A 
ATOM     10  HN1 IND d   1       2.764   1.780  -0.108  0.00  0.00     0.298 HD
ENDROOT
TORSDOF 0
ENDMDL
