MODEL 1
REMARK minimizedAffinity -5.68610239
REMARK minimizedRMSD -1
REMARK  0 active torsions:
REMARK  status: ('A' for Active; 'I' for Inactive)
ROOT
ATOM      1  N1  IND d   1       0.123   0.365  -1.243  0.00  0.00    -0.196 N 
ATOM      2  C2  IND d   1      -0.109   1.014  -0.062  0.00  0.00     0.054 A 
ATOM      3  C3  IND d   1      -0.304   0.122   0.934  0.00  0.00    -0.031 A 
ATOM      4  C4  IND d   1      -0.187  -2.449   0.874  0.00  0.00     0.051 A 
ATOM      5  C5  IND d   1      -0.040  -3.501   0.013  0.00  0.00    -0.031 A 
ATOM      6  C6  IND d   1       0.175  -3.314  -1.337  0.00  0.00     0.015 A 
ATOM      7  C7  IND d   1       0.264  -2.062  -1.877  0.00  0.00    -0.016 A 
ATOM      8  C8  IND d   1       0.108  -0.992  -1.008  0.00  0.00    -0.047 A 
ATOM      9  C9  IND d   1      -0.153  -1.176   0.356  0.00  0.00    -0.096 A 
ATOM     10  HN1 IND d   1       0.255   0.742  -2.005  0.00  0.00     0.298 HD
ENDROOT
TORSDOF 0
ENDMDL
