MODEL 1
REMARK minimizedAffinity -2.18433881
REMARK minimizedRMSD -1
REMARK  0 active torsions:
REMARK  status: ('A' for Active; 'I' for Inactive)
ROOT
ATOM      1  N1  IND d   1       0.694   0.197  -1.405  0.00  0.00    -0.196 N 
ATOM      2  C2  IND d   1       0.542   1.394  -0.762  0.00  0.00     0.054 A 
ATOM      3  C3  IND d   1      -0.092   1.217   0.419  0.00  0.00    -0.031 A 
ATOM      4  C4  IND d   1      -0.880  -0.961   1.541  0.00  0.00     0.051 A 
ATOM      5  C5  IND d   1      -0.994  -2.306   1.323  0.00  0.00    -0.031 A 
ATOM      6  C6  IND d   1      -0.540  -2.897   0.161  0.00  0.00     0.015 A 
ATOM      7  C7  IND d   1       0.059  -2.163  -0.824  0.00  0.00    -0.016 A 
ATOM      8  C8  IND d   1       0.170  -0.797  -0.609  0.00  0.00    -0.047 A 
ATOM      9  C9  IND d   1      -0.328  -0.186   0.549  0.00  0.00    -0.096 A 
ATOM     10  HN1 IND d   1       1.056   0.085  -2.177  0.00  0.00     0.298 HD
ENDROOT
TORSDOF 0
ENDMDL
