MODEL 1
REMARK minimizedAffinity -1.57603109
REMARK minimizedRMSD -1
REMARK  0 active torsions:
REMARK  status: ('A' for Active; 'I' for Inactive)
ROOT
ATOM      1  N1  IND d   1      -0.302  -2.027  -2.564  0.00  0.00    -0.196 N 
ATOM      2  C2  IND d   1      -0.660  -3.313  -2.270  0.00  0.00     0.054 A 
ATOM      3  C3  IND d   1      -0.976  -3.425  -0.960  0.00  0.00    -0.031 A 
ATOM      4  C4  IND d   1      -1.074  -1.607   0.860  0.00  0.00     0.051 A 
ATOM      5  C5  IND d   1      -0.800  -0.286   1.079  0.00  0.00    -0.031 A 
ATOM      6  C6  IND d   1      -0.338   0.539   0.074  0.00  0.00     0.015 A 
ATOM      7  C7  IND d   1      -0.144   0.075  -1.196  0.00  0.00    -0.016 A 
ATOM      8  C8  IND d   1      -0.415  -1.267  -1.421  0.00  0.00    -0.047 A 
ATOM      9  C9  IND d   1      -0.843  -2.120  -0.395  0.00  0.00    -0.096 A 
ATOM     10  HN1 IND d   1      -0.048  -1.740  -3.334  0.00  0.00     0.298 HD
ENDROOT
TORSDOF 0
ENDMDL
