MODEL 1
REMARK minimizedAffinity -5.64383459
REMARK minimizedRMSD -1
REMARK  0 active torsions:
REMARK  status: ('A' for Active; 'I' for Inactive)
ROOT
ATOM      1  N1  IND d   1       0.051  -0.008  -2.322  0.00  0.00    -0.196 N 
ATOM      2  C2  IND d   1      -0.181   1.155  -1.643  0.00  0.00     0.054 A 
ATOM      3  C3  IND d   1      -0.191   0.928  -0.310  0.00  0.00    -0.031 A 
ATOM      4  C4  IND d   1       0.253  -1.255   0.980  0.00  0.00     0.051 A 
ATOM      5  C5  IND d   1       0.475  -2.591   0.793  0.00  0.00    -0.031 A 
ATOM      6  C6  IND d   1       0.571  -3.145  -0.467  0.00  0.00     0.015 A 
ATOM      7  C7  IND d   1       0.460  -2.378  -1.592  0.00  0.00    -0.016 A 
ATOM      8  C8  IND d   1       0.228  -1.023  -1.407  0.00  0.00    -0.047 A 
ATOM      9  C9  IND d   1       0.087  -0.462  -0.130  0.00  0.00    -0.096 A 
ATOM     10  HN1 IND d   1       0.081  -0.093  -3.177  0.00  0.00     0.298 HD
ENDROOT
TORSDOF 0
ENDMDL
