MODEL 1
REMARK minimizedAffinity 17.6934261
REMARK minimizedRMSD -1
REMARK  0 active torsions:
REMARK  status: ('A' for Active; 'I' for Inactive)
ROOT
ATOM      1  C   UNL d   1       0.955   2.681   0.017  0.00  0.00     0.124 A 
ATOM      2  C1  UNL d   1       0.061   1.875  -0.674  0.00  0.00     0.062 A 
ATOM      3  C2  UNL d   1       0.330   0.520  -0.848  0.00  0.00     0.162 A 
ATOM      4  C3  UNL d   1       1.498  -0.038  -0.330  0.00  0.00    -0.034 A 
ATOM      5  C4  UNL d   1       2.394   0.780   0.362  0.00  0.00     0.162 A 
ATOM      6  C5  UNL d   1       2.120   2.133   0.534  0.00  0.00     0.062 A 
ATOM      7  F   UNL d   1       2.986   2.910   1.202  0.00  0.00    -0.097 F 
ATOM      8  F1  UNL d   1       3.527   0.276   0.873  0.00  0.00    -0.096 F 
ATOM      9  I   UNL d   1       1.904  -2.062  -0.589  0.00  0.00    -0.060 I 
ATOM     10  F2  UNL d   1      -0.553  -0.235  -1.520  0.00  0.00    -0.096 F 
ATOM     11  F3  UNL d   1      -1.066   2.402  -1.175  0.00  0.00    -0.097 F 
ATOM     12  F4  UNL d   1       0.694   3.984   0.182  0.00  0.00    -0.092 F 
ENDROOT
TORSDOF 0
ENDMDL
