MODEL 1
REMARK minimizedAffinity 5.93359232
REMARK minimizedRMSD -1
REMARK  0 active torsions:
REMARK  status: ('A' for Active; 'I' for Inactive)
ROOT
ATOM      1  C   UNL d   1      -0.900  -4.549   3.272  0.00  0.00     0.124 A 
ATOM      2  C1  UNL d   1      -0.737  -4.655   1.897  0.00  0.00     0.062 A 
ATOM      3  C2  UNL d   1       0.292  -3.968   1.259  0.00  0.00     0.162 A 
ATOM      4  C3  UNL d   1       1.167  -3.170   1.995  0.00  0.00    -0.034 A 
ATOM      5  C4  UNL d   1       0.997  -3.067   3.377  0.00  0.00     0.162 A 
ATOM      6  C5  UNL d   1      -0.033  -3.756   4.010  0.00  0.00     0.062 A 
ATOM      7  F   UNL d   1      -0.189  -3.652   5.338  0.00  0.00    -0.097 F 
ATOM      8  F1  UNL d   1       1.820  -2.308   4.115  0.00  0.00    -0.096 F 
ATOM      9  I   UNL d   1       2.707  -2.141   1.045  0.00  0.00    -0.060 I 
ATOM     10  F2  UNL d   1       0.425  -4.089  -0.070  0.00  0.00    -0.096 F 
ATOM     11  F3  UNL d   1      -1.574  -5.420   1.182  0.00  0.00    -0.097 F 
ATOM     12  F4  UNL d   1      -1.891  -5.210   3.883  0.00  0.00    -0.092 F 
ENDROOT
TORSDOF 0
ENDMDL
