MODEL 1
REMARK minimizedAffinity 7.05950356
REMARK minimizedRMSD -1
REMARK  0 active torsions:
REMARK  status: ('A' for Active; 'I' for Inactive)
ROOT
ATOM      1  C   UNL d   1       3.195   0.028   0.325  0.00  0.00     0.124 A 
ATOM      2  C1  UNL d   1       2.450  -1.056  -0.120  0.00  0.00     0.062 A 
ATOM      3  C2  UNL d   1       1.170  -0.863  -0.629  0.00  0.00     0.162 A 
ATOM      4  C3  UNL d   1       0.625   0.419  -0.697  0.00  0.00    -0.034 A 
ATOM      5  C4  UNL d   1       1.379   1.504  -0.247  0.00  0.00     0.162 A 
ATOM      6  C5  UNL d   1       2.659   1.306   0.261  0.00  0.00     0.062 A 
ATOM      7  F   UNL d   1       3.376   2.355   0.691  0.00  0.00    -0.097 F 
ATOM      8  F1  UNL d   1       0.886   2.750  -0.298  0.00  0.00    -0.096 F 
ATOM      9  I   UNL d   1      -1.290   0.711  -1.459  0.00  0.00    -0.060 I 
ATOM     10  F2  UNL d   1       0.473  -1.928  -1.052  0.00  0.00    -0.096 F 
ATOM     11  F3  UNL d   1       2.966  -2.292  -0.058  0.00  0.00    -0.097 F 
ATOM     12  F4  UNL d   1       4.427  -0.160   0.816  0.00  0.00    -0.092 F 
ENDROOT
TORSDOF 0
ENDMDL
