MODEL 1
REMARK minimizedAffinity 16.2793999
REMARK minimizedRMSD -1
REMARK  0 active torsions:
REMARK  status: ('A' for Active; 'I' for Inactive)
ROOT
ATOM      1  C   UNL d   1      -4.914   0.079  -5.050  0.00  0.00     0.124 A 
ATOM      2  C1  UNL d   1      -4.670  -0.984  -4.191  0.00  0.00     0.062 A 
ATOM      3  C2  UNL d   1      -3.541  -0.980  -3.376  0.00  0.00     0.162 A 
ATOM      4  C3  UNL d   1      -2.648   0.090  -3.416  0.00  0.00    -0.034 A 
ATOM      5  C4  UNL d   1      -2.899   1.154  -4.284  0.00  0.00     0.162 A 
ATOM      6  C5  UNL d   1      -4.028   1.146  -5.096  0.00  0.00     0.062 A 
ATOM      7  F   UNL d   1      -4.262   2.173  -5.926  0.00  0.00    -0.097 F 
ATOM      8  F1  UNL d   1      -2.060   2.199  -4.348  0.00  0.00    -0.096 F 
ATOM      9  I   UNL d   1      -0.959   0.099  -2.200  0.00  0.00    -0.060 I 
ATOM     10  F2  UNL d   1      -3.331  -2.020  -2.555  0.00  0.00    -0.096 F 
ATOM     11  F3  UNL d   1      -5.524  -2.017  -4.145  0.00  0.00    -0.097 F 
ATOM     12  F4  UNL d   1      -6.000   0.072  -5.834  0.00  0.00    -0.092 F 
ENDROOT
TORSDOF 0
ENDMDL
