MODEL 1
REMARK minimizedAffinity 16.6150074
REMARK minimizedRMSD -1
REMARK  0 active torsions:
REMARK  status: ('A' for Active; 'I' for Inactive)
ROOT
ATOM      1  C   UNL d   1      -0.637   2.844   2.736  0.00  0.00     0.124 A 
ATOM      2  C1  UNL d   1      -0.152   3.301   1.519  0.00  0.00     0.062 A 
ATOM      3  C2  UNL d   1       0.626   2.469   0.719  0.00  0.00     0.162 A 
ATOM      4  C3  UNL d   1       0.923   1.171   1.133  0.00  0.00    -0.034 A 
ATOM      5  C4  UNL d   1       0.432   0.719   2.359  0.00  0.00     0.162 A 
ATOM      6  C5  UNL d   1      -0.345   1.554   3.155  0.00  0.00     0.062 A 
ATOM      7  F   UNL d   1      -0.812   1.111   4.331  0.00  0.00    -0.097 F 
ATOM      8  F1  UNL d   1       0.699  -0.524   2.788  0.00  0.00    -0.096 F 
ATOM      9  I   UNL d   1       2.086  -0.076  -0.060  0.00  0.00    -0.060 I 
ATOM     10  F2  UNL d   1       1.082   2.937  -0.453  0.00  0.00    -0.096 F 
ATOM     11  F3  UNL d   1      -0.432   4.547   1.112  0.00  0.00    -0.097 F 
ATOM     12  F4  UNL d   1      -1.385   3.647   3.504  0.00  0.00    -0.092 F 
ENDROOT
TORSDOF 0
ENDMDL
