MODEL 1
REMARK minimizedAffinity 9.30706882
REMARK minimizedRMSD -1
REMARK  0 active torsions:
REMARK  status: ('A' for Active; 'I' for Inactive)
ROOT
ATOM      1  C   UNL d   1       2.282   2.878   1.309  0.00  0.00     0.124 A 
ATOM      2  C1  UNL d   1       3.409   2.068   1.319  0.00  0.00     0.062 A 
ATOM      3  C2  UNL d   1       3.361   0.796   0.755  0.00  0.00     0.162 A 
ATOM      4  C3  UNL d   1       2.183   0.327   0.175  0.00  0.00    -0.034 A 
ATOM      5  C4  UNL d   1       1.053   1.147   0.170  0.00  0.00     0.162 A 
ATOM      6  C5  UNL d   1       1.106   2.418   0.735  0.00  0.00     0.062 A 
ATOM      7  F   UNL d   1       0.016   3.199   0.724  0.00  0.00    -0.097 F 
ATOM      8  F1  UNL d   1      -0.096   0.728  -0.380  0.00  0.00    -0.096 F 
ATOM      9  I   UNL d   1       2.108  -1.574  -0.669  0.00  0.00    -0.060 I 
ATOM     10  F2  UNL d   1       4.465   0.035   0.779  0.00  0.00    -0.096 F 
ATOM     11  F3  UNL d   1       4.546   2.511   1.874  0.00  0.00    -0.097 F 
ATOM     12  F4  UNL d   1       2.330   4.101   1.853  0.00  0.00    -0.092 F 
ENDROOT
TORSDOF 0
ENDMDL
