MODEL 1
REMARK minimizedAffinity 15.0267105
REMARK minimizedRMSD -1
REMARK  0 active torsions:
REMARK  status: ('A' for Active; 'I' for Inactive)
ROOT
ATOM      1  C   UNL d   1       0.871  -1.180  -0.571  0.00  0.00     0.124 A 
ATOM      2  C1  UNL d   1       2.169  -1.268  -0.087  0.00  0.00     0.062 A 
ATOM      3  C2  UNL d   1       2.861  -0.116   0.276  0.00  0.00     0.162 A 
ATOM      4  C3  UNL d   1       2.254   1.135   0.158  0.00  0.00    -0.034 A 
ATOM      5  C4  UNL d   1       0.949   1.215  -0.330  0.00  0.00     0.162 A 
ATOM      6  C5  UNL d   1       0.262   0.061  -0.691  0.00  0.00     0.062 A 
ATOM      7  F   UNL d   1      -0.992   0.147  -1.158  0.00  0.00    -0.097 F 
ATOM      8  F1  UNL d   1       0.336   2.402  -0.456  0.00  0.00    -0.096 F 
ATOM      9  I   UNL d   1       3.284   2.860   0.699  0.00  0.00    -0.060 I 
ATOM     10  F2  UNL d   1       4.114  -0.230   0.739  0.00  0.00    -0.096 F 
ATOM     11  F3  UNL d   1       2.760  -2.466   0.029  0.00  0.00    -0.097 F 
ATOM     12  F4  UNL d   1       0.209  -2.291  -0.920  0.00  0.00    -0.092 F 
ENDROOT
TORSDOF 0
ENDMDL
