MODEL 1
REMARK minimizedAffinity 12.1265135
REMARK minimizedRMSD -1
REMARK  0 active torsions:
REMARK  status: ('A' for Active; 'I' for Inactive)
ROOT
ATOM      1  C   UNL d   1       1.754   2.068   0.398  0.00  0.00     0.124 A 
ATOM      2  C1  UNL d   1       0.749   1.527  -0.392  0.00  0.00     0.062 A 
ATOM      3  C2  UNL d   1       0.790   0.183  -0.753  0.00  0.00     0.162 A 
ATOM      4  C3  UNL d   1       1.838  -0.630  -0.322  0.00  0.00    -0.034 A 
ATOM      5  C4  UNL d   1       2.845  -0.078   0.472  0.00  0.00     0.162 A 
ATOM      6  C5  UNL d   1       2.800   1.265   0.830  0.00  0.00     0.062 A 
ATOM      7  F   UNL d   1       3.771   1.787   1.594  0.00  0.00    -0.097 F 
ATOM      8  F1  UNL d   1       3.868  -0.831   0.904  0.00  0.00    -0.096 F 
ATOM      9  I   UNL d   1       1.902  -2.640  -0.859  0.00  0.00    -0.060 I 
ATOM     10  F2  UNL d   1      -0.194  -0.313  -1.518  0.00  0.00    -0.096 F 
ATOM     11  F3  UNL d   1      -0.262   2.301  -0.811  0.00  0.00    -0.097 F 
ATOM     12  F4  UNL d   1       1.713   3.362   0.743  0.00  0.00    -0.092 F 
ENDROOT
TORSDOF 0
ENDMDL
