MODEL 1
REMARK minimizedAffinity 14.1140518
REMARK minimizedRMSD -1
REMARK  0 active torsions:
REMARK  status: ('A' for Active; 'I' for Inactive)
ROOT
ATOM      1  C   UNL d   1      -4.031  -0.584   0.343  0.00  0.00     0.078 C 
ATOM      2  C1  UNL d   1      -3.592   0.367  -0.730  0.00  0.00    -0.077 A 
ATOM      3  C2  UNL d   1      -2.473   1.189  -0.552  0.00  0.00    -0.001 A 
ATOM      4  C3  UNL d   1      -2.083   2.077  -1.556  0.00  0.00     0.003 A 
ATOM      5  C4  UNL d   1      -2.806   2.152  -2.744  0.00  0.00    -0.005 A 
ATOM      6  C5  UNL d   1      -3.923   1.339  -2.930  0.00  0.00     0.003 A 
ATOM      7  C6  UNL d   1      -4.315   0.451  -1.927  0.00  0.00    -0.001 A 
ENDROOT
TORSDOF 0
ENDMDL
