MODEL 1
REMARK minimizedAffinity 15.6509504
REMARK minimizedRMSD -1
REMARK  0 active torsions:
REMARK  status: ('A' for Active; 'I' for Inactive)
ROOT
ATOM      1  C   UNL d   1       0.601   2.523   1.516  0.00  0.00     0.078 C 
ATOM      2  C1  UNL d   1       0.437   2.776   0.048  0.00  0.00    -0.077 A 
ATOM      3  C2  UNL d   1      -0.336   1.924  -0.750  0.00  0.00    -0.001 A 
ATOM      4  C3  UNL d   1      -0.472   2.167  -2.117  0.00  0.00     0.003 A 
ATOM      5  C4  UNL d   1       0.163   3.261  -2.700  0.00  0.00    -0.005 A 
ATOM      6  C5  UNL d   1       0.937   4.113  -1.916  0.00  0.00     0.003 A 
ATOM      7  C6  UNL d   1       1.074   3.872  -0.548  0.00  0.00    -0.001 A 
ENDROOT
TORSDOF 0
ENDMDL
