MODEL 1
REMARK minimizedAffinity 1.81922722
REMARK minimizedRMSD -1
REMARK  0 active torsions:
REMARK  status: ('A' for Active; 'I' for Inactive)
ROOT
ATOM      1  C   UNL d   1      -4.301   0.558  -2.113  0.00  0.00     0.078 C 
ATOM      2  C1  UNL d   1      -3.094   1.443  -2.204  0.00  0.00    -0.077 A 
ATOM      3  C2  UNL d   1      -1.958   1.197  -1.424  0.00  0.00    -0.001 A 
ATOM      4  C3  UNL d   1      -0.845   2.036  -1.513  0.00  0.00     0.003 A 
ATOM      5  C4  UNL d   1      -0.859   3.127  -2.380  0.00  0.00    -0.005 A 
ATOM      6  C5  UNL d   1      -1.986   3.381  -3.158  0.00  0.00     0.003 A 
ATOM      7  C6  UNL d   1      -3.099   2.544  -3.071  0.00  0.00    -0.001 A 
ENDROOT
TORSDOF 0
ENDMDL
