MODEL 1
REMARK minimizedAffinity 3.67090249
REMARK minimizedRMSD -1
REMARK  0 active torsions:
REMARK  status: ('A' for Active; 'I' for Inactive)
ROOT
ATOM      1  C   UNL d   1       0.766   0.038   3.390  0.00  0.00     0.078 C 
ATOM      2  C1  UNL d   1      -0.092   1.011   2.639  0.00  0.00    -0.077 A 
ATOM      3  C2  UNL d   1      -1.473   1.075   2.860  0.00  0.00    -0.001 A 
ATOM      4  C3  UNL d   1      -2.261   1.979   2.147  0.00  0.00     0.003 A 
ATOM      5  C4  UNL d   1      -1.678   2.827   1.207  0.00  0.00    -0.005 A 
ATOM      6  C5  UNL d   1      -0.305   2.769   0.979  0.00  0.00     0.003 A 
ATOM      7  C6  UNL d   1       0.485   1.865   1.691  0.00  0.00    -0.001 A 
ENDROOT
TORSDOF 0
ENDMDL
