MODEL 1
REMARK minimizedAffinity 0.112615675
REMARK minimizedRMSD -1
REMARK  0 active torsions:
REMARK  status: ('A' for Active; 'I' for Inactive)
ROOT
ATOM      1  C   UNL d   1       3.159  -1.875  -2.114  0.00  0.00     0.078 C 
ATOM      2  C1  UNL d   1       4.148  -2.547  -3.020  0.00  0.00    -0.077 A 
ATOM      3  C2  UNL d   1       5.062  -3.482  -2.521  0.00  0.00    -0.001 A 
ATOM      4  C3  UNL d   1       5.983  -4.093  -3.373  0.00  0.00     0.003 A 
ATOM      5  C4  UNL d   1       6.000  -3.774  -4.729  0.00  0.00    -0.005 A 
ATOM      6  C5  UNL d   1       5.095  -2.843  -5.235  0.00  0.00     0.003 A 
ATOM      7  C6  UNL d   1       4.173  -2.231  -4.384  0.00  0.00    -0.001 A 
ENDROOT
TORSDOF 0
ENDMDL
