MODEL 1
REMARK minimizedAffinity -4.46282005
REMARK minimizedRMSD -1
REMARK  0 active torsions:
REMARK  status: ('A' for Active; 'I' for Inactive)
ROOT
ATOM      1  C   UNL d   1       0.370   4.105  -0.810  0.00  0.00     0.078 C 
ATOM      2  C1  UNL d   1       0.226   2.820  -0.050  0.00  0.00    -0.077 A 
ATOM      3  C2  UNL d   1      -0.060   2.820   1.320  0.00  0.00    -0.001 A 
ATOM      4  C3  UNL d   1      -0.181   1.617   2.017  0.00  0.00     0.003 A 
ATOM      5  C4  UNL d   1      -0.017   0.404   1.351  0.00  0.00    -0.005 A 
ATOM      6  C5  UNL d   1       0.269   0.393  -0.013  0.00  0.00     0.003 A 
ATOM      7  C6  UNL d   1       0.391   1.596  -0.711  0.00  0.00    -0.001 A 
ENDROOT
TORSDOF 0
ENDMDL
