MODEL 1
REMARK minimizedAffinity 7.26654291
REMARK minimizedRMSD -1
REMARK  0 active torsions:
REMARK  status: ('A' for Active; 'I' for Inactive)
ROOT
ATOM      1  C   UNL d   1      -0.133  -3.305  -1.757  0.00  0.00     0.078 C 
ATOM      2  C1  UNL d   1       1.005  -2.606  -1.077  0.00  0.00    -0.077 A 
ATOM      3  C2  UNL d   1       1.553  -1.432  -1.609  0.00  0.00    -0.001 A 
ATOM      4  C3  UNL d   1       2.620  -0.797  -0.970  0.00  0.00     0.003 A 
ATOM      5  C4  UNL d   1       3.148  -1.329   0.204  0.00  0.00    -0.005 A 
ATOM      6  C5  UNL d   1       2.611  -2.498   0.741  0.00  0.00     0.003 A 
ATOM      7  C6  UNL d   1       1.545  -3.134   0.103  0.00  0.00    -0.001 A 
ENDROOT
TORSDOF 0
ENDMDL
