MODEL 1
REMARK minimizedAffinity 13.0337276
REMARK minimizedRMSD -1
REMARK  0 active torsions:
REMARK  status: ('A' for Active; 'I' for Inactive)
ROOT
ATOM      1  C   UNL d   1      -5.867   0.612  -2.963  0.00  0.00     0.078 C 
ATOM      2  C1  UNL d   1      -4.823   1.651  -3.240  0.00  0.00    -0.077 A 
ATOM      3  C2  UNL d   1      -4.116   2.261  -2.196  0.00  0.00    -0.001 A 
ATOM      4  C3  UNL d   1      -3.153   3.234  -2.469  0.00  0.00     0.003 A 
ATOM      5  C4  UNL d   1      -2.890   3.608  -3.785  0.00  0.00    -0.005 A 
ATOM      6  C5  UNL d   1      -3.589   3.008  -4.831  0.00  0.00     0.003 A 
ATOM      7  C6  UNL d   1      -4.552   2.035  -4.560  0.00  0.00    -0.001 A 
ENDROOT
TORSDOF 0
ENDMDL
