MODEL 1
REMARK minimizedAffinity 3.13302135
REMARK minimizedRMSD -1
REMARK  0 active torsions:
REMARK  status: ('A' for Active; 'I' for Inactive)
ROOT
ATOM      1  C   UNL d   1      -2.529   2.725  -2.172  0.00  0.00     0.078 C 
ATOM      2  C1  UNL d   1      -1.232   3.084  -1.512  0.00  0.00    -0.077 A 
ATOM      3  C2  UNL d   1      -0.959   2.690  -0.196  0.00  0.00    -0.001 A 
ATOM      4  C3  UNL d   1       0.248   3.040   0.410  0.00  0.00     0.003 A 
ATOM      5  C4  UNL d   1       1.193   3.787  -0.292  0.00  0.00    -0.005 A 
ATOM      6  C5  UNL d   1       0.929   4.186  -1.600  0.00  0.00     0.003 A 
ATOM      7  C6  UNL d   1      -0.278   3.837  -2.208  0.00  0.00    -0.001 A 
ENDROOT
TORSDOF 0
ENDMDL
