MODEL 1
REMARK minimizedAffinity -2.80923843
REMARK minimizedRMSD -1
REMARK  0 active torsions:
REMARK  status: ('A' for Active; 'I' for Inactive)
ROOT
ATOM      1  C1  BNZ d   1      -1.270   0.368   0.208  0.00  0.00     0.000 A 
ATOM      2  C2  BNZ d   1      -1.793   1.530   0.709  0.00  0.00     0.000 A 
ATOM      3  C3  BNZ d   1      -1.006   2.633   0.886  0.00  0.00     0.000 A 
ATOM      4  C4  BNZ d   1       0.310   2.562   0.599  0.00  0.00     0.000 A 
ATOM      5  C5  BNZ d   1       0.854   1.395   0.101  0.00  0.00     0.000 A 
ATOM      6  C6  BNZ d   1       0.051   0.298  -0.112  0.00  0.00     0.000 A 
ENDROOT
TORSDOF 0
ENDMDL
