MODEL 1
REMARK minimizedAffinity -3.31936216
REMARK minimizedRMSD -1
REMARK  0 active torsions:
REMARK  status: ('A' for Active; 'I' for Inactive)
ROOT
ATOM      1  C1  BNZ d   1      -1.090   0.905   0.383  0.00  0.00     0.000 A 
ATOM      2  C2  BNZ d   1      -2.049   0.375   1.204  0.00  0.00     0.000 A 
ATOM      3  C3  BNZ d   1      -1.873  -0.849   1.787  0.00  0.00     0.000 A 
ATOM      4  C4  BNZ d   1      -0.758  -1.558   1.517  0.00  0.00     0.000 A 
ATOM      5  C5  BNZ d   1       0.214  -1.041   0.684  0.00  0.00     0.000 A 
ATOM      6  C6  BNZ d   1       0.051   0.208   0.130  0.00  0.00     0.000 A 
ENDROOT
TORSDOF 0
ENDMDL
