MODEL 1
REMARK minimizedAffinity -1.72404504
REMARK minimizedRMSD -1
REMARK  0 active torsions:
REMARK  status: ('A' for Active; 'I' for Inactive)
ROOT
ATOM      1  C1  BNZ d   1       1.865  -1.247  -0.066  0.00  0.00     0.000 A 
ATOM      2  C2  BNZ d   1       2.688  -0.167   0.112  0.00  0.00     0.000 A 
ATOM      3  C3  BNZ d   1       2.175   1.098   0.192  0.00  0.00     0.000 A 
ATOM      4  C4  BNZ d   1       0.847   1.285   0.052  0.00  0.00     0.000 A 
ATOM      5  C5  BNZ d   1       0.005   0.207  -0.138  0.00  0.00     0.000 A 
ATOM      6  C6  BNZ d   1       0.521  -1.068  -0.178  0.00  0.00     0.000 A 
ENDROOT
TORSDOF 0
ENDMDL
