MODEL 1
REMARK minimizedAffinity -3.94659352
REMARK minimizedRMSD -1
REMARK  0 active torsions:
REMARK  status: ('A' for Active; 'I' for Inactive)
ROOT
ATOM      1  C1  BNZ d   1      -1.422   0.992   0.832  0.00  0.00     0.000 A 
ATOM      2  C2  BNZ d   1      -1.193   2.322   0.601  0.00  0.00     0.000 A 
ATOM      3  C3  BNZ d   1      -0.020   2.743   0.040  0.00  0.00     0.000 A 
ATOM      4  C4  BNZ d   1       0.938   1.840  -0.252  0.00  0.00     0.000 A 
ATOM      5  C5  BNZ d   1       0.726   0.496  -0.016  0.00  0.00     0.000 A 
ATOM      6  C6  BNZ d   1      -0.472   0.072   0.513  0.00  0.00     0.000 A 
ENDROOT
TORSDOF 0
ENDMDL
