MODEL 1
REMARK minimizedAffinity -2.88027692
REMARK minimizedRMSD -1
REMARK  0 active torsions:
REMARK  status: ('A' for Active; 'I' for Inactive)
ROOT
ATOM      1  C1  BNZ d   1      -1.633   2.937   1.188  0.00  0.00     0.000 A 
ATOM      2  C2  BNZ d   1      -1.695   1.715   0.575  0.00  0.00     0.000 A 
ATOM      3  C3  BNZ d   1      -0.595   0.905   0.514  0.00  0.00     0.000 A 
ATOM      4  C4  BNZ d   1       0.574   1.336   1.030  0.00  0.00     0.000 A 
ATOM      5  C5  BNZ d   1       0.655   2.570   1.643  0.00  0.00     0.000 A 
ATOM      6  C6  BNZ d   1      -0.464   3.365   1.737  0.00  0.00     0.000 A 
ENDROOT
TORSDOF 0
ENDMDL
