MODEL 1
REMARK minimizedAffinity -5.23845911
REMARK minimizedRMSD -1
REMARK  0 active torsions:
REMARK  status: ('A' for Active; 'I' for Inactive)
ROOT
ATOM      1  C1  BNZ d   1       0.949   0.445   0.238  0.00  0.00     0.000 A 
ATOM      2  C2  BNZ d   1       2.233   0.911   0.330  0.00  0.00     0.000 A 
ATOM      3  C3  BNZ d   1       2.483   2.238   0.538  0.00  0.00     0.000 A 
ATOM      4  C4  BNZ d   1       1.451   3.103   0.614  0.00  0.00     0.000 A 
ATOM      5  C5  BNZ d   1       0.151   2.650   0.514  0.00  0.00     0.000 A 
ATOM      6  C6  BNZ d   1      -0.098   1.308   0.343  0.00  0.00     0.000 A 
ENDROOT
TORSDOF 0
ENDMDL
