MODEL 1
REMARK minimizedAffinity -4.46865177
REMARK minimizedRMSD -1
REMARK  0 active torsions:
REMARK  status: ('A' for Active; 'I' for Inactive)
ROOT
ATOM      1  C1  BNZ d   1      -1.635   1.304   0.793  0.00  0.00     0.000 A 
ATOM      2  C2  BNZ d   1      -0.861   0.424   0.084  0.00  0.00     0.000 A 
ATOM      3  C3  BNZ d   1       0.340   0.812  -0.440  0.00  0.00     0.000 A 
ATOM      4  C4  BNZ d   1       0.747   2.089  -0.291  0.00  0.00     0.000 A 
ATOM      5  C5  BNZ d   1      -0.026   2.991   0.413  0.00  0.00     0.000 A 
ATOM      6  C6  BNZ d   1      -1.216   2.587   0.973  0.00  0.00     0.000 A 
ENDROOT
TORSDOF 0
ENDMDL
