MODEL 1
REMARK minimizedAffinity -4.98630524
REMARK minimizedRMSD -1
REMARK  0 active torsions:
REMARK  status: ('A' for Active; 'I' for Inactive)
ROOT
ATOM      1  C1  BNZ d   1       0.337   3.184   0.503  0.00  0.00     0.000 A 
ATOM      2  C2  BNZ d   1      -0.973   2.811   0.643  0.00  0.00     0.000 A 
ATOM      3  C3  BNZ d   1      -1.353   1.509   0.474  0.00  0.00     0.000 A 
ATOM      4  C4  BNZ d   1      -0.430   0.589   0.126  0.00  0.00     0.000 A 
ATOM      5  C5  BNZ d   1       0.894   0.951  -0.028  0.00  0.00     0.000 A 
ATOM      6  C6  BNZ d   1       1.278   2.255   0.181  0.00  0.00     0.000 A 
ENDROOT
TORSDOF 0
ENDMDL
