MODEL 1
REMARK minimizedAffinity -3.7508502
REMARK minimizedRMSD -1
REMARK  0 active torsions:
REMARK  status: ('A' for Active; 'I' for Inactive)
ROOT
ATOM      1  C1  BNZ d   1      -0.884   2.449   0.437  0.00  0.00     0.000 A 
ATOM      2  C2  BNZ d   1      -1.341   1.199   0.113  0.00  0.00     0.000 A 
ATOM      3  C3  BNZ d   1      -0.476   0.148  -0.010  0.00  0.00     0.000 A 
ATOM      4  C4  BNZ d   1       0.847   0.355   0.150  0.00  0.00     0.000 A 
ATOM      5  C5  BNZ d   1       1.324   1.612   0.468  0.00  0.00     0.000 A 
ATOM      6  C6  BNZ d   1       0.447   2.659   0.630  0.00  0.00     0.000 A 
ENDROOT
TORSDOF 0
ENDMDL
