MODEL 1
REMARK minimizedAffinity -4.4978261
REMARK minimizedRMSD -1
REMARK  0 active torsions:
REMARK  status: ('A' for Active; 'I' for Inactive)
ROOT
ATOM      1  C1  BNZ d   1       0.552   0.316   0.023  0.00  0.00     0.000 A 
ATOM      2  C2  BNZ d   1       0.921   1.453  -0.645  0.00  0.00     0.000 A 
ATOM      3  C3  BNZ d   1       0.072   2.521  -0.730  0.00  0.00     0.000 A 
ATOM      4  C4  BNZ d   1      -1.157   2.436  -0.181  0.00  0.00     0.000 A 
ATOM      5  C5  BNZ d   1      -1.547   1.293   0.488  0.00  0.00     0.000 A 
ATOM      6  C6  BNZ d   1      -0.675   0.234   0.604  0.00  0.00     0.000 A 
ENDROOT
TORSDOF 0
ENDMDL
