MODEL 1
REMARK minimizedAffinity -2.79496241
REMARK minimizedRMSD -1
REMARK  0 active torsions:
REMARK  status: ('A' for Active; 'I' for Inactive)
ROOT
ATOM      1  C1  BNZ d   1      -0.446  -1.727  -0.787  0.00  0.00     0.000 A 
ATOM      2  C2  BNZ d   1       0.336  -2.405  -1.684  0.00  0.00     0.000 A 
ATOM      3  C3  BNZ d   1      -0.229  -3.142  -2.687  0.00  0.00     0.000 A 
ATOM      4  C4  BNZ d   1      -1.572  -3.234  -2.768  0.00  0.00     0.000 A 
ATOM      5  C5  BNZ d   1      -2.373  -2.564  -1.865  0.00  0.00     0.000 A 
ATOM      6  C6  BNZ d   1      -1.802  -1.791  -0.881  0.00  0.00     0.000 A 
ENDROOT
TORSDOF 0
ENDMDL
