MODEL 1
REMARK minimizedAffinity -2.21112657
REMARK minimizedRMSD -1
REMARK  0 active torsions:
REMARK  status: ('A' for Active; 'I' for Inactive)
ROOT
ATOM      1  C1  BNZ d   1       0.348   3.738   4.079  0.00  0.00     0.000 A 
ATOM      2  C2  BNZ d   1       0.874   2.764   3.273  0.00  0.00     0.000 A 
ATOM      3  C3  BNZ d   1       1.952   3.024   2.474  0.00  0.00     0.000 A 
ATOM      4  C4  BNZ d   1       2.476   4.267   2.451  0.00  0.00     0.000 A 
ATOM      5  C5  BNZ d   1       1.951   5.262   3.251  0.00  0.00     0.000 A 
ATOM      6  C6  BNZ d   1       0.891   4.986   4.083  0.00  0.00     0.000 A 
ENDROOT
TORSDOF 0
ENDMDL
