MODEL 1
REMARK minimizedAffinity 4.72660542
REMARK minimizedRMSD -1
REMARK  0 active torsions:
REMARK  status: ('A' for Active; 'I' for Inactive)
ROOT
ATOM      1  C1  BNZ d   1       3.774   2.280  -3.060  0.00  0.00     0.000 A 
ATOM      2  C2  BNZ d   1       4.240   3.381  -2.393  0.00  0.00     0.000 A 
ATOM      3  C3  BNZ d   1       5.296   4.099  -2.879  0.00  0.00     0.000 A 
ATOM      4  C4  BNZ d   1       5.910   3.693  -4.009  0.00  0.00     0.000 A 
ATOM      5  C5  BNZ d   1       5.458   2.579  -4.689  0.00  0.00     0.000 A 
ATOM      6  C6  BNZ d   1       4.370   1.881  -4.217  0.00  0.00     0.000 A 
ENDROOT
TORSDOF 0
ENDMDL
