MODEL 1
REMARK minimizedAffinity -2.58664322
REMARK minimizedRMSD -1
REMARK  0 active torsions:
REMARK  status: ('A' for Active; 'I' for Inactive)
ROOT
ATOM      1  C1  BNZ d   1      -2.999   3.027  -6.000  0.00  0.00     0.000 A 
ATOM      2  C2  BNZ d   1      -2.010   3.151  -5.060  0.00  0.00     0.000 A 
ATOM      3  C3  BNZ d   1      -2.069   4.129  -4.108  0.00  0.00     0.000 A 
ATOM      4  C4  BNZ d   1      -3.093   5.006  -4.120  0.00  0.00     0.000 A 
ATOM      5  C5  BNZ d   1      -4.093   4.900  -5.066  0.00  0.00     0.000 A 
ATOM      6  C6  BNZ d   1      -4.051   3.890  -6.000  0.00  0.00     0.000 A 
ENDROOT
TORSDOF 0
ENDMDL
