MODEL 1
REMARK minimizedAffinity -0.229997978
REMARK minimizedRMSD -1
REMARK  0 active torsions:
REMARK  status: ('A' for Active; 'I' for Inactive)
ROOT
ATOM      1  C1  BNZ d   1      -3.294   3.194  -3.757  0.00  0.00     0.000 A 
ATOM      2  C2  BNZ d   1      -3.002   2.463  -4.877  0.00  0.00     0.000 A 
ATOM      3  C3  BNZ d   1      -2.489   3.064  -5.992  0.00  0.00     0.000 A 
ATOM      4  C4  BNZ d   1      -2.306   4.400  -6.000  0.00  0.00     0.000 A 
ATOM      5  C5  BNZ d   1      -2.604   5.153  -4.882  0.00  0.00     0.000 A 
ATOM      6  C6  BNZ d   1      -3.084   4.539  -3.748  0.00  0.00     0.000 A 
ENDROOT
TORSDOF 0
ENDMDL
