MODEL 1
REMARK minimizedAffinity -0.0466799177
REMARK minimizedRMSD -1
REMARK  0 active torsions:
REMARK  status: ('A' for Active; 'I' for Inactive)
ROOT
ATOM      1  C1  BNZ d   1       2.919   2.980  -5.957  0.00  0.00     0.000 A 
ATOM      2  C2  BNZ d   1       1.687   3.578  -5.999  0.00  0.00     0.000 A 
ATOM      3  C3  BNZ d   1       0.545   2.827  -6.000  0.00  0.00     0.000 A 
ATOM      4  C4  BNZ d   1       0.635   1.481  -6.000  0.00  0.00     0.000 A 
ATOM      5  C5  BNZ d   1       1.870   0.864  -5.967  0.00  0.00     0.000 A 
ATOM      6  C6  BNZ d   1       3.017   1.623  -5.927  0.00  0.00     0.000 A 
ENDROOT
TORSDOF 0
ENDMDL
