MODEL 1
REMARK minimizedAffinity -4.13995838
REMARK minimizedRMSD -1
REMARK  0 active torsions:
REMARK  status: ('A' for Active; 'I' for Inactive)
ROOT
ATOM      1  C1  BNZ d   1      -0.727   0.532   0.081  0.00  0.00     0.000 A 
ATOM      2  C2  BNZ d   1      -1.582   1.586   0.263  0.00  0.00     0.000 A 
ATOM      3  C3  BNZ d   1      -1.108   2.864   0.361  0.00  0.00     0.000 A 
ATOM      4  C4  BNZ d   1       0.222   3.083   0.316  0.00  0.00     0.000 A 
ATOM      5  C5  BNZ d   1       1.098   2.030   0.143  0.00  0.00     0.000 A 
ATOM      6  C6  BNZ d   1       0.614   0.749   0.006  0.00  0.00     0.000 A 
ENDROOT
TORSDOF 0
ENDMDL
