MODEL 1
REMARK minimizedAffinity -1.46936262
REMARK minimizedRMSD -1
REMARK  1 active torsions:
REMARK  status: ('A' for Active; 'I' for Inactive)
REMARK    1  A    between atoms: C3_4  and  O_7 
ROOT
ATOM      1  C   UNL d   1      -1.137   1.475  -0.811  0.00  0.00    -0.033 A 
ATOM      2  C1  UNL d   1      -0.047   1.300   0.043  0.00  0.00     0.039 A 
ATOM      3  C2  UNL d   1       0.064   0.136   0.807  0.00  0.00    -0.080 A 
ATOM      4  C3  UNL d   1      -0.920  -0.843   0.706  0.00  0.00     0.150 A 
ATOM      5  C4  UNL d   1      -2.006  -0.677  -0.146  0.00  0.00    -0.007 A 
ATOM      6  C5  UNL d   1      -2.116   0.486  -0.907  0.00  0.00     0.039 A 
ENDROOT
BRANCH   4   7
ATOM      7  O   UNL d   1      -0.857  -1.994   1.436  0.00  0.00    -0.526 OA
ATOM      8  H5  UNL d   1      -0.068  -1.957   2.001  0.00  0.00     0.418 HD
ENDBRANCH   4   7
TORSDOF 1
ENDMDL
