MODEL 1
REMARK minimizedAffinity -5.88102627
REMARK minimizedRMSD -1
REMARK  1 active torsions:
REMARK  status: ('A' for Active; 'I' for Inactive)
REMARK    1  A    between atoms: C3_4  and  O_7 
ROOT
ATOM      1  C   UNL d   1      -0.611  -0.080   0.383  0.00  0.00    -0.033 A 
ATOM      2  C1  UNL d   1       0.118  -1.235   0.671  0.00  0.00     0.039 A 
ATOM      3  C2  UNL d   1       1.510  -1.228   0.571  0.00  0.00    -0.080 A 
ATOM      4  C3  UNL d   1       2.161  -0.061   0.182  0.00  0.00     0.150 A 
ATOM      5  C4  UNL d   1       1.442   1.095  -0.103  0.00  0.00    -0.007 A 
ATOM      6  C5  UNL d   1       0.052   1.086  -0.003  0.00  0.00     0.039 A 
ENDROOT
BRANCH   4   7
ATOM      7  O   UNL d   1       3.519  -0.006   0.066  0.00  0.00    -0.526 OA
ATOM      8  H5  UNL d   1       3.880  -0.886   0.266  0.00  0.00     0.418 HD
ENDBRANCH   4   7
TORSDOF 1
ENDMDL
