MODEL 1
REMARK minimizedAffinity -3.59604096
REMARK minimizedRMSD -1
REMARK  1 active torsions:
REMARK  status: ('A' for Active; 'I' for Inactive)
REMARK    1  A    between atoms: C3_4  and  O_7 
ROOT
ATOM      1  C   UNL d   1      -2.216  -0.040  -2.803  0.00  0.00    -0.033 A 
ATOM      2  C1  UNL d   1      -2.664  -1.361  -2.749  0.00  0.00     0.039 A 
ATOM      3  C2  UNL d   1      -2.710  -2.035  -1.528  0.00  0.00    -0.080 A 
ATOM      4  C3  UNL d   1      -2.308  -1.377  -0.369  0.00  0.00     0.150 A 
ATOM      5  C4  UNL d   1      -1.864  -0.060  -0.414  0.00  0.00    -0.007 A 
ATOM      6  C5  UNL d   1      -1.817   0.611  -1.635  0.00  0.00     0.039 A 
ENDROOT
BRANCH   4   7
ATOM      7  O   UNL d   1      -2.331  -1.996   0.846  0.00  0.00    -0.526 OA
ATOM      8  H5  UNL d   1      -2.632  -2.911   0.720  0.00  0.00     0.418 HD
ENDBRANCH   4   7
TORSDOF 1
ENDMDL
