MODEL 1
REMARK minimizedAffinity -1.68716013
REMARK minimizedRMSD -1
REMARK  1 active torsions:
REMARK  status: ('A' for Active; 'I' for Inactive)
REMARK    1  A    between atoms: C3_4  and  O_7 
ROOT
ATOM      1  C   UNL d   1      -2.776   0.035  -1.858  0.00  0.00    -0.033 A 
ATOM      2  C1  UNL d   1      -2.882   0.091  -3.250  0.00  0.00     0.039 A 
ATOM      3  C2  UNL d   1      -2.914   1.326  -3.900  0.00  0.00    -0.080 A 
ATOM      4  C3  UNL d   1      -2.838   2.496  -3.149  0.00  0.00     0.150 A 
ATOM      5  C4  UNL d   1      -2.729   2.448  -1.763  0.00  0.00    -0.007 A 
ATOM      6  C5  UNL d   1      -2.699   1.213  -1.115  0.00  0.00     0.039 A 
ENDROOT
BRANCH   4   7
ATOM      7  O   UNL d   1      -2.871   3.724  -3.739  0.00  0.00    -0.526 OA
ATOM      8  H5  UNL d   1      -2.977   3.603  -4.698  0.00  0.00     0.418 HD
ENDBRANCH   4   7
TORSDOF 1
ENDMDL
