MODEL 1
REMARK minimizedAffinity -5.63770485
REMARK minimizedRMSD -1
REMARK  1 active torsions:
REMARK  status: ('A' for Active; 'I' for Inactive)
REMARK    1  A    between atoms: C3_4  and  O_7 
ROOT
ATOM      1  C   UNL d   1      -0.606  -1.026   0.775  0.00  0.00    -0.033 A 
ATOM      2  C1  UNL d   1      -0.135   0.184   0.262  0.00  0.00     0.039 A 
ATOM      3  C2  UNL d   1       1.233   0.462   0.271  0.00  0.00    -0.080 A 
ATOM      4  C3  UNL d   1       2.118  -0.477   0.793  0.00  0.00     0.150 A 
ATOM      5  C4  UNL d   1       1.656  -1.686   1.302  0.00  0.00    -0.007 A 
ATOM      6  C5  UNL d   1       0.289  -1.962   1.294  0.00  0.00     0.039 A 
ENDROOT
BRANCH   4   7
ATOM      7  O   UNL d   1       3.462  -0.248   0.827  0.00  0.00    -0.526 OA
ATOM      8  H5  UNL d   1       3.632   0.639   0.468  0.00  0.00     0.418 HD
ENDBRANCH   4   7
TORSDOF 1
ENDMDL
