MODEL 1
REMARK minimizedAffinity -4.96045685
REMARK minimizedRMSD -1
REMARK  1 active torsions:
REMARK  status: ('A' for Active; 'I' for Inactive)
REMARK    1  A    between atoms: C3_4  and  O_7 
ROOT
ATOM      1  C   UNL d   1       2.844  -1.393   1.230  0.00  0.00    -0.033 A 
ATOM      2  C1  UNL d   1       1.974  -0.868   0.273  0.00  0.00     0.039 A 
ATOM      3  C2  UNL d   1       0.602  -1.111   0.366  0.00  0.00    -0.080 A 
ATOM      4  C3  UNL d   1       0.114  -1.878   1.421  0.00  0.00     0.150 A 
ATOM      5  C4  UNL d   1       0.975  -2.401   2.380  0.00  0.00    -0.007 A 
ATOM      6  C5  UNL d   1       2.344  -2.158   2.284  0.00  0.00     0.039 A 
ENDROOT
BRANCH   4   7
ATOM      7  O   UNL d   1      -1.216  -2.146   1.551  0.00  0.00    -0.526 OA
ATOM      8  H5  UNL d   1      -1.686  -1.745   0.801  0.00  0.00     0.418 HD
ENDBRANCH   4   7
TORSDOF 1
ENDMDL
