MODEL 1
REMARK minimizedAffinity -2.57752752
REMARK minimizedRMSD -1
REMARK  1 active torsions:
REMARK  status: ('A' for Active; 'I' for Inactive)
REMARK    1  A    between atoms: C3_4  and  O_7 
ROOT
ATOM      1  C   UNL d   1      -1.194  -0.939   0.471  0.00  0.00    -0.033 A 
ATOM      2  C1  UNL d   1      -1.103   0.419   0.160  0.00  0.00     0.039 A 
ATOM      3  C2  UNL d   1       0.121   1.082   0.267  0.00  0.00    -0.080 A 
ATOM      4  C3  UNL d   1       1.246   0.376   0.685  0.00  0.00     0.150 A 
ATOM      5  C4  UNL d   1       1.164  -0.978   0.992  0.00  0.00    -0.007 A 
ATOM      6  C5  UNL d   1      -0.060  -1.638   0.885  0.00  0.00     0.039 A 
ENDROOT
BRANCH   4   7
ATOM      7  O   UNL d   1       2.461   0.981   0.809  0.00  0.00    -0.526 OA
ATOM      8  H5  UNL d   1       2.360   1.922   0.591  0.00  0.00     0.418 HD
ENDBRANCH   4   7
TORSDOF 1
ENDMDL
