MODEL 1
REMARK minimizedAffinity -5.23183918
REMARK minimizedRMSD -1
REMARK  1 active torsions:
REMARK  status: ('A' for Active; 'I' for Inactive)
REMARK    1  A    between atoms: C3_4  and  O_7 
ROOT
ATOM      1  C   UNL d   1       3.222  -0.862   1.660  0.00  0.00    -0.033 A 
ATOM      2  C1  UNL d   1       2.405  -1.965   1.406  0.00  0.00     0.039 A 
ATOM      3  C2  UNL d   1       1.271  -1.826   0.604  0.00  0.00    -0.080 A 
ATOM      4  C3  UNL d   1       0.966  -0.581   0.062  0.00  0.00     0.150 A 
ATOM      5  C4  UNL d   1       1.777   0.522   0.308  0.00  0.00    -0.007 A 
ATOM      6  C5  UNL d   1       2.909   0.381   1.110  0.00  0.00     0.039 A 
ENDROOT
BRANCH   4   7
ATOM      7  O   UNL d   1      -0.133  -0.395  -0.723  0.00  0.00    -0.526 OA
ATOM      8  H5  UNL d   1      -0.615  -1.237  -0.782  0.00  0.00     0.418 HD
ENDBRANCH   4   7
TORSDOF 1
ENDMDL
