MODEL 1
REMARK minimizedAffinity -2.4570086
REMARK minimizedRMSD -1
REMARK  1 active torsions:
REMARK  status: ('A' for Active; 'I' for Inactive)
REMARK    1  A    between atoms: C3_4  and  O_7 
ROOT
ATOM      1  C   UNL d   1       0.043   1.256  -0.571  0.00  0.00    -0.033 A 
ATOM      2  C1  UNL d   1      -1.108   0.465  -0.548  0.00  0.00     0.039 A 
ATOM      3  C2  UNL d   1      -1.121  -0.732   0.171  0.00  0.00    -0.080 A 
ATOM      4  C3  UNL d   1       0.021  -1.126   0.863  0.00  0.00     0.150 A 
ATOM      5  C4  UNL d   1       1.170  -0.341   0.848  0.00  0.00    -0.007 A 
ATOM      6  C5  UNL d   1       1.181   0.853   0.128  0.00  0.00     0.039 A 
ENDROOT
BRANCH   4   7
ATOM      7  O   UNL d   1       0.058  -2.288   1.575  0.00  0.00    -0.526 OA
ATOM      8  H5  UNL d   1      -0.796  -2.739   1.471  0.00  0.00     0.418 HD
ENDBRANCH   4   7
TORSDOF 1
ENDMDL
