MODEL 1
REMARK minimizedAffinity -5.10862017
REMARK minimizedRMSD -1
REMARK  1 active torsions:
REMARK  status: ('A' for Active; 'I' for Inactive)
REMARK    1  A    between atoms: C3_4  and  O_7 
ROOT
ATOM      1  C   UNL d   1      -0.435  -0.839   0.628  0.00  0.00    -0.033 A 
ATOM      2  C1  UNL d   1       0.024   0.438   0.297  0.00  0.00     0.039 A 
ATOM      3  C2  UNL d   1       1.391   0.720   0.326  0.00  0.00    -0.080 A 
ATOM      4  C3  UNL d   1       2.287  -0.282   0.687  0.00  0.00     0.150 A 
ATOM      5  C4  UNL d   1       1.838  -1.557   1.014  0.00  0.00    -0.007 A 
ATOM      6  C5  UNL d   1       0.472  -1.837   0.986  0.00  0.00     0.039 A 
ENDROOT
BRANCH   4   7
ATOM      7  O   UNL d   1       3.631  -0.053   0.734  0.00  0.00    -0.526 OA
ATOM      8  H5  UNL d   1       3.792   0.879   0.511  0.00  0.00     0.418 HD
ENDBRANCH   4   7
TORSDOF 1
ENDMDL
