MODEL 1
REMARK minimizedAffinity 7.90747261
REMARK minimizedRMSD -1
REMARK  1 active torsions:
REMARK  status: ('A' for Active; 'I' for Inactive)
REMARK    1  A    between atoms: C1_2  and  C2_3 
ROOT
ATOM      1  C2  UNL d   1      -0.066  -0.911  -1.745  0.00  0.00    -0.077 A 
ATOM      2  C3  UNL d   1       0.211  -1.667  -2.893  0.00  0.00     0.002 A 
ATOM      3  C4  UNL d   1       1.508  -2.116  -3.147  0.00  0.00     0.002 A 
ATOM      4  C5  UNL d   1       2.537  -1.819  -2.257  0.00  0.00    -0.004 A 
ATOM      5  C6  UNL d   1       2.273  -1.066  -1.113  0.00  0.00     0.002 A 
ATOM      6  C7  UNL d   1       0.977  -0.615  -0.858  0.00  0.00     0.002 A 
ENDROOT
BRANCH   1   7
ATOM      7  C1  UNL d   1      -1.474  -0.467  -1.443  0.00  0.00     0.055 C 
ATOM      8  C   UNL d   1      -1.751   0.917  -2.011  0.00  0.00     0.019 C 
ENDBRANCH   1   7
TORSDOF 1
ENDMDL
