MODEL 1
REMARK minimizedAffinity 14.0408802
REMARK minimizedRMSD -1
REMARK  1 active torsions:
REMARK  status: ('A' for Active; 'I' for Inactive)
REMARK    1  A    between atoms: C1_2  and  C2_3 
ROOT
ATOM      1  C2  UNL d   1       3.181  -1.093  -0.516  0.00  0.00    -0.077 A 
ATOM      2  C3  UNL d   1       2.830  -1.678  -1.741  0.00  0.00     0.002 A 
ATOM      3  C4  UNL d   1       2.017  -2.813  -1.774  0.00  0.00     0.002 A 
ATOM      4  C5  UNL d   1       1.546  -3.369  -0.587  0.00  0.00    -0.004 A 
ATOM      5  C6  UNL d   1       1.892  -2.796   0.636  0.00  0.00     0.002 A 
ATOM      6  C7  UNL d   1       2.705  -1.662   0.671  0.00  0.00     0.002 A 
ENDROOT
BRANCH   1   7
ATOM      7  C1  UNL d   1       4.017   0.160  -0.481  0.00  0.00     0.055 C 
ATOM      8  C   UNL d   1       3.205   1.353   0.004  0.00  0.00     0.019 C 
ENDBRANCH   1   7
TORSDOF 1
ENDMDL
