MODEL 1
REMARK minimizedAffinity 7.78261328
REMARK minimizedRMSD -1
REMARK  1 active torsions:
REMARK  status: ('A' for Active; 'I' for Inactive)
REMARK    1  A    between atoms: C1_2  and  C2_3 
ROOT
ATOM      1  C2  UNL d   1       3.411  -0.133  -0.222  0.00  0.00    -0.077 A 
ATOM      2  C3  UNL d   1       2.559   0.758   0.445  0.00  0.00     0.002 A 
ATOM      3  C4  UNL d   1       3.014   2.023   0.822  0.00  0.00     0.002 A 
ATOM      4  C5  UNL d   1       4.321   2.410   0.531  0.00  0.00    -0.004 A 
ATOM      5  C6  UNL d   1       5.176   1.531  -0.131  0.00  0.00     0.002 A 
ATOM      6  C7  UNL d   1       4.723   0.265  -0.506  0.00  0.00     0.002 A 
ENDROOT
BRANCH   1   7
ATOM      7  C1  UNL d   1       2.907  -1.479  -0.673  0.00  0.00     0.055 C 
ATOM      8  C   UNL d   1       2.592  -2.378   0.515  0.00  0.00     0.019 C 
ENDBRANCH   1   7
TORSDOF 1
ENDMDL
