MODEL 1
REMARK minimizedAffinity 6.17857742
REMARK minimizedRMSD -1
REMARK  1 active torsions:
REMARK  status: ('A' for Active; 'I' for Inactive)
REMARK    1  A    between atoms: C1_2  and  C2_3 
ROOT
ATOM      1  C2  UNL d   1       3.129  -0.752  -0.397  0.00  0.00    -0.077 A 
ATOM      2  C3  UNL d   1       4.442  -0.275  -0.524  0.00  0.00     0.002 A 
ATOM      3  C4  UNL d   1       4.737   1.061  -0.247  0.00  0.00     0.002 A 
ATOM      4  C5  UNL d   1       3.728   1.929   0.162  0.00  0.00    -0.004 A 
ATOM      5  C6  UNL d   1       2.419   1.465   0.290  0.00  0.00     0.002 A 
ATOM      6  C7  UNL d   1       2.121   0.130   0.012  0.00  0.00     0.002 A 
ENDROOT
BRANCH   1   7
ATOM      7  C1  UNL d   1       2.817  -2.204  -0.648  0.00  0.00     0.055 C 
ATOM      8  C   UNL d   1       2.208  -2.860   0.583  0.00  0.00     0.019 C 
ENDBRANCH   1   7
TORSDOF 1
ENDMDL
