MODEL 1
REMARK minimizedAffinity 5.64850855
REMARK minimizedRMSD -1
REMARK  0 active torsions:
REMARK  status: ('A' for Active; 'I' for Inactive)
ROOT
ATOM      1  C1  DEN d   1       2.721  -0.747   3.009  0.00  0.00     0.130 A 
ATOM      2  C2  DEN d   1       1.460  -0.858   2.282  0.00  0.00    -0.031 A 
ATOM      3  C3  DEN d   1       0.928  -2.219   2.496  0.00  0.00     0.027 A 
ATOM      4  C4  DEN d   1       1.927  -4.153   3.879  0.00  0.00     0.027 A 
ATOM      5  C5  DEN d   1       2.989  -4.537   4.667  0.00  0.00    -0.003 A 
ATOM      6  C6  DEN d   1       4.045  -3.704   4.928  0.00  0.00     0.001 A 
ATOM      7  C7  DEN d   1       4.039  -2.427   4.433  0.00  0.00     0.017 A 
ATOM      8  C8  DEN d   1       2.975  -2.034   3.631  0.00  0.00    -0.094 A 
ATOM      9  C9  DEN d   1       1.912  -2.887   3.389  0.00  0.00    -0.072 A 
ENDROOT
TORSDOF 0
ENDMDL
