MODEL 1
REMARK minimizedAffinity -3.52671099
REMARK minimizedRMSD -1
REMARK  0 active torsions:
REMARK  status: ('A' for Active; 'I' for Inactive)
ROOT
ATOM      1  C1  DEN d   1       0.485  -5.149   4.969  0.00  0.00     0.130 A 
ATOM      2  C2  DEN d   1       1.325  -5.922   5.880  0.00  0.00    -0.031 A 
ATOM      3  C3  DEN d   1       2.625  -5.232   5.999  0.00  0.00     0.027 A 
ATOM      4  C4  DEN d   1       3.413  -3.050   4.872  0.00  0.00     0.027 A 
ATOM      5  C5  DEN d   1       3.054  -2.041   4.005  0.00  0.00    -0.003 A 
ATOM      6  C6  DEN d   1       1.837  -2.016   3.378  0.00  0.00     0.001 A 
ATOM      7  C7  DEN d   1       0.916  -2.995   3.643  0.00  0.00     0.017 A 
ATOM      8  C8  DEN d   1       1.273  -4.020   4.510  0.00  0.00    -0.094 A 
ATOM      9  C9  DEN d   1       2.504  -4.021   5.144  0.00  0.00    -0.072 A 
ENDROOT
TORSDOF 0
ENDMDL
