MODEL 1
REMARK minimizedAffinity 9.65497589
REMARK minimizedRMSD -1
REMARK  0 active torsions:
REMARK  status: ('A' for Active; 'I' for Inactive)
ROOT
ATOM      1  C1  DEN d   1      -2.562   2.564  -1.119  0.00  0.00     0.130 A 
ATOM      2  C2  DEN d   1      -3.161   2.678  -2.446  0.00  0.00    -0.031 A 
ATOM      3  C3  DEN d   1      -4.604   2.942  -2.275  0.00  0.00     0.027 A 
ATOM      4  C4  DEN d   1      -5.960   3.188  -0.095  0.00  0.00     0.027 A 
ATOM      5  C5  DEN d   1      -5.890   3.159   1.280  0.00  0.00    -0.003 A 
ATOM      6  C6  DEN d   1      -4.721   2.899   1.946  0.00  0.00     0.001 A 
ATOM      7  C7  DEN d   1      -3.566   2.701   1.238  0.00  0.00     0.017 A 
ATOM      8  C8  DEN d   1      -3.630   2.721  -0.149  0.00  0.00    -0.094 A 
ATOM      9  C9  DEN d   1      -4.819   2.998  -0.804  0.00  0.00    -0.072 A 
ENDROOT
TORSDOF 0
ENDMDL
