MODEL 1
REMARK minimizedAffinity 1.95672989
REMARK minimizedRMSD -1
REMARK  0 active torsions:
REMARK  status: ('A' for Active; 'I' for Inactive)
ROOT
ATOM      1  C1  DEN d   1       1.116  -5.997  -4.117  0.00  0.00     0.130 A 
ATOM      2  C2  DEN d   1       1.651  -5.954  -5.475  0.00  0.00    -0.031 A 
ATOM      3  C3  DEN d   1       3.125  -5.934  -5.384  0.00  0.00     0.027 A 
ATOM      4  C4  DEN d   1       4.622  -5.969  -3.284  0.00  0.00     0.027 A 
ATOM      5  C5  DEN d   1       4.624  -5.993  -1.907  0.00  0.00    -0.003 A 
ATOM      6  C6  DEN d   1       3.466  -5.986  -1.175  0.00  0.00     0.001 A 
ATOM      7  C7  DEN d   1       2.256  -6.000  -1.818  0.00  0.00     0.017 A 
ATOM      8  C8  DEN d   1       2.247  -5.968  -3.207  0.00  0.00    -0.094 A 
ATOM      9  C9  DEN d   1       3.428  -5.988  -3.928  0.00  0.00    -0.072 A 
ENDROOT
TORSDOF 0
ENDMDL
