MODEL 1
REMARK minimizedAffinity 4.46607876
REMARK minimizedRMSD -1
REMARK  0 active torsions:
REMARK  status: ('A' for Active; 'I' for Inactive)
ROOT
ATOM      1  C1  DEN d   1      -2.454   0.268  -2.372  0.00  0.00     0.130 A 
ATOM      2  C2  DEN d   1      -3.108   0.798  -3.566  0.00  0.00    -0.031 A 
ATOM      3  C3  DEN d   1      -3.721   2.095  -3.214  0.00  0.00     0.027 A 
ATOM      4  C4  DEN d   1      -3.716   3.330  -0.950  0.00  0.00     0.027 A 
ATOM      5  C5  DEN d   1      -3.299   3.268   0.362  0.00  0.00    -0.003 A 
ATOM      6  C6  DEN d   1      -2.607   2.196   0.858  0.00  0.00     0.001 A 
ATOM      7  C7  DEN d   1      -2.271   1.161   0.026  0.00  0.00     0.017 A 
ATOM      8  C8  DEN d   1      -2.694   1.212  -1.295  0.00  0.00    -0.094 A 
ATOM      9  C9  DEN d   1      -3.382   2.311  -1.781  0.00  0.00    -0.072 A 
ENDROOT
TORSDOF 0
ENDMDL
