MODEL 1
REMARK minimizedAffinity 8.40501118
REMARK minimizedRMSD -1
REMARK  0 active torsions:
REMARK  status: ('A' for Active; 'I' for Inactive)
ROOT
ATOM      1  C1  DEN d   1       5.596  -5.980  -4.419  0.00  0.00     0.130 A 
ATOM      2  C2  DEN d   1       5.178  -5.999  -5.818  0.00  0.00    -0.031 A 
ATOM      3  C3  DEN d   1       3.702  -5.976  -5.854  0.00  0.00     0.027 A 
ATOM      4  C4  DEN d   1       2.032  -5.909  -3.890  0.00  0.00     0.027 A 
ATOM      5  C5  DEN d   1       1.913  -5.893  -2.517  0.00  0.00    -0.003 A 
ATOM      6  C6  DEN d   1       3.004  -5.939  -1.689  0.00  0.00     0.001 A 
ATOM      7  C7  DEN d   1       4.264  -5.958  -2.227  0.00  0.00     0.017 A 
ATOM      8  C8  DEN d   1       4.391  -5.981  -3.609  0.00  0.00    -0.094 A 
ATOM      9  C9  DEN d   1       3.277  -5.922  -4.429  0.00  0.00    -0.072 A 
ENDROOT
TORSDOF 0
ENDMDL
