MODEL 1
REMARK minimizedAffinity -0.38860932
REMARK minimizedRMSD -1
REMARK  2 active torsions:
REMARK  status: ('A' for Active; 'I' for Inactive)
REMARK    1  A    between atoms: C1_2  and  C2_3 
REMARK    2  A    between atoms: C2_3  and  C3_4 
ROOT
ATOM      1  C3  UNL d   1      -1.879   1.598   2.663  0.00  0.00    -0.075 A 
ATOM      2  C4  UNL d   1      -2.178   0.230   2.595  0.00  0.00     0.002 A 
ATOM      3  C5  UNL d   1      -1.339  -0.645   1.904  0.00  0.00     0.002 A 
ATOM      4  C6  UNL d   1      -0.199  -0.162   1.264  0.00  0.00    -0.004 A 
ATOM      5  C7  UNL d   1       0.099   1.198   1.311  0.00  0.00     0.002 A 
ATOM      6  C8  UNL d   1      -0.737   2.075   2.006  0.00  0.00     0.002 A 
ENDROOT
BRANCH   1   7
ATOM      7  C2  UNL d   1      -2.767   2.546   3.434  0.00  0.00     0.056 C 
BRANCH   7   8
ATOM      8  C1  UNL d   1      -4.006   1.882   4.044  0.00  0.00     0.007 C 
ATOM      9  C   UNL d   1      -4.646   2.709   5.151  0.00  0.00     0.009 C 
ENDBRANCH   7   8
ENDBRANCH   1   7
TORSDOF 2
ENDMDL
