MODEL 1
REMARK minimizedAffinity 6.15116072
REMARK minimizedRMSD -1
REMARK  2 active torsions:
REMARK  status: ('A' for Active; 'I' for Inactive)
REMARK    1  A    between atoms: C1_2  and  C2_3 
REMARK    2  A    between atoms: C2_3  and  C3_4 
ROOT
ATOM      1  C3  UNL d   1       0.303   0.083   2.283  0.00  0.00    -0.075 A 
ATOM      2  C4  UNL d   1       0.625  -0.054   0.924  0.00  0.00     0.002 A 
ATOM      3  C5  UNL d   1       0.620   1.056   0.080  0.00  0.00     0.002 A 
ATOM      4  C6  UNL d   1       0.285   2.313   0.578  0.00  0.00    -0.004 A 
ATOM      5  C7  UNL d   1      -0.052   2.458   1.922  0.00  0.00     0.002 A 
ATOM      6  C8  UNL d   1      -0.044   1.350   2.771  0.00  0.00     0.002 A 
ENDROOT
BRANCH   1   7
ATOM      7  C2  UNL d   1       0.335  -1.109   3.208  0.00  0.00     0.056 C 
BRANCH   7   8
ATOM      8  C1  UNL d   1      -0.954  -1.937   3.204  0.00  0.00     0.007 C 
ATOM      9  C   UNL d   1      -0.993  -2.983   2.098  0.00  0.00     0.009 C 
ENDBRANCH   7   8
ENDBRANCH   1   7
TORSDOF 2
ENDMDL
