MODEL 1
REMARK minimizedAffinity -0.909008443
REMARK minimizedRMSD -1
REMARK  2 active torsions:
REMARK  status: ('A' for Active; 'I' for Inactive)
REMARK    1  A    between atoms: C1_2  and  C2_3 
REMARK    2  A    between atoms: C2_3  and  C3_4 
ROOT
ATOM      1  C3  UNL d   1      -2.971   1.379   3.014  0.00  0.00    -0.075 A 
ATOM      2  C4  UNL d   1      -2.548   0.144   2.501  0.00  0.00     0.002 A 
ATOM      3  C5  UNL d   1      -1.321   0.031   1.847  0.00  0.00     0.002 A 
ATOM      4  C6  UNL d   1      -0.506   1.150   1.690  0.00  0.00    -0.004 A 
ATOM      5  C7  UNL d   1      -0.923   2.385   2.181  0.00  0.00     0.002 A 
ATOM      6  C8  UNL d   1      -2.149   2.500   2.839  0.00  0.00     0.002 A 
ENDROOT
BRANCH   1   7
ATOM      7  C2  UNL d   1      -4.285   1.502   3.748  0.00  0.00     0.056 C 
BRANCH   7   8
ATOM      8  C1  UNL d   1      -4.261   2.505   4.906  0.00  0.00     0.007 C 
ATOM      9  C   UNL d   1      -5.275   2.187   5.996  0.00  0.00     0.009 C 
ENDBRANCH   7   8
ENDBRANCH   1   7
TORSDOF 2
ENDMDL
