MODEL 1
REMARK minimizedAffinity 2.34134579
REMARK minimizedRMSD -1
REMARK  2 active torsions:
REMARK  status: ('A' for Active; 'I' for Inactive)
REMARK    1  A    between atoms: C1_2  and  C2_3 
REMARK    2  A    between atoms: C2_3  and  C3_4 
ROOT
ATOM      1  C3  UNL d   1      -4.008  -3.924  -1.136  0.00  0.00    -0.075 A 
ATOM      2  C4  UNL d   1      -3.715  -3.715  -2.492  0.00  0.00     0.002 A 
ATOM      3  C5  UNL d   1      -3.734  -2.428  -3.030  0.00  0.00     0.002 A 
ATOM      4  C6  UNL d   1      -4.055  -1.337  -2.225  0.00  0.00    -0.004 A 
ATOM      5  C7  UNL d   1      -4.364  -1.535  -0.881  0.00  0.00     0.002 A 
ATOM      6  C8  UNL d   1      -4.342  -2.821  -0.338  0.00  0.00     0.002 A 
ENDROOT
BRANCH   1   7
ATOM      7  C2  UNL d   1      -3.960  -5.311  -0.541  0.00  0.00     0.056 C 
BRANCH   7   8
ATOM      8  C1  UNL d   1      -2.598  -6.000  -0.673  0.00  0.00     0.007 C 
ATOM      9  C   UNL d   1      -1.470  -5.235   0.006  0.00  0.00     0.009 C 
ENDBRANCH   7   8
ENDBRANCH   1   7
TORSDOF 2
ENDMDL
