MODEL 1
REMARK minimizedAffinity -0.918675184
REMARK minimizedRMSD -1
REMARK  2 active torsions:
REMARK  status: ('A' for Active; 'I' for Inactive)
REMARK    1  A    between atoms: C1_2  and  C2_3 
REMARK    2  A    between atoms: C2_3  and  C3_4 
ROOT
ATOM      1  C3  UNL d   1      -3.584   1.673   3.752  0.00  0.00    -0.075 A 
ATOM      2  C4  UNL d   1      -2.609   2.677   3.659  0.00  0.00     0.002 A 
ATOM      3  C5  UNL d   1      -1.485   2.500   2.853  0.00  0.00     0.002 A 
ATOM      4  C6  UNL d   1      -1.315   1.315   2.139  0.00  0.00    -0.004 A 
ATOM      5  C7  UNL d   1      -2.269   0.304   2.237  0.00  0.00     0.002 A 
ATOM      6  C8  UNL d   1      -3.397   0.481   3.040  0.00  0.00     0.002 A 
ENDROOT
BRANCH   1   7
ATOM      7  C2  UNL d   1      -4.818   1.870   4.599  0.00  0.00     0.056 C 
BRANCH   7   8
ATOM      8  C1  UNL d   1      -4.576   2.687   5.873  0.00  0.00     0.007 C 
ATOM      9  C   UNL d   1      -5.497   3.894   5.997  0.00  0.00     0.009 C 
ENDBRANCH   7   8
ENDBRANCH   1   7
TORSDOF 2
ENDMDL
