MODEL 1
REMARK minimizedAffinity 3.07671452
REMARK minimizedRMSD -1
REMARK  2 active torsions:
REMARK  status: ('A' for Active; 'I' for Inactive)
REMARK    1  A    between atoms: C1_2  and  C2_3 
REMARK    2  A    between atoms: C2_3  and  C3_4 
ROOT
ATOM      1  C3  UNL d   1       1.121   0.378   0.723  0.00  0.00    -0.075 A 
ATOM      2  C4  UNL d   1       0.539   1.654   0.716  0.00  0.00     0.002 A 
ATOM      3  C5  UNL d   1      -0.580   1.926   1.504  0.00  0.00     0.002 A 
ATOM      4  C6  UNL d   1      -1.136   0.927   2.299  0.00  0.00    -0.004 A 
ATOM      5  C7  UNL d   1      -0.575  -0.349   2.302  0.00  0.00     0.002 A 
ATOM      6  C8  UNL d   1       0.547  -0.623   1.518  0.00  0.00     0.002 A 
ENDROOT
BRANCH   1   7
ATOM      7  C2  UNL d   1       2.350   0.086  -0.104  0.00  0.00     0.056 C 
BRANCH   7   8
ATOM      8  C1  UNL d   1       2.566   1.061  -1.267  0.00  0.00     0.007 C 
ATOM      9  C   UNL d   1       3.564   0.553  -2.299  0.00  0.00     0.009 C 
ENDBRANCH   7   8
ENDBRANCH   1   7
TORSDOF 2
ENDMDL
