MODEL 1
REMARK minimizedAffinity -2.95642424
REMARK minimizedRMSD -1
REMARK  2 active torsions:
REMARK  status: ('A' for Active; 'I' for Inactive)
REMARK    1  A    between atoms: C1_2  and  C2_3 
REMARK    2  A    between atoms: C2_3  and  C3_4 
ROOT
ATOM      1  C3  UNL d   1      -1.517   1.482   2.405  0.00  0.00    -0.075 A 
ATOM      2  C4  UNL d   1      -1.328   0.103   2.573  0.00  0.00     0.002 A 
ATOM      3  C5  UNL d   1      -0.252  -0.545   1.965  0.00  0.00     0.002 A 
ATOM      4  C6  UNL d   1       0.641   0.175   1.174  0.00  0.00    -0.004 A 
ATOM      5  C7  UNL d   1       0.454   1.542   0.987  0.00  0.00     0.002 A 
ATOM      6  C8  UNL d   1      -0.619   2.194   1.597  0.00  0.00     0.002 A 
ENDROOT
BRANCH   1   7
ATOM      7  C2  UNL d   1      -2.662   2.194   3.084  0.00  0.00     0.056 C 
BRANCH   7   8
ATOM      8  C1  UNL d   1      -3.579   1.270   3.892  0.00  0.00     0.007 C 
ATOM      9  C   UNL d   1      -4.506   2.022   4.838  0.00  0.00     0.009 C 
ENDBRANCH   7   8
ENDBRANCH   1   7
TORSDOF 2
ENDMDL
