MODEL 1
REMARK minimizedAffinity -5.09543276
REMARK minimizedRMSD -1
REMARK  2 active torsions:
REMARK  status: ('A' for Active; 'I' for Inactive)
REMARK    1  A    between atoms: C1_2  and  C2_3 
REMARK    2  A    between atoms: C2_3  and  C3_4 
ROOT
ATOM      1  C3  UNL d   1      -0.185   1.077   1.638  0.00  0.00    -0.075 A 
ATOM      2  C4  UNL d   1      -0.655  -0.233   1.814  0.00  0.00     0.002 A 
ATOM      3  C5  UNL d   1      -1.858  -0.470   2.479  0.00  0.00     0.002 A 
ATOM      4  C6  UNL d   1      -2.601   0.595   2.984  0.00  0.00    -0.004 A 
ATOM      5  C7  UNL d   1      -2.136   1.899   2.828  0.00  0.00     0.002 A 
ATOM      6  C8  UNL d   1      -0.934   2.140   2.160  0.00  0.00     0.002 A 
ENDROOT
BRANCH   1   7
ATOM      7  C2  UNL d   1       1.102   1.342   0.893  0.00  0.00     0.056 C 
BRANCH   7   8
ATOM      8  C1  UNL d   1       2.035   0.131   0.810  0.00  0.00     0.007 C 
ATOM      9  C   UNL d   1       2.857   0.092  -0.472  0.00  0.00     0.009 C 
ENDBRANCH   7   8
ENDBRANCH   1   7
TORSDOF 2
ENDMDL
