MODEL 1
REMARK minimizedAffinity 0.836481094
REMARK minimizedRMSD -1
REMARK  2 active torsions:
REMARK  status: ('A' for Active; 'I' for Inactive)
REMARK    1  A    between atoms: C1_2  and  C2_3 
REMARK    2  A    between atoms: C2_3  and  C3_4 
ROOT
ATOM      1  C3  UNL d   1      -2.995   1.430   2.947  0.00  0.00    -0.075 A 
ATOM      2  C4  UNL d   1      -2.434   0.275   2.384  0.00  0.00     0.002 A 
ATOM      3  C5  UNL d   1      -1.259   0.350   1.635  0.00  0.00     0.002 A 
ATOM      4  C6  UNL d   1      -0.637   1.579   1.432  0.00  0.00    -0.004 A 
ATOM      5  C7  UNL d   1      -1.194   2.736   1.972  0.00  0.00     0.002 A 
ATOM      6  C8  UNL d   1      -2.367   2.663   2.726  0.00  0.00     0.002 A 
ENDROOT
BRANCH   1   7
ATOM      7  C2  UNL d   1      -4.250   1.352   3.783  0.00  0.00     0.056 C 
BRANCH   7   8
ATOM      8  C1  UNL d   1      -4.455   2.551   4.714  0.00  0.00     0.007 C 
ATOM      9  C   UNL d   1      -5.196   2.195   5.996  0.00  0.00     0.009 C 
ENDBRANCH   7   8
ENDBRANCH   1   7
TORSDOF 2
ENDMDL
