MODEL 1
REMARK minimizedAffinity -2.12524366
REMARK minimizedRMSD -1
REMARK  2 active torsions:
REMARK  status: ('A' for Active; 'I' for Inactive)
REMARK    1  A    between atoms: C1_2  and  C2_3 
REMARK    2  A    between atoms: C2_3  and  C3_4 
ROOT
ATOM      1  C3  UNL d   1      -1.808  -4.669   0.720  0.00  0.00    -0.075 A 
ATOM      2  C4  UNL d   1      -2.802  -3.859   0.152  0.00  0.00     0.002 A 
ATOM      3  C5  UNL d   1      -3.110  -2.619   0.712  0.00  0.00     0.002 A 
ATOM      4  C6  UNL d   1      -2.439  -2.179   1.851  0.00  0.00    -0.004 A 
ATOM      5  C7  UNL d   1      -1.461  -2.983   2.433  0.00  0.00     0.002 A 
ATOM      6  C8  UNL d   1      -1.147  -4.222   1.872  0.00  0.00     0.002 A 
ENDROOT
BRANCH   1   7
ATOM      7  C2  UNL d   1      -1.448  -5.999   0.101  0.00  0.00     0.056 C 
BRANCH   7   8
ATOM      8  C1  UNL d   1      -0.205  -5.955  -0.794  0.00  0.00     0.007 C 
ATOM      9  C   UNL d   1      -0.524  -5.641  -2.249  0.00  0.00     0.009 C 
ENDBRANCH   7   8
ENDBRANCH   1   7
TORSDOF 2
ENDMDL
