MODEL 1
REMARK minimizedAffinity -1.08173633
REMARK minimizedRMSD -1
REMARK  2 active torsions:
REMARK  status: ('A' for Active; 'I' for Inactive)
REMARK    1  A    between atoms: C1_2  and  C2_3 
REMARK    2  A    between atoms: C2_3  and  C3_4 
ROOT
ATOM      1  C3  UNL d   1      -1.671   1.572   2.437  0.00  0.00    -0.075 A 
ATOM      2  C4  UNL d   1      -1.938   0.196   2.450  0.00  0.00     0.002 A 
ATOM      3  C5  UNL d   1      -1.082  -0.698   1.806  0.00  0.00     0.002 A 
ATOM      4  C6  UNL d   1       0.043  -0.228   1.133  0.00  0.00    -0.004 A 
ATOM      5  C7  UNL d   1       0.309   1.139   1.099  0.00  0.00     0.002 A 
ATOM      6  C8  UNL d   1      -0.543   2.036   1.747  0.00  0.00     0.002 A 
ENDROOT
BRANCH   1   7
ATOM      7  C2  UNL d   1      -2.577   2.542   3.157  0.00  0.00     0.056 C 
BRANCH   7   8
ATOM      8  C1  UNL d   1      -3.860   1.908   3.704  0.00  0.00     0.007 C 
ATOM      9  C   UNL d   1      -4.458   2.677   4.876  0.00  0.00     0.009 C 
ENDBRANCH   7   8
ENDBRANCH   1   7
TORSDOF 2
ENDMDL
