MODEL 1
REMARK minimizedAffinity 15.6496544
REMARK minimizedRMSD -1
REMARK  0 active torsions:
REMARK  status: ('A' for Active; 'I' for Inactive)
ROOT
ATOM      1  C   UNL d   1      -4.126   0.104  -4.895  0.00  0.00     0.124 A 
ATOM      2  C1  UNL d   1      -3.161   1.102  -4.913  0.00  0.00     0.062 A 
ATOM      3  C2  UNL d   1      -2.304   1.267  -3.828  0.00  0.00     0.162 A 
ATOM      4  C3  UNL d   1      -2.408   0.431  -2.716  0.00  0.00    -0.034 A 
ATOM      5  C4  UNL d   1      -3.381  -0.569  -2.705  0.00  0.00     0.162 A 
ATOM      6  C5  UNL d   1      -4.235  -0.730  -3.791  0.00  0.00     0.062 A 
ATOM      7  F   UNL d   1      -5.167  -1.694  -3.772  0.00  0.00    -0.097 F 
ATOM      8  F1  UNL d   1      -3.508  -1.390  -1.652  0.00  0.00    -0.096 F 
ATOM      9  I   UNL d   1      -1.128   0.675  -1.093  0.00  0.00    -0.060 I 
ATOM     10  F2  UNL d   1      -1.381   2.239  -3.873  0.00  0.00    -0.096 F 
ATOM     11  F3  UNL d   1      -3.054   1.910  -5.977  0.00  0.00    -0.097 F 
ATOM     12  F4  UNL d   1      -4.950  -0.052  -5.939  0.00  0.00    -0.092 F 
ENDROOT
TORSDOF 0
ENDMDL
