MODEL 1
REMARK minimizedAffinity 9.37258816
REMARK minimizedRMSD -1
REMARK  0 active torsions:
REMARK  status: ('A' for Active; 'I' for Inactive)
ROOT
ATOM      1  C   UNL d   1       3.143  -1.947  -1.352  0.00  0.00     0.124 A 
ATOM      2  C1  UNL d   1       3.859  -1.390  -2.403  0.00  0.00     0.062 A 
ATOM      3  C2  UNL d   1       4.433  -0.129  -2.268  0.00  0.00     0.162 A 
ATOM      4  C3  UNL d   1       4.293   0.584  -1.077  0.00  0.00    -0.034 A 
ATOM      5  C4  UNL d   1       3.571   0.018  -0.025  0.00  0.00     0.162 A 
ATOM      6  C5  UNL d   1       3.000  -1.243  -0.165  0.00  0.00     0.062 A 
ATOM      7  F   UNL d   1       2.309  -1.780   0.851  0.00  0.00    -0.097 F 
ATOM      8  F1  UNL d   1       3.418   0.676   1.133  0.00  0.00    -0.096 F 
ATOM      9  I   UNL d   1       5.149   2.470  -0.872  0.00  0.00    -0.060 I 
ATOM     10  F2  UNL d   1       5.119   0.385  -3.300  0.00  0.00    -0.096 F 
ATOM     11  F3  UNL d   1       3.998  -2.068  -3.551  0.00  0.00    -0.097 F 
ATOM     12  F4  UNL d   1       2.592  -3.160  -1.485  0.00  0.00    -0.092 F 
ENDROOT
TORSDOF 0
ENDMDL
