MODEL 1
REMARK minimizedAffinity 15.7990961
REMARK minimizedRMSD -1
REMARK  0 active torsions:
REMARK  status: ('A' for Active; 'I' for Inactive)
ROOT
ATOM      1  C   UNL d   1       4.802   0.008  -1.987  0.00  0.00     0.124 A 
ATOM      2  C1  UNL d   1       4.018   0.075  -0.843  0.00  0.00     0.062 A 
ATOM      3  C2  UNL d   1       3.055  -0.898  -0.596  0.00  0.00     0.162 A 
ATOM      4  C3  UNL d   1       2.870  -1.950  -1.494  0.00  0.00    -0.034 A 
ATOM      5  C4  UNL d   1       3.662  -2.010  -2.643  0.00  0.00     0.162 A 
ATOM      6  C5  UNL d   1       4.623  -1.035  -2.885  0.00  0.00     0.062 A 
ATOM      7  F   UNL d   1       5.379  -1.102  -3.991  0.00  0.00    -0.097 F 
ATOM      8  F1  UNL d   1       3.511  -3.007  -3.527  0.00  0.00    -0.096 F 
ATOM      9  I   UNL d   1       1.431  -3.408  -1.129  0.00  0.00    -0.060 I 
ATOM     10  F2  UNL d   1       2.312  -0.808   0.517  0.00  0.00    -0.096 F 
ATOM     11  F3  UNL d   1       4.189   1.082   0.026  0.00  0.00    -0.097 F 
ATOM     12  F4  UNL d   1       5.728   0.946  -2.223  0.00  0.00    -0.092 F 
ENDROOT
TORSDOF 0
ENDMDL
