MODEL 1
REMARK minimizedAffinity 16.5922222
REMARK minimizedRMSD -1
REMARK  0 active torsions:
REMARK  status: ('A' for Active; 'I' for Inactive)
ROOT
ATOM      1  C   UNL d   1       3.563   0.311  -0.868  0.00  0.00     0.124 A 
ATOM      2  C1  UNL d   1       3.235   0.272   0.480  0.00  0.00     0.062 A 
ATOM      3  C2  UNL d   1       3.839   1.152   1.373  0.00  0.00     0.162 A 
ATOM      4  C3  UNL d   1       4.777   2.080   0.921  0.00  0.00    -0.034 A 
ATOM      5  C4  UNL d   1       5.102   2.113  -0.436  0.00  0.00     0.162 A 
ATOM      6  C5  UNL d   1       4.496   1.231  -1.325  0.00  0.00     0.062 A 
ATOM      7  F   UNL d   1       4.814   1.270  -2.627  0.00  0.00    -0.097 F 
ATOM      8  F1  UNL d   1       6.000   2.992  -0.905  0.00  0.00    -0.096 F 
ATOM      9  I   UNL d   1       5.681   3.398   2.253  0.00  0.00    -0.060 I 
ATOM     10  F2  UNL d   1       3.502   1.092   2.670  0.00  0.00    -0.096 F 
ATOM     11  F3  UNL d   1       2.335  -0.617   0.924  0.00  0.00    -0.097 F 
ATOM     12  F4  UNL d   1       2.981  -0.538  -1.725  0.00  0.00    -0.092 F 
ENDROOT
TORSDOF 0
ENDMDL
