MODEL 1
REMARK minimizedAffinity 19.7276154
REMARK minimizedRMSD -1
REMARK  0 active torsions:
REMARK  status: ('A' for Active; 'I' for Inactive)
ROOT
ATOM      1  C   UNL d   1       4.286   0.116   0.063  0.00  0.00     0.124 A 
ATOM      2  C1  UNL d   1       3.707  -1.128   0.271  0.00  0.00     0.062 A 
ATOM      3  C2  UNL d   1       3.270  -1.886  -0.812  0.00  0.00     0.162 A 
ATOM      4  C3  UNL d   1       3.410  -1.403  -2.112  0.00  0.00    -0.034 A 
ATOM      5  C4  UNL d   1       3.993  -0.150  -2.313  0.00  0.00     0.162 A 
ATOM      6  C5  UNL d   1       4.428   0.604  -1.228  0.00  0.00     0.062 A 
ATOM      7  F   UNL d   1       4.987   1.806  -1.431  0.00  0.00    -0.097 F 
ATOM      8  F1  UNL d   1       4.143   0.346  -3.550  0.00  0.00    -0.096 F 
ATOM      9  I   UNL d   1       2.758  -2.533  -3.734  0.00  0.00    -0.060 I 
ATOM     10  F2  UNL d   1       2.714  -3.085  -0.582  0.00  0.00    -0.096 F 
ATOM     11  F3  UNL d   1       3.568  -1.602   1.517  0.00  0.00    -0.097 F 
ATOM     12  F4  UNL d   1       4.705   0.843   1.107  0.00  0.00    -0.092 F 
ENDROOT
TORSDOF 0
ENDMDL
