MODEL 1
REMARK minimizedAffinity 31.8892593
REMARK minimizedRMSD -1
REMARK  0 active torsions:
REMARK  status: ('A' for Active; 'I' for Inactive)
ROOT
ATOM      1  C   UNL d   1      -1.406  -5.267  -3.236  0.00  0.00     0.124 A 
ATOM      2  C1  UNL d   1      -0.665  -4.507  -4.130  0.00  0.00     0.062 A 
ATOM      3  C2  UNL d   1       0.408  -3.745  -3.678  0.00  0.00     0.162 A 
ATOM      4  C3  UNL d   1       0.748  -3.740  -2.325  0.00  0.00    -0.034 A 
ATOM      5  C4  UNL d   1      -0.003  -4.506  -1.432  0.00  0.00     0.162 A 
ATOM      6  C5  UNL d   1      -1.075  -5.266  -1.889  0.00  0.00     0.062 A 
ATOM      7  F   UNL d   1      -1.790  -6.000  -1.024  0.00  0.00    -0.097 F 
ATOM      8  F1  UNL d   1       0.296  -4.524  -0.125  0.00  0.00    -0.096 F 
ATOM      9  I   UNL d   1       2.352  -2.601  -1.646  0.00  0.00    -0.060 I 
ATOM     10  F2  UNL d   1       1.107  -3.020  -4.564  0.00  0.00    -0.096 F 
ATOM     11  F3  UNL d   1      -0.984  -4.505  -5.432  0.00  0.00    -0.097 F 
ATOM     12  F4  UNL d   1      -2.439  -5.999  -3.673  0.00  0.00    -0.092 F 
ENDROOT
TORSDOF 0
ENDMDL
