MODEL 1
REMARK minimizedAffinity 21.018589
REMARK minimizedRMSD -1
REMARK  0 active torsions:
REMARK  status: ('A' for Active; 'I' for Inactive)
ROOT
ATOM      1  C   UNL d   1       0.972   3.503   2.584  0.00  0.00     0.124 A 
ATOM      2  C1  UNL d   1       1.007   2.119   2.674  0.00  0.00     0.062 A 
ATOM      3  C2  UNL d   1       0.051   1.351   2.016  0.00  0.00     0.162 A 
ATOM      4  C3  UNL d   1      -0.948   1.965   1.260  0.00  0.00    -0.034 A 
ATOM      5  C4  UNL d   1      -0.976   3.359   1.176  0.00  0.00     0.162 A 
ATOM      6  C5  UNL d   1      -0.019   4.122   1.836  0.00  0.00     0.062 A 
ATOM      7  F   UNL d   1      -0.054   5.460   1.748  0.00  0.00    -0.097 F 
ATOM      8  F1  UNL d   1      -1.923   3.982   0.458  0.00  0.00    -0.096 F 
ATOM      9  I   UNL d   1      -2.379   0.820   0.274  0.00  0.00    -0.060 I 
ATOM     10  F2  UNL d   1       0.109   0.015   2.120  0.00  0.00    -0.096 F 
ATOM     11  F3  UNL d   1       1.963   1.519   3.398  0.00  0.00    -0.097 F 
ATOM     12  F4  UNL d   1       1.893   4.240   3.220  0.00  0.00    -0.092 F 
ENDROOT
TORSDOF 0
ENDMDL
