MODEL 1
REMARK minimizedAffinity 2.85524893
REMARK minimizedRMSD -1
REMARK  0 active torsions:
REMARK  status: ('A' for Active; 'I' for Inactive)
ROOT
ATOM      1  C   UNL d   1      -2.337  -2.382   2.594  0.00  0.00    -0.002 A 
ATOM      2  C1  UNL d   1      -1.272  -2.113   3.442  0.00  0.00     0.010 A 
ATOM      3  C2  UNL d   1      -0.229  -1.281   3.030  0.00  0.00     0.041 A 
ATOM      4  C3  UNL d   1      -0.276  -0.717   1.740  0.00  0.00    -0.075 A 
ATOM      5  S   UNL d   1       0.888   0.333   1.022  0.00  0.00     0.015 SA
ATOM      6  C4  UNL d   1      -0.002   0.450  -0.427  0.00  0.00     0.022 A 
ATOM      7  C5  UNL d   1      -1.161  -0.288  -0.382  0.00  0.00     0.026 A 
ATOM      8  C6  UNL d   1      -1.339  -0.972   0.869  0.00  0.00    -0.082 A 
ATOM      9  C7  UNL d   1      -2.380  -1.820   1.315  0.00  0.00     0.045 A 
ENDROOT
TORSDOF 0
ENDMDL
