MODEL 1
REMARK minimizedAffinity -1.4656961
REMARK minimizedRMSD -1
REMARK  0 active torsions:
REMARK  status: ('A' for Active; 'I' for Inactive)
ROOT
ATOM      1  C   UNL d   1      -5.980  -2.634  -3.862  0.00  0.00    -0.002 A 
ATOM      2  C1  UNL d   1      -5.994  -2.597  -5.249  0.00  0.00     0.010 A 
ATOM      3  C2  UNL d   1      -5.054  -3.318  -5.988  0.00  0.00     0.041 A 
ATOM      4  C3  UNL d   1      -4.091  -4.085  -5.303  0.00  0.00    -0.075 A 
ATOM      5  S   UNL d   1      -2.843  -5.049  -5.999  0.00  0.00     0.015 SA
ATOM      6  C4  UNL d   1      -2.262  -5.532  -4.471  0.00  0.00     0.022 A 
ATOM      7  C5  UNL d   1      -2.990  -4.981  -3.444  0.00  0.00     0.026 A 
ATOM      8  C6  UNL d   1      -4.057  -4.138  -3.907  0.00  0.00    -0.082 A 
ATOM      9  C7  UNL d   1      -5.023  -3.395  -3.186  0.00  0.00     0.045 A 
ENDROOT
TORSDOF 0
ENDMDL
