MODEL 1
REMARK minimizedAffinity -3.75714397
REMARK minimizedRMSD -1
REMARK  0 active torsions:
REMARK  status: ('A' for Active; 'I' for Inactive)
ROOT
ATOM      1  C   UNL d   1      -1.536  -4.956  -5.274  0.00  0.00    -0.002 A 
ATOM      2  C1  UNL d   1      -2.409  -5.999  -5.546  0.00  0.00     0.010 A 
ATOM      3  C2  UNL d   1      -3.766  -5.889  -5.236  0.00  0.00     0.041 A 
ATOM      4  C3  UNL d   1      -4.236  -4.699  -4.645  0.00  0.00    -0.075 A 
ATOM      5  S   UNL d   1      -5.856  -4.338  -4.181  0.00  0.00     0.015 SA
ATOM      6  C4  UNL d   1      -5.428  -2.790  -3.611  0.00  0.00     0.022 A 
ATOM      7  C5  UNL d   1      -4.085  -2.538  -3.764  0.00  0.00     0.026 A 
ATOM      8  C6  UNL d   1      -3.376  -3.634  -4.363  0.00  0.00    -0.082 A 
ATOM      9  C7  UNL d   1      -2.005  -3.778  -4.687  0.00  0.00     0.045 A 
ENDROOT
TORSDOF 0
ENDMDL
