MODEL 1
REMARK minimizedAffinity -4.02099037
REMARK minimizedRMSD -1
REMARK  0 active torsions:
REMARK  status: ('A' for Active; 'I' for Inactive)
ROOT
ATOM      1  C   UNL d   1      -5.471  -2.361  -5.248  0.00  0.00    -0.002 A 
ATOM      2  C1  UNL d   1      -6.000  -3.334  -4.411  0.00  0.00     0.010 A 
ATOM      3  C2  UNL d   1      -5.278  -4.494  -4.125  0.00  0.00     0.041 A 
ATOM      4  C3  UNL d   1      -4.001  -4.661  -4.698  0.00  0.00    -0.075 A 
ATOM      5  S   UNL d   1      -2.935  -6.000  -4.489  0.00  0.00     0.015 SA
ATOM      6  C4  UNL d   1      -1.752  -5.311  -5.505  0.00  0.00     0.022 A 
ATOM      7  C5  UNL d   1      -2.144  -4.090  -6.000  0.00  0.00     0.026 A 
ATOM      8  C6  UNL d   1      -3.447  -3.695  -5.543  0.00  0.00    -0.082 A 
ATOM      9  C7  UNL d   1      -4.205  -2.530  -5.814  0.00  0.00     0.045 A 
ENDROOT
TORSDOF 0
ENDMDL
