MODEL 1
REMARK minimizedAffinity -3.48993087
REMARK minimizedRMSD -1
REMARK  0 active torsions:
REMARK  status: ('A' for Active; 'I' for Inactive)
ROOT
ATOM      1  C   UNL d   1      -1.873  -4.844  -5.949  0.00  0.00    -0.002 A 
ATOM      2  C1  UNL d   1      -2.415  -5.998  -5.403  0.00  0.00     0.010 A 
ATOM      3  C2  UNL d   1      -3.690  -5.984  -4.834  0.00  0.00     0.041 A 
ATOM      4  C3  UNL d   1      -4.419  -4.779  -4.826  0.00  0.00    -0.075 A 
ATOM      5  S   UNL d   1      -6.000  -4.524  -4.186  0.00  0.00     0.015 SA
ATOM      6  C4  UNL d   1      -5.993  -2.877  -4.624  0.00  0.00     0.022 A 
ATOM      7  C5  UNL d   1      -4.821  -2.513  -5.244  0.00  0.00     0.026 A 
ATOM      8  C6  UNL d   1      -3.895  -3.603  -5.371  0.00  0.00    -0.082 A 
ATOM      9  C7  UNL d   1      -2.599  -3.650  -5.939  0.00  0.00     0.045 A 
ENDROOT
TORSDOF 0
ENDMDL
