MODEL 1
REMARK minimizedAffinity -2.76794338
REMARK minimizedRMSD -1
REMARK  0 active torsions:
REMARK  status: ('A' for Active; 'I' for Inactive)
ROOT
ATOM      1  C   UNL d   1      -1.506  -5.020  -5.219  0.00  0.00    -0.002 A 
ATOM      2  C1  UNL d   1      -2.184  -5.945  -6.000  0.00  0.00     0.010 A 
ATOM      3  C2  UNL d   1      -3.579  -5.992  -5.994  0.00  0.00     0.041 A 
ATOM      4  C3  UNL d   1      -4.289  -5.083  -5.184  0.00  0.00    -0.075 A 
ATOM      5  S   UNL d   1      -6.000  -4.956  -5.018  0.00  0.00     0.015 SA
ATOM      6  C4  UNL d   1      -5.871  -3.669  -3.908  0.00  0.00     0.022 A 
ATOM      7  C5  UNL d   1      -4.562  -3.333  -3.658  0.00  0.00     0.026 A 
ATOM      8  C6  UNL d   1      -3.628  -4.142  -4.390  0.00  0.00    -0.082 A 
ATOM      9  C7  UNL d   1      -2.213  -4.120  -4.417  0.00  0.00     0.045 A 
ENDROOT
TORSDOF 0
ENDMDL
