MODEL 1
REMARK minimizedAffinity 0.465189546
REMARK minimizedRMSD -1
REMARK  0 active torsions:
REMARK  status: ('A' for Active; 'I' for Inactive)
ROOT
ATOM      1  C   UNL d   1      -4.821  -2.186  -3.618  0.00  0.00    -0.002 A 
ATOM      2  C1  UNL d   1      -6.000  -2.677  -4.161  0.00  0.00     0.010 A 
ATOM      3  C2  UNL d   1      -5.999  -3.853  -4.915  0.00  0.00     0.041 A 
ATOM      4  C3  UNL d   1      -4.783  -4.534  -5.113  0.00  0.00    -0.075 A 
ATOM      5  S   UNL d   1      -4.541  -5.993  -5.999  0.00  0.00     0.015 SA
ATOM      6  C4  UNL d   1      -2.868  -6.000  -5.677  0.00  0.00     0.022 A 
ATOM      7  C5  UNL d   1      -2.485  -4.923  -4.913  0.00  0.00     0.026 A 
ATOM      8  C6  UNL d   1      -3.583  -4.060  -4.575  0.00  0.00    -0.082 A 
ATOM      9  C7  UNL d   1      -3.616  -2.865  -3.817  0.00  0.00     0.045 A 
ENDROOT
TORSDOF 0
ENDMDL
