MODEL 1
REMARK minimizedAffinity -3.10089993
REMARK minimizedRMSD -1
REMARK  0 active torsions:
REMARK  status: ('A' for Active; 'I' for Inactive)
ROOT
ATOM      1  C   UNL d   1      -4.988  -1.639  -5.663  0.00  0.00    -0.002 A 
ATOM      2  C1  UNL d   1      -6.000  -2.385  -5.074  0.00  0.00     0.010 A 
ATOM      3  C2  UNL d   1      -5.818  -3.744  -4.812  0.00  0.00     0.041 A 
ATOM      4  C3  UNL d   1      -4.591  -4.346  -5.153  0.00  0.00    -0.075 A 
ATOM      5  S   UNL d   1      -4.144  -5.996  -4.924  0.00  0.00     0.015 SA
ATOM      6  C4  UNL d   1      -2.600  -5.748  -5.601  0.00  0.00     0.022 A 
ATOM      7  C5  UNL d   1      -2.413  -4.445  -5.998  0.00  0.00     0.026 A 
ATOM      8  C6  UNL d   1      -3.558  -3.616  -5.745  0.00  0.00    -0.082 A 
ATOM      9  C7  UNL d   1      -3.773  -2.240  -6.000  0.00  0.00     0.045 A 
ENDROOT
TORSDOF 0
ENDMDL
