MODEL 1
REMARK minimizedAffinity -1.46651578
REMARK minimizedRMSD -1
REMARK  0 active torsions:
REMARK  status: ('A' for Active; 'I' for Inactive)
ROOT
ATOM      1  C   UNL d   1      -1.553  -5.078  -4.879  0.00  0.00    -0.002 A 
ATOM      2  C1  UNL d   1      -2.127  -5.999  -5.744  0.00  0.00     0.010 A 
ATOM      3  C2  UNL d   1      -3.499  -5.975  -5.999  0.00  0.00     0.041 A 
ATOM      4  C3  UNL d   1      -4.292  -4.997  -5.367  0.00  0.00    -0.075 A 
ATOM      5  S   UNL d   1      -5.994  -4.775  -5.530  0.00  0.00     0.015 SA
ATOM      6  C4  UNL d   1      -6.000  -3.451  -4.457  0.00  0.00     0.022 A 
ATOM      7  C5  UNL d   1      -4.742  -3.172  -3.976  0.00  0.00     0.026 A 
ATOM      8  C6  UNL d   1      -3.737  -4.058  -4.493  0.00  0.00    -0.082 A 
ATOM      9  C7  UNL d   1      -2.343  -4.110  -4.254  0.00  0.00     0.045 A 
ENDROOT
TORSDOF 0
ENDMDL
