MODEL 1
REMARK minimizedAffinity -1.72541368
REMARK minimizedRMSD -1
REMARK  0 active torsions:
REMARK  status: ('A' for Active; 'I' for Inactive)
ROOT
ATOM      1  C   UNL d   1      -3.075  -5.892  -5.478  0.00  0.00    -0.002 A 
ATOM      2  C1  UNL d   1      -2.204  -4.927  -5.964  0.00  0.00     0.010 A 
ATOM      3  C2  UNL d   1      -2.582  -3.583  -5.999  0.00  0.00     0.041 A 
ATOM      4  C3  UNL d   1      -3.860  -3.222  -5.531  0.00  0.00    -0.075 A 
ATOM      5  S   UNL d   1      -4.538  -1.637  -5.477  0.00  0.00     0.015 SA
ATOM      6  C4  UNL d   1      -5.999  -2.204  -4.807  0.00  0.00     0.022 A 
ATOM      7  C5  UNL d   1      -5.987  -3.567  -4.623  0.00  0.00     0.026 A 
ATOM      8  C6  UNL d   1      -4.755  -4.175  -5.036  0.00  0.00    -0.082 A 
ATOM      9  C7  UNL d   1      -4.343  -5.530  -5.015  0.00  0.00     0.045 A 
ENDROOT
TORSDOF 0
ENDMDL
