MODEL 1
REMARK minimizedAffinity -3.62367153
REMARK minimizedRMSD -1
REMARK  0 active torsions:
REMARK  status: ('A' for Active; 'I' for Inactive)
ROOT
ATOM      1  C   UNL d   1      -3.399  -2.090  -6.000  0.00  0.00    -0.002 A 
ATOM      2  C1  UNL d   1      -2.383  -3.035  -5.994  0.00  0.00     0.010 A 
ATOM      3  C2  UNL d   1      -2.569  -4.274  -5.377  0.00  0.00     0.041 A 
ATOM      4  C3  UNL d   1      -3.806  -4.550  -4.762  0.00  0.00    -0.075 A 
ATOM      5  S   UNL d   1      -4.260  -6.000  -3.947  0.00  0.00     0.015 SA
ATOM      6  C4  UNL d   1      -5.814  -5.399  -3.588  0.00  0.00     0.022 A 
ATOM      7  C5  UNL d   1      -5.999  -4.126  -4.071  0.00  0.00     0.026 A 
ATOM      8  C6  UNL d   1      -4.845  -3.615  -4.756  0.00  0.00    -0.082 A 
ATOM      9  C7  UNL d   1      -4.625  -2.368  -5.389  0.00  0.00     0.045 A 
ENDROOT
TORSDOF 0
ENDMDL
