MODEL 1
REMARK minimizedAffinity -4.29956579
REMARK minimizedRMSD -1
REMARK  0 active torsions:
REMARK  status: ('A' for Active; 'I' for Inactive)
ROOT
ATOM      1  C   UNL d   1      -5.570  -2.604  -4.718  0.00  0.00    -0.002 A 
ATOM      2  C1  UNL d   1      -5.994  -3.766  -4.089  0.00  0.00     0.010 A 
ATOM      3  C2  UNL d   1      -5.142  -4.866  -3.981  0.00  0.00     0.041 A 
ATOM      4  C3  UNL d   1      -3.843  -4.779  -4.519  0.00  0.00    -0.075 A 
ATOM      5  S   UNL d   1      -2.627  -6.000  -4.503  0.00  0.00     0.015 SA
ATOM      6  C4  UNL d   1      -1.515  -5.008  -5.330  0.00  0.00     0.022 A 
ATOM      7  C5  UNL d   1      -2.042  -3.772  -5.619  0.00  0.00     0.026 A 
ATOM      8  C6  UNL d   1      -3.393  -3.619  -5.156  0.00  0.00    -0.082 A 
ATOM      9  C7  UNL d   1      -4.281  -2.520  -5.251  0.00  0.00     0.045 A 
ENDROOT
TORSDOF 0
ENDMDL
