MODEL 1
REMARK minimizedAffinity 8.53628731
REMARK minimizedRMSD -1
REMARK  0 active torsions:
REMARK  status: ('A' for Active; 'I' for Inactive)
ROOT
ATOM      1  C4' PXY d   1       5.437   0.447  -5.978  0.00  0.00     0.077 C 
ATOM      2  C1' PXY d   1       0.376  -2.347  -5.968  0.00  0.00     0.077 C 
ATOM      3  C1  PXY d   1       1.709  -1.625  -5.965  0.00  0.00    -0.082 A 
ATOM      4  C2  PXY d   1       1.736  -0.302  -5.970  0.00  0.00     0.003 A 
ATOM      5  C3  PXY d   1       2.933   0.367  -6.000  0.00  0.00     0.003 A 
ATOM      6  C4  PXY d   1       4.114  -0.324  -5.971  0.00  0.00    -0.082 A 
ATOM      7  C5  PXY d   1       4.095  -1.674  -5.956  0.00  0.00     0.003 A 
ATOM      8  C6  PXY d   1       2.870  -2.335  -5.967  0.00  0.00     0.003 A 
ENDROOT
TORSDOF 0
ENDMDL
