MODEL 1
REMARK minimizedAffinity 17.8607826
REMARK minimizedRMSD -1
REMARK  0 active torsions:
REMARK  status: ('A' for Active; 'I' for Inactive)
ROOT
ATOM      1  C4' PXY d   1      -0.019   1.964   1.702  0.00  0.00     0.077 C 
ATOM      2  C1' PXY d   1       2.240  -1.998   5.253  0.00  0.00     0.077 C 
ATOM      3  C1  PXY d   1       1.649  -0.968   4.312  0.00  0.00    -0.082 A 
ATOM      4  C2  PXY d   1       1.732   0.318   4.614  0.00  0.00     0.003 A 
ATOM      5  C3  PXY d   1       1.175   1.262   3.790  0.00  0.00     0.003 A 
ATOM      6  C4  PXY d   1       0.572   0.889   2.618  0.00  0.00    -0.082 A 
ATOM      7  C5  PXY d   1       0.493  -0.420   2.298  0.00  0.00     0.003 A 
ATOM      8  C6  PXY d   1       1.028  -1.365   3.168  0.00  0.00     0.003 A 
ENDROOT
TORSDOF 0
ENDMDL
