MODEL 1
REMARK minimizedAffinity 8.57302761
REMARK minimizedRMSD -1
REMARK  0 active torsions:
REMARK  status: ('A' for Active; 'I' for Inactive)
ROOT
ATOM      1  C4' PXY d   1       0.389   2.137   5.622  0.00  0.00     0.077 C 
ATOM      2  C1' PXY d   1       0.333  -0.990   0.760  0.00  0.00     0.077 C 
ATOM      3  C1  PXY d   1       0.352  -0.180   2.041  0.00  0.00    -0.082 A 
ATOM      4  C2  PXY d   1      -0.442   0.871   2.163  0.00  0.00     0.003 A 
ATOM      5  C3  PXY d   1      -0.414   1.633   3.302  0.00  0.00     0.003 A 
ATOM      6  C4  PXY d   1       0.396   1.284   4.349  0.00  0.00    -0.082 A 
ATOM      7  C5  PXY d   1       1.201   0.207   4.238  0.00  0.00     0.003 A 
ATOM      8  C6  PXY d   1       1.188  -0.530   3.057  0.00  0.00     0.003 A 
ENDROOT
TORSDOF 0
ENDMDL
