MODEL 1
REMARK minimizedAffinity 12.7433004
REMARK minimizedRMSD -1
REMARK  0 active torsions:
REMARK  status: ('A' for Active; 'I' for Inactive)
ROOT
ATOM      1  C4' PXY d   1       0.329  -0.802  -5.542  0.00  0.00     0.077 C 
ATOM      2  C1' PXY d   1       2.870  -5.993  -5.665  0.00  0.00     0.077 C 
ATOM      3  C1  PXY d   1       2.212  -4.627  -5.623  0.00  0.00    -0.082 A 
ATOM      4  C2  PXY d   1       0.950  -4.498  -6.000  0.00  0.00     0.003 A 
ATOM      5  C3  PXY d   1       0.349  -3.265  -5.999  0.00  0.00     0.003 A 
ATOM      6  C4  PXY d   1       1.031  -2.163  -5.559  0.00  0.00    -0.082 A 
ATOM      7  C5  PXY d   1       2.315  -2.288  -5.163  0.00  0.00     0.003 A 
ATOM      8  C6  PXY d   1       2.920  -3.541  -5.210  0.00  0.00     0.003 A 
ENDROOT
TORSDOF 0
ENDMDL
