MODEL 1
REMARK minimizedAffinity 16.2211838
REMARK minimizedRMSD -1
REMARK  0 active torsions:
REMARK  status: ('A' for Active; 'I' for Inactive)
ROOT
ATOM      1  C4' PXY d   1       2.477  -0.001  -6.000  0.00  0.00     0.077 C 
ATOM      2  C1' PXY d   1      -2.430  -2.380  -4.080  0.00  0.00     0.077 C 
ATOM      3  C1  PXY d   1      -1.139  -1.768  -4.587  0.00  0.00    -0.082 A 
ATOM      4  C2  PXY d   1      -0.734  -0.603  -4.107  0.00  0.00     0.003 A 
ATOM      5  C3  PXY d   1       0.414  -0.020  -4.577  0.00  0.00     0.003 A 
ATOM      6  C4  PXY d   1       1.185  -0.661  -5.510  0.00  0.00    -0.082 A 
ATOM      7  C5  PXY d   1       0.784  -1.854  -5.998  0.00  0.00     0.003 A 
ATOM      8  C6  PXY d   1      -0.406  -2.410  -5.537  0.00  0.00     0.003 A 
ENDROOT
TORSDOF 0
ENDMDL
