MODEL 1
REMARK minimizedAffinity 9.63926029
REMARK minimizedRMSD -1
REMARK  0 active torsions:
REMARK  status: ('A' for Active; 'I' for Inactive)
ROOT
ATOM      1  C4' PXY d   1       1.610   0.147   3.031  0.00  0.00     0.077 C 
ATOM      2  C1' PXY d   1      -4.132  -0.511   3.170  0.00  0.00     0.077 C 
ATOM      3  C1  PXY d   1      -2.627  -0.330   3.124  0.00  0.00    -0.082 A 
ATOM      4  C2  PXY d   1      -1.838  -1.308   3.537  0.00  0.00     0.003 A 
ATOM      5  C3  PXY d   1      -0.476  -1.148   3.533  0.00  0.00     0.003 A 
ATOM      6  C4  PXY d   1       0.085   0.004   3.051  0.00  0.00    -0.082 A 
ATOM      7  C5  PXY d   1      -0.713   1.002   2.617  0.00  0.00     0.003 A 
ATOM      8  C6  PXY d   1      -2.094   0.836   2.668  0.00  0.00     0.003 A 
ENDROOT
TORSDOF 0
ENDMDL
