MODEL 1
REMARK minimizedAffinity 10.209404
REMARK minimizedRMSD -1
REMARK  0 active torsions:
REMARK  status: ('A' for Active; 'I' for Inactive)
ROOT
ATOM      1  C4' PXY d   1       5.971   0.436   4.293  0.00  0.00     0.077 C 
ATOM      2  C1' PXY d   1       3.532   5.339   2.441  0.00  0.00     0.077 C 
ATOM      3  C1  PXY d   1       4.167   4.047   2.916  0.00  0.00    -0.082 A 
ATOM      4  C2  PXY d   1       4.418   3.877   4.204  0.00  0.00     0.003 A 
ATOM      5  C3  PXY d   1       5.022   2.728   4.647  0.00  0.00     0.003 A 
ATOM      6  C4  PXY d   1       5.323   1.721   3.769  0.00  0.00    -0.082 A 
ATOM      7  C5  PXY d   1       5.060   1.883   2.455  0.00  0.00     0.003 A 
ATOM      8  C6  PXY d   1       4.485   3.073   2.020  0.00  0.00     0.003 A 
ENDROOT
TORSDOF 0
ENDMDL
