MODEL 1
REMARK minimizedAffinity 12.270812
REMARK minimizedRMSD -1
REMARK  0 active torsions:
REMARK  status: ('A' for Active; 'I' for Inactive)
ROOT
ATOM      1  C4' PXY d   1       4.501  -1.497   6.000  0.00  0.00     0.077 C 
ATOM      2  C1' PXY d   1       0.221   0.005   2.417  0.00  0.00     0.077 C 
ATOM      3  C1  PXY d   1       1.351  -0.380   3.351  0.00  0.00    -0.082 A 
ATOM      4  C2  PXY d   1       1.375  -1.590   3.886  0.00  0.00     0.003 A 
ATOM      5  C3  PXY d   1       2.372  -1.944   4.758  0.00  0.00     0.003 A 
ATOM      6  C4  PXY d   1       3.385  -1.068   5.044  0.00  0.00    -0.082 A 
ATOM      7  C5  PXY d   1       3.374   0.165   4.494  0.00  0.00     0.003 A 
ATOM      8  C6  PXY d   1       2.330   0.519   3.643  0.00  0.00     0.003 A 
ENDROOT
TORSDOF 0
ENDMDL
