MODEL 1
REMARK minimizedAffinity 5.02458763
REMARK minimizedRMSD -1
REMARK  0 active torsions:
REMARK  status: ('A' for Active; 'I' for Inactive)
ROOT
ATOM      1  C4' PXY d   1      -3.231  -1.386   2.534  0.00  0.00     0.077 C 
ATOM      2  C1' PXY d   1       2.162   0.402   3.602  0.00  0.00     0.077 C 
ATOM      3  C1  PXY d   1       0.752  -0.079   3.322  0.00  0.00    -0.082 A 
ATOM      4  C2  PXY d   1      -0.125   0.747   2.775  0.00  0.00     0.003 A 
ATOM      5  C3  PXY d   1      -1.413   0.338   2.544  0.00  0.00     0.003 A 
ATOM      6  C4  PXY d   1      -1.794  -0.946   2.827  0.00  0.00    -0.082 A 
ATOM      7  C5  PXY d   1      -0.902  -1.799   3.375  0.00  0.00     0.003 A 
ATOM      8  C6  PXY d   1       0.389  -1.352   3.639  0.00  0.00     0.003 A 
ENDROOT
TORSDOF 0
ENDMDL
