MODEL 1
REMARK minimizedAffinity 11.6766624
REMARK minimizedRMSD -1
REMARK  0 active torsions:
REMARK  status: ('A' for Active; 'I' for Inactive)
ROOT
ATOM      1  C4' PXY d   1       3.101   0.383  -5.946  0.00  0.00     0.077 C 
ATOM      2  C1' PXY d   1      -1.614  -2.052  -3.654  0.00  0.00     0.077 C 
ATOM      3  C1  PXY d   1      -0.372  -1.425  -4.258  0.00  0.00    -0.082 A 
ATOM      4  C2  PXY d   1      -0.007  -0.209  -3.886  0.00  0.00     0.003 A 
ATOM      5  C3  PXY d   1       1.094   0.385  -4.446  0.00  0.00     0.003 A 
ATOM      6  C4  PXY d   1       1.861  -0.293  -5.356  0.00  0.00    -0.082 A 
ATOM      7  C5  PXY d   1       1.501  -1.538  -5.732  0.00  0.00     0.003 A 
ATOM      8  C6  PXY d   1       0.356  -2.108  -5.182  0.00  0.00     0.003 A 
ENDROOT
TORSDOF 0
ENDMDL
