MODEL 1
REMARK minimizedAffinity -2.81657481
REMARK minimizedRMSD -1
REMARK  0 active torsions:
REMARK  status: ('A' for Active; 'I' for Inactive)
ROOT
ATOM      1  C   UNL d   1      -2.762   0.320   1.175  0.00  0.00     0.078 C 
ATOM      2  C1  UNL d   1      -1.407  -0.322   1.157  0.00  0.00    -0.077 A 
ATOM      3  C2  UNL d   1      -0.387   0.170   0.334  0.00  0.00    -0.001 A 
ATOM      4  C3  UNL d   1       0.867  -0.444   0.320  0.00  0.00     0.003 A 
ATOM      5  C4  UNL d   1       1.111  -1.554   1.126  0.00  0.00    -0.005 A 
ATOM      6  C5  UNL d   1       0.102  -2.051   1.947  0.00  0.00     0.003 A 
ATOM      7  C6  UNL d   1      -1.152  -1.439   1.963  0.00  0.00    -0.001 A 
ENDROOT
TORSDOF 0
ENDMDL
