MODEL 1
REMARK minimizedAffinity -3.50394487
REMARK minimizedRMSD -1
REMARK  0 active torsions:
REMARK  status: ('A' for Active; 'I' for Inactive)
ROOT
ATOM      1  C   UNL d   1       1.535  -0.452   0.710  0.00  0.00     0.078 C 
ATOM      2  C1  UNL d   1       1.764   0.893   1.331  0.00  0.00    -0.077 A 
ATOM      3  C2  UNL d   1       2.707   1.065   2.352  0.00  0.00    -0.001 A 
ATOM      4  C3  UNL d   1       2.903   2.321   2.928  0.00  0.00     0.003 A 
ATOM      5  C4  UNL d   1       2.158   3.415   2.491  0.00  0.00    -0.005 A 
ATOM      6  C5  UNL d   1       1.215   3.253   1.478  0.00  0.00     0.003 A 
ATOM      7  C6  UNL d   1       1.018   1.998   0.900  0.00  0.00    -0.001 A 
ENDROOT
TORSDOF 0
ENDMDL
