MODEL 1
REMARK minimizedAffinity -2.5876565
REMARK minimizedRMSD -1
REMARK  0 active torsions:
REMARK  status: ('A' for Active; 'I' for Inactive)
ROOT
ATOM      1  C   UNL d   1      -3.395  -0.747   0.086  0.00  0.00     0.078 C 
ATOM      2  C1  UNL d   1      -1.927  -0.660   0.379  0.00  0.00    -0.077 A 
ATOM      3  C2  UNL d   1      -1.325  -1.518   1.308  0.00  0.00    -0.001 A 
ATOM      4  C3  UNL d   1       0.041  -1.419   1.578  0.00  0.00     0.003 A 
ATOM      5  C4  UNL d   1       0.816  -0.463   0.924  0.00  0.00    -0.005 A 
ATOM      6  C5  UNL d   1       0.226   0.396  -0.000  0.00  0.00     0.003 A 
ATOM      7  C6  UNL d   1      -1.140   0.299  -0.272  0.00  0.00    -0.001 A 
ENDROOT
TORSDOF 0
ENDMDL
