MODEL 1
REMARK minimizedAffinity -3.50238585
REMARK minimizedRMSD -1
REMARK  0 active torsions:
REMARK  status: ('A' for Active; 'I' for Inactive)
ROOT
ATOM      1  C   UNL d   1       0.997   0.140   0.393  0.00  0.00     0.078 C 
ATOM      2  C1  UNL d   1      -0.417  -0.285   0.127  0.00  0.00    -0.077 A 
ATOM      3  C2  UNL d   1      -1.264  -0.668   1.174  0.00  0.00    -0.001 A 
ATOM      4  C3  UNL d   1      -2.574  -1.070   0.911  0.00  0.00     0.003 A 
ATOM      5  C4  UNL d   1      -3.049  -1.095  -0.399  0.00  0.00    -0.005 A 
ATOM      6  C5  UNL d   1      -2.212  -0.718  -1.448  0.00  0.00     0.003 A 
ATOM      7  C6  UNL d   1      -0.902  -0.315  -1.187  0.00  0.00    -0.001 A 
ENDROOT
TORSDOF 0
ENDMDL
