MODEL 1
REMARK minimizedAffinity -5.38065624
REMARK minimizedRMSD -1
REMARK  0 active torsions:
REMARK  status: ('A' for Active; 'I' for Inactive)
ROOT
ATOM      1  C   UNL d   1      -1.100   1.876  -4.860  0.00  0.00     0.078 C 
ATOM      2  C1  UNL d   1      -0.057   0.937  -4.331  0.00  0.00    -0.077 A 
ATOM      3  C2  UNL d   1       0.066   0.697  -2.957  0.00  0.00    -0.001 A 
ATOM      4  C3  UNL d   1       1.048  -0.171  -2.477  0.00  0.00     0.003 A 
ATOM      5  C4  UNL d   1       1.915  -0.806  -3.365  0.00  0.00    -0.005 A 
ATOM      6  C5  UNL d   1       1.801  -0.572  -4.734  0.00  0.00     0.003 A 
ATOM      7  C6  UNL d   1       0.820   0.297  -5.215  0.00  0.00    -0.001 A 
ENDROOT
TORSDOF 0
ENDMDL
