MODEL 1
REMARK minimizedAffinity -4.56158781
REMARK minimizedRMSD -1
REMARK  0 active torsions:
REMARK  status: ('A' for Active; 'I' for Inactive)
ROOT
ATOM      1  C   UNL d   1      -3.195  -0.465  -0.088  0.00  0.00     0.078 C 
ATOM      2  C1  UNL d   1      -1.724  -0.433  -0.376  0.00  0.00    -0.077 A 
ATOM      3  C2  UNL d   1      -0.785  -0.574   0.653  0.00  0.00    -0.001 A 
ATOM      4  C3  UNL d   1       0.582  -0.533   0.372  0.00  0.00     0.003 A 
ATOM      5  C4  UNL d   1       1.022  -0.349  -0.937  0.00  0.00    -0.005 A 
ATOM      6  C5  UNL d   1       0.094  -0.205  -1.968  0.00  0.00     0.003 A 
ATOM      7  C6  UNL d   1      -1.273  -0.246  -1.689  0.00  0.00    -0.001 A 
ENDROOT
TORSDOF 0
ENDMDL
