MODEL 1
REMARK minimizedAffinity -3.15934443
REMARK minimizedRMSD -1
REMARK  0 active torsions:
REMARK  status: ('A' for Active; 'I' for Inactive)
ROOT
ATOM      1  C   UNL d   1       2.873   3.283   1.712  0.00  0.00     0.078 C 
ATOM      2  C1  UNL d   1       2.757   2.158   0.728  0.00  0.00    -0.077 A 
ATOM      3  C2  UNL d   1       1.829   1.126   0.918  0.00  0.00    -0.001 A 
ATOM      4  C3  UNL d   1       1.738   0.080  -0.002  0.00  0.00     0.003 A 
ATOM      5  C4  UNL d   1       2.573   0.055  -1.118  0.00  0.00    -0.005 A 
ATOM      6  C5  UNL d   1       3.501   1.076  -1.314  0.00  0.00     0.003 A 
ATOM      7  C6  UNL d   1       3.593   2.122  -0.395  0.00  0.00    -0.001 A 
ENDROOT
TORSDOF 0
ENDMDL
