MODEL 1
REMARK minimizedAffinity -3.10729098
REMARK minimizedRMSD -1
REMARK  0 active torsions:
REMARK  status: ('A' for Active; 'I' for Inactive)
ROOT
ATOM      1  C   UNL d   1      -2.759  -0.715   0.007  0.00  0.00     0.078 C 
ATOM      2  C1  UNL d   1      -1.265  -0.608   0.086  0.00  0.00    -0.077 A 
ATOM      3  C2  UNL d   1      -0.553  -1.202   1.134  0.00  0.00    -0.001 A 
ATOM      4  C3  UNL d   1       0.836  -1.086   1.200  0.00  0.00     0.003 A 
ATOM      5  C4  UNL d   1       1.526  -0.373   0.221  0.00  0.00    -0.005 A 
ATOM      6  C5  UNL d   1       0.826   0.224  -0.825  0.00  0.00     0.003 A 
ATOM      7  C6  UNL d   1      -0.564   0.108  -0.893  0.00  0.00    -0.001 A 
ENDROOT
TORSDOF 0
ENDMDL
