MODEL 1
REMARK minimizedAffinity -1.06469917
REMARK minimizedRMSD -1
REMARK  0 active torsions:
REMARK  status: ('A' for Active; 'I' for Inactive)
ROOT
ATOM      1  C   UNL d   1       0.656   0.302   0.731  0.00  0.00     0.078 C 
ATOM      2  C1  UNL d   1       1.415   1.537   1.113  0.00  0.00    -0.077 A 
ATOM      3  C2  UNL d   1       1.772   2.490   0.151  0.00  0.00    -0.001 A 
ATOM      4  C3  UNL d   1       2.487   3.631   0.519  0.00  0.00     0.003 A 
ATOM      5  C4  UNL d   1       2.853   3.829   1.849  0.00  0.00    -0.005 A 
ATOM      6  C5  UNL d   1       2.505   2.884   2.813  0.00  0.00     0.003 A 
ATOM      7  C6  UNL d   1       1.790   1.743   2.447  0.00  0.00    -0.001 A 
ENDROOT
TORSDOF 0
ENDMDL
