MODEL 1
REMARK minimizedAffinity -4.32137442
REMARK minimizedRMSD -1
REMARK  0 active torsions:
REMARK  status: ('A' for Active; 'I' for Inactive)
ROOT
ATOM      1  C   UNL d   1       0.013   0.196  -2.143  0.00  0.00     0.078 C 
ATOM      2  C1  UNL d   1      -0.569  -0.256  -0.837  0.00  0.00    -0.077 A 
ATOM      3  C2  UNL d   1       0.256  -0.661   0.219  0.00  0.00    -0.001 A 
ATOM      4  C3  UNL d   1      -0.300  -1.088   1.426  0.00  0.00     0.003 A 
ATOM      5  C4  UNL d   1      -1.683  -1.117   1.588  0.00  0.00    -0.005 A 
ATOM      6  C5  UNL d   1      -2.513  -0.718   0.542  0.00  0.00     0.003 A 
ATOM      7  C6  UNL d   1      -1.959  -0.290  -0.666  0.00  0.00    -0.001 A 
ENDROOT
TORSDOF 0
ENDMDL
