MODEL 1
REMARK minimizedAffinity -5.03390503
REMARK minimizedRMSD -1
REMARK  0 active torsions:
REMARK  status: ('A' for Active; 'I' for Inactive)
ROOT
ATOM      1  C   UNL d   1       2.058  -0.269  -3.696  0.00  0.00     0.078 C 
ATOM      2  C1  UNL d   1       1.390  -0.111  -2.363  0.00  0.00    -0.077 A 
ATOM      3  C2  UNL d   1       2.120  -0.221  -1.173  0.00  0.00    -0.001 A 
ATOM      4  C3  UNL d   1       1.483  -0.081   0.061  0.00  0.00     0.003 A 
ATOM      5  C4  UNL d   1       0.113   0.169   0.117  0.00  0.00    -0.005 A 
ATOM      6  C5  UNL d   1      -0.622   0.277  -1.062  0.00  0.00     0.003 A 
ATOM      7  C6  UNL d   1       0.013   0.138  -2.297  0.00  0.00    -0.001 A 
ENDROOT
TORSDOF 0
ENDMDL
