MODEL 1
REMARK minimizedAffinity -4.33362341
REMARK minimizedRMSD -1
REMARK  0 active torsions:
REMARK  status: ('A' for Active; 'I' for Inactive)
ROOT
ATOM      1  C   UNL d   1       0.924   0.263   0.218  0.00  0.00     0.078 C 
ATOM      2  C1  UNL d   1      -0.444  -0.235  -0.140  0.00  0.00    -0.077 A 
ATOM      3  C2  UNL d   1      -1.342  -0.652   0.850  0.00  0.00    -0.001 A 
ATOM      4  C3  UNL d   1      -2.609  -1.123   0.501  0.00  0.00     0.003 A 
ATOM      5  C4  UNL d   1      -2.988  -1.183  -0.839  0.00  0.00    -0.005 A 
ATOM      6  C5  UNL d   1      -2.101  -0.772  -1.831  0.00  0.00     0.003 A 
ATOM      7  C6  UNL d   1      -0.833  -0.301  -1.484  0.00  0.00    -0.001 A 
ENDROOT
TORSDOF 0
ENDMDL
