MODEL 1
REMARK minimizedAffinity -5.66589165
REMARK minimizedRMSD -1
REMARK  0 active torsions:
REMARK  status: ('A' for Active; 'I' for Inactive)
ROOT
ATOM      1  C   UNL d   1       0.902  -1.570   1.105  0.00  0.00     0.078 C 
ATOM      2  C1  UNL d   1      -0.484  -1.202   0.666  0.00  0.00    -0.077 A 
ATOM      3  C2  UNL d   1      -1.609  -1.724   1.317  0.00  0.00    -0.001 A 
ATOM      4  C3  UNL d   1      -2.893  -1.380   0.891  0.00  0.00     0.003 A 
ATOM      5  C4  UNL d   1      -3.064  -0.513  -0.187  0.00  0.00    -0.005 A 
ATOM      6  C5  UNL d   1      -1.951   0.009  -0.841  0.00  0.00     0.003 A 
ATOM      7  C6  UNL d   1      -0.666  -0.334  -0.417  0.00  0.00    -0.001 A 
ENDROOT
TORSDOF 0
ENDMDL
