MODEL 1
REMARK minimizedAffinity -0.840650678
REMARK minimizedRMSD -1
REMARK  0 active torsions:
REMARK  status: ('A' for Active; 'I' for Inactive)
ROOT
ATOM      1  C   UNL d   1       1.765   0.396   0.399  0.00  0.00     0.078 C 
ATOM      2  C1  UNL d   1       0.447  -0.248   0.710  0.00  0.00    -0.077 A 
ATOM      3  C2  UNL d   1       0.333  -1.200   1.729  0.00  0.00    -0.001 A 
ATOM      4  C3  UNL d   1      -0.899  -1.799   2.001  0.00  0.00     0.003 A 
ATOM      5  C4  UNL d   1      -2.024  -1.452   1.257  0.00  0.00    -0.005 A 
ATOM      6  C5  UNL d   1      -1.920  -0.507   0.239  0.00  0.00     0.003 A 
ATOM      7  C6  UNL d   1      -0.689   0.093  -0.035  0.00  0.00    -0.001 A 
ENDROOT
TORSDOF 0
ENDMDL
