MODEL 1
REMARK minimizedAffinity -4.02762032
REMARK minimizedRMSD -1
REMARK  0 active torsions:
REMARK  status: ('A' for Active; 'I' for Inactive)
ROOT
ATOM      1  C   UNL d   1       0.906  -0.301  -1.853  0.00  0.00     0.078 C 
ATOM      2  C1  UNL d   1      -0.321  -0.175  -0.999  0.00  0.00    -0.077 A 
ATOM      3  C2  UNL d   1      -0.317   0.614   0.157  0.00  0.00    -0.001 A 
ATOM      4  C3  UNL d   1      -1.463   0.715   0.947  0.00  0.00     0.003 A 
ATOM      5  C4  UNL d   1      -2.621   0.027   0.590  0.00  0.00    -0.005 A 
ATOM      6  C5  UNL d   1      -2.634  -0.762  -0.558  0.00  0.00     0.003 A 
ATOM      7  C6  UNL d   1      -1.489  -0.864  -1.349  0.00  0.00    -0.001 A 
ENDROOT
TORSDOF 0
ENDMDL
