MODEL 1
REMARK minimizedAffinity -5.60117245
REMARK minimizedRMSD -1
REMARK  0 active torsions:
REMARK  status: ('A' for Active; 'I' for Inactive)
ROOT
ATOM      1  N1  IND d   1       0.538   0.173  -0.145  0.00  0.00    -0.196 N 
ATOM      2  C2  IND d   1       0.497  -0.811   0.804  0.00  0.00     0.054 A 
ATOM      3  C3  IND d   1      -0.345  -0.466   1.803  0.00  0.00    -0.031 A 
ATOM      4  C4  IND d   1      -1.837   1.619   2.038  0.00  0.00     0.051 A 
ATOM      5  C5  IND d   1      -2.117   2.816   1.442  0.00  0.00    -0.031 A 
ATOM      6  C6  IND d   1      -1.515   3.201   0.260  0.00  0.00     0.015 A 
ATOM      7  C7  IND d   1      -0.617   2.393  -0.377  0.00  0.00    -0.016 A 
ATOM      8  C8  IND d   1      -0.325   1.179   0.230  0.00  0.00    -0.047 A 
ATOM      9  C9  IND d   1      -0.900   0.803   1.450  0.00  0.00    -0.096 A 
ATOM     10  HN1 IND d   1       1.022   0.165  -0.855  0.00  0.00     0.298 HD
ENDROOT
TORSDOF 0
ENDMDL
