MODEL 1
REMARK minimizedAffinity -5.49385262
REMARK minimizedRMSD -1
REMARK  0 active torsions:
REMARK  status: ('A' for Active; 'I' for Inactive)
ROOT
ATOM      1  N1  IND d   1       0.425   0.261  -0.379  0.00  0.00    -0.196 N 
ATOM      2  C2  IND d   1       0.001  -0.917   0.170  0.00  0.00     0.054 A 
ATOM      3  C3  IND d   1      -1.059  -0.703   0.982  0.00  0.00    -0.031 A 
ATOM      4  C4  IND d   1      -2.324   1.484   1.477  0.00  0.00     0.051 A 
ATOM      5  C5  IND d   1      -2.285   2.829   1.236  0.00  0.00    -0.031 A 
ATOM      6  C6  IND d   1      -1.323   3.398   0.427  0.00  0.00     0.015 A 
ATOM      7  C7  IND d   1      -0.367   2.638  -0.185  0.00  0.00    -0.016 A 
ATOM      8  C8  IND d   1      -0.399   1.273   0.063  0.00  0.00    -0.047 A 
ATOM      9  C9  IND d   1      -1.347   0.695   0.918  0.00  0.00    -0.096 A 
ATOM     10  HN1 IND d   1       1.094   0.354  -0.911  0.00  0.00     0.298 HD
ENDROOT
TORSDOF 0
ENDMDL
