MODEL 1
REMARK minimizedAffinity -4.70385551
REMARK minimizedRMSD -1
REMARK  0 active torsions:
REMARK  status: ('A' for Active; 'I' for Inactive)
ROOT
ATOM      1  N1  IND d   1       0.118  -0.214  -0.510  0.00  0.00    -0.196 N 
ATOM      2  C2  IND d   1      -0.228  -1.180   0.394  0.00  0.00     0.054 A 
ATOM      3  C3  IND d   1      -0.815  -0.622   1.477  0.00  0.00    -0.031 A 
ATOM      4  C4  IND d   1      -1.401   1.843   1.931  0.00  0.00     0.051 A 
ATOM      5  C5  IND d   1      -1.250   3.099   1.414  0.00  0.00    -0.031 A 
ATOM      6  C6  IND d   1      -0.624   3.319   0.204  0.00  0.00     0.015 A 
ATOM      7  C7  IND d   1      -0.135   2.286  -0.543  0.00  0.00    -0.016 A 
ATOM      8  C8  IND d   1      -0.280   1.009  -0.018  0.00  0.00    -0.047 A 
ATOM      9  C9  IND d   1      -0.877   0.784   1.229  0.00  0.00    -0.096 A 
ATOM     10  HN1 IND d   1       0.518  -0.349  -1.259  0.00  0.00     0.298 HD
ENDROOT
TORSDOF 0
ENDMDL
