MODEL 1
REMARK minimizedAffinity -2.00690055
REMARK minimizedRMSD -1
REMARK  0 active torsions:
REMARK  status: ('A' for Active; 'I' for Inactive)
ROOT
ATOM      1  N1  IND d   1       1.337  -2.204  -1.792  0.00  0.00    -0.196 N 
ATOM      2  C2  IND d   1       0.435  -2.992  -2.450  0.00  0.00     0.054 A 
ATOM      3  C3  IND d   1      -0.819  -2.734  -2.017  0.00  0.00    -0.031 A 
ATOM      4  C4  IND d   1      -1.633  -0.989  -0.309  0.00  0.00     0.051 A 
ATOM      5  C5  IND d   1      -1.175  -0.060   0.584  0.00  0.00    -0.031 A 
ATOM      6  C6  IND d   1       0.170   0.209   0.731  0.00  0.00     0.015 A 
ATOM      7  C7  IND d   1       1.112  -0.435  -0.021  0.00  0.00    -0.016 A 
ATOM      8  C8  IND d   1       0.651  -1.384  -0.923  0.00  0.00    -0.047 A 
ATOM      9  C9  IND d   1      -0.710  -1.692  -1.046  0.00  0.00    -0.096 A 
ATOM     10  HN1 IND d   1       2.190  -2.217  -1.902  0.00  0.00     0.298 HD
ENDROOT
TORSDOF 0
ENDMDL
