MODEL 1
REMARK minimizedAffinity -4.21238041
REMARK minimizedRMSD -1
REMARK  0 active torsions:
REMARK  status: ('A' for Active; 'I' for Inactive)
ROOT
ATOM      1  N1  IND d   1      -0.742   2.005  -0.031  0.00  0.00    -0.196 N 
ATOM      2  C2  IND d   1      -1.350   2.319   1.153  0.00  0.00     0.054 A 
ATOM      3  C3  IND d   1      -1.349   1.249   1.980  0.00  0.00    -0.031 A 
ATOM      4  C4  IND d   1      -0.314  -1.083   1.637  0.00  0.00     0.051 A 
ATOM      5  C5  IND d   1       0.316  -1.855   0.701  0.00  0.00    -0.031 A 
ATOM      6  C6  IND d   1       0.634  -1.369  -0.551  0.00  0.00     0.015 A 
ATOM      7  C7  IND d   1       0.343  -0.084  -0.911  0.00  0.00    -0.016 A 
ATOM      8  C8  IND d   1      -0.303   0.701   0.034  0.00  0.00    -0.047 A 
ATOM      9  C9  IND d   1      -0.666   0.201   1.291  0.00  0.00    -0.096 A 
ATOM     10  HN1 IND d   1      -0.649   2.534  -0.703  0.00  0.00     0.298 HD
ENDROOT
TORSDOF 0
ENDMDL
