MODEL 1
REMARK minimizedAffinity -0.336543173
REMARK minimizedRMSD -1
REMARK  0 active torsions:
REMARK  status: ('A' for Active; 'I' for Inactive)
ROOT
ATOM      1  N1  IND d   1      -1.481   1.232   2.005  0.00  0.00    -0.196 N 
ATOM      2  C2  IND d   1      -2.079   2.275   1.356  0.00  0.00     0.054 A 
ATOM      3  C3  IND d   1      -1.532   2.443   0.131  0.00  0.00    -0.031 A 
ATOM      4  C4  IND d   1       0.286   1.056  -1.052  0.00  0.00     0.051 A 
ATOM      5  C5  IND d   1       1.159   0.025  -0.846  0.00  0.00    -0.031 A 
ATOM      6  C6  IND d   1       1.195  -0.673   0.344  0.00  0.00     0.015 A 
ATOM      7  C7  IND d   1       0.349  -0.371   1.373  0.00  0.00    -0.016 A 
ATOM      8  C8  IND d   1      -0.534   0.680   1.170  0.00  0.00    -0.047 A 
ATOM      9  C9  IND d   1      -0.547   1.419  -0.020  0.00  0.00    -0.096 A 
ATOM     10  HN1 IND d   1      -1.665   0.964   2.801  0.00  0.00     0.298 HD
ENDROOT
TORSDOF 0
ENDMDL
