MODEL 1
REMARK minimizedAffinity -3.59184837
REMARK minimizedRMSD -1
REMARK  0 active torsions:
REMARK  status: ('A' for Active; 'I' for Inactive)
ROOT
ATOM      1  N1  IND d   1      -1.136   1.295   2.224  0.00  0.00    -0.196 N 
ATOM      2  C2  IND d   1      -2.046   2.135   1.646  0.00  0.00     0.054 A 
ATOM      3  C3  IND d   1      -2.098   1.924   0.311  0.00  0.00    -0.031 A 
ATOM      4  C4  IND d   1      -0.854   0.183  -1.120  0.00  0.00     0.051 A 
ATOM      5  C5  IND d   1       0.111  -0.782  -1.044  0.00  0.00    -0.031 A 
ATOM      6  C6  IND d   1       0.719  -1.113   0.149  0.00  0.00     0.015 A 
ATOM      7  C7  IND d   1       0.376  -0.495   1.319  0.00  0.00    -0.016 A 
ATOM      8  C8  IND d   1      -0.598   0.490   1.245  0.00  0.00    -0.047 A 
ATOM      9  C9  IND d   1      -1.189   0.860   0.030  0.00  0.00    -0.096 A 
ATOM     10  HN1 IND d   1      -0.934   1.274   3.060  0.00  0.00     0.298 HD
ENDROOT
TORSDOF 0
ENDMDL
