MODEL 1
REMARK minimizedAffinity -3.36912036
REMARK minimizedRMSD -1
REMARK  0 active torsions:
REMARK  status: ('A' for Active; 'I' for Inactive)
ROOT
ATOM      1  N1  IND d   1      -1.104   1.745   1.418  0.00  0.00    -0.196 N 
ATOM      2  C2  IND d   1      -1.516   0.806   2.322  0.00  0.00     0.054 A 
ATOM      3  C3  IND d   1      -1.108  -0.425   1.941  0.00  0.00    -0.031 A 
ATOM      4  C4  IND d   1       0.333  -1.120  -0.076  0.00  0.00     0.051 A 
ATOM      5  C5  IND d   1       0.918  -0.619  -1.205  0.00  0.00    -0.031 A 
ATOM      6  C6  IND d   1       0.861   0.723  -1.522  0.00  0.00     0.015 A 
ATOM      7  C7  IND d   1       0.222   1.619  -0.713  0.00  0.00    -0.016 A 
ATOM      8  C8  IND d   1      -0.379   1.114   0.431  0.00  0.00    -0.047 A 
ATOM      9  C9  IND d   1      -0.360  -0.253   0.736  0.00  0.00    -0.096 A 
ATOM     10  HN1 IND d   1      -1.269   2.587   1.459  0.00  0.00     0.298 HD
ENDROOT
TORSDOF 0
ENDMDL
