MODEL 1
REMARK minimizedAffinity -1.907184
REMARK minimizedRMSD -1
REMARK  0 active torsions:
REMARK  status: ('A' for Active; 'I' for Inactive)
ROOT
ATOM      1  N1  IND d   1      -0.797  -0.400  -0.904  0.00  0.00    -0.196 N 
ATOM      2  C2  IND d   1      -0.280  -0.067   0.317  0.00  0.00     0.054 A 
ATOM      3  C3  IND d   1       0.703  -0.929   0.662  0.00  0.00    -0.031 A 
ATOM      4  C4  IND d   1       1.696  -2.896  -0.669  0.00  0.00     0.051 A 
ATOM      5  C5  IND d   1       1.527  -3.611  -1.821  0.00  0.00    -0.031 A 
ATOM      6  C6  IND d   1       0.557  -3.285  -2.746  0.00  0.00     0.015 A 
ATOM      7  C7  IND d   1      -0.277  -2.219  -2.558  0.00  0.00    -0.016 A 
ATOM      8  C8  IND d   1      -0.112  -1.494  -1.386  0.00  0.00    -0.047 A 
ATOM      9  C9  IND d   1       0.842  -1.847  -0.424  0.00  0.00    -0.096 A 
ATOM     10  HN1 IND d   1      -1.441   0.005  -1.303  0.00  0.00     0.298 HD
ENDROOT
TORSDOF 0
ENDMDL
