MODEL 1
REMARK minimizedAffinity -0.831247389
REMARK minimizedRMSD -1
REMARK  0 active torsions:
REMARK  status: ('A' for Active; 'I' for Inactive)
ROOT
ATOM      1  N1  IND d   1       0.959   0.675  -0.971  0.00  0.00    -0.196 N 
ATOM      2  C2  IND d   1       1.390  -0.613  -1.118  0.00  0.00     0.054 A 
ATOM      3  C3  IND d   1       0.972  -1.371  -0.079  0.00  0.00    -0.031 A 
ATOM      4  C4  IND d   1      -0.518  -0.726   1.919  0.00  0.00     0.051 A 
ATOM      5  C5  IND d   1      -1.129   0.346   2.506  0.00  0.00    -0.031 A 
ATOM      6  C6  IND d   1      -1.076   1.609   1.951  0.00  0.00     0.015 A 
ATOM      7  C7  IND d   1      -0.417   1.844   0.777  0.00  0.00    -0.016 A 
ATOM      8  C8  IND d   1       0.210   0.758   0.183  0.00  0.00    -0.047 A 
ATOM      9  C9  IND d   1       0.196  -0.516   0.763  0.00  0.00    -0.096 A 
ATOM     10  HN1 IND d   1       1.126   1.325  -1.509  0.00  0.00     0.298 HD
ENDROOT
TORSDOF 0
ENDMDL
