MODEL 1
REMARK minimizedAffinity -5.32964516
REMARK minimizedRMSD -1
REMARK  0 active torsions:
REMARK  status: ('A' for Active; 'I' for Inactive)
ROOT
ATOM      1  N1  IND d   1      -1.051  -0.036   1.912  0.00  0.00    -0.196 N 
ATOM      2  C2  IND d   1      -1.873   1.055   1.958  0.00  0.00     0.054 A 
ATOM      3  C3  IND d   1      -1.435   2.010   1.107  0.00  0.00    -0.031 A 
ATOM      4  C4  IND d   1       0.550   1.954  -0.532  0.00  0.00     0.051 A 
ATOM      5  C5  IND d   1       1.615   1.185  -0.908  0.00  0.00    -0.031 A 
ATOM      6  C6  IND d   1       1.849  -0.057  -0.355  0.00  0.00     0.015 A 
ATOM      7  C7  IND d   1       1.016  -0.583   0.592  0.00  0.00    -0.016 A 
ATOM      8  C8  IND d   1      -0.062   0.198   0.982  0.00  0.00    -0.047 A 
ATOM      9  C9  IND d   1      -0.281   1.478   0.454  0.00  0.00    -0.096 A 
ATOM     10  HN1 IND d   1      -1.137  -0.749   2.384  0.00  0.00     0.298 HD
ENDROOT
TORSDOF 0
ENDMDL
