MODEL 1
REMARK minimizedAffinity 0.241017669
REMARK minimizedRMSD -1
REMARK  0 active torsions:
REMARK  status: ('A' for Active; 'I' for Inactive)
ROOT
ATOM      1  N1  IND d   1       0.636  -2.018  -2.134  0.00  0.00    -0.196 N 
ATOM      2  C2  IND d   1       1.078  -3.267  -1.800  0.00  0.00     0.054 A 
ATOM      3  C3  IND d   1       1.236  -3.368  -0.461  0.00  0.00    -0.031 A 
ATOM      4  C4  IND d   1       0.732  -1.641   1.380  0.00  0.00     0.051 A 
ATOM      5  C5  IND d   1       0.345  -0.343   1.563  0.00  0.00    -0.031 A 
ATOM      6  C6  IND d   1       0.027   0.479   0.501  0.00  0.00     0.015 A 
ATOM      7  C7  IND d   1       0.072   0.028  -0.788  0.00  0.00    -0.016 A 
ATOM      8  C8  IND d   1       0.471  -1.287  -0.977  0.00  0.00    -0.047 A 
ATOM      9  C9  IND d   1       0.837  -2.114   0.093  0.00  0.00    -0.096 A 
ATOM     10  HN1 IND d   1       0.486  -1.735  -2.932  0.00  0.00     0.298 HD
ENDROOT
TORSDOF 0
ENDMDL
