MODEL 1
REMARK minimizedAffinity -6.1082201
REMARK minimizedRMSD -1
REMARK  0 active torsions:
REMARK  status: ('A' for Active; 'I' for Inactive)
ROOT
ATOM      1  N1  IND d   1       0.575   0.377  -0.993  0.00  0.00    -0.196 N 
ATOM      2  C2  IND d   1       0.188  -0.769  -0.356  0.00  0.00     0.054 A 
ATOM      3  C3  IND d   1      -0.682  -0.484   0.639  0.00  0.00    -0.031 A 
ATOM      4  C4  IND d   1      -1.686   1.782   1.333  0.00  0.00     0.051 A 
ATOM      5  C5  IND d   1      -1.608   3.121   1.071  0.00  0.00    -0.031 A 
ATOM      6  C6  IND d   1      -0.783   3.624   0.085  0.00  0.00     0.015 A 
ATOM      7  C7  IND d   1      -0.011   2.801  -0.685  0.00  0.00    -0.016 A 
ATOM      8  C8  IND d   1      -0.083   1.442  -0.417  0.00  0.00    -0.047 A 
ATOM      9  C9  IND d   1      -0.886   0.930   0.610  0.00  0.00    -0.096 A 
ATOM     10  HN1 IND d   1       1.136   0.425  -1.643  0.00  0.00     0.298 HD
ENDROOT
TORSDOF 0
ENDMDL
