MODEL 1
REMARK minimizedAffinity -4.02409172
REMARK minimizedRMSD -1
REMARK  0 active torsions:
REMARK  status: ('A' for Active; 'I' for Inactive)
ROOT
ATOM      1  N1  IND d   1       1.086   0.483  -0.845  0.00  0.00    -0.196 N 
ATOM      2  C2  IND d   1       0.937  -0.663  -0.115  0.00  0.00     0.054 A 
ATOM      3  C3  IND d   1       0.176  -0.428   0.978  0.00  0.00    -0.031 A 
ATOM      4  C4  IND d   1      -1.011   1.735   1.711  0.00  0.00     0.051 A 
ATOM      5  C5  IND d   1      -1.141   3.056   1.384  0.00  0.00    -0.031 A 
ATOM      6  C6  IND d   1      -0.525   3.597   0.274  0.00  0.00     0.015 A 
ATOM      7  C7  IND d   1       0.238   2.831  -0.561  0.00  0.00    -0.016 A 
ATOM      8  C8  IND d   1       0.378   1.491  -0.229  0.00  0.00    -0.047 A 
ATOM      9  C9  IND d   1      -0.210   0.946   0.920  0.00  0.00    -0.096 A 
ATOM     10  HN1 IND d   1       1.544   0.561  -1.568  0.00  0.00     0.298 HD
ENDROOT
TORSDOF 0
ENDMDL
