MODEL 1
REMARK minimizedAffinity -6.28100777
REMARK minimizedRMSD -1
REMARK  0 active torsions:
REMARK  status: ('A' for Active; 'I' for Inactive)
ROOT
ATOM      1  N1  IND d   1       0.367   0.427  -1.515  0.00  0.00    -0.196 N 
ATOM      2  C2  IND d   1       0.149  -0.571  -0.607  0.00  0.00     0.054 A 
ATOM      3  C3  IND d   1      -0.519  -0.092   0.466  0.00  0.00    -0.031 A 
ATOM      4  C4  IND d   1      -1.444   2.271   0.896  0.00  0.00     0.051 A 
ATOM      5  C5  IND d   1      -1.463   3.533   0.371  0.00  0.00    -0.031 A 
ATOM      6  C6  IND d   1      -0.863   3.829  -0.836  0.00  0.00     0.015 A 
ATOM      7  C7  IND d   1      -0.228   2.868  -1.571  0.00  0.00    -0.016 A 
ATOM      8  C8  IND d   1      -0.201   1.587  -1.037  0.00  0.00    -0.047 A 
ATOM      9  C9  IND d   1      -0.772   1.290   0.207  0.00  0.00    -0.096 A 
ATOM     10  HN1 IND d   1       0.789   0.344  -2.260  0.00  0.00     0.298 HD
ENDROOT
TORSDOF 0
ENDMDL
