MODEL 1
REMARK minimizedAffinity -1.49378872
REMARK minimizedRMSD -1
REMARK  0 active torsions:
REMARK  status: ('A' for Active; 'I' for Inactive)
ROOT
ATOM      1  N1  IND d   1       0.131   2.275  -0.677  0.00  0.00    -0.196 N 
ATOM      2  C2  IND d   1       0.885   1.497  -1.510  0.00  0.00     0.054 A 
ATOM      3  C3  IND d   1       0.873   0.211  -1.091  0.00  0.00    -0.031 A 
ATOM      4  C4  IND d   1      -0.399  -0.856   0.876  0.00  0.00     0.051 A 
ATOM      5  C5  IND d   1      -1.190  -0.541   1.946  0.00  0.00    -0.031 A 
ATOM      6  C6  IND d   1      -1.591   0.755   2.199  0.00  0.00     0.015 A 
ATOM      7  C7  IND d   1      -1.224   1.787   1.382  0.00  0.00    -0.016 A 
ATOM      8  C8  IND d   1      -0.416   1.472   0.299  0.00  0.00    -0.047 A 
ATOM      9  C9  IND d   1       0.030   0.165   0.062  0.00  0.00    -0.096 A 
ATOM     10  HN1 IND d   1       0.017   3.125  -0.750  0.00  0.00     0.298 HD
ENDROOT
TORSDOF 0
ENDMDL
