MODEL 1
REMARK minimizedAffinity -2.53034377
REMARK minimizedRMSD -1
REMARK  0 active torsions:
REMARK  status: ('A' for Active; 'I' for Inactive)
ROOT
ATOM      1  N1  IND d   1      -0.538  -1.724  -4.992  0.00  0.00    -0.196 N 
ATOM      2  C2  IND d   1      -1.146  -1.027  -5.999  0.00  0.00     0.054 A 
ATOM      3  C3  IND d   1      -0.728   0.259  -5.999  0.00  0.00    -0.031 A 
ATOM      4  C4  IND d   1       1.024   1.409  -4.504  0.00  0.00     0.051 A 
ATOM      5  C5  IND d   1       1.823   1.190  -3.417  0.00  0.00    -0.031 A 
ATOM      6  C6  IND d   1       1.880  -0.037  -2.789  0.00  0.00     0.015 A 
ATOM      7  C7  IND d   1       1.144  -1.099  -3.233  0.00  0.00    -0.016 A 
ATOM      8  C8  IND d   1       0.325  -0.878  -4.332  0.00  0.00    -0.047 A 
ATOM      9  C9  IND d   1       0.232   0.377  -4.947  0.00  0.00    -0.096 A 
ATOM     10  HN1 IND d   1      -0.673  -2.552  -4.803  0.00  0.00     0.298 HD
ENDROOT
TORSDOF 0
ENDMDL
