MODEL 1
REMARK minimizedAffinity -2.22020864
REMARK minimizedRMSD -1
REMARK  0 active torsions:
REMARK  status: ('A' for Active; 'I' for Inactive)
ROOT
ATOM      1  N1  IND d   1       1.954   1.657  -2.836  0.00  0.00    -0.196 N 
ATOM      2  C2  IND d   1       1.828   1.252  -4.135  0.00  0.00     0.054 A 
ATOM      3  C3  IND d   1       1.133   0.094  -4.201  0.00  0.00    -0.031 A 
ATOM      4  C4  IND d   1       0.022  -1.256  -2.312  0.00  0.00     0.051 A 
ATOM      5  C5  IND d   1      -0.105  -1.303  -0.953  0.00  0.00    -0.031 A 
ATOM      6  C6  IND d   1       0.457  -0.344  -0.134  0.00  0.00     0.015 A 
ATOM      7  C7  IND d   1       1.160   0.708  -0.649  0.00  0.00    -0.016 A 
ATOM      8  C8  IND d   1       1.297   0.754  -2.029  0.00  0.00    -0.047 A 
ATOM      9  C9  IND d   1       0.765  -0.239  -2.862  0.00  0.00    -0.096 A 
ATOM     10  HN1 IND d   1       2.374   2.358  -2.568  0.00  0.00     0.298 HD
ENDROOT
TORSDOF 0
ENDMDL
