MODEL 1
REMARK minimizedAffinity -1.03788722
REMARK minimizedRMSD -1
REMARK  0 active torsions:
REMARK  status: ('A' for Active; 'I' for Inactive)
ROOT
ATOM      1  N1  IND d   1       1.953  -0.359   2.062  0.00  0.00    -0.196 N 
ATOM      2  C2  IND d   1       1.883  -0.410   3.426  0.00  0.00     0.054 A 
ATOM      3  C3  IND d   1       0.619  -0.165   3.841  0.00  0.00    -0.031 A 
ATOM      4  C4  IND d   1      -1.509   0.244   2.451  0.00  0.00     0.051 A 
ATOM      5  C5  IND d   1      -1.939   0.418   1.166  0.00  0.00    -0.031 A 
ATOM      6  C6  IND d   1      -1.076   0.339   0.091  0.00  0.00     0.015 A 
ATOM      7  C7  IND d   1       0.252   0.069   0.263  0.00  0.00    -0.016 A 
ATOM      8  C8  IND d   1       0.693  -0.102   1.567  0.00  0.00    -0.047 A 
ATOM      9  C9  IND d   1      -0.169   0.020   2.664  0.00  0.00    -0.096 A 
ATOM     10  HN1 IND d   1       2.665  -0.469   1.592  0.00  0.00     0.298 HD
ENDROOT
TORSDOF 0
ENDMDL
