MODEL 1
REMARK minimizedAffinity -4.6345067
REMARK minimizedRMSD -1
REMARK  0 active torsions:
REMARK  status: ('A' for Active; 'I' for Inactive)
ROOT
ATOM      1  N1  IND d   1       2.315  -1.562  -0.285  0.00  0.00    -0.196 N 
ATOM      2  C2  IND d   1       3.090  -1.289   0.807  0.00  0.00     0.054 A 
ATOM      3  C3  IND d   1       2.388  -0.576   1.717  0.00  0.00    -0.031 A 
ATOM      4  C4  IND d   1      -0.076   0.166   1.664  0.00  0.00     0.051 A 
ATOM      5  C5  IND d   1      -1.179   0.182   0.857  0.00  0.00    -0.031 A 
ATOM      6  C6  IND d   1      -1.175  -0.396  -0.396  0.00  0.00     0.015 A 
ATOM      7  C7  IND d   1      -0.066  -1.025  -0.886  0.00  0.00    -0.016 A 
ATOM      8  C8  IND d   1       1.059  -1.037  -0.072  0.00  0.00    -0.047 A 
ATOM      9  C9  IND d   1       1.073  -0.415   1.182  0.00  0.00    -0.096 A 
ATOM     10  HN1 IND d   1       2.569  -1.989  -0.987  0.00  0.00     0.298 HD
ENDROOT
TORSDOF 0
ENDMDL
