MODEL 1
REMARK minimizedAffinity -3.73704362
REMARK minimizedRMSD -1
REMARK  0 active torsions:
REMARK  status: ('A' for Active; 'I' for Inactive)
ROOT
ATOM      1  N1  IND d   1       1.003  -0.848  -0.137  0.00  0.00    -0.196 N 
ATOM      2  C2  IND d   1       1.920  -0.716   0.869  0.00  0.00     0.054 A 
ATOM      3  C3  IND d   1       1.369  -0.081   1.927  0.00  0.00    -0.031 A 
ATOM      4  C4  IND d   1      -1.048   0.738   2.267  0.00  0.00     0.051 A 
ATOM      5  C5  IND d   1      -2.241   0.873   1.614  0.00  0.00    -0.031 A 
ATOM      6  C6  IND d   1      -2.419   0.430   0.320  0.00  0.00     0.015 A 
ATOM      7  C7  IND d   1      -1.408  -0.178  -0.370  0.00  0.00    -0.016 A 
ATOM      8  C8  IND d   1      -0.193  -0.311   0.287  0.00  0.00    -0.047 A 
ATOM      9  C9  IND d   1       0.006   0.176   1.586  0.00  0.00    -0.096 A 
ATOM     10  HN1 IND d   1       1.148  -1.207  -0.905  0.00  0.00     0.298 HD
ENDROOT
TORSDOF 0
ENDMDL
