MODEL 1
REMARK minimizedAffinity -1.20110178
REMARK minimizedRMSD -1
REMARK  0 active torsions:
REMARK  status: ('A' for Active; 'I' for Inactive)
ROOT
ATOM      1  N1  IND d   1       1.639  -0.545   1.882  0.00  0.00    -0.196 N 
ATOM      2  C2  IND d   1       1.686  -0.564   3.248  0.00  0.00     0.054 A 
ATOM      3  C3  IND d   1       0.501  -0.172   3.765  0.00  0.00    -0.031 A 
ATOM      4  C4  IND d   1      -1.686   0.449   2.557  0.00  0.00     0.051 A 
ATOM      5  C5  IND d   1      -2.208   0.649   1.309  0.00  0.00    -0.031 A 
ATOM      6  C6  IND d   1      -1.460   0.455   0.166  0.00  0.00     0.015 A 
ATOM      7  C7  IND d   1      -0.159   0.040   0.228  0.00  0.00    -0.016 A 
ATOM      8  C8  IND d   1       0.376  -0.157   1.493  0.00  0.00    -0.047 A 
ATOM      9  C9  IND d   1      -0.365   0.080   2.657  0.00  0.00    -0.096 A 
ATOM     10  HN1 IND d   1       2.289  -0.742   1.355  0.00  0.00     0.298 HD
ENDROOT
TORSDOF 0
ENDMDL
