MODEL 1
REMARK minimizedAffinity -2.55743074
REMARK minimizedRMSD -1
REMARK  0 active torsions:
REMARK  status: ('A' for Active; 'I' for Inactive)
ROOT
ATOM      1  N1  IND d   1       1.649   0.519  -0.642  0.00  0.00    -0.196 N 
ATOM      2  C2  IND d   1       0.529   0.033  -0.026  0.00  0.00     0.054 A 
ATOM      3  C3  IND d   1      -0.383  -0.355  -0.945  0.00  0.00    -0.031 A 
ATOM      4  C4  IND d   1      -0.208  -0.379  -3.513  0.00  0.00     0.051 A 
ATOM      5  C5  IND d   1       0.609   0.001  -4.541  0.00  0.00    -0.031 A 
ATOM      6  C6  IND d   1       1.840   0.583  -4.317  0.00  0.00     0.015 A 
ATOM      7  C7  IND d   1       2.307   0.797  -3.051  0.00  0.00    -0.016 A 
ATOM      8  C8  IND d   1       1.478   0.418  -2.005  0.00  0.00    -0.047 A 
ATOM      9  C9  IND d   1       0.209  -0.134  -2.226  0.00  0.00    -0.096 A 
ATOM     10  HN1 IND d   1       2.343   0.834  -0.245  0.00  0.00     0.298 HD
ENDROOT
TORSDOF 0
ENDMDL
