MODEL 1
REMARK minimizedAffinity -0.902758896
REMARK minimizedRMSD -1
REMARK  0 active torsions:
REMARK  status: ('A' for Active; 'I' for Inactive)
ROOT
ATOM      1  N1  IND d   1      -1.328   0.366  -5.998  0.00  0.00    -0.196 N 
ATOM      2  C2  IND d   1      -2.015  -0.815  -5.947  0.00  0.00     0.054 A 
ATOM      3  C3  IND d   1      -1.613  -1.547  -4.885  0.00  0.00    -0.031 A 
ATOM      4  C4  IND d   1       0.083  -0.959  -3.040  0.00  0.00     0.051 A 
ATOM      5  C5  IND d   1       0.993  -0.005  -2.677  0.00  0.00    -0.031 A 
ATOM      6  C6  IND d   1       1.177   1.146  -3.416  0.00  0.00     0.015 A 
ATOM      7  C7  IND d   1       0.447   1.392  -4.545  0.00  0.00    -0.016 A 
ATOM      8  C8  IND d   1      -0.473   0.422  -4.920  0.00  0.00    -0.047 A 
ATOM      9  C9  IND d   1      -0.634  -0.767  -4.197  0.00  0.00    -0.096 A 
ATOM     10  HN1 IND d   1      -1.416   0.972  -6.602  0.00  0.00     0.298 HD
ENDROOT
TORSDOF 0
ENDMDL
