MODEL 1
REMARK minimizedAffinity -0.372255027
REMARK minimizedRMSD -1
REMARK  0 active torsions:
REMARK  status: ('A' for Active; 'I' for Inactive)
ROOT
ATOM      1  N1  IND d   1       1.012  -1.025  -0.615  0.00  0.00    -0.196 N 
ATOM      2  C2  IND d   1       0.539  -0.724  -1.862  0.00  0.00     0.054 A 
ATOM      3  C3  IND d   1      -0.637  -0.062  -1.771  0.00  0.00    -0.031 A 
ATOM      4  C4  IND d   1      -1.916   0.721   0.321  0.00  0.00     0.051 A 
ATOM      5  C5  IND d   1      -1.897   0.647   1.685  0.00  0.00    -0.031 A 
ATOM      6  C6  IND d   1      -0.886   0.001   2.367  0.00  0.00     0.015 A 
ATOM      7  C7  IND d   1       0.155  -0.588   1.706  0.00  0.00    -0.016 A 
ATOM      8  C8  IND d   1       0.136  -0.521   0.320  0.00  0.00    -0.047 A 
ATOM      9  C9  IND d   1      -0.910   0.096  -0.378  0.00  0.00    -0.096 A 
ATOM     10  HN1 IND d   1       1.735  -1.458  -0.444  0.00  0.00     0.298 HD
ENDROOT
TORSDOF 0
ENDMDL
