MODEL 1
REMARK minimizedAffinity -0.439237982
REMARK minimizedRMSD -1
REMARK  0 active torsions:
REMARK  status: ('A' for Active; 'I' for Inactive)
ROOT
ATOM      1  C   UNL d   1       4.610   4.563   0.735  0.00  0.00     0.023 A 
ATOM      2  C1  UNL d   1       5.551   3.767   1.390  0.00  0.00     0.003 A 
ATOM      3  C2  UNL d   1       5.949   4.082   2.691  0.00  0.00     0.048 A 
ATOM      4  C3  UNL d   1       5.403   5.194   3.331  0.00  0.00     0.023 A 
ATOM      5  C4  UNL d   1       4.460   5.992   2.681  0.00  0.00     0.048 A 
ATOM      6  C5  UNL d   1       4.066   5.674   1.380  0.00  0.00     0.003 A 
ATOM      7  I   UNL d   1       5.994   5.664   5.267  0.00  0.00    -0.146 I 
ENDROOT
TORSDOF 0
ENDMDL
