MODEL 1
REMARK minimizedAffinity 9.62360764
REMARK minimizedRMSD -1
REMARK  0 active torsions:
REMARK  status: ('A' for Active; 'I' for Inactive)
ROOT
ATOM      1  C   UNL d   1      -1.274  -4.877  -0.069  0.00  0.00     0.023 A 
ATOM      2  C1  UNL d   1      -1.181  -4.635  -1.440  0.00  0.00     0.003 A 
ATOM      3  C2  UNL d   1      -0.060  -3.985  -1.961  0.00  0.00     0.048 A 
ATOM      4  C3  UNL d   1       0.964  -3.581  -1.106  0.00  0.00     0.023 A 
ATOM      5  C4  UNL d   1       0.876  -3.822   0.266  0.00  0.00     0.048 A 
ATOM      6  C5  UNL d   1      -0.247  -4.471   0.783  0.00  0.00     0.003 A 
ATOM      7  I   UNL d   1       2.633  -2.614  -1.879  0.00  0.00    -0.146 I 
ENDROOT
TORSDOF 0
ENDMDL
