MODEL 1
REMARK minimizedAffinity 4.26786613
REMARK minimizedRMSD -1
REMARK  0 active torsions:
REMARK  status: ('A' for Active; 'I' for Inactive)
ROOT
ATOM      1  C   UNL d   1       1.519   5.014  -4.675  0.00  0.00     0.023 A 
ATOM      2  C1  UNL d   1       2.846   4.787  -5.041  0.00  0.00     0.003 A 
ATOM      3  C2  UNL d   1       3.440   3.549  -4.787  0.00  0.00     0.048 A 
ATOM      4  C3  UNL d   1       2.700   2.541  -4.168  0.00  0.00     0.023 A 
ATOM      5  C4  UNL d   1       1.372   2.764  -3.802  0.00  0.00     0.048 A 
ATOM      6  C5  UNL d   1       0.783   4.004  -4.057  0.00  0.00     0.003 A 
ATOM      7  I   UNL d   1       3.581   0.697  -3.789  0.00  0.00    -0.146 I 
ENDROOT
TORSDOF 0
ENDMDL
