MODEL 1
REMARK minimizedAffinity 0.927512288
REMARK minimizedRMSD -1
REMARK  0 active torsions:
REMARK  status: ('A' for Active; 'I' for Inactive)
ROOT
ATOM      1  C   UNL d   1      -3.770  -5.999   0.042  0.00  0.00     0.023 A 
ATOM      2  C1  UNL d   1      -4.961  -5.583  -0.552  0.00  0.00     0.003 A 
ATOM      3  C2  UNL d   1      -4.996  -4.404  -1.300  0.00  0.00     0.048 A 
ATOM      4  C3  UNL d   1      -3.834  -3.647  -1.451  0.00  0.00     0.023 A 
ATOM      5  C4  UNL d   1      -2.639  -4.061  -0.860  0.00  0.00     0.048 A 
ATOM      6  C5  UNL d   1      -2.610  -5.239  -0.112  0.00  0.00     0.003 A 
ATOM      7  I   UNL d   1      -3.882  -1.893  -2.564  0.00  0.00    -0.146 I 
ENDROOT
TORSDOF 0
ENDMDL
