MODEL 1
REMARK minimizedAffinity -0.0931966975
REMARK minimizedRMSD -1
REMARK  0 active torsions:
REMARK  status: ('A' for Active; 'I' for Inactive)
ROOT
ATOM      1  C   UNL d   1      -1.072   1.012   1.944  0.00  0.00     0.023 A 
ATOM      2  C1  UNL d   1      -0.417  -0.204   2.142  0.00  0.00     0.003 A 
ATOM      3  C2  UNL d   1       0.763  -0.482   1.450  0.00  0.00     0.048 A 
ATOM      4  C3  UNL d   1       1.284   0.459   0.563  0.00  0.00     0.023 A 
ATOM      5  C4  UNL d   1       0.632   1.677   0.363  0.00  0.00     0.048 A 
ATOM      6  C5  UNL d   1      -0.548   1.951   1.056  0.00  0.00     0.003 A 
ATOM      7  I   UNL d   1       3.041   0.046  -0.468  0.00  0.00    -0.146 I 
ENDROOT
TORSDOF 0
ENDMDL
