MODEL 1
REMARK minimizedAffinity 2.93832827
REMARK minimizedRMSD -1
REMARK  0 active torsions:
REMARK  status: ('A' for Active; 'I' for Inactive)
ROOT
ATOM      1  C   UNL d   1       1.863   1.416  -0.183  0.00  0.00     0.023 A 
ATOM      2  C1  UNL d   1       0.589   1.774   0.259  0.00  0.00     0.003 A 
ATOM      3  C2  UNL d   1      -0.079   0.974   1.189  0.00  0.00     0.048 A 
ATOM      4  C3  UNL d   1       0.533  -0.182   1.673  0.00  0.00     0.023 A 
ATOM      5  C4  UNL d   1       1.808  -0.544   1.234  0.00  0.00     0.048 A 
ATOM      6  C5  UNL d   1       2.472   0.259   0.304  0.00  0.00     0.003 A 
ATOM      7  I   UNL d   1      -0.459  -1.374   3.056  0.00  0.00    -0.146 I 
ENDROOT
TORSDOF 0
ENDMDL
