MODEL 1
REMARK minimizedAffinity 3.0951159
REMARK minimizedRMSD -1
REMARK  0 active torsions:
REMARK  status: ('A' for Active; 'I' for Inactive)
ROOT
ATOM      1  C   UNL d   1       3.106  -0.324  -0.079  0.00  0.00     0.023 A 
ATOM      2  C1  UNL d   1       2.497  -0.576   1.150  0.00  0.00     0.003 A 
ATOM      3  C2  UNL d   1       1.390   0.176   1.550  0.00  0.00     0.048 A 
ATOM      4  C3  UNL d   1       0.896   1.177   0.714  0.00  0.00     0.023 A 
ATOM      5  C4  UNL d   1       1.502   1.432  -0.517  0.00  0.00     0.048 A 
ATOM      6  C5  UNL d   1       2.609   0.678  -0.912  0.00  0.00     0.003 A 
ATOM      7  I   UNL d   1      -0.751   2.297   1.306  0.00  0.00    -0.146 I 
ENDROOT
TORSDOF 0
ENDMDL
