MODEL 1
REMARK minimizedAffinity 1.7577126
REMARK minimizedRMSD -1
REMARK  0 active torsions:
REMARK  status: ('A' for Active; 'I' for Inactive)
ROOT
ATOM      1  C   UNL d   1      -0.767   0.791   0.736  0.00  0.00     0.023 A 
ATOM      2  C1  UNL d   1      -1.071   2.151   0.793  0.00  0.00     0.003 A 
ATOM      3  C2  UNL d   1      -2.091   2.606   1.631  0.00  0.00     0.048 A 
ATOM      4  C3  UNL d   1      -2.803   1.694   2.410  0.00  0.00     0.023 A 
ATOM      5  C4  UNL d   1      -2.502   0.333   2.357  0.00  0.00     0.048 A 
ATOM      6  C5  UNL d   1      -1.482  -0.117   1.517  0.00  0.00     0.003 A 
ATOM      7  I   UNL d   1      -4.322   2.368   3.659  0.00  0.00    -0.146 I 
ENDROOT
TORSDOF 0
ENDMDL
