MODEL 1
REMARK minimizedAffinity 6.49823952
REMARK minimizedRMSD -1
REMARK  0 active torsions:
REMARK  status: ('A' for Active; 'I' for Inactive)
ROOT
ATOM      1  C   UNL d   1       0.388   2.246   0.478  0.00  0.00     0.023 A 
ATOM      2  C1  UNL d   1       1.222   1.127   0.502  0.00  0.00     0.003 A 
ATOM      3  C2  UNL d   1       0.873   0.012   1.266  0.00  0.00     0.048 A 
ATOM      4  C3  UNL d   1      -0.311   0.021   2.003  0.00  0.00     0.023 A 
ATOM      5  C4  UNL d   1      -1.148   1.137   1.981  0.00  0.00     0.048 A 
ATOM      6  C5  UNL d   1      -0.795   2.251   1.216  0.00  0.00     0.003 A 
ATOM      7  I   UNL d   1      -0.832  -1.639   3.140  0.00  0.00    -0.146 I 
ENDROOT
TORSDOF 0
ENDMDL
