MODEL 1
REMARK minimizedAffinity 1.2327621
REMARK minimizedRMSD -1
REMARK  0 active torsions:
REMARK  status: ('A' for Active; 'I' for Inactive)
ROOT
ATOM      1  C   UNL d   1      -0.438   0.944   1.076  0.00  0.00     0.023 A 
ATOM      2  C1  UNL d   1      -0.714   2.252   1.473  0.00  0.00     0.003 A 
ATOM      3  C2  UNL d   1      -1.852   2.527   2.233  0.00  0.00     0.048 A 
ATOM      4  C3  UNL d   1      -2.710   1.489   2.594  0.00  0.00     0.023 A 
ATOM      5  C4  UNL d   1      -2.438   0.178   2.200  0.00  0.00     0.048 A 
ATOM      6  C5  UNL d   1      -1.299  -0.092   1.439  0.00  0.00     0.003 A 
ATOM      7  I   UNL d   1      -4.405   1.896   3.726  0.00  0.00    -0.146 I 
ENDROOT
TORSDOF 0
ENDMDL
