MODEL 1
REMARK minimizedAffinity 0.846595049
REMARK minimizedRMSD -1
REMARK  0 active torsions:
REMARK  status: ('A' for Active; 'I' for Inactive)
ROOT
ATOM      1  C   UNL d   1       0.733  -0.986   1.011  0.00  0.00     0.023 A 
ATOM      2  C1  UNL d   1      -0.552  -1.023   1.554  0.00  0.00     0.003 A 
ATOM      3  C2  UNL d   1      -1.295   0.153   1.674  0.00  0.00     0.048 A 
ATOM      4  C3  UNL d   1      -0.748   1.363   1.249  0.00  0.00     0.023 A 
ATOM      5  C4  UNL d   1       0.537   1.405   0.704  0.00  0.00     0.048 A 
ATOM      6  C5  UNL d   1       1.276   0.227   0.587  0.00  0.00     0.003 A 
ATOM      7  I   UNL d   1      -1.852   3.114   1.427  0.00  0.00    -0.146 I 
ENDROOT
TORSDOF 0
ENDMDL
