MODEL 1
REMARK minimizedAffinity 7.32188082
REMARK minimizedRMSD -1
REMARK  0 active torsions:
REMARK  status: ('A' for Active; 'I' for Inactive)
ROOT
ATOM      1  C   UNL d   1      -5.998   3.438   5.993  0.00  0.00     0.023 A 
ATOM      2  C1  UNL d   1      -5.858   2.050   5.997  0.00  0.00     0.003 A 
ATOM      3  C2  UNL d   1      -5.044   1.427   5.049  0.00  0.00     0.048 A 
ATOM      4  C3  UNL d   1      -4.371   2.197   4.101  0.00  0.00     0.023 A 
ATOM      5  C4  UNL d   1      -4.508   3.587   4.094  0.00  0.00     0.048 A 
ATOM      6  C5  UNL d   1      -5.324   4.205   5.043  0.00  0.00     0.003 A 
ATOM      7  I   UNL d   1      -3.158   1.272   2.690  0.00  0.00    -0.146 I 
ENDROOT
TORSDOF 0
ENDMDL
