MODEL 1
REMARK minimizedAffinity 10.4670305
REMARK minimizedRMSD -1
REMARK  0 active torsions:
REMARK  status: ('A' for Active; 'I' for Inactive)
ROOT
ATOM      1  C   UNL d   1      -0.190   1.862  -0.151  0.00  0.00     0.023 A 
ATOM      2  C1  UNL d   1       1.054   1.236  -0.223  0.00  0.00     0.003 A 
ATOM      3  C2  UNL d   1       1.604   0.639   0.913  0.00  0.00     0.048 A 
ATOM      4  C3  UNL d   1       0.904   0.670   2.118  0.00  0.00     0.023 A 
ATOM      5  C4  UNL d   1      -0.342   1.294   2.196  0.00  0.00     0.048 A 
ATOM      6  C5  UNL d   1      -0.887   1.891   1.057  0.00  0.00     0.003 A 
ATOM      7  I   UNL d   1       1.720  -0.219   3.810  0.00  0.00    -0.146 I 
ENDROOT
TORSDOF 0
ENDMDL
