MODEL 1
REMARK minimizedAffinity 1.22330701
REMARK minimizedRMSD -1
REMARK  0 active torsions:
REMARK  status: ('A' for Active; 'I' for Inactive)
ROOT
ATOM      1  C   UNL d   1       0.525   0.806   1.618  0.00  0.00     0.023 A 
ATOM      2  C1  UNL d   1       0.266   2.067   2.155  0.00  0.00     0.003 A 
ATOM      3  C2  UNL d   1      -0.965   2.332   2.759  0.00  0.00     0.048 A 
ATOM      4  C3  UNL d   1      -1.933   1.330   2.823  0.00  0.00     0.023 A 
ATOM      5  C4  UNL d   1      -1.678   0.066   2.288  0.00  0.00     0.048 A 
ATOM      6  C5  UNL d   1      -0.446  -0.193   1.685  0.00  0.00     0.003 A 
ATOM      7  I   UNL d   1      -3.766   1.721   3.721  0.00  0.00    -0.146 I 
ENDROOT
TORSDOF 0
ENDMDL
