MODEL 1
REMARK minimizedAffinity 16.2676582
REMARK minimizedRMSD -1
REMARK  0 active torsions:
REMARK  status: ('A' for Active; 'I' for Inactive)
ROOT
ATOM      1  C2' OXE d   1       0.379  -1.496  -4.124  0.00  0.00     0.078 C 
ATOM      2  C1' OXE d   1      -1.574  -2.334  -2.290  0.00  0.00     0.078 C 
ATOM      3  C1  OXE d   1      -1.438  -3.111  -3.576  0.00  0.00    -0.078 A 
ATOM      4  C2  OXE d   1      -0.511  -2.665  -4.488  0.00  0.00    -0.078 A 
ATOM      5  C3  OXE d   1      -0.307  -3.377  -5.666  0.00  0.00     0.003 A 
ATOM      6  C4  OXE d   1      -1.141  -4.451  -6.000  0.00  0.00    -0.002 A 
ATOM      7  C5  OXE d   1      -2.117  -4.897  -5.102  0.00  0.00    -0.002 A 
ATOM      8  C6  OXE d   1      -2.250  -4.265  -3.870  0.00  0.00     0.003 A 
ENDROOT
TORSDOF 0
ENDMDL
