MODEL 1
REMARK minimizedAffinity 7.38336277
REMARK minimizedRMSD -1
REMARK  0 active torsions:
REMARK  status: ('A' for Active; 'I' for Inactive)
ROOT
ATOM      1  C2' OXE d   1       2.246  -2.897   5.671  0.00  0.00     0.078 C 
ATOM      2  C1' OXE d   1      -0.006  -3.668   4.184  0.00  0.00     0.078 C 
ATOM      3  C1  OXE d   1       0.550  -2.286   3.952  0.00  0.00    -0.078 A 
ATOM      4  C2  OXE d   1       1.624  -1.900   4.717  0.00  0.00    -0.078 A 
ATOM      5  C3  OXE d   1       2.210  -0.655   4.505  0.00  0.00     0.003 A 
ATOM      6  C4  OXE d   1       1.623   0.265   3.628  0.00  0.00    -0.002 A 
ATOM      7  C5  OXE d   1       0.505  -0.094   2.868  0.00  0.00    -0.002 A 
ATOM      8  C6  OXE d   1      -0.017  -1.377   2.986  0.00  0.00     0.003 A 
ENDROOT
TORSDOF 0
ENDMDL
