MODEL 1
REMARK minimizedAffinity 9.33318901
REMARK minimizedRMSD -1
REMARK  0 active torsions:
REMARK  status: ('A' for Active; 'I' for Inactive)
ROOT
ATOM      1  C2' OXE d   1       0.489  -0.274  -3.752  0.00  0.00     0.078 C 
ATOM      2  C1' OXE d   1      -1.132  -1.711  -1.965  0.00  0.00     0.078 C 
ATOM      3  C1  OXE d   1      -0.991  -2.242  -3.370  0.00  0.00    -0.078 A 
ATOM      4  C2  OXE d   1      -0.234  -1.507  -4.251  0.00  0.00    -0.078 A 
ATOM      5  C3  OXE d   1      -0.027  -1.980  -5.543  0.00  0.00     0.003 A 
ATOM      6  C4  OXE d   1      -0.707  -3.116  -6.000  0.00  0.00    -0.002 A 
ATOM      7  C5  OXE d   1      -1.515  -3.857  -5.131  0.00  0.00    -0.002 A 
ATOM      8  C6  OXE d   1      -1.634  -3.458  -3.804  0.00  0.00     0.003 A 
ENDROOT
TORSDOF 0
ENDMDL
