MODEL 1
REMARK minimizedAffinity 10.814003
REMARK minimizedRMSD -1
REMARK  0 active torsions:
REMARK  status: ('A' for Active; 'I' for Inactive)
ROOT
ATOM      1  C2' OXE d   1       3.443  -0.209  -5.814  0.00  0.00     0.078 C 
ATOM      2  C1' OXE d   1       3.079  -2.837  -4.898  0.00  0.00     0.078 C 
ATOM      3  C1  OXE d   1       1.914  -1.886  -4.787  0.00  0.00    -0.078 A 
ATOM      4  C2  OXE d   1       2.115  -0.589  -5.194  0.00  0.00    -0.078 A 
ATOM      5  C3  OXE d   1       1.057   0.315  -5.164  0.00  0.00     0.003 A 
ATOM      6  C4  OXE d   1      -0.164  -0.042  -4.580  0.00  0.00    -0.002 A 
ATOM      7  C5  OXE d   1      -0.378  -1.346  -4.123  0.00  0.00    -0.002 A 
ATOM      8  C6  OXE d   1       0.635  -2.290  -4.257  0.00  0.00     0.003 A 
ENDROOT
TORSDOF 0
ENDMDL
