MODEL 1
REMARK minimizedAffinity 7.36213827
REMARK minimizedRMSD -1
REMARK  0 active torsions:
REMARK  status: ('A' for Active; 'I' for Inactive)
ROOT
ATOM      1  C2' OXE d   1       0.866  -2.231   4.253  0.00  0.00     0.078 C 
ATOM      2  C1' OXE d   1       1.857   0.342   3.722  0.00  0.00     0.078 C 
ATOM      3  C1  OXE d   1       0.430   0.044   3.335  0.00  0.00    -0.078 A 
ATOM      4  C2  OXE d   1      -0.032  -1.231   3.556  0.00  0.00    -0.078 A 
ATOM      5  C3  OXE d   1      -1.358  -1.543   3.268  0.00  0.00     0.003 A 
ATOM      6  C4  OXE d   1      -2.178  -0.616   2.615  0.00  0.00    -0.002 A 
ATOM      7  C5  OXE d   1      -1.715   0.676   2.345  0.00  0.00    -0.002 A 
ATOM      8  C6  OXE d   1      -0.430   1.035   2.736  0.00  0.00     0.003 A 
ENDROOT
TORSDOF 0
ENDMDL
