MODEL 1
REMARK minimizedAffinity 12.5410204
REMARK minimizedRMSD -1
REMARK  0 active torsions:
REMARK  status: ('A' for Active; 'I' for Inactive)
ROOT
ATOM      1  C2' OXE d   1       1.021  -1.677   3.401  0.00  0.00     0.078 C 
ATOM      2  C1' OXE d   1      -1.286  -1.340   1.837  0.00  0.00     0.078 C 
ATOM      3  C1  OXE d   1      -0.803  -0.160   2.642  0.00  0.00    -0.078 A 
ATOM      4  C2  OXE d   1       0.300  -0.348   3.441  0.00  0.00    -0.078 A 
ATOM      5  C3  OXE d   1       0.819   0.724   4.162  0.00  0.00     0.003 A 
ATOM      6  C4  OXE d   1       0.140   1.948   4.201  0.00  0.00    -0.002 A 
ATOM      7  C5  OXE d   1      -1.007   2.148   3.426  0.00  0.00    -0.002 A 
ATOM      8  C6  OXE d   1      -1.467   1.120   2.610  0.00  0.00     0.003 A 
ENDROOT
TORSDOF 0
ENDMDL
