MODEL 1
REMARK minimizedAffinity 11.1359367
REMARK minimizedRMSD -1
REMARK  0 active torsions:
REMARK  status: ('A' for Active; 'I' for Inactive)
ROOT
ATOM      1  C2' OXE d   1       2.064  -2.453   5.380  0.00  0.00     0.078 C 
ATOM      2  C1' OXE d   1      -0.006  -3.764   4.011  0.00  0.00     0.078 C 
ATOM      3  C1  OXE d   1       0.330  -2.354   3.594  0.00  0.00    -0.078 A 
ATOM      4  C2  OXE d   1       1.313  -1.703   4.301  0.00  0.00    -0.078 A 
ATOM      5  C3  OXE d   1       1.699  -0.421   3.922  0.00  0.00     0.003 A 
ATOM      6  C4  OXE d   1       0.992   0.269   2.930  0.00  0.00    -0.002 A 
ATOM      7  C5  OXE d   1      -0.039  -0.361   2.225  0.00  0.00    -0.002 A 
ATOM      8  C6  OXE d   1      -0.353  -1.684   2.515  0.00  0.00     0.003 A 
ENDROOT
TORSDOF 0
ENDMDL
