MODEL 1
REMARK minimizedAffinity 12.4272614
REMARK minimizedRMSD -1
REMARK  0 active torsions:
REMARK  status: ('A' for Active; 'I' for Inactive)
ROOT
ATOM      1  C2' OXE d   1       1.898   0.412   3.319  0.00  0.00     0.078 C 
ATOM      2  C1' OXE d   1       1.347  -2.008   2.007  0.00  0.00     0.078 C 
ATOM      3  C1  OXE d   1       0.259  -0.963   2.044  0.00  0.00    -0.078 A 
ATOM      4  C2  OXE d   1       0.521   0.199   2.728  0.00  0.00    -0.078 A 
ATOM      5  C3  OXE d   1      -0.427   1.218   2.746  0.00  0.00     0.003 A 
ATOM      6  C4  OXE d   1      -1.702   1.009   2.205  0.00  0.00    -0.002 A 
ATOM      7  C5  OXE d   1      -2.003  -0.183   1.538  0.00  0.00    -0.002 A 
ATOM      8  C6  OXE d   1      -1.022  -1.160   1.411  0.00  0.00     0.003 A 
ENDROOT
TORSDOF 0
ENDMDL
