MODEL 1
REMARK minimizedAffinity 9.54652596
REMARK minimizedRMSD -1
REMARK  0 active torsions:
REMARK  status: ('A' for Active; 'I' for Inactive)
ROOT
ATOM      1  C2' OXE d   1       0.663   0.476   2.484  0.00  0.00     0.078 C 
ATOM      2  C1' OXE d   1       3.056   0.633   3.944  0.00  0.00     0.078 C 
ATOM      3  C1  OXE d   1       2.256  -0.643   4.039  0.00  0.00    -0.078 A 
ATOM      4  C2  OXE d   1       1.063  -0.693   3.358  0.00  0.00    -0.078 A 
ATOM      5  C3  OXE d   1       0.313  -1.866   3.368  0.00  0.00     0.003 A 
ATOM      6  C4  OXE d   1       0.685  -2.938   4.187  0.00  0.00    -0.002 A 
ATOM      7  C5  OXE d   1       1.876  -2.893   4.920  0.00  0.00    -0.002 A 
ATOM      8  C6  OXE d   1       2.692  -1.771   4.824  0.00  0.00     0.003 A 
ENDROOT
TORSDOF 0
ENDMDL
