MODEL 1
REMARK minimizedAffinity 11.1687326
REMARK minimizedRMSD -1
REMARK  0 active torsions:
REMARK  status: ('A' for Active; 'I' for Inactive)
ROOT
ATOM      1  C2' OXE d   1       2.325  -3.138   4.140  0.00  0.00     0.078 C 
ATOM      2  C1' OXE d   1      -0.463  -3.388   3.930  0.00  0.00     0.078 C 
ATOM      3  C1  OXE d   1       0.181  -2.166   3.325  0.00  0.00    -0.078 A 
ATOM      4  C2  OXE d   1       1.540  -2.028   3.473  0.00  0.00    -0.078 A 
ATOM      5  C3  OXE d   1       2.192  -0.947   2.887  0.00  0.00     0.003 A 
ATOM      6  C4  OXE d   1       1.457   0.079   2.281  0.00  0.00    -0.002 A 
ATOM      7  C5  OXE d   1       0.067  -0.021   2.155  0.00  0.00    -0.002 A 
ATOM      8  C6  OXE d   1      -0.580  -1.155   2.632  0.00  0.00     0.003 A 
ENDROOT
TORSDOF 0
ENDMDL
