MODEL 1
REMARK minimizedAffinity 1.45330977
REMARK minimizedRMSD -1
REMARK  0 active torsions:
REMARK  status: ('A' for Active; 'I' for Inactive)
ROOT
ATOM      1  C2' OXE d   1       0.668  -0.806  -4.412  0.00  0.00     0.078 C 
ATOM      2  C1' OXE d   1      -1.128  -1.534  -2.381  0.00  0.00     0.078 C 
ATOM      3  C1  OXE d   1      -1.077  -2.397  -3.618  0.00  0.00    -0.078 A 
ATOM      4  C2  OXE d   1      -0.229  -2.006  -4.626  0.00  0.00    -0.078 A 
ATOM      5  C3  OXE d   1      -0.104  -2.796  -5.765  0.00  0.00     0.003 A 
ATOM      6  C4  OXE d   1      -0.944  -3.899  -5.959  0.00  0.00    -0.002 A 
ATOM      7  C5  OXE d   1      -1.843  -4.291  -4.962  0.00  0.00    -0.002 A 
ATOM      8  C6  OXE d   1      -1.892  -3.577  -3.770  0.00  0.00     0.003 A 
ENDROOT
TORSDOF 0
ENDMDL
