MODEL 1
REMARK minimizedAffinity 5.2668066
REMARK minimizedRMSD -1
REMARK  2 active torsions:
REMARK  status: ('A' for Active; 'I' for Inactive)
REMARK    1  A    between atoms: C1_2  and  C2_3 
REMARK    2  A    between atoms: C2_3  and  C3_4 
ROOT
ATOM      1  C3  UNL d   1       4.020  -5.981  -3.406  0.00  0.00    -0.075 A 
ATOM      2  C4  UNL d   1       4.862  -5.949  -4.527  0.00  0.00     0.002 A 
ATOM      3  C5  UNL d   1       4.326  -5.911  -5.815  0.00  0.00     0.002 A 
ATOM      4  C6  UNL d   1       2.945  -5.913  -5.998  0.00  0.00    -0.004 A 
ATOM      5  C7  UNL d   1       2.099  -5.961  -4.892  0.00  0.00     0.002 A 
ATOM      6  C8  UNL d   1       2.632  -5.995  -3.602  0.00  0.00     0.002 A 
ENDROOT
BRANCH   1   7
ATOM      7  C2  UNL d   1       4.593  -5.993  -2.009  0.00  0.00     0.056 C 
BRANCH   7   8
ATOM      8  C1  UNL d   1       3.833  -5.109  -1.015  0.00  0.00     0.007 C 
ATOM      9  C   UNL d   1       3.291  -5.880   0.181  0.00  0.00     0.009 C 
ENDBRANCH   7   8
ENDBRANCH   1   7
TORSDOF 2
ENDMDL
