MODEL 1
REMARK minimizedAffinity 4.57545376
REMARK minimizedRMSD -1
REMARK  2 active torsions:
REMARK  status: ('A' for Active; 'I' for Inactive)
REMARK    1  A    between atoms: C1_2  and  C2_3 
REMARK    2  A    between atoms: C2_3  and  C3_4 
ROOT
ATOM      1  C3  UNL d   1       2.251   0.082   1.784  0.00  0.00    -0.075 A 
ATOM      2  C4  UNL d   1       2.029   0.475   3.112  0.00  0.00     0.002 A 
ATOM      3  C5  UNL d   1       1.667  -0.465   4.078  0.00  0.00     0.002 A 
ATOM      4  C6  UNL d   1       1.514  -1.805   3.727  0.00  0.00    -0.004 A 
ATOM      5  C7  UNL d   1       1.717  -2.203   2.407  0.00  0.00     0.002 A 
ATOM      6  C8  UNL d   1       2.083  -1.265   1.440  0.00  0.00     0.002 A 
ENDROOT
BRANCH   1   7
ATOM      7  C2  UNL d   1       2.671   1.090   0.741  0.00  0.00     0.056 C 
BRANCH   7   8
ATOM      8  C1  UNL d   1       2.426   2.547   1.146  0.00  0.00     0.007 C 
ATOM      9  C   UNL d   1       2.326   3.493  -0.043  0.00  0.00     0.009 C 
ENDBRANCH   7   8
ENDBRANCH   1   7
TORSDOF 2
ENDMDL
