MODEL 1
REMARK minimizedAffinity 11.2707396
REMARK minimizedRMSD -1
REMARK  0 active torsions:
REMARK  status: ('A' for Active; 'I' for Inactive)
ROOT
ATOM      1  C   UNL d   1      -1.844  -2.345  -0.014  0.00  0.00    -0.002 A 
ATOM      2  C1  UNL d   1      -1.758  -3.671  -0.414  0.00  0.00     0.010 A 
ATOM      3  C2  UNL d   1      -0.670  -4.116  -1.168  0.00  0.00     0.041 A 
ATOM      4  C3  UNL d   1       0.341  -3.198  -1.514  0.00  0.00    -0.075 A 
ATOM      5  S   UNL d   1       1.766  -3.518  -2.430  0.00  0.00     0.015 SA
ATOM      6  C4  UNL d   1       2.295  -1.902  -2.311  0.00  0.00     0.022 A 
ATOM      7  C5  UNL d   1       1.418  -1.124  -1.594  0.00  0.00     0.026 A 
ATOM      8  C6  UNL d   1       0.277  -1.858  -1.122  0.00  0.00    -0.082 A 
ATOM      9  C7  UNL d   1      -0.839  -1.437  -0.360  0.00  0.00     0.045 A 
ENDROOT
TORSDOF 0
ENDMDL
