MODEL 1
REMARK minimizedAffinity 17.3290997
REMARK minimizedRMSD -1
REMARK  0 active torsions:
REMARK  status: ('A' for Active; 'I' for Inactive)
ROOT
ATOM      1  C   UNL d   1       1.752  -1.502   1.691  0.00  0.00    -0.002 A 
ATOM      2  C1  UNL d   1       2.599  -0.414   1.849  0.00  0.00     0.010 A 
ATOM      3  C2  UNL d   1       2.101   0.889   1.788  0.00  0.00     0.041 A 
ATOM      4  C3  UNL d   1       0.723   1.082   1.565  0.00  0.00    -0.075 A 
ATOM      5  S   UNL d   1      -0.110   2.587   1.453  0.00  0.00     0.015 SA
ATOM      6  C4  UNL d   1      -1.611   1.821   1.193  0.00  0.00     0.022 A 
ATOM      7  C5  UNL d   1      -1.497   0.451   1.188  0.00  0.00     0.026 A 
ATOM      8  C6  UNL d   1      -0.150   0.002   1.403  0.00  0.00    -0.082 A 
ATOM      9  C7  UNL d   1       0.386  -1.306   1.470  0.00  0.00     0.045 A 
ENDROOT
TORSDOF 0
ENDMDL
