MODEL 1
REMARK minimizedAffinity 12.7065573
REMARK minimizedRMSD -1
REMARK  0 active torsions:
REMARK  status: ('A' for Active; 'I' for Inactive)
ROOT
ATOM      1  C   UNL d   1      -4.596  -0.885  -3.308  0.00  0.00    -0.002 A 
ATOM      2  C1  UNL d   1      -5.492  -1.537  -2.473  0.00  0.00     0.010 A 
ATOM      3  C2  UNL d   1      -5.977  -2.805  -2.803  0.00  0.00     0.041 A 
ATOM      4  C3  UNL d   1      -5.541  -3.412  -3.997  0.00  0.00    -0.075 A 
ATOM      5  S   UNL d   1      -6.000  -4.959  -4.604  0.00  0.00     0.015 SA
ATOM      6  C4  UNL d   1      -5.016  -4.791  -5.986  0.00  0.00     0.022 A 
ATOM      7  C5  UNL d   1      -4.348  -3.590  -6.000  0.00  0.00     0.026 A 
ATOM      8  C6  UNL d   1      -4.638  -2.776  -4.853  0.00  0.00    -0.082 A 
ATOM      9  C7  UNL d   1      -4.165  -1.491  -4.492  0.00  0.00     0.045 A 
ENDROOT
TORSDOF 0
ENDMDL
