MODEL 1
REMARK minimizedAffinity 22.5707245
REMARK minimizedRMSD -1
REMARK  0 active torsions:
REMARK  status: ('A' for Active; 'I' for Inactive)
ROOT
ATOM      1  C   UNL d   1       1.294  -2.893   2.656  0.00  0.00    -0.002 A 
ATOM      2  C1  UNL d   1       1.301  -2.565   4.004  0.00  0.00     0.010 A 
ATOM      3  C2  UNL d   1       1.478  -1.242   4.413  0.00  0.00     0.041 A 
ATOM      4  C3  UNL d   1       1.648  -0.243   3.434  0.00  0.00    -0.075 A 
ATOM      5  S   UNL d   1       1.880   1.444   3.700  0.00  0.00     0.015 SA
ATOM      6  C4  UNL d   1       1.975   1.771   2.030  0.00  0.00     0.022 A 
ATOM      7  C5  UNL d   1       1.835   0.631   1.273  0.00  0.00     0.026 A 
ATOM      8  C6  UNL d   1       1.644  -0.548   2.070  0.00  0.00    -0.082 A 
ATOM      9  C7  UNL d   1       1.463  -1.899   1.688  0.00  0.00     0.045 A 
ENDROOT
TORSDOF 0
ENDMDL
