MODEL 1
REMARK minimizedAffinity 2.50803304
REMARK minimizedRMSD -1
REMARK  0 active torsions:
REMARK  status: ('A' for Active; 'I' for Inactive)
ROOT
ATOM      1  C   UNL d   1       3.056  -5.694  -1.587  0.00  0.00    -0.002 A 
ATOM      2  C1  UNL d   1       1.955  -5.733  -2.431  0.00  0.00     0.010 A 
ATOM      3  C2  UNL d   1       2.123  -5.826  -3.814  0.00  0.00     0.041 A 
ATOM      4  C3  UNL d   1       3.429  -5.881  -4.339  0.00  0.00    -0.075 A 
ATOM      5  S   UNL d   1       3.877  -5.998  -6.000  0.00  0.00     0.015 SA
ATOM      6  C4  UNL d   1       5.540  -5.999  -5.628  0.00  0.00     0.022 A 
ATOM      7  C5  UNL d   1       5.766  -5.913  -4.275  0.00  0.00     0.026 A 
ATOM      8  C6  UNL d   1       4.553  -5.845  -3.509  0.00  0.00    -0.082 A 
ATOM      9  C7  UNL d   1       4.349  -5.749  -2.112  0.00  0.00     0.045 A 
ENDROOT
TORSDOF 0
ENDMDL
