MODEL 1
REMARK minimizedAffinity 14.181138
REMARK minimizedRMSD -1
REMARK  0 active torsions:
REMARK  status: ('A' for Active; 'I' for Inactive)
ROOT
ATOM      1  C   UNL d   1       2.563  -4.158   4.580  0.00  0.00    -0.002 A 
ATOM      2  C1  UNL d   1       3.765  -3.473   4.473  0.00  0.00     0.010 A 
ATOM      3  C2  UNL d   1       3.868  -2.340   3.664  0.00  0.00     0.041 A 
ATOM      4  C3  UNL d   1       2.730  -1.902   2.957  0.00  0.00    -0.075 A 
ATOM      5  S   UNL d   1       2.620  -0.539   1.907  0.00  0.00     0.015 SA
ATOM      6  C4  UNL d   1       0.975  -0.833   1.575  0.00  0.00     0.022 A 
ATOM      7  C5  UNL d   1       0.505  -1.940   2.241  0.00  0.00     0.026 A 
ATOM      8  C6  UNL d   1       1.508  -2.574   3.049  0.00  0.00    -0.082 A 
ATOM      9  C7  UNL d   1       1.437  -3.720   3.877  0.00  0.00     0.045 A 
ENDROOT
TORSDOF 0
ENDMDL
