MODEL 1
REMARK minimizedAffinity 8.83362579
REMARK minimizedRMSD -1
REMARK  0 active torsions:
REMARK  status: ('A' for Active; 'I' for Inactive)
ROOT
ATOM      1  C   UNL d   1       4.875  -3.328   4.875  0.00  0.00    -0.002 A 
ATOM      2  C1  UNL d   1       6.000  -3.658   4.132  0.00  0.00     0.010 A 
ATOM      3  C2  UNL d   1       5.892  -4.477   3.006  0.00  0.00     0.041 A 
ATOM      4  C3  UNL d   1       4.622  -4.961   2.635  0.00  0.00    -0.075 A 
ATOM      5  S   UNL d   1       4.249  -5.978   1.293  0.00  0.00     0.015 SA
ATOM      6  C4  UNL d   1       2.588  -5.997   1.674  0.00  0.00     0.022 A 
ATOM      7  C5  UNL d   1       2.307  -5.251   2.794  0.00  0.00     0.026 A 
ATOM      8  C6  UNL d   1       3.475  -4.641   3.366  0.00  0.00    -0.082 A 
ATOM      9  C7  UNL d   1       3.618  -3.810   4.503  0.00  0.00     0.045 A 
ENDROOT
TORSDOF 0
ENDMDL
