MODEL 1
REMARK minimizedAffinity 16.1918011
REMARK minimizedRMSD -1
REMARK  0 active torsions:
REMARK  status: ('A' for Active; 'I' for Inactive)
ROOT
ATOM      1  C   UNL d   1      -5.972  -5.276  -5.994  0.00  0.00    -0.002 A 
ATOM      2  C1  UNL d   1      -5.451  -6.000  -4.931  0.00  0.00     0.010 A 
ATOM      3  C2  UNL d   1      -4.846  -5.346  -3.855  0.00  0.00     0.041 A 
ATOM      4  C3  UNL d   1      -4.775  -3.939  -3.865  0.00  0.00    -0.075 A 
ATOM      5  S   UNL d   1      -4.082  -2.925  -2.655  0.00  0.00     0.015 SA
ATOM      6  C4  UNL d   1      -4.462  -1.507  -3.520  0.00  0.00     0.022 A 
ATOM      7  C5  UNL d   1      -5.103  -1.782  -4.705  0.00  0.00     0.026 A 
ATOM      8  C6  UNL d   1      -5.294  -3.188  -4.923  0.00  0.00    -0.082 A 
ATOM      9  C7  UNL d   1      -5.900  -3.880  -5.999  0.00  0.00     0.045 A 
ENDROOT
TORSDOF 0
ENDMDL
