MODEL 1
REMARK minimizedAffinity 8.08050251
REMARK minimizedRMSD -1
REMARK  0 active torsions:
REMARK  status: ('A' for Active; 'I' for Inactive)
ROOT
ATOM      1  C   UNL d   1      -4.874   2.238  -4.539  0.00  0.00    -0.002 A 
ATOM      2  C1  UNL d   1      -5.903   3.086  -4.154  0.00  0.00     0.010 A 
ATOM      3  C2  UNL d   1      -5.998   3.536  -2.836  0.00  0.00     0.041 A 
ATOM      4  C3  UNL d   1      -5.031   3.116  -1.901  0.00  0.00    -0.075 A 
ATOM      5  S   UNL d   1      -4.945   3.540  -0.232  0.00  0.00     0.015 SA
ATOM      6  C4  UNL d   1      -3.540   2.606   0.010  0.00  0.00     0.022 A 
ATOM      7  C5  UNL d   1      -3.132   1.979  -1.144  0.00  0.00     0.026 A 
ATOM      8  C6  UNL d   1      -3.984   2.264  -2.265  0.00  0.00    -0.082 A 
ATOM      9  C7  UNL d   1      -3.916   1.824  -3.609  0.00  0.00     0.045 A 
ENDROOT
TORSDOF 0
ENDMDL
