MODEL 1
REMARK minimizedAffinity -4.06079006
REMARK minimizedRMSD -1
REMARK  0 active torsions:
REMARK  status: ('A' for Active; 'I' for Inactive)
ROOT
ATOM      1  C4' PXY d   1      -0.140  -1.775   1.451  0.00  0.00     0.077 C 
ATOM      2  C1' PXY d   1      -1.843   1.543  -2.966  0.00  0.00     0.077 C 
ATOM      3  C1  PXY d   1      -1.392   0.684  -1.801  0.00  0.00    -0.082 A 
ATOM      4  C2  PXY d   1      -1.072  -0.583  -2.008  0.00  0.00     0.003 A 
ATOM      5  C3  PXY d   1      -0.694  -1.383  -0.961  0.00  0.00     0.003 A 
ATOM      6  C4  PXY d   1      -0.591  -0.867   0.303  0.00  0.00    -0.082 A 
ATOM      7  C5  PXY d   1      -0.906   0.427   0.521  0.00  0.00     0.003 A 
ATOM      8  C6  PXY d   1      -1.327   1.212  -0.548  0.00  0.00     0.003 A 
ENDROOT
TORSDOF 0
ENDMDL
