MODEL 1
REMARK minimizedAffinity 2.35247493
REMARK minimizedRMSD -1
REMARK  0 active torsions:
REMARK  status: ('A' for Active; 'I' for Inactive)
ROOT
ATOM      1  C4' PXY d   1      -1.281   1.305  -2.095  0.00  0.00     0.077 C 
ATOM      2  C1' PXY d   1      -0.826  -1.427   2.978  0.00  0.00     0.077 C 
ATOM      3  C1  PXY d   1      -0.933  -0.713   1.645  0.00  0.00    -0.082 A 
ATOM      4  C2  PXY d   1      -1.889   0.182   1.457  0.00  0.00     0.003 A 
ATOM      5  C3  PXY d   1      -2.020   0.814   0.248  0.00  0.00     0.003 A 
ATOM      6  C4  PXY d   1      -1.129   0.567  -0.763  0.00  0.00    -0.082 A 
ATOM      7  C5  PXY d   1      -0.144  -0.337  -0.575  0.00  0.00     0.003 A 
ATOM      8  C6  PXY d   1      -0.054  -0.998   0.646  0.00  0.00     0.003 A 
ENDROOT
TORSDOF 0
ENDMDL
