MODEL 1
REMARK minimizedAffinity -4.29048824
REMARK minimizedRMSD -1
REMARK  0 active torsions:
REMARK  status: ('A' for Active; 'I' for Inactive)
ROOT
ATOM      1  C4' PXY d   1      -1.190   2.086  -1.817  0.00  0.00     0.077 C 
ATOM      2  C1' PXY d   1       1.967  -1.799   1.072  0.00  0.00     0.077 C 
ATOM      3  C1  PXY d   1       1.128  -0.784   0.320  0.00  0.00    -0.082 A 
ATOM      4  C2  PXY d   1       1.564  -0.300  -0.831  0.00  0.00     0.003 A 
ATOM      5  C3  PXY d   1       0.833   0.642  -1.509  0.00  0.00     0.003 A 
ATOM      6  C4  PXY d   1      -0.381   1.053  -1.028  0.00  0.00    -0.082 A 
ATOM      7  C5  PXY d   1      -0.838   0.556   0.141  0.00  0.00     0.003 A 
ATOM      8  C6  PXY d   1      -0.061  -0.369   0.833  0.00  0.00     0.003 A 
ENDROOT
TORSDOF 0
ENDMDL
