MODEL 1
REMARK minimizedAffinity -1.69685316
REMARK minimizedRMSD -1
REMARK  0 active torsions:
REMARK  status: ('A' for Active; 'I' for Inactive)
ROOT
ATOM      1  C4' PXY d   1       1.878  -1.285   0.745  0.00  0.00     0.077 C 
ATOM      2  C1' PXY d   1      -2.426   0.673  -2.580  0.00  0.00     0.077 C 
ATOM      3  C1  PXY d   1      -1.302   0.166  -1.698  0.00  0.00    -0.082 A 
ATOM      4  C2  PXY d   1      -0.161  -0.216  -2.248  0.00  0.00     0.003 A 
ATOM      5  C3  PXY d   1       0.855  -0.707  -1.468  0.00  0.00     0.003 A 
ATOM      6  C4  PXY d   1       0.720  -0.758  -0.106  0.00  0.00    -0.082 A 
ATOM      7  C5  PXY d   1      -0.437  -0.359   0.463  0.00  0.00     0.003 A 
ATOM      8  C6  PXY d   1      -1.471   0.098  -0.350  0.00  0.00     0.003 A 
ENDROOT
TORSDOF 0
ENDMDL
