MODEL 1
REMARK minimizedAffinity -4.47508335
REMARK minimizedRMSD -1
REMARK  0 active torsions:
REMARK  status: ('A' for Active; 'I' for Inactive)
ROOT
ATOM      1  C4' PXY d   1      -0.642  -0.946  -0.314  0.00  0.00     0.077 C 
ATOM      2  C1' PXY d   1       2.065   4.122   0.321  0.00  0.00     0.077 C 
ATOM      3  C1  PXY d   1       1.345   2.798   0.160  0.00  0.00    -0.082 A 
ATOM      4  C2  PXY d   1       2.046   1.683   0.029  0.00  0.00     0.003 A 
ATOM      5  C3  PXY d   1       1.411   0.481  -0.149  0.00  0.00     0.003 A 
ATOM      6  C4  PXY d   1       0.043   0.412  -0.140  0.00  0.00    -0.082 A 
ATOM      7  C5  PXY d   1      -0.679   1.543   0.004  0.00  0.00     0.003 A 
ATOM      8  C6  PXY d   1      -0.015   2.759   0.143  0.00  0.00     0.003 A 
ENDROOT
TORSDOF 0
ENDMDL
