MODEL 1
REMARK minimizedAffinity -2.35325646
REMARK minimizedRMSD -1
REMARK  0 active torsions:
REMARK  status: ('A' for Active; 'I' for Inactive)
ROOT
ATOM      1  C4' PXY d   1       0.341   3.769  -3.405  0.00  0.00     0.077 C 
ATOM      2  C1' PXY d   1      -3.975  -0.073  -3.577  0.00  0.00     0.077 C 
ATOM      3  C1  PXY d   1      -2.838   0.928  -3.522  0.00  0.00    -0.082 A 
ATOM      4  C2  PXY d   1      -3.028   2.159  -3.967  0.00  0.00     0.003 A 
ATOM      5  C3  PXY d   1      -2.001   3.068  -3.954  0.00  0.00     0.003 A 
ATOM      6  C4  PXY d   1      -0.782   2.728  -3.432  0.00  0.00    -0.082 A 
ATOM      7  C5  PXY d   1      -0.583   1.477  -2.967  0.00  0.00     0.003 A 
ATOM      8  C6  PXY d   1      -1.626   0.557  -3.027  0.00  0.00     0.003 A 
ENDROOT
TORSDOF 0
ENDMDL
