MODEL 1
REMARK minimizedAffinity -2.47315216
REMARK minimizedRMSD -1
REMARK  0 active torsions:
REMARK  status: ('A' for Active; 'I' for Inactive)
ROOT
ATOM      1  C4' PXY d   1      -1.219   1.395   0.025  0.00  0.00     0.077 C 
ATOM      2  C1' PXY d   1      -3.179   1.505  -5.412  0.00  0.00     0.077 C 
ATOM      3  C1  PXY d   1      -2.656   1.485  -3.989  0.00  0.00    -0.082 A 
ATOM      4  C2  PXY d   1      -2.833   0.408  -3.242  0.00  0.00     0.003 A 
ATOM      5  C3  PXY d   1      -2.395   0.385  -1.943  0.00  0.00     0.003 A 
ATOM      6  C4  PXY d   1      -1.722   1.456  -1.420  0.00  0.00    -0.082 A 
ATOM      7  C5  PXY d   1      -1.528   2.555  -2.179  0.00  0.00     0.003 A 
ATOM      8  C6  PXY d   1      -2.016   2.574  -3.482  0.00  0.00     0.003 A 
ENDROOT
TORSDOF 0
ENDMDL
