MODEL 1
REMARK minimizedAffinity -5.1441412
REMARK minimizedRMSD -1
REMARK  0 active torsions:
REMARK  status: ('A' for Active; 'I' for Inactive)
ROOT
ATOM      1  C4' PXY d   1       3.401   3.759   0.240  0.00  0.00     0.077 C 
ATOM      2  C1' PXY d   1      -0.635  -0.326  -0.422  0.00  0.00     0.077 C 
ATOM      3  C1  PXY d   1       0.415   0.754  -0.252  0.00  0.00    -0.082 A 
ATOM      4  C2  PXY d   1       1.697   0.441  -0.342  0.00  0.00     0.003 A 
ATOM      5  C3  PXY d   1       2.660   1.399  -0.159  0.00  0.00     0.003 A 
ATOM      6  C4  PXY d   1       2.306   2.703   0.066  0.00  0.00    -0.082 A 
ATOM      7  C5  PXY d   1       1.000   3.032   0.150  0.00  0.00     0.003 A 
ATOM      8  C6  PXY d   1       0.039   2.037   0.002  0.00  0.00     0.003 A 
ENDROOT
TORSDOF 0
ENDMDL
