MODEL 1
REMARK minimizedAffinity -0.928336859
REMARK minimizedRMSD -1
REMARK  0 active torsions:
REMARK  status: ('A' for Active; 'I' for Inactive)
ROOT
ATOM      1  C4' PXY d   1      -1.849   0.357  -0.870  0.00  0.00     0.077 C 
ATOM      2  C1' PXY d   1       2.721  -1.804   1.932  0.00  0.00     0.077 C 
ATOM      3  C1  PXY d   1       1.516  -1.249   1.199  0.00  0.00    -0.082 A 
ATOM      4  C2  PXY d   1       1.673  -0.250   0.346  0.00  0.00     0.003 A 
ATOM      5  C3  PXY d   1       0.590   0.286  -0.302  0.00  0.00     0.003 A 
ATOM      6  C4  PXY d   1      -0.660  -0.242  -0.114  0.00  0.00    -0.082 A 
ATOM      7  C5  PXY d   1      -0.826  -1.268   0.747  0.00  0.00     0.003 A 
ATOM      8  C6  PXY d   1       0.280  -1.770   1.425  0.00  0.00     0.003 A 
ENDROOT
TORSDOF 0
ENDMDL
