MODEL 1
REMARK minimizedAffinity -4.74477386
REMARK minimizedRMSD -1
REMARK  0 active torsions:
REMARK  status: ('A' for Active; 'I' for Inactive)
ROOT
ATOM      1  C4' PXY d   1       1.414   3.491   0.281  0.00  0.00     0.077 C 
ATOM      2  C1' PXY d   1      -2.565   1.249  -3.263  0.00  0.00     0.077 C 
ATOM      3  C1  PXY d   1      -1.526   1.829  -2.324  0.00  0.00    -0.082 A 
ATOM      4  C2  PXY d   1      -1.000   3.015  -2.583  0.00  0.00     0.003 A 
ATOM      5  C3  PXY d   1      -0.036   3.541  -1.762  0.00  0.00     0.003 A 
ATOM      6  C4  PXY d   1       0.355   2.870  -0.634  0.00  0.00    -0.082 A 
ATOM      7  C5  PXY d   1      -0.185   1.664  -0.357  0.00  0.00     0.003 A 
ATOM      8  C6  PXY d   1      -1.132   1.129  -1.225  0.00  0.00     0.003 A 
ENDROOT
TORSDOF 0
ENDMDL
