MODEL 1
REMARK minimizedAffinity -2.98830557
REMARK minimizedRMSD -1
REMARK  0 active torsions:
REMARK  status: ('A' for Active; 'I' for Inactive)
ROOT
ATOM      1  C4' PXY d   1       1.592   4.106   0.389  0.00  0.00     0.077 C 
ATOM      2  C1' PXY d   1      -0.551  -1.193  -0.473  0.00  0.00     0.077 C 
ATOM      3  C1  PXY d   1       0.023   0.192  -0.243  0.00  0.00    -0.082 A 
ATOM      4  C2  PXY d   1      -0.794   1.209  -0.020  0.00  0.00     0.003 A 
ATOM      5  C3  PXY d   1      -0.294   2.473   0.158  0.00  0.00     0.003 A 
ATOM      6  C4  PXY d   1       1.058   2.689   0.161  0.00  0.00    -0.082 A 
ATOM      7  C5  PXY d   1       1.898   1.655  -0.055  0.00  0.00     0.003 A 
ATOM      8  C6  PXY d   1       1.369   0.387  -0.275  0.00  0.00     0.003 A 
ENDROOT
TORSDOF 0
ENDMDL
