MODEL 1
REMARK minimizedAffinity -1.8924129
REMARK minimizedRMSD -1
REMARK  0 active torsions:
REMARK  status: ('A' for Active; 'I' for Inactive)
ROOT
ATOM      1  C4' PXY d   1       2.032   2.360  -0.545  0.00  0.00     0.077 C 
ATOM      2  C1' PXY d   1      -0.123  -2.953   0.189  0.00  0.00     0.077 C 
ATOM      3  C1  PXY d   1       0.438  -1.559  -0.016  0.00  0.00    -0.082 A 
ATOM      4  C2  PXY d   1       1.413  -1.126   0.766  0.00  0.00     0.003 A 
ATOM      5  C3  PXY d   1       1.911   0.143   0.615  0.00  0.00     0.003 A 
ATOM      6  C4  PXY d   1       1.442   0.958  -0.381  0.00  0.00    -0.082 A 
ATOM      7  C5  PXY d   1       0.454   0.518  -1.190  0.00  0.00     0.003 A 
ATOM      8  C6  PXY d   1      -0.066  -0.758  -0.994  0.00  0.00     0.003 A 
ENDROOT
TORSDOF 0
ENDMDL
