MODEL 1
REMARK minimizedAffinity -4.22920847
REMARK minimizedRMSD -1
REMARK  0 active torsions:
REMARK  status: ('A' for Active; 'I' for Inactive)
ROOT
ATOM      1  C4' PXY d   1      -1.892   1.340  -1.132  0.00  0.00     0.077 C 
ATOM      2  C1' PXY d   1       1.527  -2.912   0.777  0.00  0.00     0.077 C 
ATOM      3  C1  PXY d   1       0.623  -1.798   0.287  0.00  0.00    -0.082 A 
ATOM      4  C2  PXY d   1       0.592  -1.500  -1.002  0.00  0.00     0.003 A 
ATOM      5  C3  PXY d   1      -0.196  -0.475  -1.458  0.00  0.00     0.003 A 
ATOM      6  C4  PXY d   1      -1.001   0.218  -0.594  0.00  0.00    -0.082 A 
ATOM      7  C5  PXY d   1      -0.983  -0.088   0.721  0.00  0.00     0.003 A 
ATOM      8  C6  PXY d   1      -0.145  -1.105   1.170  0.00  0.00     0.003 A 
ENDROOT
TORSDOF 0
ENDMDL
