MODEL 1
REMARK minimizedAffinity -2.12197113
REMARK minimizedRMSD -1
REMARK  0 active torsions:
REMARK  status: ('A' for Active; 'I' for Inactive)
ROOT
ATOM      1  C4' PXY d   1      -1.682   1.779  -1.306  0.00  0.00     0.077 C 
ATOM      2  C1' PXY d   1       0.984  -2.506   1.512  0.00  0.00     0.077 C 
ATOM      3  C1  PXY d   1       0.274  -1.387   0.776  0.00  0.00    -0.082 A 
ATOM      4  C2  PXY d   1       0.901  -0.738  -0.190  0.00  0.00     0.003 A 
ATOM      5  C3  PXY d   1       0.285   0.297  -0.845  0.00  0.00     0.003 A 
ATOM      6  C4  PXY d   1      -1.007   0.637  -0.542  0.00  0.00    -0.082 A 
ATOM      7  C5  PXY d   1      -1.658  -0.028   0.436  0.00  0.00     0.003 A 
ATOM      8  C6  PXY d   1      -1.000  -1.049   1.116  0.00  0.00     0.003 A 
ENDROOT
TORSDOF 0
ENDMDL
