MODEL 1
REMARK minimizedAffinity -3.27882361
REMARK minimizedRMSD -1
REMARK  0 active torsions:
REMARK  status: ('A' for Active; 'I' for Inactive)
ROOT
ATOM      1  C4' PXY d   1       2.622   2.219  -0.469  0.00  0.00     0.077 C 
ATOM      2  C1' PXY d   1       0.507  -3.050   0.616  0.00  0.00     0.077 C 
ATOM      3  C1  PXY d   1       1.052  -1.666   0.323  0.00  0.00    -0.082 A 
ATOM      4  C2  PXY d   1       2.339  -1.419   0.501  0.00  0.00     0.003 A 
ATOM      5  C3  PXY d   1       2.843  -0.164   0.271  0.00  0.00     0.003 A 
ATOM      6  C4  PXY d   1       2.030   0.834  -0.195  0.00  0.00    -0.082 A 
ATOM      7  C5  PXY d   1       0.717   0.587  -0.389  0.00  0.00     0.003 A 
ATOM      8  C6  PXY d   1       0.218  -0.682  -0.111  0.00  0.00     0.003 A 
ENDROOT
TORSDOF 0
ENDMDL
