MODEL 1
REMARK minimizedAffinity -3.40099096
REMARK minimizedRMSD -1
REMARK  0 active torsions:
REMARK  status: ('A' for Active; 'I' for Inactive)
ROOT
ATOM      1  C4' PXY d   1       2.933  -0.343  -1.479  0.00  0.00     0.077 C 
ATOM      2  C1' PXY d   1      -1.277  -1.796   2.206  0.00  0.00     0.077 C 
ATOM      3  C1  PXY d   1      -0.164  -1.421   1.247  0.00  0.00    -0.082 A 
ATOM      4  C2  PXY d   1      -0.313  -0.376   0.449  0.00  0.00     0.003 A 
ATOM      5  C3  PXY d   1       0.670  -0.042  -0.446  0.00  0.00     0.003 A 
ATOM      6  C4  PXY d   1       1.840  -0.753  -0.489  0.00  0.00    -0.082 A 
ATOM      7  C5  PXY d   1       2.003  -1.814   0.330  0.00  0.00     0.003 A 
ATOM      8  C6  PXY d   1       0.976  -2.161   1.203  0.00  0.00     0.003 A 
ENDROOT
TORSDOF 0
ENDMDL
