MODEL 1
REMARK minimizedAffinity -4.32014036
REMARK minimizedRMSD -1
REMARK  0 active torsions:
REMARK  status: ('A' for Active; 'I' for Inactive)
ROOT
ATOM      1  C4' PXY d   1      -0.576   1.236   0.052  0.00  0.00     0.077 C 
ATOM      2  C1' PXY d   1       4.533   3.839  -0.679  0.00  0.00     0.077 C 
ATOM      3  C1  PXY d   1       3.189   3.166  -0.480  0.00  0.00    -0.082 A 
ATOM      4  C2  PXY d   1       3.083   1.858  -0.642  0.00  0.00     0.003 A 
ATOM      5  C3  PXY d   1       1.868   1.237  -0.497  0.00  0.00     0.003 A 
ATOM      6  C4  PXY d   1       0.763   1.956  -0.130  0.00  0.00    -0.082 A 
ATOM      7  C5  PXY d   1       0.865   3.290   0.048  0.00  0.00     0.003 A 
ATOM      8  C6  PXY d   1       2.098   3.907  -0.144  0.00  0.00     0.003 A 
ENDROOT
TORSDOF 0
ENDMDL
