MODEL 1
REMARK minimizedAffinity -1.78675854
REMARK minimizedRMSD -1
REMARK  0 active torsions:
REMARK  status: ('A' for Active; 'I' for Inactive)
ROOT
ATOM      1  C4' PXY d   1      -0.934   1.283  -0.345  0.00  0.00     0.077 C 
ATOM      2  C1' PXY d   1       1.656  -3.543   1.503  0.00  0.00     0.077 C 
ATOM      3  C1  PXY d   1       0.965  -2.283   1.020  0.00  0.00    -0.082 A 
ATOM      4  C2  PXY d   1       1.620  -1.435   0.243  0.00  0.00     0.003 A 
ATOM      5  C3  PXY d   1       1.021  -0.275  -0.176  0.00  0.00     0.003 A 
ATOM      6  C4  PXY d   1      -0.279  -0.006   0.159  0.00  0.00    -0.082 A 
ATOM      7  C5  PXY d   1      -0.957  -0.872   0.942  0.00  0.00     0.003 A 
ATOM      8  C6  PXY d   1      -0.318  -2.024   1.391  0.00  0.00     0.003 A 
ENDROOT
TORSDOF 0
ENDMDL
