MODEL 1
REMARK minimizedAffinity -3.66156864
REMARK minimizedRMSD -1
REMARK  0 active torsions:
REMARK  status: ('A' for Active; 'I' for Inactive)
ROOT
ATOM      1  C4' PXY d   1       4.155   3.815  -0.401  0.00  0.00     0.077 C 
ATOM      2  C1' PXY d   1      -0.569   0.487  -0.253  0.00  0.00     0.077 C 
ATOM      3  C1  PXY d   1       0.663   1.370  -0.294  0.00  0.00    -0.082 A 
ATOM      4  C2  PXY d   1       1.829   0.852  -0.644  0.00  0.00     0.003 A 
ATOM      5  C3  PXY d   1       2.958   1.629  -0.655  0.00  0.00     0.003 A 
ATOM      6  C4  PXY d   1       2.884   2.963  -0.356  0.00  0.00    -0.082 A 
ATOM      7  C5  PXY d   1       1.696   3.502  -0.008  0.00  0.00     0.003 A 
ATOM      8  C6  PXY d   1       0.569   2.687   0.037  0.00  0.00     0.003 A 
ENDROOT
TORSDOF 0
ENDMDL
