MODEL 1
REMARK minimizedAffinity -4.37751627
REMARK minimizedRMSD -1
REMARK  0 active torsions:
REMARK  status: ('A' for Active; 'I' for Inactive)
ROOT
ATOM      1  C4' PXY d   1       0.034   0.461   0.142  0.00  0.00     0.077 C 
ATOM      2  C1' PXY d   1       4.288   4.347  -0.320  0.00  0.00     0.077 C 
ATOM      3  C1  PXY d   1       3.167   3.335  -0.189  0.00  0.00    -0.082 A 
ATOM      4  C2  PXY d   1       3.372   2.080  -0.555  0.00  0.00     0.003 A 
ATOM      5  C3  PXY d   1       2.360   1.159  -0.473  0.00  0.00     0.003 A 
ATOM      6  C4  PXY d   1       1.140   1.515   0.037  0.00  0.00    -0.082 A 
ATOM      7  C5  PXY d   1       0.926   2.791   0.422  0.00  0.00     0.003 A 
ATOM      8  C6  PXY d   1       1.954   3.720   0.293  0.00  0.00     0.003 A 
ENDROOT
TORSDOF 0
ENDMDL
