MODEL 1
REMARK minimizedAffinity -4.98669291
REMARK minimizedRMSD -1
REMARK  1 active torsions:
REMARK  status: ('A' for Active; 'I' for Inactive)
REMARK    1  A    between atoms: N_2  and  C1_3 
ROOT
ATOM      1  C1  UNL d   1       0.332  -0.330  -0.319  0.00  0.00     0.143 A 
ATOM      2  C2  UNL d   1       0.584   0.846  -1.034  0.00  0.00    -0.057 A 
ATOM      3  C3  UNL d   1       1.432   0.850  -2.148  0.00  0.00     0.033 A 
ATOM      4  C4  UNL d   1       2.068  -0.320  -2.550  0.00  0.00    -0.042 A 
ATOM      5  C5  UNL d   1       1.852  -1.495  -1.839  0.00  0.00     0.033 A 
ATOM      6  C6  UNL d   1       0.998  -1.494  -0.732  0.00  0.00    -0.057 A 
ENDROOT
BRANCH   1   7
ATOM      7  N   UNL d   1      -0.423  -0.379   0.856  0.00  0.00    -0.732 N 
ATOM      8  C   UNL d   1      -1.735   0.229   0.915  0.00  0.00     0.284 C 
ATOM      9  H3  UNL d   1      -0.362  -1.283   1.319  0.00  0.00     0.395 HD
ENDBRANCH   1   7
TORSDOF 1
ENDMDL
