MODEL 1
REMARK minimizedAffinity -1.91694236
REMARK minimizedRMSD -1
REMARK  1 active torsions:
REMARK  status: ('A' for Active; 'I' for Inactive)
REMARK    1  A    between atoms: N_2  and  C1_3 
ROOT
ATOM      1  C1  UNL d   1      -0.198  -0.013   0.249  0.00  0.00     0.143 A 
ATOM      2  C2  UNL d   1       0.380   1.186  -0.181  0.00  0.00    -0.057 A 
ATOM      3  C3  UNL d   1       1.499   1.192  -1.023  0.00  0.00     0.033 A 
ATOM      4  C4  UNL d   1       2.080  -0.005  -1.427  0.00  0.00    -0.042 A 
ATOM      5  C5  UNL d   1       1.538  -1.209  -0.991  0.00  0.00     0.033 A 
ATOM      6  C6  UNL d   1       0.416  -1.209  -0.156  0.00  0.00    -0.057 A 
ENDROOT
BRANCH   1   7
ATOM      7  N   UNL d   1      -1.250  -0.086   1.165  0.00  0.00    -0.732 N 
ATOM      8  C   UNL d   1      -2.624  -0.076   0.711  0.00  0.00     0.284 C 
ATOM      9  H3  UNL d   1      -1.065  -0.745   1.917  0.00  0.00     0.395 HD
ENDBRANCH   1   7
TORSDOF 1
ENDMDL
