MODEL 1
REMARK minimizedAffinity -0.28260994
REMARK minimizedRMSD -1
REMARK  1 active torsions:
REMARK  status: ('A' for Active; 'I' for Inactive)
REMARK    1  A    between atoms: N_2  and  C1_3 
ROOT
ATOM      1  C1  UNL d   1       0.376  -1.259   0.328  0.00  0.00     0.143 A 
ATOM      2  C2  UNL d   1       1.231  -0.306  -0.235  0.00  0.00    -0.057 A 
ATOM      3  C3  UNL d   1       0.888   1.051  -0.263  0.00  0.00     0.033 A 
ATOM      4  C4  UNL d   1      -0.334   1.476   0.247  0.00  0.00    -0.042 A 
ATOM      5  C5  UNL d   1      -1.211   0.543   0.789  0.00  0.00     0.033 A 
ATOM      6  C6  UNL d   1      -0.860  -0.810   0.820  0.00  0.00    -0.057 A 
ENDROOT
BRANCH   1   7
ATOM      7  N   UNL d   1       0.616  -2.635   0.298  0.00  0.00    -0.732 N 
ATOM      8  C   UNL d   1       1.466  -3.212  -0.722  0.00  0.00     0.284 C 
ATOM      9  H3  UNL d   1       0.758  -3.025   1.227  0.00  0.00     0.395 HD
ENDBRANCH   1   7
TORSDOF 1
ENDMDL
