MODEL 1
REMARK minimizedAffinity -2.95836473
REMARK minimizedRMSD -1
REMARK  1 active torsions:
REMARK  status: ('A' for Active; 'I' for Inactive)
REMARK    1  A    between atoms: N_2  and  C1_3 
ROOT
ATOM      1  C1  UNL d   1      -0.004   0.513   0.342  0.00  0.00     0.143 A 
ATOM      2  C2  UNL d   1       1.322   0.250  -0.018  0.00  0.00    -0.057 A 
ATOM      3  C3  UNL d   1       1.894   0.832  -1.155  0.00  0.00     0.033 A 
ATOM      4  C4  UNL d   1       1.139   1.668  -1.971  0.00  0.00    -0.042 A 
ATOM      5  C5  UNL d   1      -0.188   1.924  -1.646  0.00  0.00     0.033 A 
ATOM      6  C6  UNL d   1      -0.752   1.345  -0.505  0.00  0.00    -0.057 A 
ENDROOT
BRANCH   1   7
ATOM      7  N   UNL d   1      -0.660  -0.112   1.405  0.00  0.00    -0.732 N 
ATOM      8  C   UNL d   1      -2.046   0.188   1.696  0.00  0.00     0.284 C 
ATOM      9  H3  UNL d   1      -0.424  -1.099   1.481  0.00  0.00     0.395 HD
ENDBRANCH   1   7
TORSDOF 1
ENDMDL
