MODEL 1
REMARK minimizedAffinity -4.37428284
REMARK minimizedRMSD -1
REMARK  1 active torsions:
REMARK  status: ('A' for Active; 'I' for Inactive)
REMARK    1  A    between atoms: N_2  and  C1_3 
ROOT
ATOM      1  C1  UNL d   1      -1.505   0.411   1.331  0.00  0.00     0.143 A 
ATOM      2  C2  UNL d   1      -1.415   0.685  -0.037  0.00  0.00    -0.057 A 
ATOM      3  C3  UNL d   1      -0.251   1.230  -0.594  0.00  0.00     0.033 A 
ATOM      4  C4  UNL d   1       0.836   1.537   0.217  0.00  0.00    -0.042 A 
ATOM      5  C5  UNL d   1       0.760   1.296   1.584  0.00  0.00     0.033 A 
ATOM      6  C6  UNL d   1      -0.403   0.746   2.133  0.00  0.00    -0.057 A 
ENDROOT
BRANCH   1   7
ATOM      7  N   UNL d   1      -2.670  -0.038   1.960  0.00  0.00    -0.732 N 
ATOM      8  C   UNL d   1      -3.971   0.399   1.501  0.00  0.00     0.284 C 
ATOM      9  H3  UNL d   1      -2.625  -1.026   2.201  0.00  0.00     0.395 HD
ENDBRANCH   1   7
TORSDOF 1
ENDMDL
