MODEL 1
REMARK minimizedAffinity -4.70758915
REMARK minimizedRMSD -1
REMARK  1 active torsions:
REMARK  status: ('A' for Active; 'I' for Inactive)
REMARK    1  A    between atoms: N_2  and  C1_3 
ROOT
ATOM      1  C1  UNL d   1      -0.006  -0.105  -0.089  0.00  0.00     0.143 A 
ATOM      2  C2  UNL d   1       0.548   1.069  -0.610  0.00  0.00    -0.057 A 
ATOM      3  C3  UNL d   1       1.238   1.067  -1.829  0.00  0.00     0.033 A 
ATOM      4  C4  UNL d   1       1.410  -0.119  -2.535  0.00  0.00    -0.042 A 
ATOM      5  C5  UNL d   1       0.889  -1.302  -2.024  0.00  0.00     0.033 A 
ATOM      6  C6  UNL d   1       0.196  -1.292  -0.810  0.00  0.00    -0.057 A 
ENDROOT
BRANCH   1   7
ATOM      7  N   UNL d   1      -0.618  -0.186   1.165  0.00  0.00    -0.732 N 
ATOM      8  C   UNL d   1      -2.044   0.016   1.304  0.00  0.00     0.284 C 
ATOM      9  H3  UNL d   1      -0.249  -0.949   1.728  0.00  0.00     0.395 HD
ENDBRANCH   1   7
TORSDOF 1
ENDMDL
