MODEL 1
REMARK minimizedAffinity -1.64922094
REMARK minimizedRMSD -1
REMARK  1 active torsions:
REMARK  status: ('A' for Active; 'I' for Inactive)
REMARK    1  A    between atoms: N_2  and  C1_3 
ROOT
ATOM      1  C1  UNL d   1      -1.088  -0.017   0.858  0.00  0.00     0.143 A 
ATOM      2  C2  UNL d   1      -0.432  -1.222   1.128  0.00  0.00    -0.057 A 
ATOM      3  C3  UNL d   1       0.157  -1.974   0.104  0.00  0.00     0.033 A 
ATOM      4  C4  UNL d   1       0.075  -1.546  -1.217  0.00  0.00    -0.042 A 
ATOM      5  C5  UNL d   1      -0.594  -0.363  -1.512  0.00  0.00     0.033 A 
ATOM      6  C6  UNL d   1      -1.174   0.387  -0.484  0.00  0.00    -0.057 A 
ENDROOT
BRANCH   1   7
ATOM      7  N   UNL d   1      -1.778   0.726   1.819  0.00  0.00    -0.732 N 
ATOM      8  C   UNL d   1      -3.224   0.700   1.872  0.00  0.00     0.284 C 
ATOM      9  H3  UNL d   1      -1.328   0.695   2.731  0.00  0.00     0.395 HD
ENDBRANCH   1   7
TORSDOF 1
ENDMDL
