MODEL 1
REMARK minimizedAffinity -1.38156104
REMARK minimizedRMSD -1
REMARK  1 active torsions:
REMARK  status: ('A' for Active; 'I' for Inactive)
REMARK    1  A    between atoms: N_2  and  C1_3 
ROOT
ATOM      1  C1  UNL d   1       1.180  -1.137  -0.867  0.00  0.00     0.143 A 
ATOM      2  C2  UNL d   1       0.138  -0.583  -0.116  0.00  0.00    -0.057 A 
ATOM      3  C3  UNL d   1      -0.048   0.803  -0.043  0.00  0.00     0.033 A 
ATOM      4  C4  UNL d   1       0.827   1.663  -0.698  0.00  0.00    -0.042 A 
ATOM      5  C5  UNL d   1       1.885   1.136  -1.430  0.00  0.00     0.033 A 
ATOM      6  C6  UNL d   1       2.061  -0.249  -1.505  0.00  0.00    -0.057 A 
ENDROOT
BRANCH   1   7
ATOM      7  N   UNL d   1       1.476  -2.502  -0.899  0.00  0.00    -0.732 N 
ATOM      8  C   UNL d   1       2.649  -2.986  -1.595  0.00  0.00     0.284 C 
ATOM      9  H3  UNL d   1       1.305  -2.957  -0.006  0.00  0.00     0.395 HD
ENDBRANCH   1   7
TORSDOF 1
ENDMDL
