MODEL 1
REMARK minimizedAffinity -1.15687835
REMARK minimizedRMSD -1
REMARK  1 active torsions:
REMARK  status: ('A' for Active; 'I' for Inactive)
REMARK    1  A    between atoms: N_2  and  C1_3 
ROOT
ATOM      1  C1  UNL d   1      -1.318   0.356   1.000  0.00  0.00     0.143 A 
ATOM      2  C2  UNL d   1      -0.793   1.536   0.463  0.00  0.00    -0.057 A 
ATOM      3  C3  UNL d   1       0.391   1.530  -0.283  0.00  0.00     0.033 A 
ATOM      4  C4  UNL d   1       1.090   0.344  -0.482  0.00  0.00    -0.042 A 
ATOM      5  C5  UNL d   1       0.600  -0.837   0.064  0.00  0.00     0.033 A 
ATOM      6  C6  UNL d   1      -0.587  -0.826   0.802  0.00  0.00    -0.057 A 
ENDROOT
BRANCH   1   7
ATOM      7  N   UNL d   1      -2.439   0.311   1.833  0.00  0.00    -0.732 N 
ATOM      8  C   UNL d   1      -3.707  -0.177   1.337  0.00  0.00     0.284 C 
ATOM      9  H3  UNL d   1      -2.211  -0.004   2.773  0.00  0.00     0.395 HD
ENDBRANCH   1   7
TORSDOF 1
ENDMDL
