MODEL 1
REMARK minimizedAffinity -1.03093171
REMARK minimizedRMSD -1
REMARK  1 active torsions:
REMARK  status: ('A' for Active; 'I' for Inactive)
REMARK    1  A    between atoms: N_2  and  C1_3 
ROOT
ATOM      1  C1  UNL d   1       0.515  -0.537  -0.164  0.00  0.00     0.143 A 
ATOM      2  C2  UNL d   1       1.072   0.662  -0.622  0.00  0.00    -0.057 A 
ATOM      3  C3  UNL d   1       2.088   0.669  -1.585  0.00  0.00     0.033 A 
ATOM      4  C4  UNL d   1       2.587  -0.529  -2.087  0.00  0.00    -0.042 A 
ATOM      5  C5  UNL d   1       2.065  -1.733  -1.627  0.00  0.00     0.033 A 
ATOM      6  C6  UNL d   1       1.046  -1.733  -0.670  0.00  0.00    -0.057 A 
ENDROOT
BRANCH   1   7
ATOM      7  N   UNL d   1      -0.429  -0.613   0.864  0.00  0.00    -0.732 N 
ATOM      8  C   UNL d   1      -1.690   0.090   0.761  0.00  0.00     0.284 C 
ATOM      9  H3  UNL d   1      -0.506  -1.550   1.252  0.00  0.00     0.395 HD
ENDBRANCH   1   7
TORSDOF 1
ENDMDL
