MODEL 1
REMARK minimizedAffinity -1.62987137
REMARK minimizedRMSD -1
REMARK  1 active torsions:
REMARK  status: ('A' for Active; 'I' for Inactive)
REMARK    1  A    between atoms: N_2  and  C1_3 
ROOT
ATOM      1  C1  UNL d   1      -0.585   0.316   0.122  0.00  0.00     0.143 A 
ATOM      2  C2  UNL d   1      -1.814   0.823  -0.313  0.00  0.00    -0.057 A 
ATOM      3  C3  UNL d   1      -2.914   0.901   0.550  0.00  0.00     0.033 A 
ATOM      4  C4  UNL d   1      -2.811   0.446   1.860  0.00  0.00    -0.042 A 
ATOM      5  C5  UNL d   1      -1.606  -0.085   2.307  0.00  0.00     0.033 A 
ATOM      6  C6  UNL d   1      -0.509  -0.154   1.442  0.00  0.00    -0.057 A 
ENDROOT
BRANCH   1   7
ATOM      7  N   UNL d   1       0.516   0.121  -0.715  0.00  0.00    -0.732 N 
ATOM      8  C   UNL d   1       0.621  -1.070  -1.531  0.00  0.00     0.284 C 
ATOM      9  H3  UNL d   1       0.800   0.976  -1.189  0.00  0.00     0.395 HD
ENDBRANCH   1   7
TORSDOF 1
ENDMDL
