MODEL 1
REMARK minimizedAffinity -0.764607489
REMARK minimizedRMSD -1
REMARK  1 active torsions:
REMARK  status: ('A' for Active; 'I' for Inactive)
REMARK    1  A    between atoms: N_2  and  C1_3 
ROOT
ATOM      1  C1  UNL d   1       0.376   0.956  -0.666  0.00  0.00     0.143 A 
ATOM      2  C2  UNL d   1       0.382   0.027   0.379  0.00  0.00    -0.057 A 
ATOM      3  C3  UNL d   1      -0.808  -0.391   0.987  0.00  0.00     0.033 A 
ATOM      4  C4  UNL d   1      -2.028   0.137   0.577  0.00  0.00    -0.042 A 
ATOM      5  C5  UNL d   1      -2.056   1.080  -0.444  0.00  0.00     0.033 A 
ATOM      6  C6  UNL d   1      -0.865   1.489  -1.051  0.00  0.00    -0.057 A 
ENDROOT
BRANCH   1   7
ATOM      7  N   UNL d   1       1.532   1.485  -1.244  0.00  0.00    -0.732 N 
ATOM      8  C   UNL d   1       2.476   0.624  -1.924  0.00  0.00     0.284 C 
ATOM      9  H3  UNL d   1       1.361   2.369  -1.717  0.00  0.00     0.395 HD
ENDBRANCH   1   7
TORSDOF 1
ENDMDL
