MODEL 1
REMARK minimizedAffinity -4.7604475
REMARK minimizedRMSD -1
REMARK  1 active torsions:
REMARK  status: ('A' for Active; 'I' for Inactive)
REMARK    1  A    between atoms: N_2  and  C1_3 
ROOT
ATOM      1  C1  UNL d   1       0.310  -0.155  -0.818  0.00  0.00     0.143 A 
ATOM      2  C2  UNL d   1       0.932  -1.384  -1.063  0.00  0.00    -0.057 A 
ATOM      3  C3  UNL d   1       1.913  -1.517  -2.053  0.00  0.00     0.033 A 
ATOM      4  C4  UNL d   1       2.270  -0.426  -2.838  0.00  0.00    -0.042 A 
ATOM      5  C5  UNL d   1       1.647   0.800  -2.629  0.00  0.00     0.033 A 
ATOM      6  C6  UNL d   1       0.673   0.927  -1.635  0.00  0.00    -0.057 A 
ENDROOT
BRANCH   1   7
ATOM      7  N   UNL d   1      -0.742   0.018   0.084  0.00  0.00    -0.732 N 
ATOM      8  C   UNL d   1      -0.785  -0.734   1.320  0.00  0.00     0.284 C 
ATOM      9  H3  UNL d   1      -1.013   0.994   0.182  0.00  0.00     0.395 HD
ENDBRANCH   1   7
TORSDOF 1
ENDMDL
