MODEL 1
REMARK minimizedAffinity -3.08988619
REMARK minimizedRMSD -1
REMARK  0 active torsions:
REMARK  status: ('A' for Active; 'I' for Inactive)
ROOT
ATOM      1  C   UNL d   1       0.253   3.262  -0.151  0.00  0.00    -0.002 A 
ATOM      2  C1  UNL d   1       1.365   2.584  -0.629  0.00  0.00     0.010 A 
ATOM      3  C2  UNL d   1       1.426   1.190  -0.573  0.00  0.00     0.041 A 
ATOM      4  C3  UNL d   1       0.338   0.482  -0.025  0.00  0.00    -0.075 A 
ATOM      5  S   UNL d   1       0.191  -1.227   0.145  0.00  0.00     0.015 SA
ATOM      6  C4  UNL d   1      -1.353  -1.098   0.856  0.00  0.00     0.022 A 
ATOM      7  C5  UNL d   1      -1.761   0.210   0.968  0.00  0.00     0.026 A 
ATOM      8  C6  UNL d   1      -0.793   1.142   0.462  0.00  0.00    -0.082 A 
ATOM      9  C7  UNL d   1      -0.824   2.556   0.392  0.00  0.00     0.045 A 
ENDROOT
TORSDOF 0
ENDMDL
