MODEL 1
REMARK minimizedAffinity -2.97571349
REMARK minimizedRMSD -1
REMARK  0 active torsions:
REMARK  status: ('A' for Active; 'I' for Inactive)
ROOT
ATOM      1  C   UNL d   1      -0.885   2.837   0.646  0.00  0.00    -0.002 A 
ATOM      2  C1  UNL d   1       0.322   3.108   0.017  0.00  0.00     0.010 A 
ATOM      3  C2  UNL d   1       1.035   2.090  -0.619  0.00  0.00     0.041 A 
ATOM      4  C3  UNL d   1       0.509   0.783  -0.614  0.00  0.00    -0.075 A 
ATOM      5  S   UNL d   1       1.207  -0.621  -1.330  0.00  0.00     0.015 SA
ATOM      6  C4  UNL d   1      -0.082  -1.613  -0.820  0.00  0.00     0.022 A 
ATOM      7  C5  UNL d   1      -1.030  -0.907  -0.119  0.00  0.00     0.026 A 
ATOM      8  C6  UNL d   1      -0.706   0.486   0.011  0.00  0.00    -0.082 A 
ATOM      9  C7  UNL d   1      -1.405   1.540   0.648  0.00  0.00     0.045 A 
ENDROOT
TORSDOF 0
ENDMDL
