MODEL 1
REMARK minimizedAffinity -3.23013711
REMARK minimizedRMSD -1
REMARK  0 active torsions:
REMARK  status: ('A' for Active; 'I' for Inactive)
ROOT
ATOM      1  C   UNL d   1       1.147   2.950  -1.110  0.00  0.00    -0.002 A 
ATOM      2  C1  UNL d   1       0.092   3.509  -0.403  0.00  0.00     0.010 A 
ATOM      3  C2  UNL d   1      -0.788   2.700   0.317  0.00  0.00     0.041 A 
ATOM      4  C3  UNL d   1      -0.588   1.305   0.316  0.00  0.00    -0.075 A 
ATOM      5  S   UNL d   1      -1.538   0.117   1.127  0.00  0.00     0.015 SA
ATOM      6  C4  UNL d   1      -0.566  -1.160   0.554  0.00  0.00     0.022 A 
ATOM      7  C5  UNL d   1       0.463  -0.709  -0.238  0.00  0.00     0.026 A 
ATOM      8  C6  UNL d   1       0.468   0.719  -0.388  0.00  0.00    -0.082 A 
ATOM      9  C7  UNL d   1       1.343   1.567  -1.109  0.00  0.00     0.045 A 
ENDROOT
TORSDOF 0
ENDMDL
