MODEL 1
REMARK minimizedAffinity -1.83956349
REMARK minimizedRMSD -1
REMARK  0 active torsions:
REMARK  status: ('A' for Active; 'I' for Inactive)
ROOT
ATOM      1  C   UNL d   1      -1.012   2.633   0.487  0.00  0.00    -0.002 A 
ATOM      2  C1  UNL d   1       0.356   2.738   0.277  0.00  0.00     0.010 A 
ATOM      3  C2  UNL d   1       1.131   1.596   0.060  0.00  0.00     0.041 A 
ATOM      4  C3  UNL d   1       0.501   0.336   0.054  0.00  0.00    -0.075 A 
ATOM      5  S   UNL d   1       1.248  -1.198  -0.192  0.00  0.00     0.015 SA
ATOM      6  C4  UNL d   1      -0.231  -2.028  -0.026  0.00  0.00     0.022 A 
ATOM      7  C5  UNL d   1      -1.280  -1.171   0.213  0.00  0.00     0.026 A 
ATOM      8  C6  UNL d   1      -0.875   0.206   0.262  0.00  0.00    -0.082 A 
ATOM      9  C7  UNL d   1      -1.633   1.381   0.481  0.00  0.00     0.045 A 
ENDROOT
TORSDOF 0
ENDMDL
