MODEL 1
REMARK minimizedAffinity -2.02642155
REMARK minimizedRMSD -1
REMARK  0 active torsions:
REMARK  status: ('A' for Active; 'I' for Inactive)
ROOT
ATOM      1  C   UNL d   1      -1.154   2.915  -0.240  0.00  0.00    -0.002 A 
ATOM      2  C1  UNL d   1       0.227   3.029  -0.315  0.00  0.00     0.010 A 
ATOM      3  C2  UNL d   1       1.036   1.891  -0.293  0.00  0.00     0.041 A 
ATOM      4  C3  UNL d   1       0.428   0.624  -0.197  0.00  0.00    -0.075 A 
ATOM      5  S   UNL d   1       1.218  -0.908  -0.155  0.00  0.00     0.015 SA
ATOM      6  C4  UNL d   1      -0.259  -1.750  -0.038  0.00  0.00     0.022 A 
ATOM      7  C5  UNL d   1      -1.339  -0.899  -0.030  0.00  0.00     0.026 A 
ATOM      8  C6  UNL d   1      -0.961   0.484  -0.122  0.00  0.00    -0.082 A 
ATOM      9  C7  UNL d   1      -1.754   1.656  -0.145  0.00  0.00     0.045 A 
ENDROOT
TORSDOF 0
ENDMDL
