MODEL 1
REMARK minimizedAffinity -1.8732971
REMARK minimizedRMSD -1
REMARK  0 active torsions:
REMARK  status: ('A' for Active; 'I' for Inactive)
ROOT
ATOM      1  C   UNL d   1      -1.243   2.447  -0.177  0.00  0.00    -0.002 A 
ATOM      2  C1  UNL d   1       0.076   2.817   0.048  0.00  0.00     0.010 A 
ATOM      3  C2  UNL d   1       1.063   1.848   0.238  0.00  0.00     0.041 A 
ATOM      4  C3  UNL d   1       0.699   0.487   0.196  0.00  0.00    -0.075 A 
ATOM      5  S   UNL d   1       1.739  -0.873   0.401  0.00  0.00     0.015 SA
ATOM      6  C4  UNL d   1       0.457  -1.977   0.194  0.00  0.00     0.022 A 
ATOM      7  C5  UNL d   1      -0.741  -1.341  -0.027  0.00  0.00     0.026 A 
ATOM      8  C6  UNL d   1      -0.622   0.090  -0.030  0.00  0.00    -0.082 A 
ATOM      9  C7  UNL d   1      -1.599   1.096  -0.218  0.00  0.00     0.045 A 
ENDROOT
TORSDOF 0
ENDMDL
