MODEL 1
REMARK minimizedAffinity -1.24752617
REMARK minimizedRMSD -1
REMARK  0 active torsions:
REMARK  status: ('A' for Active; 'I' for Inactive)
ROOT
ATOM      1  C   UNL d   1       0.312   3.218   0.852  0.00  0.00    -0.002 A 
ATOM      2  C1  UNL d   1       1.155   2.992  -0.227  0.00  0.00     0.010 A 
ATOM      3  C2  UNL d   1       1.209   1.736  -0.835  0.00  0.00     0.041 A 
ATOM      4  C3  UNL d   1       0.391   0.702  -0.338  0.00  0.00    -0.075 A 
ATOM      5  S   UNL d   1       0.289  -0.916  -0.925  0.00  0.00     0.015 SA
ATOM      6  C4  UNL d   1      -0.877  -1.345   0.242  0.00  0.00     0.022 A 
ATOM      7  C5  UNL d   1      -1.192  -0.291   1.068  0.00  0.00     0.026 A 
ATOM      8  C6  UNL d   1      -0.467   0.906   0.747  0.00  0.00    -0.082 A 
ATOM      9  C7  UNL d   1      -0.498   2.190   1.342  0.00  0.00     0.045 A 
ENDROOT
TORSDOF 0
ENDMDL
