MODEL 1
REMARK minimizedAffinity 12.2696562
REMARK minimizedRMSD -1
REMARK  0 active torsions:
REMARK  status: ('A' for Active; 'I' for Inactive)
ROOT
ATOM      1  C   UNL d   1      -1.857  -0.171   0.403  0.00  0.00    -0.002 A 
ATOM      2  C1  UNL d   1      -1.664   1.009   1.107  0.00  0.00     0.010 A 
ATOM      3  C2  UNL d   1      -0.375   1.496   1.336  0.00  0.00     0.041 A 
ATOM      4  C3  UNL d   1       0.726   0.771   0.840  0.00  0.00    -0.075 A 
ATOM      5  S   UNL d   1       2.394   1.176   0.999  0.00  0.00     0.015 SA
ATOM      6  C4  UNL d   1       2.889  -0.208   0.136  0.00  0.00     0.022 A 
ATOM      7  C5  UNL d   1       1.821  -0.971  -0.271  0.00  0.00     0.026 A 
ATOM      8  C6  UNL d   1       0.556  -0.420   0.128  0.00  0.00    -0.082 A 
ATOM      9  C7  UNL d   1      -0.762  -0.888  -0.088  0.00  0.00     0.045 A 
ENDROOT
TORSDOF 0
ENDMDL
