MODEL 1
REMARK minimizedAffinity -4.61176109
REMARK minimizedRMSD -1
REMARK  0 active torsions:
REMARK  status: ('A' for Active; 'I' for Inactive)
ROOT
ATOM      1  C   UNL d   1       0.025   3.216   0.194  0.00  0.00    -0.002 A 
ATOM      2  C1  UNL d   1       1.107   2.872  -0.603  0.00  0.00     0.010 A 
ATOM      3  C2  UNL d   1       1.458   1.533  -0.785  0.00  0.00     0.041 A 
ATOM      4  C3  UNL d   1       0.695   0.536  -0.147  0.00  0.00    -0.075 A 
ATOM      5  S   UNL d   1       0.939  -1.169  -0.226  0.00  0.00     0.015 SA
ATOM      6  C4  UNL d   1      -0.389  -1.481   0.796  0.00  0.00     0.022 A 
ATOM      7  C5  UNL d   1      -1.014  -0.325   1.198  0.00  0.00     0.026 A 
ATOM      8  C6  UNL d   1      -0.400   0.857   0.660  0.00  0.00    -0.082 A 
ATOM      9  C7  UNL d   1      -0.730   2.224   0.825  0.00  0.00     0.045 A 
ENDROOT
TORSDOF 0
ENDMDL
