MODEL 1
REMARK minimizedAffinity -5.07961321
REMARK minimizedRMSD -1
REMARK  0 active torsions:
REMARK  status: ('A' for Active; 'I' for Inactive)
ROOT
ATOM      1  C1  BNZ d   1       0.586  -0.415   0.318  0.00  0.00     0.000 A 
ATOM      2  C2  BNZ d   1       1.879  -0.862   0.252  0.00  0.00     0.000 A 
ATOM      3  C3  BNZ d   1       2.503  -1.362   1.360  0.00  0.00     0.000 A 
ATOM      4  C4  BNZ d   1       1.850  -1.377   2.540  0.00  0.00     0.000 A 
ATOM      5  C5  BNZ d   1       0.549  -0.920   2.624  0.00  0.00     0.000 A 
ATOM      6  C6  BNZ d   1      -0.090  -0.454   1.498  0.00  0.00     0.000 A 
ENDROOT
TORSDOF 0
ENDMDL
