MODEL 1
REMARK minimizedAffinity -3.75341487
REMARK minimizedRMSD -1
REMARK  0 active torsions:
REMARK  status: ('A' for Active; 'I' for Inactive)
ROOT
ATOM      1  C1  BNZ d   1       0.819  -0.628   0.267  0.00  0.00     0.000 A 
ATOM      2  C2  BNZ d   1       1.946  -1.405   0.319  0.00  0.00     0.000 A 
ATOM      3  C3  BNZ d   1       2.385  -1.923   1.505  0.00  0.00     0.000 A 
ATOM      4  C4  BNZ d   1       1.721  -1.631   2.642  0.00  0.00     0.000 A 
ATOM      5  C5  BNZ d   1       0.588  -0.841   2.608  0.00  0.00     0.000 A 
ATOM      6  C6  BNZ d   1       0.127  -0.354   1.406  0.00  0.00     0.000 A 
ENDROOT
TORSDOF 0
ENDMDL
