MODEL 1
REMARK minimizedAffinity -4.04296541
REMARK minimizedRMSD -1
REMARK  0 active torsions:
REMARK  status: ('A' for Active; 'I' for Inactive)
ROOT
ATOM      1  C1  BNZ d   1       2.381  -2.055   1.837  0.00  0.00     0.000 A 
ATOM      2  C2  BNZ d   1       1.646  -1.467   2.833  0.00  0.00     0.000 A 
ATOM      3  C3  BNZ d   1       0.760  -0.465   2.550  0.00  0.00     0.000 A 
ATOM      4  C4  BNZ d   1       0.640  -0.025   1.281  0.00  0.00     0.000 A 
ATOM      5  C5  BNZ d   1       1.380  -0.601   0.268  0.00  0.00     0.000 A 
ATOM      6  C6  BNZ d   1       2.242  -1.636   0.550  0.00  0.00     0.000 A 
ENDROOT
TORSDOF 0
ENDMDL
