MODEL 1
REMARK minimizedAffinity -5.1458149
REMARK minimizedRMSD -1
REMARK  0 active torsions:
REMARK  status: ('A' for Active; 'I' for Inactive)
ROOT
ATOM      1  C1  BNZ d   1       0.711  -0.296   0.389  0.00  0.00     0.000 A 
ATOM      2  C2  BNZ d   1       1.914  -0.879   0.686  0.00  0.00     0.000 A 
ATOM      3  C3  BNZ d   1       2.183  -1.325   1.950  0.00  0.00     0.000 A 
ATOM      4  C4  BNZ d   1       1.266  -1.151   2.923  0.00  0.00     0.000 A 
ATOM      5  C5  BNZ d   1       0.052  -0.556   2.642  0.00  0.00     0.000 A 
ATOM      6  C6  BNZ d   1      -0.230  -0.144   1.360  0.00  0.00     0.000 A 
ENDROOT
TORSDOF 0
ENDMDL
