MODEL 1
REMARK minimizedAffinity -4.87047005
REMARK minimizedRMSD -1
REMARK  0 active torsions:
REMARK  status: ('A' for Active; 'I' for Inactive)
ROOT
ATOM      1  C1  BNZ d   1       1.209  -0.930  -0.577  0.00  0.00     0.000 A 
ATOM      2  C2  BNZ d   1       2.057  -1.544   0.306  0.00  0.00     0.000 A 
ATOM      3  C3  BNZ d   1       1.791  -1.542   1.647  0.00  0.00     0.000 A 
ATOM      4  C4  BNZ d   1       0.702  -0.894   2.107  0.00  0.00     0.000 A 
ATOM      5  C5  BNZ d   1      -0.157  -0.262   1.230  0.00  0.00     0.000 A 
ATOM      6  C6  BNZ d   1       0.092  -0.298  -0.123  0.00  0.00     0.000 A 
ENDROOT
TORSDOF 0
ENDMDL
