MODEL 1
REMARK minimizedAffinity -4.4369235
REMARK minimizedRMSD -1
REMARK  0 active torsions:
REMARK  status: ('A' for Active; 'I' for Inactive)
ROOT
ATOM      1  C1  BNZ d   1      -1.064   0.149   1.970  0.00  0.00     0.000 A 
ATOM      2  C2  BNZ d   1      -0.081  -0.299   2.811  0.00  0.00     0.000 A 
ATOM      3  C3  BNZ d   1       1.115  -0.741   2.317  0.00  0.00     0.000 A 
ATOM      4  C4  BNZ d   1       1.311  -0.770   0.983  0.00  0.00     0.000 A 
ATOM      5  C5  BNZ d   1       0.326  -0.330   0.122  0.00  0.00     0.000 A 
ATOM      6  C6  BNZ d   1      -0.862   0.150   0.624  0.00  0.00     0.000 A 
ENDROOT
TORSDOF 0
ENDMDL
