MODEL 1
REMARK minimizedAffinity 4.20174837
REMARK minimizedRMSD -1
REMARK  0 active torsions:
REMARK  status: ('A' for Active; 'I' for Inactive)
ROOT
ATOM      1  C   UNL d   1       1.449  -1.169   1.484  0.00  0.00     0.023 A 
ATOM      2  C1  UNL d   1       1.028  -0.377   2.553  0.00  0.00     0.003 A 
ATOM      3  C2  UNL d   1       1.026  -0.896   3.849  0.00  0.00     0.048 A 
ATOM      4  C3  UNL d   1       1.447  -2.207   4.071  0.00  0.00     0.023 A 
ATOM      5  C4  UNL d   1       1.870  -3.002   3.005  0.00  0.00     0.048 A 
ATOM      6  C5  UNL d   1       1.870  -2.480   1.710  0.00  0.00     0.003 A 
ATOM      7  I   UNL d   1       1.445  -2.980   6.000  0.00  0.00    -0.146 I 
ENDROOT
TORSDOF 0
ENDMDL
