MODEL 1
REMARK minimizedAffinity 3.47366047
REMARK minimizedRMSD -1
REMARK  0 active torsions:
REMARK  status: ('A' for Active; 'I' for Inactive)
ROOT
ATOM      1  C   UNL d   1      -5.005   1.831  -5.644  0.00  0.00     0.023 A 
ATOM      2  C1  UNL d   1      -5.338   3.186  -5.656  0.00  0.00     0.003 A 
ATOM      3  C2  UNL d   1      -5.624   3.847  -4.460  0.00  0.00     0.048 A 
ATOM      4  C3  UNL d   1      -5.574   3.147  -3.255  0.00  0.00     0.023 A 
ATOM      5  C4  UNL d   1      -5.240   1.792  -3.237  0.00  0.00     0.048 A 
ATOM      6  C5  UNL d   1      -4.956   1.135  -4.436  0.00  0.00     0.003 A 
ATOM      7  I   UNL d   1      -5.998   4.129  -1.472  0.00  0.00    -0.146 I 
ENDROOT
TORSDOF 0
ENDMDL
