MODEL 1
REMARK minimizedAffinity 4.2624054
REMARK minimizedRMSD -1
REMARK  0 active torsions:
REMARK  status: ('A' for Active; 'I' for Inactive)
ROOT
ATOM      1  C   UNL d   1       0.899  -0.369   2.885  0.00  0.00     0.023 A 
ATOM      2  C1  UNL d   1       0.881  -1.092   4.078  0.00  0.00     0.003 A 
ATOM      3  C2  UNL d   1       1.340  -2.410   4.104  0.00  0.00     0.048 A 
ATOM      4  C3  UNL d   1       1.818  -2.999   2.934  0.00  0.00     0.023 A 
ATOM      5  C4  UNL d   1       1.840  -2.279   1.739  0.00  0.00     0.048 A 
ATOM      6  C5  UNL d   1       1.378  -0.962   1.717  0.00  0.00     0.003 A 
ATOM      7  I   UNL d   1       2.503  -4.961   2.971  0.00  0.00    -0.146 I 
ENDROOT
TORSDOF 0
ENDMDL
