MODEL 1
REMARK minimizedAffinity -0.60312587
REMARK minimizedRMSD -1
REMARK  0 active torsions:
REMARK  status: ('A' for Active; 'I' for Inactive)
ROOT
ATOM      1  C   UNL d   1      -2.836  -2.574  -0.530  0.00  0.00     0.023 A 
ATOM      2  C1  UNL d   1      -2.182  -1.342  -0.544  0.00  0.00     0.003 A 
ATOM      3  C2  UNL d   1      -1.108  -1.111   0.318  0.00  0.00     0.048 A 
ATOM      4  C3  UNL d   1      -0.692  -2.117   1.190  0.00  0.00     0.023 A 
ATOM      5  C4  UNL d   1      -1.343  -3.352   1.206  0.00  0.00     0.048 A 
ATOM      6  C5  UNL d   1      -2.417  -3.578   0.343  0.00  0.00     0.003 A 
ATOM      7  I   UNL d   1       0.907  -1.776   2.473  0.00  0.00    -0.146 I 
ENDROOT
TORSDOF 0
ENDMDL
