MODEL 1
REMARK minimizedAffinity 6.71373796
REMARK minimizedRMSD -1
REMARK  0 active torsions:
REMARK  status: ('A' for Active; 'I' for Inactive)
ROOT
ATOM      1  C   UNL d   1      -1.863  -5.133  -0.681  0.00  0.00     0.023 A 
ATOM      2  C1  UNL d   1      -2.918  -4.569   0.036  0.00  0.00     0.003 A 
ATOM      3  C2  UNL d   1      -3.053  -3.181   0.106  0.00  0.00     0.048 A 
ATOM      4  C3  UNL d   1      -2.129  -2.363  -0.544  0.00  0.00     0.023 A 
ATOM      5  C4  UNL d   1      -1.072  -2.923  -1.263  0.00  0.00     0.048 A 
ATOM      6  C5  UNL d   1      -0.941  -4.312  -1.330  0.00  0.00     0.003 A 
ATOM      7  I   UNL d   1      -2.327  -0.297  -0.441  0.00  0.00    -0.146 I 
ENDROOT
TORSDOF 0
ENDMDL
