MODEL 1
REMARK minimizedAffinity 1.35885417
REMARK minimizedRMSD -1
REMARK  0 active torsions:
REMARK  status: ('A' for Active; 'I' for Inactive)
ROOT
ATOM      1  C   UNL d   1      -0.777   0.009   0.911  0.00  0.00     0.023 A 
ATOM      2  C1  UNL d   1      -2.096  -0.067   0.464  0.00  0.00     0.003 A 
ATOM      3  C2  UNL d   1      -2.656  -1.306   0.146  0.00  0.00     0.048 A 
ATOM      4  C3  UNL d   1      -1.892  -2.465   0.278  0.00  0.00     0.023 A 
ATOM      5  C4  UNL d   1      -0.572  -2.393   0.726  0.00  0.00     0.048 A 
ATOM      6  C5  UNL d   1      -0.016  -1.152   1.042  0.00  0.00     0.003 A 
ATOM      7  I   UNL d   1      -2.723  -4.310  -0.195  0.00  0.00    -0.146 I 
ENDROOT
TORSDOF 0
ENDMDL
