MODEL 1
REMARK minimizedAffinity 8.18339062
REMARK minimizedRMSD -1
REMARK  0 active torsions:
REMARK  status: ('A' for Active; 'I' for Inactive)
ROOT
ATOM      1  C   UNL d   1       3.274  -1.706   0.869  0.00  0.00     0.020 A 
ATOM      2  C1  UNL d   1       2.221  -2.543   1.237  0.00  0.00     0.020 A 
ATOM      3  C2  UNL d   1       0.986  -2.437   0.593  0.00  0.00     0.034 A 
ATOM      4  C3  UNL d   1       0.801  -1.490  -0.421  0.00  0.00     0.017 A 
ATOM      5  C4  UNL d   1       1.858  -0.650  -0.790  0.00  0.00     0.017 A 
ATOM      6  C5  UNL d   1       3.092  -0.761  -0.142  0.00  0.00     0.034 A 
ATOM      7 Cl   UNL d   1       1.705   0.541  -2.032  0.00  0.00    -0.070 Cl
ATOM      8 Cl1  UNL d   1      -0.752  -1.414  -1.174  0.00  0.00    -0.070 Cl
ENDROOT
TORSDOF 0
ENDMDL
