MODEL 1
REMARK minimizedAffinity 2.82315397
REMARK minimizedRMSD -1
REMARK  0 active torsions:
REMARK  status: ('A' for Active; 'I' for Inactive)
ROOT
ATOM      1  C   UNL d   1       1.211  -1.088  -1.389  0.00  0.00     0.020 A 
ATOM      2  C1  UNL d   1       2.410  -0.955  -0.690  0.00  0.00     0.020 A 
ATOM      3  C2  UNL d   1       2.410  -0.974   0.706  0.00  0.00     0.034 A 
ATOM      4  C3  UNL d   1       1.208  -1.126   1.408  0.00  0.00     0.017 A 
ATOM      5  C4  UNL d   1       0.006  -1.259   0.705  0.00  0.00     0.017 A 
ATOM      6  C5  UNL d   1       0.012  -1.239  -0.693  0.00  0.00     0.034 A 
ATOM      7 Cl   UNL d   1      -1.517  -1.450   1.501  0.00  0.00    -0.070 Cl
ATOM      8 Cl1  UNL d   1       1.282  -1.141   3.134  0.00  0.00    -0.070 Cl
ENDROOT
TORSDOF 0
ENDMDL
