MODEL 1
REMARK minimizedAffinity 8.05914879
REMARK minimizedRMSD -1
REMARK  0 active torsions:
REMARK  status: ('A' for Active; 'I' for Inactive)
ROOT
ATOM      1  C   UNL d   1       6.000  -0.132   1.138  0.00  0.00     0.020 A 
ATOM      2  C1  UNL d   1       5.682  -1.441   0.781  0.00  0.00     0.020 A 
ATOM      3  C2  UNL d   1       4.495  -1.710   0.095  0.00  0.00     0.034 A 
ATOM      4  C3  UNL d   1       3.622  -0.667  -0.235  0.00  0.00     0.017 A 
ATOM      5  C4  UNL d   1       3.942   0.648   0.124  0.00  0.00     0.017 A 
ATOM      6  C5  UNL d   1       5.132   0.910   0.810  0.00  0.00     0.034 A 
ATOM      7 Cl   UNL d   1       2.915   1.987  -0.250  0.00  0.00    -0.070 Cl
ATOM      8 Cl1  UNL d   1       2.173  -1.071  -1.084  0.00  0.00    -0.070 Cl
ENDROOT
TORSDOF 0
ENDMDL
