MODEL 1
REMARK minimizedAffinity 11.1644983
REMARK minimizedRMSD -1
REMARK  0 active torsions:
REMARK  status: ('A' for Active; 'I' for Inactive)
ROOT
ATOM      1  C   UNL d   1      -5.143   0.752  -5.257  0.00  0.00     0.020 A 
ATOM      2  C1  UNL d   1      -6.000   1.785  -5.636  0.00  0.00     0.020 A 
ATOM      3  C2  UNL d   1      -5.836   3.061  -5.094  0.00  0.00     0.034 A 
ATOM      4  C3  UNL d   1      -4.814   3.308  -4.171  0.00  0.00     0.017 A 
ATOM      5  C4  UNL d   1      -3.955   2.271  -3.791  0.00  0.00     0.017 A 
ATOM      6  C5  UNL d   1      -4.123   0.994  -4.336  0.00  0.00     0.034 A 
ATOM      7 Cl   UNL d   1      -2.671   2.499  -2.657  0.00  0.00    -0.070 Cl
ATOM      8 Cl1  UNL d   1      -4.670   4.911  -3.542  0.00  0.00    -0.070 Cl
ENDROOT
TORSDOF 0
ENDMDL
