MODEL 1
REMARK minimizedAffinity 2.08542442
REMARK minimizedRMSD -1
REMARK  0 active torsions:
REMARK  status: ('A' for Active; 'I' for Inactive)
ROOT
ATOM      1  C   UNL d   1      -3.342   0.710  -4.719  0.00  0.00     0.020 A 
ATOM      2  C1  UNL d   1      -4.555   0.269  -5.247  0.00  0.00     0.020 A 
ATOM      3  C2  UNL d   1      -5.191  -0.846  -4.699  0.00  0.00     0.034 A 
ATOM      4  C3  UNL d   1      -4.615  -1.525  -3.619  0.00  0.00     0.017 A 
ATOM      5  C4  UNL d   1      -3.398  -1.082  -3.089  0.00  0.00     0.017 A 
ATOM      6  C5  UNL d   1      -2.765   0.036  -3.642  0.00  0.00     0.034 A 
ATOM      7 Cl   UNL d   1      -2.626  -1.867  -1.757  0.00  0.00    -0.070 Cl
ATOM      8 Cl1  UNL d   1      -5.458  -2.896  -2.990  0.00  0.00    -0.070 Cl
ENDROOT
TORSDOF 0
ENDMDL
