MODEL 1
REMARK minimizedAffinity 9.01994514
REMARK minimizedRMSD -1
REMARK  0 active torsions:
REMARK  status: ('A' for Active; 'I' for Inactive)
ROOT
ATOM      1  C   UNL d   1      -0.518  -0.114   3.523  0.00  0.00     0.020 A 
ATOM      2  C1  UNL d   1       0.274  -0.847   2.640  0.00  0.00     0.020 A 
ATOM      3  C2  UNL d   1      -0.186  -1.118   1.349  0.00  0.00     0.034 A 
ATOM      4  C3  UNL d   1      -1.442  -0.656   0.939  0.00  0.00     0.017 A 
ATOM      5  C4  UNL d   1      -2.236   0.080   1.826  0.00  0.00     0.017 A 
ATOM      6  C5  UNL d   1      -1.770   0.349   3.116  0.00  0.00     0.034 A 
ATOM      7 Cl   UNL d   1      -3.797   0.683   1.391  0.00  0.00    -0.070 Cl
ATOM      8 Cl1  UNL d   1      -1.948  -1.028  -0.671  0.00  0.00    -0.070 Cl
ENDROOT
TORSDOF 0
ENDMDL
