MODEL 1
REMARK minimizedAffinity 7.10075712
REMARK minimizedRMSD -1
REMARK  0 active torsions:
REMARK  status: ('A' for Active; 'I' for Inactive)
ROOT
ATOM      1  C   UNL d   1       0.395  -0.456   3.771  0.00  0.00     0.020 A 
ATOM      2  C1  UNL d   1       0.808  -1.318   2.756  0.00  0.00     0.020 A 
ATOM      3  C2  UNL d   1      -0.045  -1.595   1.686  0.00  0.00     0.034 A 
ATOM      4  C3  UNL d   1      -1.315  -1.011   1.628  0.00  0.00     0.017 A 
ATOM      5  C4  UNL d   1      -1.729  -0.145   2.648  0.00  0.00     0.017 A 
ATOM      6  C5  UNL d   1      -0.870   0.129   3.717  0.00  0.00     0.034 A 
ATOM      7 Cl   UNL d   1      -3.281   0.614   2.646  0.00  0.00    -0.070 Cl
ATOM      8 Cl1  UNL d   1      -2.317  -1.399   0.276  0.00  0.00    -0.070 Cl
ENDROOT
TORSDOF 0
ENDMDL
