MODEL 1
REMARK minimizedAffinity 6.01878834
REMARK minimizedRMSD -1
REMARK  0 active torsions:
REMARK  status: ('A' for Active; 'I' for Inactive)
ROOT
ATOM      1  C   UNL d   1       3.299  -0.921  -2.859  0.00  0.00     0.020 A 
ATOM      2  C1  UNL d   1       4.035  -1.155  -1.698  0.00  0.00     0.020 A 
ATOM      3  C2  UNL d   1       3.376  -1.419  -0.495  0.00  0.00     0.034 A 
ATOM      4  C3  UNL d   1       1.978  -1.449  -0.450  0.00  0.00     0.017 A 
ATOM      5  C4  UNL d   1       1.240  -1.214  -1.616  0.00  0.00     0.017 A 
ATOM      6  C5  UNL d   1       1.904  -0.951  -2.818  0.00  0.00     0.034 A 
ATOM      7 Cl   UNL d   1      -0.488  -1.235  -1.639  0.00  0.00    -0.070 Cl
ATOM      8 Cl1  UNL d   1       1.230  -1.782   1.072  0.00  0.00    -0.070 Cl
ENDROOT
TORSDOF 0
ENDMDL
