MODEL 1
REMARK minimizedAffinity 1.94354761
REMARK minimizedRMSD -1
REMARK  0 active torsions:
REMARK  status: ('A' for Active; 'I' for Inactive)
ROOT
ATOM      1  C   UNL d   1       2.232  -0.906  -1.251  0.00  0.00     0.020 A 
ATOM      2  C1  UNL d   1       1.773  -0.903  -2.567  0.00  0.00     0.020 A 
ATOM      3  C2  UNL d   1       1.539   0.308  -3.222  0.00  0.00     0.034 A 
ATOM      4  C3  UNL d   1       1.763   1.521  -2.561  0.00  0.00     0.017 A 
ATOM      5  C4  UNL d   1       2.224   1.517  -1.239  0.00  0.00     0.017 A 
ATOM      6  C5  UNL d   1       2.457   0.301  -0.588  0.00  0.00     0.034 A 
ATOM      7 Cl   UNL d   1       2.525   2.973  -0.358  0.00  0.00    -0.070 Cl
ATOM      8 Cl1  UNL d   1       1.453   2.981  -3.432  0.00  0.00    -0.070 Cl
ENDROOT
TORSDOF 0
ENDMDL
