MODEL 1
REMARK minimizedAffinity 11.536005
REMARK minimizedRMSD -1
REMARK  0 active torsions:
REMARK  status: ('A' for Active; 'I' for Inactive)
ROOT
ATOM      1  C   UNL d   1       2.507   1.471  -2.570  0.00  0.00     0.020 A 
ATOM      2  C1  UNL d   1       2.164   0.134  -2.769  0.00  0.00     0.020 A 
ATOM      3  C2  UNL d   1       1.992  -0.713  -1.672  0.00  0.00     0.034 A 
ATOM      4  C3  UNL d   1       2.161  -0.224  -0.372  0.00  0.00     0.017 A 
ATOM      5  C4  UNL d   1       2.505   1.118  -0.173  0.00  0.00     0.017 A 
ATOM      6  C5  UNL d   1       2.676   1.962  -1.275  0.00  0.00     0.034 A 
ATOM      7 Cl   UNL d   1       2.731   1.794   1.401  0.00  0.00    -0.070 Cl
ATOM      8 Cl1  UNL d   1       1.932  -1.328   0.938  0.00  0.00    -0.070 Cl
ENDROOT
TORSDOF 0
ENDMDL
