MODEL 1
REMARK minimizedAffinity -2.8818593
REMARK minimizedRMSD -1
REMARK  0 active torsions:
REMARK  status: ('A' for Active; 'I' for Inactive)
ROOT
ATOM      1  C   UNL d   1       2.945  -1.175  -0.702  0.00  0.00     0.020 A 
ATOM      2  C1  UNL d   1       1.551  -1.198  -0.698  0.00  0.00     0.020 A 
ATOM      3  C2  UNL d   1       0.834  -0.155  -1.289  0.00  0.00     0.034 A 
ATOM      4  C3  UNL d   1       1.511   0.914  -1.887  0.00  0.00     0.017 A 
ATOM      5  C4  UNL d   1       2.910   0.936  -1.890  0.00  0.00     0.017 A 
ATOM      6  C5  UNL d   1       3.623  -0.110  -1.297  0.00  0.00     0.034 A 
ATOM      7 Cl   UNL d   1       3.815   2.222  -2.608  0.00  0.00    -0.070 Cl
ATOM      8 Cl1  UNL d   1       0.560   2.169  -2.599  0.00  0.00    -0.070 Cl
ENDROOT
TORSDOF 0
ENDMDL
