MODEL 1
REMARK minimizedAffinity 3.43664646
REMARK minimizedRMSD -1
REMARK  0 active torsions:
REMARK  status: ('A' for Active; 'I' for Inactive)
ROOT
ATOM      1  C   UNL d   1       1.357   3.175  -2.551  0.00  0.00     0.020 A 
ATOM      2  C1  UNL d   1       1.894   1.939  -2.192  0.00  0.00     0.020 A 
ATOM      3  C2  UNL d   1       1.059   0.829  -2.051  0.00  0.00     0.034 A 
ATOM      4  C3  UNL d   1      -0.318   0.952  -2.268  0.00  0.00     0.017 A 
ATOM      5  C4  UNL d   1      -0.857   2.193  -2.628  0.00  0.00     0.017 A 
ATOM      6  C5  UNL d   1      -0.016   3.301  -2.768  0.00  0.00     0.034 A 
ATOM      7 Cl   UNL d   1      -2.546   2.423  -2.913  0.00  0.00    -0.070 Cl
ATOM      8 Cl1  UNL d   1      -1.292  -0.462  -2.076  0.00  0.00    -0.070 Cl
ENDROOT
TORSDOF 0
ENDMDL
