MODEL 1
REMARK minimizedAffinity 1.39168143
REMARK minimizedRMSD -1
REMARK  0 active torsions:
REMARK  status: ('A' for Active; 'I' for Inactive)
ROOT
ATOM      1  C   UNL d   1       3.032   1.504  -0.649  0.00  0.00     0.020 A 
ATOM      2  C1  UNL d   1       1.998   1.931  -1.482  0.00  0.00     0.020 A 
ATOM      3  C2  UNL d   1       0.901   1.099  -1.716  0.00  0.00     0.034 A 
ATOM      4  C3  UNL d   1       0.835  -0.164  -1.116  0.00  0.00     0.017 A 
ATOM      5  C4  UNL d   1       1.873  -0.592  -0.280  0.00  0.00     0.017 A 
ATOM      6  C5  UNL d   1       2.969   0.245  -0.050  0.00  0.00     0.034 A 
ATOM      7 Cl   UNL d   1       1.862  -2.136   0.495  0.00  0.00    -0.070 Cl
ATOM      8 Cl1  UNL d   1      -0.552  -1.140  -1.449  0.00  0.00    -0.070 Cl
ENDROOT
TORSDOF 0
ENDMDL
