MODEL 1
REMARK minimizedAffinity -1.17996669
REMARK minimizedRMSD -1
REMARK  0 active torsions:
REMARK  status: ('A' for Active; 'I' for Inactive)
ROOT
ATOM      1  C   UNL d   1       2.081  -0.216   2.263  0.00  0.00     0.078 C 
ATOM      2  C1  UNL d   1       1.291  -0.179   0.989  0.00  0.00    -0.077 A 
ATOM      3  C2  UNL d   1      -0.007   0.345   0.960  0.00  0.00    -0.001 A 
ATOM      4  C3  UNL d   1      -0.735   0.364  -0.231  0.00  0.00     0.003 A 
ATOM      5  C4  UNL d   1      -0.173  -0.141  -1.402  0.00  0.00    -0.005 A 
ATOM      6  C5  UNL d   1       1.117  -0.667  -1.383  0.00  0.00     0.003 A 
ATOM      7  C6  UNL d   1       1.846  -0.687  -0.193  0.00  0.00    -0.001 A 
ENDROOT
TORSDOF 0
ENDMDL
