MODEL 1
REMARK minimizedAffinity -5.18098831
REMARK minimizedRMSD -1
REMARK  0 active torsions:
REMARK  status: ('A' for Active; 'I' for Inactive)
ROOT
ATOM      1  C   UNL d   1       1.160  -0.541   2.921  0.00  0.00     0.078 C 
ATOM      2  C1  UNL d   1       0.458  -0.329   1.612  0.00  0.00    -0.077 A 
ATOM      3  C2  UNL d   1      -0.924  -0.109   1.562  0.00  0.00    -0.001 A 
ATOM      4  C3  UNL d   1      -1.565   0.076   0.337  0.00  0.00     0.003 A 
ATOM      5  C4  UNL d   1      -0.833   0.043  -0.848  0.00  0.00    -0.005 A 
ATOM      6  C5  UNL d   1       0.542  -0.178  -0.809  0.00  0.00     0.003 A 
ATOM      7  C6  UNL d   1       1.186  -0.364   0.416  0.00  0.00    -0.001 A 
ENDROOT
TORSDOF 0
ENDMDL
