MODEL 1
REMARK minimizedAffinity -3.76868916
REMARK minimizedRMSD -1
REMARK  0 active torsions:
REMARK  status: ('A' for Active; 'I' for Inactive)
ROOT
ATOM      1  C   UNL d   1       1.891  -0.726   2.689  0.00  0.00     0.078 C 
ATOM      2  C1  UNL d   1       0.735  -0.442   1.776  0.00  0.00    -0.077 A 
ATOM      3  C2  UNL d   1      -0.581  -0.460   2.253  0.00  0.00    -0.001 A 
ATOM      4  C3  UNL d   1      -1.648  -0.204   1.390  0.00  0.00     0.003 A 
ATOM      5  C4  UNL d   1      -1.410   0.071   0.045  0.00  0.00    -0.005 A 
ATOM      6  C5  UNL d   1      -0.103   0.089  -0.439  0.00  0.00     0.003 A 
ATOM      7  C6  UNL d   1       0.965  -0.167   0.422  0.00  0.00    -0.001 A 
ENDROOT
TORSDOF 0
ENDMDL
