MODEL 1
REMARK minimizedAffinity 0.682610929
REMARK minimizedRMSD -1
REMARK  0 active torsions:
REMARK  status: ('A' for Active; 'I' for Inactive)
ROOT
ATOM      1  C   UNL d   1      -2.770   2.271  -3.147  0.00  0.00     0.078 C 
ATOM      2  C1  UNL d   1      -3.292   0.873  -3.291  0.00  0.00    -0.077 A 
ATOM      3  C2  UNL d   1      -4.328   0.579  -4.186  0.00  0.00    -0.001 A 
ATOM      4  C3  UNL d   1      -4.811  -0.725  -4.303  0.00  0.00     0.003 A 
ATOM      5  C4  UNL d   1      -4.266  -1.745  -3.526  0.00  0.00    -0.005 A 
ATOM      6  C5  UNL d   1      -3.236  -1.462  -2.631  0.00  0.00     0.003 A 
ATOM      7  C6  UNL d   1      -2.752  -0.158  -2.513  0.00  0.00    -0.001 A 
ENDROOT
TORSDOF 0
ENDMDL
