MODEL 1
REMARK minimizedAffinity -2.86233664
REMARK minimizedRMSD -1
REMARK  0 active torsions:
REMARK  status: ('A' for Active; 'I' for Inactive)
ROOT
ATOM      1  C   UNL d   1       1.281  -0.805   3.169  0.00  0.00     0.078 C 
ATOM      2  C1  UNL d   1       0.465  -0.332   2.003  0.00  0.00    -0.077 A 
ATOM      3  C2  UNL d   1       1.041  -0.173   0.737  0.00  0.00    -0.001 A 
ATOM      4  C3  UNL d   1       0.272   0.278  -0.337  0.00  0.00     0.003 A 
ATOM      5  C4  UNL d   1      -1.077   0.575  -0.156  0.00  0.00    -0.005 A 
ATOM      6  C5  UNL d   1      -1.659   0.421   1.101  0.00  0.00     0.003 A 
ATOM      7  C6  UNL d   1      -0.892  -0.029   2.176  0.00  0.00    -0.001 A 
ENDROOT
TORSDOF 0
ENDMDL
