MODEL 1
REMARK minimizedAffinity -5.2021513
REMARK minimizedRMSD -1
REMARK  0 active torsions:
REMARK  status: ('A' for Active; 'I' for Inactive)
ROOT
ATOM      1  C   UNL d   1       1.178  -0.707   2.971  0.00  0.00     0.078 C 
ATOM      2  C1  UNL d   1       0.729  -0.471   1.560  0.00  0.00    -0.077 A 
ATOM      3  C2  UNL d   1      -0.563  -0.007   1.282  0.00  0.00    -0.001 A 
ATOM      4  C3  UNL d   1      -0.971   0.199  -0.036  0.00  0.00     0.003 A 
ATOM      5  C4  UNL d   1      -0.094  -0.058  -1.088  0.00  0.00    -0.005 A 
ATOM      6  C5  UNL d   1       1.193  -0.522  -0.822  0.00  0.00     0.003 A 
ATOM      7  C6  UNL d   1       1.602  -0.729   0.496  0.00  0.00    -0.001 A 
ENDROOT
TORSDOF 0
ENDMDL
