MODEL 1
REMARK minimizedAffinity -3.63059545
REMARK minimizedRMSD -1
REMARK  0 active torsions:
REMARK  status: ('A' for Active; 'I' for Inactive)
ROOT
ATOM      1  C   UNL d   1       0.098  -0.293   2.890  0.00  0.00     0.078 C 
ATOM      2  C1  UNL d   1       1.126  -0.938   2.009  0.00  0.00    -0.077 A 
ATOM      3  C2  UNL d   1       2.273  -1.530   2.554  0.00  0.00    -0.001 A 
ATOM      4  C3  UNL d   1       3.226  -2.118   1.721  0.00  0.00     0.003 A 
ATOM      5  C4  UNL d   1       3.044  -2.119   0.340  0.00  0.00    -0.005 A 
ATOM      6  C5  UNL d   1       1.908  -1.531  -0.211  0.00  0.00     0.003 A 
ATOM      7  C6  UNL d   1       0.953  -0.942   0.620  0.00  0.00    -0.001 A 
ENDROOT
TORSDOF 0
ENDMDL
