MODEL 1
REMARK minimizedAffinity -3.74111629
REMARK minimizedRMSD -1
REMARK  0 active torsions:
REMARK  status: ('A' for Active; 'I' for Inactive)
ROOT
ATOM      1  C   UNL d   1      -0.444   0.879  -1.233  0.00  0.00     0.078 C 
ATOM      2  C1  UNL d   1      -0.166   0.348   0.142  0.00  0.00    -0.077 A 
ATOM      3  C2  UNL d   1      -1.162   0.334   1.125  0.00  0.00    -0.001 A 
ATOM      4  C3  UNL d   1      -0.886  -0.154   2.403  0.00  0.00     0.003 A 
ATOM      5  C4  UNL d   1       0.387  -0.631   2.710  0.00  0.00    -0.005 A 
ATOM      6  C5  UNL d   1       1.386  -0.619   1.739  0.00  0.00     0.003 A 
ATOM      7  C6  UNL d   1       1.111  -0.131   0.460  0.00  0.00    -0.001 A 
ENDROOT
TORSDOF 0
ENDMDL
