MODEL 1
REMARK minimizedAffinity -6.05888367
REMARK minimizedRMSD -1
REMARK  2 active torsions:
REMARK  status: ('A' for Active; 'I' for Inactive)
REMARK    1  A    between atoms: C2'_3  and  C1'_4 
REMARK    2  A    between atoms: C1'_4  and  C1_5 
ROOT
ATOM      1  C1  I4B d   1      -0.319   0.575  -0.704  0.00  0.00    -0.075 A 
ATOM      2  C2  I4B d   1      -0.483   0.092   0.571  0.00  0.00     0.003 A 
ATOM      3  C3  I4B d   1      -1.404   0.708   1.453  0.00  0.00     0.002 A 
ATOM      4  C4  I4B d   1      -2.098   1.826   1.038  0.00  0.00    -0.004 A 
ATOM      5  C5  I4B d   1      -1.947   2.300  -0.262  0.00  0.00     0.002 A 
ATOM      6  C6  I4B d   1      -1.061   1.663  -1.143  0.00  0.00     0.003 A 
ENDROOT
BRANCH   1   7
ATOM      7  C1' I4B d   1       0.686  -0.080  -1.598  0.00  0.00     0.060 C 
BRANCH   7   8
ATOM      8  C2' I4B d   1       0.051  -1.325  -2.182  0.00  0.00    -0.013 C 
ATOM      9  C4' I4B d   1      -0.077  -1.221  -3.679  0.00  0.00     0.013 C 
ATOM     10  C3' I4B d   1       0.894  -2.502  -1.791  0.00  0.00     0.013 C 
ENDBRANCH   7   8
ENDBRANCH   1   7
TORSDOF 2
ENDMDL
