MODEL 1
REMARK minimizedAffinity -5.82082081
REMARK minimizedRMSD -1
REMARK  2 active torsions:
REMARK  status: ('A' for Active; 'I' for Inactive)
REMARK    1  A    between atoms: C2'_3  and  C1'_4 
REMARK    2  A    between atoms: C1'_4  and  C1_5 
ROOT
ATOM      1  C1  I4B d   1       0.999  -2.692  -1.174  0.00  0.00    -0.075 A 
ATOM      2  C2  I4B d   1       0.962  -3.931  -0.583  0.00  0.00     0.003 A 
ATOM      3  C3  I4B d   1       0.363  -5.024  -1.255  0.00  0.00     0.002 A 
ATOM      4  C4  I4B d   1      -0.227  -4.824  -2.486  0.00  0.00    -0.004 A 
ATOM      5  C5  I4B d   1      -0.168  -3.573  -3.094  0.00  0.00     0.002 A 
ATOM      6  C6  I4B d   1       0.459  -2.503  -2.439  0.00  0.00     0.003 A 
ENDROOT
BRANCH   1   7
ATOM      7  C1' I4B d   1       1.610  -1.553  -0.421  0.00  0.00     0.060 C 
BRANCH   7   8
ATOM      8  C2' I4B d   1       0.747  -0.328  -0.649  0.00  0.00    -0.013 C 
ATOM      9  C4' I4B d   1       0.013   0.063   0.606  0.00  0.00     0.013 C 
ATOM     10  C3' I4B d   1       1.637   0.783  -1.124  0.00  0.00     0.013 C 
ENDBRANCH   7   8
ENDBRANCH   1   7
TORSDOF 2
ENDMDL
