MODEL 1
REMARK minimizedAffinity -3.9164412
REMARK minimizedRMSD -1
REMARK  2 active torsions:
REMARK  status: ('A' for Active; 'I' for Inactive)
REMARK    1  A    between atoms: C2'_3  and  C1'_4 
REMARK    2  A    between atoms: C1'_4  and  C1_5 
ROOT
ATOM      1  C1  I4B d   1      -1.185   0.558   0.236  0.00  0.00    -0.075 A 
ATOM      2  C2  I4B d   1      -0.626  -0.475   0.945  0.00  0.00     0.003 A 
ATOM      3  C3  I4B d   1      -0.636  -0.455   2.361  0.00  0.00     0.002 A 
ATOM      4  C4  I4B d   1      -1.168   0.633   3.022  0.00  0.00    -0.004 A 
ATOM      5  C5  I4B d   1      -1.755   1.669   2.301  0.00  0.00     0.002 A 
ATOM      6  C6  I4B d   1      -1.775   1.626   0.899  0.00  0.00     0.003 A 
ENDROOT
BRANCH   1   7
ATOM      7  C1' I4B d   1      -1.127   0.521  -1.259  0.00  0.00     0.060 C 
BRANCH   7   8
ATOM      8  C2' I4B d   1       0.211   1.086  -1.688  0.00  0.00    -0.013 C 
ATOM      9  C4' I4B d   1       0.308   2.556  -1.375  0.00  0.00     0.013 C 
ATOM     10  C3' I4B d   1       1.288   0.312  -0.988  0.00  0.00     0.013 C 
ENDBRANCH   7   8
ENDBRANCH   1   7
TORSDOF 2
ENDMDL
