MODEL 1
REMARK minimizedAffinity -0.267138988
REMARK minimizedRMSD -1
REMARK  2 active torsions:
REMARK  status: ('A' for Active; 'I' for Inactive)
REMARK    1  A    between atoms: C2'_3  and  C1'_4 
REMARK    2  A    between atoms: C1'_4  and  C1_5 
ROOT
ATOM      1  C1  I4B d   1       0.372  -0.485  -0.255  0.00  0.00    -0.075 A 
ATOM      2  C2  I4B d   1      -0.373  -0.528   0.897  0.00  0.00     0.003 A 
ATOM      3  C3  I4B d   1      -1.051   0.629   1.351  0.00  0.00     0.002 A 
ATOM      4  C4  I4B d   1      -0.917   1.813   0.654  0.00  0.00    -0.004 A 
ATOM      5  C5  I4B d   1      -0.180   1.849  -0.526  0.00  0.00     0.002 A 
ATOM      6  C6  I4B d   1       0.459   0.690  -0.991  0.00  0.00     0.003 A 
ENDROOT
BRANCH   1   7
ATOM      7  C1' I4B d   1       1.102  -1.716  -0.688  0.00  0.00     0.060 C 
BRANCH   7   8
ATOM      8  C2' I4B d   1       0.074  -2.737  -1.132  0.00  0.00    -0.013 C 
ATOM      9  C4' I4B d   1      -0.311  -2.531  -2.573  0.00  0.00     0.013 C 
ATOM     10  C3' I4B d   1       0.655  -4.103  -0.917  0.00  0.00     0.013 C 
ENDBRANCH   7   8
ENDBRANCH   1   7
TORSDOF 2
ENDMDL
