MODEL 1
REMARK minimizedAffinity -3.53886056
REMARK minimizedRMSD -1
REMARK  2 active torsions:
REMARK  status: ('A' for Active; 'I' for Inactive)
REMARK    1  A    between atoms: C2'_3  and  C1'_4 
REMARK    2  A    between atoms: C1'_4  and  C1_5 
ROOT
ATOM      1  C1  I4B d   1       0.906  -2.119  -1.444  0.00  0.00    -0.075 A 
ATOM      2  C2  I4B d   1       0.974  -3.381  -0.908  0.00  0.00     0.003 A 
ATOM      3  C3  I4B d   1       0.502  -4.494  -1.644  0.00  0.00     0.002 A 
ATOM      4  C4  I4B d   1      -0.071  -4.296  -2.883  0.00  0.00    -0.004 A 
ATOM      5  C5  I4B d   1      -0.118  -3.019  -3.435  0.00  0.00     0.002 A 
ATOM      6  C6  I4B d   1       0.385  -1.925  -2.716  0.00  0.00     0.003 A 
ENDROOT
BRANCH   1   7
ATOM      7  C1' I4B d   1       1.383  -0.962  -0.625  0.00  0.00     0.060 C 
BRANCH   7   8
ATOM      8  C2' I4B d   1       0.201  -0.046  -0.378  0.00  0.00    -0.013 C 
ATOM      9  C4' I4B d   1      -0.240  -0.102   1.061  0.00  0.00     0.013 C 
ATOM     10  C3' I4B d   1       0.603   1.345  -0.768  0.00  0.00     0.013 C 
ENDBRANCH   7   8
ENDBRANCH   1   7
TORSDOF 2
ENDMDL
