MODEL 1
REMARK minimizedAffinity -4.39399052
REMARK minimizedRMSD -1
REMARK  2 active torsions:
REMARK  status: ('A' for Active; 'I' for Inactive)
REMARK    1  A    between atoms: C2'_3  and  C1'_4 
REMARK    2  A    between atoms: C1'_4  and  C1_5 
ROOT
ATOM      1  C1  I4B d   1       0.374  -1.079  -0.908  0.00  0.00    -0.075 A 
ATOM      2  C2  I4B d   1      -0.072  -0.565  -2.100  0.00  0.00     0.003 A 
ATOM      3  C3  I4B d   1      -0.341  -1.427  -3.191  0.00  0.00     0.002 A 
ATOM      4  C4  I4B d   1      -0.103  -2.780  -3.063  0.00  0.00    -0.004 A 
ATOM      5  C5  I4B d   1       0.328  -3.302  -1.847  0.00  0.00     0.002 A 
ATOM      6  C6  I4B d   1       0.556  -2.447  -0.758  0.00  0.00     0.003 A 
ENDROOT
BRANCH   1   7
ATOM      7  C1' I4B d   1       0.679  -0.137   0.213  0.00  0.00     0.060 C 
BRANCH   7   8
ATOM      8  C2' I4B d   1      -0.455  -0.219   1.214  0.00  0.00    -0.013 C 
ATOM      9  C4' I4B d   1      -0.083  -1.082   2.390  0.00  0.00     0.013 C 
ATOM     10  C3' I4B d   1      -0.790   1.176   1.650  0.00  0.00     0.013 C 
ENDBRANCH   7   8
ENDBRANCH   1   7
TORSDOF 2
ENDMDL
