MODEL 1
REMARK minimizedAffinity -6.53418398
REMARK minimizedRMSD -1
REMARK  2 active torsions:
REMARK  status: ('A' for Active; 'I' for Inactive)
REMARK    1  A    between atoms: C2'_3  and  C1'_4 
REMARK    2  A    between atoms: C1'_4  and  C1_5 
ROOT
ATOM      1  C1  I4B d   1      -0.246   1.242  -0.427  0.00  0.00    -0.075 A 
ATOM      2  C2  I4B d   1      -0.584   2.563  -0.580  0.00  0.00     0.003 A 
ATOM      3  C3  I4B d   1      -1.605   3.135   0.218  0.00  0.00     0.002 A 
ATOM      4  C4  I4B d   1      -2.291   2.342   1.115  0.00  0.00    -0.004 A 
ATOM      5  C5  I4B d   1      -1.932   1.008   1.285  0.00  0.00     0.002 A 
ATOM      6  C6  I4B d   1      -0.894   0.457   0.518  0.00  0.00     0.003 A 
ENDROOT
BRANCH   1   7
ATOM      7  C1' I4B d   1       0.814   0.662  -1.309  0.00  0.00     0.060 C 
BRANCH   7   8
ATOM      8  C2' I4B d   1       0.851  -0.834  -1.072  0.00  0.00    -0.013 C 
ATOM      9  C4' I4B d   1       0.373  -1.590  -2.284  0.00  0.00     0.013 C 
ATOM     10  C3' I4B d   1       2.258  -1.212  -0.718  0.00  0.00     0.013 C 
ENDBRANCH   7   8
ENDBRANCH   1   7
TORSDOF 2
ENDMDL
