MODEL 1
REMARK minimizedAffinity -3.91515064
REMARK minimizedRMSD -1
REMARK  2 active torsions:
REMARK  status: ('A' for Active; 'I' for Inactive)
REMARK    1  A    between atoms: C2'_3  and  C1'_4 
REMARK    2  A    between atoms: C1'_4  and  C1_5 
ROOT
ATOM      1  C1  I4B d   1       0.198  -0.273   0.381  0.00  0.00    -0.075 A 
ATOM      2  C2  I4B d   1      -0.643  -0.806   1.326  0.00  0.00     0.003 A 
ATOM      3  C3  I4B d   1      -1.426   0.045   2.144  0.00  0.00     0.002 A 
ATOM      4  C4  I4B d   1      -1.299   1.413   2.019  0.00  0.00    -0.004 A 
ATOM      5  C5  I4B d   1      -0.463   1.951   1.046  0.00  0.00     0.002 A 
ATOM      6  C6  I4B d   1       0.282   1.103   0.213  0.00  0.00     0.003 A 
ENDROOT
BRANCH   1   7
ATOM      7  C1' I4B d   1       1.035  -1.199  -0.444  0.00  0.00     0.060 C 
BRANCH   7   8
ATOM      8  C2' I4B d   1       0.108  -1.987  -1.346  0.00  0.00    -0.013 C 
ATOM      9  C4' I4B d   1      -0.409  -1.135  -2.475  0.00  0.00     0.013 C 
ATOM     10  C3' I4B d   1       0.864  -3.173  -1.865  0.00  0.00     0.013 C 
ENDBRANCH   7   8
ENDBRANCH   1   7
TORSDOF 2
ENDMDL
