MODEL 1
REMARK minimizedAffinity 3.43552947
REMARK minimizedRMSD -1
REMARK  2 active torsions:
REMARK  status: ('A' for Active; 'I' for Inactive)
REMARK    1  A    between atoms: C2'_3  and  C1'_4 
REMARK    2  A    between atoms: C1'_4  and  C1_5 
ROOT
ATOM      1  C1  I4B d   1      -0.409   0.280  -0.036  0.00  0.00    -0.075 A 
ATOM      2  C2  I4B d   1      -0.170   0.952  -1.209  0.00  0.00     0.003 A 
ATOM      3  C3  I4B d   1      -1.250   1.354  -2.032  0.00  0.00     0.002 A 
ATOM      4  C4  I4B d   1      -2.540   1.021  -1.673  0.00  0.00    -0.004 A 
ATOM      5  C5  I4B d   1      -2.782   0.360  -0.473  0.00  0.00     0.002 A 
ATOM      6  C6  I4B d   1      -1.711  -0.003   0.357  0.00  0.00     0.003 A 
ENDROOT
BRANCH   1   7
ATOM      7  C1' I4B d   1       0.756  -0.159   0.793  0.00  0.00     0.060 C 
BRANCH   7   8
ATOM      8  C2' I4B d   1       0.234  -0.549   2.161  0.00  0.00    -0.013 C 
ATOM      9  C4' I4B d   1       1.331  -1.119   3.021  0.00  0.00     0.013 C 
ATOM     10  C3' I4B d   1      -0.370   0.670   2.792  0.00  0.00     0.013 C 
ENDBRANCH   7   8
ENDBRANCH   1   7
TORSDOF 2
ENDMDL
