MODEL 1
REMARK minimizedAffinity 1.39613259
REMARK minimizedRMSD -1
REMARK  2 active torsions:
REMARK  status: ('A' for Active; 'I' for Inactive)
REMARK    1  A    between atoms: C2'_3  and  C1'_4 
REMARK    2  A    between atoms: C1'_4  and  C1_5 
ROOT
ATOM      1  C1  I4B d   1      -2.515   1.914  -2.361  0.00  0.00    -0.075 A 
ATOM      2  C2  I4B d   1      -2.200   3.250  -2.359  0.00  0.00     0.003 A 
ATOM      3  C3  I4B d   1      -3.004   4.173  -3.070  0.00  0.00     0.002 A 
ATOM      4  C4  I4B d   1      -4.077   3.714  -3.806  0.00  0.00    -0.004 A 
ATOM      5  C5  I4B d   1      -4.409   2.362  -3.787  0.00  0.00     0.002 A 
ATOM      6  C6  I4B d   1      -3.631   1.458  -3.050  0.00  0.00     0.003 A 
ENDROOT
BRANCH   1   7
ATOM      7  C1' I4B d   1      -1.625   0.962  -1.626  0.00  0.00     0.060 C 
BRANCH   7   8
ATOM      8  C2' I4B d   1      -2.041   0.965  -0.169  0.00  0.00    -0.013 C 
ATOM      9  C4' I4B d   1      -3.480   0.552  -0.011  0.00  0.00     0.013 C 
ATOM     10  C3' I4B d   1      -1.127   0.037   0.575  0.00  0.00     0.013 C 
ENDBRANCH   7   8
ENDBRANCH   1   7
TORSDOF 2
ENDMDL
