MODEL 1
REMARK minimizedAffinity -1.65071678
REMARK minimizedRMSD -1
REMARK  2 active torsions:
REMARK  status: ('A' for Active; 'I' for Inactive)
REMARK    1  A    between atoms: C2'_3  and  C1'_4 
REMARK    2  A    between atoms: C1'_4  and  C1_5 
ROOT
ATOM      1  C1  I4B d   1      -0.862   1.530   0.637  0.00  0.00    -0.075 A 
ATOM      2  C2  I4B d   1      -1.168   2.162   1.816  0.00  0.00     0.003 A 
ATOM      3  C3  I4B d   1      -0.978   1.496   3.051  0.00  0.00     0.002 A 
ATOM      4  C4  I4B d   1      -0.531   0.190   3.058  0.00  0.00    -0.004 A 
ATOM      5  C5  I4B d   1      -0.200  -0.441   1.862  0.00  0.00     0.002 A 
ATOM      6  C6  I4B d   1      -0.354   0.237   0.644  0.00  0.00     0.003 A 
ENDROOT
BRANCH   1   7
ATOM      7  C1' I4B d   1      -1.105   2.251  -0.651  0.00  0.00     0.060 C 
BRANCH   7   8
ATOM      8  C2' I4B d   1      -0.722   1.322  -1.786  0.00  0.00    -0.013 C 
ATOM      9  C4' I4B d   1      -1.893   1.063  -2.697  0.00  0.00     0.013 C 
ATOM     10  C3' I4B d   1       0.417   1.949  -2.533  0.00  0.00     0.013 C 
ENDBRANCH   7   8
ENDBRANCH   1   7
TORSDOF 2
ENDMDL
