MODEL 1
REMARK minimizedAffinity -2.22325993
REMARK minimizedRMSD -1
REMARK  1 active torsions:
REMARK  status: ('A' for Active; 'I' for Inactive)
REMARK    1  A    between atoms: C1_2  and  C2_3 
ROOT
ATOM      1  C2  UNL d   1       3.891  -5.801  -3.617  0.00  0.00    -0.076 A 
ATOM      2  C3  UNL d   1       2.518  -6.000  -3.393  0.00  0.00     0.004 A 
ATOM      3  C4  UNL d   1       1.611  -5.999  -4.451  0.00  0.00    -0.003 A 
ATOM      4  C5  UNL d   1       2.062  -5.800  -5.751  0.00  0.00     0.000 A 
ATOM      5  C6  UNL d   1       3.424  -5.619  -5.994  0.00  0.00     0.000 A 
ATOM      6  C7  UNL d   1       4.353  -5.633  -4.940  0.00  0.00    -0.073 A 
ATOM      7  C8  UNL d   1       5.809  -5.426  -5.258  0.00  0.00     0.078 C 
ENDROOT
BRANCH   1   8
ATOM      8  C1  UNL d   1       4.824  -5.784  -2.427  0.00  0.00     0.053 C 
ATOM      9  C   UNL d   1       4.080  -5.836  -1.102  0.00  0.00     0.018 C 
ENDBRANCH   1   8
TORSDOF 1
ENDMDL
