MODEL 1
REMARK minimizedAffinity 8.80103493
REMARK minimizedRMSD -1
REMARK  1 active torsions:
REMARK  status: ('A' for Active; 'I' for Inactive)
REMARK    1  A    between atoms: C1_2  and  C2_3 
ROOT
ATOM      1  C2  UNL d   1       2.391   0.349   2.015  0.00  0.00    -0.076 A 
ATOM      2  C3  UNL d   1       2.933   0.130   0.736  0.00  0.00     0.004 A 
ATOM      3  C4  UNL d   1       3.344   1.197  -0.061  0.00  0.00    -0.003 A 
ATOM      4  C5  UNL d   1       3.220   2.500   0.407  0.00  0.00     0.000 A 
ATOM      5  C6  UNL d   1       2.701   2.735   1.680  0.00  0.00     0.000 A 
ATOM      6  C7  UNL d   1       2.297   1.669   2.503  0.00  0.00    -0.073 A 
ATOM      7  C8  UNL d   1       1.739   1.981   3.865  0.00  0.00     0.078 C 
ENDROOT
BRANCH   1   8
ATOM      8  C1  UNL d   1       1.938  -0.846   2.823  0.00  0.00     0.053 C 
ATOM      9  C   UNL d   1       1.164  -1.855   1.989  0.00  0.00     0.018 C 
ENDBRANCH   1   8
TORSDOF 1
ENDMDL
