MODEL 1
REMARK minimizedAffinity 9.57273865
REMARK minimizedRMSD -1
REMARK  1 active torsions:
REMARK  status: ('A' for Active; 'I' for Inactive)
REMARK    1  A    between atoms: C1_2  and  C2_3 
ROOT
ATOM      1  C2  UNL d   1       1.955  -0.280   1.859  0.00  0.00    -0.076 A 
ATOM      2  C3  UNL d   1       2.047   0.358   0.610  0.00  0.00     0.004 A 
ATOM      3  C4  UNL d   1       2.535   1.659   0.502  0.00  0.00    -0.003 A 
ATOM      4  C5  UNL d   1       2.939   2.344   1.643  0.00  0.00     0.000 A 
ATOM      5  C6  UNL d   1       2.871   1.721   2.889  0.00  0.00     0.000 A 
ATOM      6  C7  UNL d   1       2.397   0.404   3.012  0.00  0.00    -0.073 A 
ATOM      7  C8  UNL d   1       2.339  -0.217   4.381  0.00  0.00     0.078 C 
ENDROOT
BRANCH   1   8
ATOM      8  C1  UNL d   1       1.392  -1.682   1.917  0.00  0.00     0.053 C 
ATOM      9  C   UNL d   1       0.435  -1.973   0.772  0.00  0.00     0.018 C 
ENDBRANCH   1   8
TORSDOF 1
ENDMDL
