MODEL 1
REMARK minimizedAffinity 0.129583821
REMARK minimizedRMSD -1
REMARK  1 active torsions:
REMARK  status: ('A' for Active; 'I' for Inactive)
REMARK    1  A    between atoms: C1_2  and  C2_3 
ROOT
ATOM      1  C2  UNL d   1       2.435  -5.957  -3.736  0.00  0.00    -0.076 A 
ATOM      2  C3  UNL d   1       1.253  -5.939  -2.976  0.00  0.00     0.004 A 
ATOM      3  C4  UNL d   1       1.295  -5.960  -1.583  0.00  0.00    -0.003 A 
ATOM      4  C5  UNL d   1       2.521  -5.998  -0.928  0.00  0.00     0.000 A 
ATOM      5  C6  UNL d   1       3.704  -5.998  -1.666  0.00  0.00     0.000 A 
ATOM      6  C7  UNL d   1       3.679  -5.961  -3.070  0.00  0.00    -0.073 A 
ATOM      7  C8  UNL d   1       4.985  -5.969  -3.816  0.00  0.00     0.078 C 
ENDROOT
BRANCH   1   8
ATOM      8  C1  UNL d   1       2.326  -5.960  -5.245  0.00  0.00     0.053 C 
ATOM      9  C   UNL d   1       3.549  -5.357  -5.918  0.00  0.00     0.018 C 
ENDBRANCH   1   8
TORSDOF 1
ENDMDL
