MODEL 1
REMARK minimizedAffinity 8.08097172
REMARK minimizedRMSD -1
REMARK  1 active torsions:
REMARK  status: ('A' for Active; 'I' for Inactive)
REMARK    1  A    between atoms: C1_2  and  C2_3 
ROOT
ATOM      1  C2  UNL d   1       2.340  -4.227   4.682  0.00  0.00    -0.076 A 
ATOM      2  C3  UNL d   1       1.959  -3.107   5.441  0.00  0.00     0.004 A 
ATOM      3  C4  UNL d   1       1.878  -1.842   4.863  0.00  0.00    -0.003 A 
ATOM      4  C5  UNL d   1       2.176  -1.676   3.515  0.00  0.00     0.000 A 
ATOM      5  C6  UNL d   1       2.538  -2.779   2.742  0.00  0.00     0.000 A 
ATOM      6  C7  UNL d   1       2.609  -4.064   3.306  0.00  0.00    -0.073 A 
ATOM      7  C8  UNL d   1       3.011  -5.217   2.428  0.00  0.00     0.078 C 
ENDROOT
BRANCH   1   8
ATOM      8  C1  UNL d   1       2.436  -5.570   5.370  0.00  0.00     0.053 C 
ATOM      9  C   UNL d   1       1.119  -5.999   5.999  0.00  0.00     0.018 C 
ENDBRANCH   1   8
TORSDOF 1
ENDMDL
