MODEL 1
REMARK minimizedAffinity 9.41739845
REMARK minimizedRMSD -1
REMARK  1 active torsions:
REMARK  status: ('A' for Active; 'I' for Inactive)
REMARK    1  A    between atoms: C1_2  and  C2_3 
ROOT
ATOM      1  C2  UNL d   1       1.708  -3.985   4.059  0.00  0.00    -0.076 A 
ATOM      2  C3  UNL d   1       0.497  -4.681   4.217  0.00  0.00     0.004 A 
ATOM      3  C4  UNL d   1       0.365  -5.681   5.179  0.00  0.00    -0.003 A 
ATOM      4  C5  UNL d   1       1.442  -6.000   6.000  0.00  0.00     0.000 A 
ATOM      5  C6  UNL d   1       2.645  -5.307   5.868  0.00  0.00     0.000 A 
ATOM      6  C7  UNL d   1       2.790  -4.285   4.914  0.00  0.00    -0.073 A 
ATOM      7  C8  UNL d   1       4.112  -3.575   4.811  0.00  0.00     0.078 C 
ENDROOT
BRANCH   1   8
ATOM      8  C1  UNL d   1       1.801  -2.929   2.980  0.00  0.00     0.053 C 
ATOM      9  C   UNL d   1       1.824  -1.518   3.546  0.00  0.00     0.018 C 
ENDBRANCH   1   8
TORSDOF 1
ENDMDL
