MODEL 1
REMARK minimizedAffinity -2.68675494
REMARK minimizedRMSD -1
REMARK  0 active torsions:
REMARK  status: ('A' for Active; 'I' for Inactive)
ROOT
ATOM      1  C   UNL d   1      -0.192  -0.694   2.375  0.00  0.00     0.124 A 
ATOM      2  C1  UNL d   1       0.867  -0.396   1.528  0.00  0.00     0.062 A 
ATOM      3  C2  UNL d   1       0.625  -0.050   0.201  0.00  0.00     0.162 A 
ATOM      4  C3  UNL d   1      -0.681   0.001  -0.286  0.00  0.00    -0.034 A 
ATOM      5  C4  UNL d   1      -1.740  -0.301   0.572  0.00  0.00     0.162 A 
ATOM      6  C5  UNL d   1      -1.493  -0.646   1.897  0.00  0.00     0.062 A 
ATOM      7  F   UNL d   1      -2.517  -0.933   2.714  0.00  0.00    -0.097 F 
ATOM      8  F1  UNL d   1      -3.008  -0.261   0.136  0.00  0.00    -0.096 F 
ATOM      9  I   UNL d   1      -1.046   0.518  -2.269  0.00  0.00    -0.060 I 
ATOM     10  F2  UNL d   1       1.667   0.232  -0.595  0.00  0.00    -0.096 F 
ATOM     11  F3  UNL d   1       2.125  -0.443   1.987  0.00  0.00    -0.097 F 
ATOM     12  F4  UNL d   1       0.044  -1.027   3.651  0.00  0.00    -0.092 F 
ENDROOT
TORSDOF 0
ENDMDL
