MODEL 1
REMARK minimizedAffinity -1.67341471
REMARK minimizedRMSD -1
REMARK  0 active torsions:
REMARK  status: ('A' for Active; 'I' for Inactive)
ROOT
ATOM      1  C   UNL d   1      -1.263   0.534  -1.400  0.00  0.00     0.124 A 
ATOM      2  C1  UNL d   1      -0.067   0.237  -0.762  0.00  0.00     0.062 A 
ATOM      3  C2  UNL d   1      -0.049  -0.020   0.606  0.00  0.00     0.162 A 
ATOM      4  C3  UNL d   1      -1.231   0.019   1.346  0.00  0.00    -0.034 A 
ATOM      5  C4  UNL d   1      -2.430   0.320   0.697  0.00  0.00     0.162 A 
ATOM      6  C5  UNL d   1      -2.443   0.576  -0.670  0.00  0.00     0.062 A 
ATOM      7  F   UNL d   1      -3.600   0.863  -1.285  0.00  0.00    -0.097 F 
ATOM      8  F1  UNL d   1      -3.585   0.365   1.377  0.00  0.00    -0.096 F 
ATOM      9  I   UNL d   1      -1.208  -0.365   3.391  0.00  0.00    -0.060 I 
ATOM     10  F2  UNL d   1       1.121  -0.305   1.197  0.00  0.00    -0.096 F 
ATOM     11  F3  UNL d   1       1.074   0.197  -1.464  0.00  0.00    -0.097 F 
ATOM     12  F4  UNL d   1      -1.278   0.782  -2.716  0.00  0.00    -0.092 F 
ENDROOT
TORSDOF 0
ENDMDL
