MODEL 1
REMARK minimizedAffinity 1.36264384
REMARK minimizedRMSD -1
REMARK  0 active torsions:
REMARK  status: ('A' for Active; 'I' for Inactive)
ROOT
ATOM      1  C   UNL d   1      -0.986   0.482   1.829  0.00  0.00     0.124 A 
ATOM      2  C1  UNL d   1      -1.724   0.637   0.664  0.00  0.00     0.062 A 
ATOM      3  C2  UNL d   1      -1.139   0.388  -0.574  0.00  0.00     0.162 A 
ATOM      4  C3  UNL d   1       0.193  -0.020  -0.654  0.00  0.00    -0.034 A 
ATOM      5  C4  UNL d   1       0.929  -0.172   0.522  0.00  0.00     0.162 A 
ATOM      6  C5  UNL d   1       0.340   0.078   1.757  0.00  0.00     0.062 A 
ATOM      7  F   UNL d   1       1.055  -0.072   2.882  0.00  0.00    -0.097 F 
ATOM      8  F1  UNL d   1       2.212  -0.563   0.482  0.00  0.00    -0.096 F 
ATOM      9  I   UNL d   1       1.072  -0.393  -2.503  0.00  0.00    -0.060 I 
ATOM     10  F2  UNL d   1      -1.876   0.545  -1.684  0.00  0.00    -0.096 F 
ATOM     11  F3  UNL d   1      -3.005   1.028   0.730  0.00  0.00    -0.097 F 
ATOM     12  F4  UNL d   1      -1.551   0.723   3.018  0.00  0.00    -0.092 F 
ENDROOT
TORSDOF 0
ENDMDL
