MODEL 1
REMARK minimizedAffinity -2.11916137
REMARK minimizedRMSD -1
REMARK  0 active torsions:
REMARK  status: ('A' for Active; 'I' for Inactive)
ROOT
ATOM      1  C   UNL d   1      -2.465  -0.381   3.119  0.00  0.00     0.124 A 
ATOM      2  C1  UNL d   1      -1.201  -0.924   2.934  0.00  0.00     0.062 A 
ATOM      3  C2  UNL d   1      -0.540  -0.761   1.720  0.00  0.00     0.162 A 
ATOM      4  C3  UNL d   1      -1.142  -0.052   0.681  0.00  0.00    -0.034 A 
ATOM      5  C4  UNL d   1      -2.414   0.490   0.874  0.00  0.00     0.162 A 
ATOM      6  C5  UNL d   1      -3.070   0.325   2.089  0.00  0.00     0.062 A 
ATOM      7  F   UNL d   1      -4.292   0.850   2.266  0.00  0.00    -0.097 F 
ATOM      8  F1  UNL d   1      -3.022   1.178  -0.105  0.00  0.00    -0.096 F 
ATOM      9  I   UNL d   1      -0.157   0.193  -1.136  0.00  0.00    -0.060 I 
ATOM     10  F2  UNL d   1       0.680  -1.297   1.570  0.00  0.00    -0.096 F 
ATOM     11  F3  UNL d   1      -0.615  -1.607   3.928  0.00  0.00    -0.097 F 
ATOM     12  F4  UNL d   1      -3.099  -0.540   4.288  0.00  0.00    -0.092 F 
ENDROOT
TORSDOF 0
ENDMDL
