MODEL 1
REMARK minimizedAffinity -0.41967383
REMARK minimizedRMSD -1
REMARK  0 active torsions:
REMARK  status: ('A' for Active; 'I' for Inactive)
ROOT
ATOM      1  C   UNL d   1      -1.080   0.648   2.162  0.00  0.00     0.124 A 
ATOM      2  C1  UNL d   1      -1.829   0.785   1.001  0.00  0.00     0.062 A 
ATOM      3  C2  UNL d   1      -1.256   0.514  -0.238  0.00  0.00     0.162 A 
ATOM      4  C3  UNL d   1       0.074   0.102  -0.324  0.00  0.00    -0.034 A 
ATOM      5  C4  UNL d   1       0.821  -0.032   0.848  0.00  0.00     0.162 A 
ATOM      6  C5  UNL d   1       0.244   0.240   2.084  0.00  0.00     0.062 A 
ATOM      7  F   UNL d   1       0.970   0.108   3.204  0.00  0.00    -0.097 F 
ATOM      8  F1  UNL d   1       2.103  -0.425   0.801  0.00  0.00    -0.096 F 
ATOM      9  I   UNL d   1       0.934  -0.304  -2.175  0.00  0.00    -0.060 I 
ATOM     10  F2  UNL d   1      -2.004   0.654  -1.343  0.00  0.00    -0.096 F 
ATOM     11  F3  UNL d   1      -3.109   1.179   1.074  0.00  0.00    -0.097 F 
ATOM     12  F4  UNL d   1      -1.633   0.911   3.353  0.00  0.00    -0.092 F 
ENDROOT
TORSDOF 0
ENDMDL
