MODEL 1
REMARK minimizedAffinity -0.325511038
REMARK minimizedRMSD -1
REMARK  0 active torsions:
REMARK  status: ('A' for Active; 'I' for Inactive)
ROOT
ATOM      1  C   UNL d   1      -1.345   0.702   1.652  0.00  0.00     0.124 A 
ATOM      2  C1  UNL d   1      -1.908   0.837   0.391  0.00  0.00     0.062 A 
ATOM      3  C2  UNL d   1      -1.153   0.563  -0.746  0.00  0.00     0.162 A 
ATOM      4  C3  UNL d   1       0.174   0.149  -0.627  0.00  0.00    -0.034 A 
ATOM      5  C4  UNL d   1       0.734   0.016   0.645  0.00  0.00     0.162 A 
ATOM      6  C5  UNL d   1      -0.025   0.292   1.778  0.00  0.00     0.062 A 
ATOM      7  F   UNL d   1       0.521   0.160   2.996  0.00  0.00    -0.097 F 
ATOM      8  F1  UNL d   1       2.006  -0.379   0.796  0.00  0.00    -0.096 F 
ATOM      9  I   UNL d   1       1.306  -0.262  -2.324  0.00  0.00    -0.060 I 
ATOM     10  F2  UNL d   1      -1.723   0.702  -1.952  0.00  0.00    -0.096 F 
ATOM     11  F3  UNL d   1      -3.183   1.234   0.267  0.00  0.00    -0.097 F 
ATOM     12  F4  UNL d   1      -2.073   0.967   2.744  0.00  0.00    -0.092 F 
ENDROOT
TORSDOF 0
ENDMDL
