MODEL 1
REMARK minimizedAffinity -0.700312436
REMARK minimizedRMSD -1
REMARK  0 active torsions:
REMARK  status: ('A' for Active; 'I' for Inactive)
ROOT
ATOM      1  C   UNL d   1      -1.368   0.647   1.955  0.00  0.00     0.124 A 
ATOM      2  C1  UNL d   1      -1.996   0.881   0.739  0.00  0.00     0.062 A 
ATOM      3  C2  UNL d   1      -1.287   0.750  -0.452  0.00  0.00     0.162 A 
ATOM      4  C3  UNL d   1       0.058   0.381  -0.433  0.00  0.00    -0.034 A 
ATOM      5  C4  UNL d   1       0.683   0.149   0.793  0.00  0.00     0.162 A 
ATOM      6  C5  UNL d   1      -0.029   0.281   1.980  0.00  0.00     0.062 A 
ATOM      7  F   UNL d   1       0.579   0.055   3.154  0.00  0.00    -0.097 F 
ATOM      8  F1  UNL d   1       1.975  -0.207   0.847  0.00  0.00    -0.096 F 
ATOM      9  I   UNL d   1       1.121   0.184  -2.212  0.00  0.00    -0.060 I 
ATOM     10  F2  UNL d   1      -1.920   0.982  -1.612  0.00  0.00    -0.096 F 
ATOM     11  F3  UNL d   1      -3.289   1.236   0.712  0.00  0.00    -0.097 F 
ATOM     12  F4  UNL d   1      -2.051   0.776   3.099  0.00  0.00    -0.092 F 
ENDROOT
TORSDOF 0
ENDMDL
