MODEL 1
REMARK minimizedAffinity 1.03843462
REMARK minimizedRMSD -1
REMARK  0 active torsions:
REMARK  status: ('A' for Active; 'I' for Inactive)
ROOT
ATOM      1  C   UNL d   1      -1.377   0.537   2.183  0.00  0.00     0.124 A 
ATOM      2  C1  UNL d   1       0.010   0.571   2.172  0.00  0.00     0.062 A 
ATOM      3  C2  UNL d   1       0.703   0.470   0.969  0.00  0.00     0.162 A 
ATOM      4  C3  UNL d   1       0.010   0.334  -0.234  0.00  0.00    -0.034 A 
ATOM      5  C4  UNL d   1      -1.386   0.300  -0.215  0.00  0.00     0.162 A 
ATOM      6  C5  UNL d   1      -2.074   0.401   0.990  0.00  0.00     0.062 A 
ATOM      7  F   UNL d   1      -3.414   0.368   0.999  0.00  0.00    -0.097 F 
ATOM      8  F1  UNL d   1      -2.084   0.170  -1.353  0.00  0.00    -0.096 F 
ATOM      9  I   UNL d   1       1.043   0.182  -2.034  0.00  0.00    -0.060 I 
ATOM     10  F2  UNL d   1       2.044   0.506   0.988  0.00  0.00    -0.096 F 
ATOM     11  F3  UNL d   1       0.685   0.701   3.323  0.00  0.00    -0.097 F 
ATOM     12  F4  UNL d   1      -2.042   0.634   3.341  0.00  0.00    -0.092 F 
ENDROOT
TORSDOF 0
ENDMDL
