MODEL 1
REMARK minimizedAffinity -5.65355587
REMARK minimizedRMSD -1
REMARK  0 active torsions:
REMARK  status: ('A' for Active; 'I' for Inactive)
ROOT
ATOM      1  C   UNL d   1      -1.260  -0.167   2.431  0.00  0.00     0.124 A 
ATOM      2  C1  UNL d   1       0.063   0.161   2.167  0.00  0.00     0.062 A 
ATOM      3  C2  UNL d   1       0.524   0.205   0.855  0.00  0.00     0.162 A 
ATOM      4  C3  UNL d   1      -0.338  -0.079  -0.204  0.00  0.00    -0.034 A 
ATOM      5  C4  UNL d   1      -1.666  -0.409   0.069  0.00  0.00     0.162 A 
ATOM      6  C5  UNL d   1      -2.123  -0.451   1.383  0.00  0.00     0.062 A 
ATOM      7  F   UNL d   1      -3.401  -0.768   1.636  0.00  0.00    -0.097 F 
ATOM      8  F1  UNL d   1      -2.522  -0.687  -0.925  0.00  0.00    -0.096 F 
ATOM      9  I   UNL d   1       0.349  -0.014  -2.168  0.00  0.00    -0.060 I 
ATOM     10  F2  UNL d   1       1.807   0.525   0.629  0.00  0.00    -0.096 F 
ATOM     11  F3  UNL d   1       0.899   0.436   3.179  0.00  0.00    -0.097 F 
ATOM     12  F4  UNL d   1      -1.701  -0.209   3.695  0.00  0.00    -0.092 F 
ENDROOT
TORSDOF 0
ENDMDL
