MODEL 1
REMARK minimizedAffinity 6.23735809
REMARK minimizedRMSD -1
REMARK  0 active torsions:
REMARK  status: ('A' for Active; 'I' for Inactive)
ROOT
ATOM      1  C   UNL d   1      -0.965   0.908   2.047  0.00  0.00     0.124 A 
ATOM      2  C1  UNL d   1      -1.746   0.796   0.905  0.00  0.00     0.062 A 
ATOM      3  C2  UNL d   1      -1.156   0.488  -0.318  0.00  0.00     0.162 A 
ATOM      4  C3  UNL d   1       0.222   0.288  -0.405  0.00  0.00    -0.034 A 
ATOM      5  C4  UNL d   1       1.000   0.404   0.749  0.00  0.00     0.162 A 
ATOM      6  C5  UNL d   1       0.406   0.712   1.968  0.00  0.00     0.062 A 
ATOM      7  F   UNL d   1       1.161   0.820   3.071  0.00  0.00    -0.097 F 
ATOM      8  F1  UNL d   1       2.327   0.218   0.701  0.00  0.00    -0.096 F 
ATOM      9  I   UNL d   1       1.107  -0.173  -2.231  0.00  0.00    -0.060 I 
ATOM     10  F2  UNL d   1      -1.934   0.386  -1.406  0.00  0.00    -0.096 F 
ATOM     11  F3  UNL d   1      -3.071   0.986   0.978  0.00  0.00    -0.097 F 
ATOM     12  F4  UNL d   1      -1.535   1.206   3.222  0.00  0.00    -0.092 F 
ENDROOT
TORSDOF 0
ENDMDL
