MODEL 1
REMARK minimizedAffinity -2.15284204
REMARK minimizedRMSD -1
REMARK  0 active torsions:
REMARK  status: ('A' for Active; 'I' for Inactive)
ROOT
ATOM      1  C   UNL d   1      -2.153   0.272   2.720  0.00  0.00     0.124 A 
ATOM      2  C1  UNL d   1      -2.815   0.563   1.535  0.00  0.00     0.062 A 
ATOM      3  C2  UNL d   1      -2.127   0.540   0.325  0.00  0.00     0.162 A 
ATOM      4  C3  UNL d   1      -0.768   0.223   0.294  0.00  0.00    -0.034 A 
ATOM      5  C4  UNL d   1      -0.110  -0.067   1.490  0.00  0.00     0.162 A 
ATOM      6  C5  UNL d   1      -0.802  -0.042   2.697  0.00  0.00     0.062 A 
ATOM      7  F   UNL d   1      -0.161  -0.324   3.840  0.00  0.00    -0.097 F 
ATOM      8  F1  UNL d   1       1.196  -0.375   1.496  0.00  0.00    -0.096 F 
ATOM      9  I   UNL d   1       0.264   0.187  -1.513  0.00  0.00    -0.060 I 
ATOM     10  F2  UNL d   1      -2.791   0.825  -0.804  0.00  0.00    -0.096 F 
ATOM     11  F3  UNL d   1      -4.120   0.868   1.555  0.00  0.00    -0.097 F 
ATOM     12  F4  UNL d   1      -2.817   0.296   3.883  0.00  0.00    -0.092 F 
ENDROOT
TORSDOF 0
ENDMDL
