MODEL 1
REMARK minimizedAffinity 2.85654473
REMARK minimizedRMSD -1
REMARK  0 active torsions:
REMARK  status: ('A' for Active; 'I' for Inactive)
ROOT
ATOM      1  C   UNL d   1      -0.992   0.457   1.713  0.00  0.00     0.124 A 
ATOM      2  C1  UNL d   1       0.389   0.380   1.823  0.00  0.00     0.062 A 
ATOM      3  C2  UNL d   1       1.175   0.229   0.684  0.00  0.00     0.162 A 
ATOM      4  C3  UNL d   1       0.580   0.154  -0.576  0.00  0.00    -0.034 A 
ATOM      5  C4  UNL d   1      -0.810   0.231  -0.679  0.00  0.00     0.162 A 
ATOM      6  C5  UNL d   1      -1.590   0.382   0.463  0.00  0.00     0.062 A 
ATOM      7  F   UNL d   1      -2.925   0.456   0.355  0.00  0.00    -0.097 F 
ATOM      8  F1  UNL d   1      -1.414   0.162  -1.874  0.00  0.00    -0.096 F 
ATOM      9  I   UNL d   1       1.751  -0.072  -2.282  0.00  0.00    -0.060 I 
ATOM     10  F2  UNL d   1       2.507   0.158   0.819  0.00  0.00    -0.096 F 
ATOM     11  F3  UNL d   1       0.969   0.451   3.029  0.00  0.00    -0.097 F 
ATOM     12  F4  UNL d   1      -1.746   0.602   2.810  0.00  0.00    -0.092 F 
ENDROOT
TORSDOF 0
ENDMDL
