MODEL 1
REMARK minimizedAffinity -1.05443394
REMARK minimizedRMSD -1
REMARK  0 active torsions:
REMARK  status: ('A' for Active; 'I' for Inactive)
ROOT
ATOM      1  C   UNL d   1      -1.158   0.012  -0.638  0.00  0.00     0.124 A 
ATOM      2  C1  UNL d   1      -1.483  -1.201  -1.228  0.00  0.00     0.062 A 
ATOM      3  C2  UNL d   1      -0.642  -1.762  -2.185  0.00  0.00     0.162 A 
ATOM      4  C3  UNL d   1       0.533  -1.110  -2.557  0.00  0.00    -0.034 A 
ATOM      5  C4  UNL d   1       0.853   0.111  -1.960  0.00  0.00     0.162 A 
ATOM      6  C5  UNL d   1       0.009   0.667  -1.004  0.00  0.00     0.062 A 
ATOM      7  F   UNL d   1       0.325   1.840  -0.436  0.00  0.00    -0.097 F 
ATOM      8  F1  UNL d   1       1.975   0.765  -2.295  0.00  0.00    -0.096 F 
ATOM      9  I   UNL d   1       1.793  -1.945  -3.988  0.00  0.00    -0.060 I 
ATOM     10  F2  UNL d   1      -0.981  -2.936  -2.738  0.00  0.00    -0.096 F 
ATOM     11  F3  UNL d   1      -2.611  -1.836  -0.876  0.00  0.00    -0.097 F 
ATOM     12  F4  UNL d   1      -1.969   0.550   0.282  0.00  0.00    -0.092 F 
ENDROOT
TORSDOF 0
ENDMDL
