MODEL 1
REMARK minimizedAffinity 3.6995995
REMARK minimizedRMSD -1
REMARK  0 active torsions:
REMARK  status: ('A' for Active; 'I' for Inactive)
ROOT
ATOM      1  C   UNL d   1      -0.923   0.392   1.859  0.00  0.00     0.124 A 
ATOM      2  C1  UNL d   1      -1.680   0.490   0.700  0.00  0.00     0.062 A 
ATOM      3  C2  UNL d   1      -1.085   0.295  -0.543  0.00  0.00     0.162 A 
ATOM      4  C3  UNL d   1       0.275  -0.001  -0.633  0.00  0.00    -0.034 A 
ATOM      5  C4  UNL d   1       1.030  -0.097   0.537  0.00  0.00     0.162 A 
ATOM      6  C5  UNL d   1       0.431   0.098   1.777  0.00  0.00     0.062 A 
ATOM      7  F   UNL d   1       1.164   0.003   2.896  0.00  0.00    -0.097 F 
ATOM      8  F1  UNL d   1       2.340  -0.381   0.486  0.00  0.00    -0.096 F 
ATOM      9  I   UNL d   1       1.168  -0.294  -2.490  0.00  0.00    -0.060 I 
ATOM     10  F2  UNL d   1      -1.841   0.396  -1.647  0.00  0.00    -0.096 F 
ATOM     11  F3  UNL d   1      -2.988   0.774   0.777  0.00  0.00    -0.097 F 
ATOM     12  F4  UNL d   1      -1.498   0.581   3.054  0.00  0.00    -0.092 F 
ENDROOT
TORSDOF 0
ENDMDL
