MODEL 1
REMARK minimizedAffinity -2.40246463
REMARK minimizedRMSD -1
REMARK  0 active torsions:
REMARK  status: ('A' for Active; 'I' for Inactive)
ROOT
ATOM      1  C   UNL d   1      -2.518   0.877   0.884  0.00  0.00     0.124 A 
ATOM      2  C1  UNL d   1      -1.900   0.939  -0.357  0.00  0.00     0.062 A 
ATOM      3  C2  UNL d   1      -0.519   0.801  -0.459  0.00  0.00     0.162 A 
ATOM      4  C3  UNL d   1       0.255   0.599   0.683  0.00  0.00    -0.034 A 
ATOM      5  C4  UNL d   1      -0.374   0.539   1.929  0.00  0.00     0.162 A 
ATOM      6  C5  UNL d   1      -1.754   0.677   2.026  0.00  0.00     0.062 A 
ATOM      7  F   UNL d   1      -2.349   0.617   3.226  0.00  0.00    -0.097 F 
ATOM      8  F1  UNL d   1       0.340   0.345   3.048  0.00  0.00    -0.096 F 
ATOM      9  I   UNL d   1       2.320   0.392   0.535  0.00  0.00    -0.060 I 
ATOM     10  F2  UNL d   1       0.051   0.865  -1.672  0.00  0.00    -0.096 F 
ATOM     11  F3  UNL d   1      -2.636   1.133  -1.461  0.00  0.00    -0.097 F 
ATOM     12  F4  UNL d   1      -3.847   1.011   0.980  0.00  0.00    -0.092 F 
ENDROOT
TORSDOF 0
ENDMDL
