MODEL 1
REMARK minimizedAffinity 2.25190401
REMARK minimizedRMSD -1
REMARK  0 active torsions:
REMARK  status: ('A' for Active; 'I' for Inactive)
ROOT
ATOM      1  C   UNL d   1      -0.848   0.463   1.778  0.00  0.00     0.124 A 
ATOM      2  C1  UNL d   1       0.532   0.318   1.750  0.00  0.00     0.062 A 
ATOM      3  C2  UNL d   1       1.192   0.132   0.538  0.00  0.00     0.162 A 
ATOM      4  C3  UNL d   1       0.472   0.091  -0.656  0.00  0.00    -0.034 A 
ATOM      5  C4  UNL d   1      -0.916   0.236  -0.619  0.00  0.00     0.162 A 
ATOM      6  C5  UNL d   1      -1.570   0.422   0.594  0.00  0.00     0.062 A 
ATOM      7  F   UNL d   1      -2.904   0.562   0.620  0.00  0.00    -0.097 F 
ATOM      8  F1  UNL d   1      -1.639   0.202  -1.748  0.00  0.00    -0.096 F 
ATOM      9  I   UNL d   1       1.454  -0.187  -2.469  0.00  0.00    -0.060 I 
ATOM     10  F2  UNL d   1       2.526  -0.006   0.541  0.00  0.00    -0.096 F 
ATOM     11  F3  UNL d   1       1.233   0.356   2.893  0.00  0.00    -0.097 F 
ATOM     12  F4  UNL d   1      -1.480   0.640   2.946  0.00  0.00    -0.092 F 
ENDROOT
TORSDOF 0
ENDMDL
