MODEL 1
REMARK minimizedAffinity -2.41893768
REMARK minimizedRMSD -1
REMARK  0 active torsions:
REMARK  status: ('A' for Active; 'I' for Inactive)
ROOT
ATOM      1  C   UNL d   1       0.536   0.337   0.858  0.00  0.00     0.124 A 
ATOM      2  C1  UNL d   1      -0.307   0.658  -0.197  0.00  0.00     0.062 A 
ATOM      3  C2  UNL d   1      -1.673   0.812   0.020  0.00  0.00     0.162 A 
ATOM      4  C3  UNL d   1      -2.206   0.646   1.298  0.00  0.00    -0.034 A 
ATOM      5  C4  UNL d   1      -1.352   0.323   2.354  0.00  0.00     0.162 A 
ATOM      6  C5  UNL d   1       0.013   0.170   2.132  0.00  0.00     0.062 A 
ATOM      7  F   UNL d   1       0.825  -0.140   3.153  0.00  0.00    -0.097 F 
ATOM      8  F1  UNL d   1      -1.831   0.157   3.596  0.00  0.00    -0.096 F 
ATOM      9  I   UNL d   1      -4.248   0.875   1.627  0.00  0.00    -0.060 I 
ATOM     10  F2  UNL d   1      -2.464   1.121  -1.019  0.00  0.00    -0.096 F 
ATOM     11  F3  UNL d   1       0.196   0.819  -1.430  0.00  0.00    -0.097 F 
ATOM     12  F4  UNL d   1       1.850   0.189   0.646  0.00  0.00    -0.092 F 
ENDROOT
TORSDOF 0
ENDMDL
