MODEL 1
REMARK minimizedAffinity 6.58357906
REMARK minimizedRMSD -1
REMARK  1 active torsions:
REMARK  status: ('A' for Active; 'I' for Inactive)
REMARK    1  A    between atoms: C1_2  and  C2_3 
ROOT
ATOM      1  C2  UNL d   1       2.162   1.152   1.521  0.00  0.00    -0.073 A 
ATOM      2  C3  UNL d   1       3.113   1.266   0.499  0.00  0.00    -0.002 A 
ATOM      3  C4  UNL d   1       2.709   1.333  -0.835  0.00  0.00     0.004 A 
ATOM      4  C5  UNL d   1       1.353   1.295  -1.161  0.00  0.00    -0.004 A 
ATOM      5  C6  UNL d   1       0.388   1.193  -0.154  0.00  0.00    -0.075 A 
ATOM      6  C7  UNL d   1      -1.074   1.148  -0.488  0.00  0.00     0.076 C 
ATOM      7  C8  UNL d   1       0.801   1.123   1.183  0.00  0.00     0.001 A 
ENDROOT
BRANCH   1   8
ATOM      8  C1  UNL d   1       2.593   1.085   2.963  0.00  0.00     0.053 C 
ATOM      9  C   UNL d   1       1.661   1.869   3.873  0.00  0.00     0.018 C 
ENDBRANCH   1   8
TORSDOF 1
ENDMDL
