MODEL 1
REMARK minimizedAffinity 2.27320147
REMARK minimizedRMSD -1
REMARK  1 active torsions:
REMARK  status: ('A' for Active; 'I' for Inactive)
REMARK    1  A    between atoms: C1_2  and  C2_3 
ROOT
ATOM      1  C2  UNL d   1       0.273   3.170   0.561  0.00  0.00    -0.073 A 
ATOM      2  C3  UNL d   1       1.303   3.518  -0.320  0.00  0.00    -0.002 A 
ATOM      3  C4  UNL d   1       2.077   2.528  -0.927  0.00  0.00     0.004 A 
ATOM      4  C5  UNL d   1       1.824   1.181  -0.665  0.00  0.00    -0.004 A 
ATOM      5  C6  UNL d   1       0.791   0.813   0.203  0.00  0.00    -0.075 A 
ATOM      6  C7  UNL d   1       0.508  -0.631   0.497  0.00  0.00     0.076 C 
ATOM      7  C8  UNL d   1       0.021   1.814   0.811  0.00  0.00     0.001 A 
ENDROOT
BRANCH   1   8
ATOM      8  C1  UNL d   1      -0.569   4.236   1.214  0.00  0.00     0.053 C 
ATOM      9  C   UNL d   1      -0.244   5.624   0.683  0.00  0.00     0.018 C 
ENDBRANCH   1   8
TORSDOF 1
ENDMDL
