MODEL 1
REMARK minimizedAffinity -3.73735428
REMARK minimizedRMSD -1
REMARK  1 active torsions:
REMARK  status: ('A' for Active; 'I' for Inactive)
REMARK    1  A    between atoms: C1_2  and  C2_3 
ROOT
ATOM      1  C2  UNL d   1       0.247   0.800  -0.989  0.00  0.00    -0.073 A 
ATOM      2  C3  UNL d   1       1.257   0.665  -1.949  0.00  0.00    -0.002 A 
ATOM      3  C4  UNL d   1       2.581   0.467  -1.555  0.00  0.00     0.004 A 
ATOM      4  C5  UNL d   1       2.908   0.394  -0.201  0.00  0.00    -0.004 A 
ATOM      5  C6  UNL d   1       1.910   0.514   0.773  0.00  0.00    -0.075 A 
ATOM      6  C7  UNL d   1       2.245   0.440   2.233  0.00  0.00     0.076 C 
ATOM      7  C8  UNL d   1       0.584   0.716   0.369  0.00  0.00     0.001 A 
ENDROOT
BRANCH   1   8
ATOM      8  C1  UNL d   1      -1.185   1.008  -1.410  0.00  0.00     0.053 C 
ATOM      9  C   UNL d   1      -1.420   0.600  -2.855  0.00  0.00     0.018 C 
ENDBRANCH   1   8
TORSDOF 1
ENDMDL
