MODEL 1
REMARK minimizedAffinity -5.11273861
REMARK minimizedRMSD -1
REMARK  1 active torsions:
REMARK  status: ('A' for Active; 'I' for Inactive)
REMARK    1  A    between atoms: C1_2  and  C2_3 
ROOT
ATOM      1  C2  UNL d   1      -0.379  -0.801   0.590  0.00  0.00    -0.073 A 
ATOM      2  C3  UNL d   1      -0.896   0.417   0.134  0.00  0.00    -0.002 A 
ATOM      3  C4  UNL d   1      -0.046   1.495  -0.115  0.00  0.00     0.004 A 
ATOM      4  C5  UNL d   1       1.329   1.364   0.081  0.00  0.00    -0.004 A 
ATOM      5  C6  UNL d   1       1.866   0.151   0.525  0.00  0.00    -0.075 A 
ATOM      6  C7  UNL d   1       3.342  -0.005   0.744  0.00  0.00     0.076 C 
ATOM      7  C8  UNL d   1       1.005  -0.925   0.776  0.00  0.00     0.001 A 
ENDROOT
BRANCH   1   8
ATOM      8  C1  UNL d   1      -1.293  -1.969   0.855  0.00  0.00     0.053 C 
ATOM      9  C   UNL d   1      -0.585  -3.090   1.599  0.00  0.00     0.018 C 
ENDBRANCH   1   8
TORSDOF 1
ENDMDL
