MODEL 1
REMARK minimizedAffinity -2.83042812
REMARK minimizedRMSD -1
REMARK  1 active torsions:
REMARK  status: ('A' for Active; 'I' for Inactive)
REMARK    1  A    between atoms: C1_2  and  C2_3 
ROOT
ATOM      1  C2  UNL d   1       1.347   1.152   0.196  0.00  0.00    -0.073 A 
ATOM      2  C3  UNL d   1       0.249   0.287   0.137  0.00  0.00    -0.002 A 
ATOM      3  C4  UNL d   1       0.405  -1.071   0.420  0.00  0.00     0.004 A 
ATOM      4  C5  UNL d   1       1.657  -1.576   0.770  0.00  0.00    -0.004 A 
ATOM      5  C6  UNL d   1       2.765  -0.725   0.845  0.00  0.00    -0.075 A 
ATOM      6  C7  UNL d   1       4.119  -1.253   1.217  0.00  0.00     0.076 C 
ATOM      7  C8  UNL d   1       2.600   0.637   0.557  0.00  0.00     0.001 A 
ENDROOT
BRANCH   1   8
ATOM      8  C1  UNL d   1       1.182   2.620  -0.102  0.00  0.00     0.053 C 
ATOM      9  C   UNL d   1      -0.075   3.192   0.533  0.00  0.00     0.018 C 
ENDBRANCH   1   8
TORSDOF 1
ENDMDL
