MODEL 1
REMARK minimizedAffinity -4.31498671
REMARK minimizedRMSD -1
REMARK  1 active torsions:
REMARK  status: ('A' for Active; 'I' for Inactive)
REMARK    1  A    between atoms: C1_2  and  C2_3 
ROOT
ATOM      1  C2  UNL d   1       0.197   0.049  -0.558  0.00  0.00    -0.073 A 
ATOM      2  C3  UNL d   1       0.652  -1.270  -0.453  0.00  0.00    -0.002 A 
ATOM      3  C4  UNL d   1       1.696  -1.589   0.416  0.00  0.00     0.004 A 
ATOM      4  C5  UNL d   1       2.290  -0.594   1.193  0.00  0.00    -0.004 A 
ATOM      5  C6  UNL d   1       1.842   0.728   1.111  0.00  0.00    -0.075 A 
ATOM      6  C7  UNL d   1       2.473   1.809   1.938  0.00  0.00     0.076 C 
ATOM      7  C8  UNL d   1       0.795   1.040   0.233  0.00  0.00     0.001 A 
ENDROOT
BRANCH   1   8
ATOM      8  C1  UNL d   1      -0.934   0.397  -1.491  0.00  0.00     0.053 C 
ATOM      9  C   UNL d   1      -2.287   0.004  -0.918  0.00  0.00     0.018 C 
ENDBRANCH   1   8
TORSDOF 1
ENDMDL
