MODEL 1
REMARK minimizedAffinity -5.03956127
REMARK minimizedRMSD -1
REMARK  1 active torsions:
REMARK  status: ('A' for Active; 'I' for Inactive)
REMARK    1  A    between atoms: C1_2  and  C2_3 
ROOT
ATOM      1  C2  UNL d   1      -0.216  -0.041  -0.682  0.00  0.00    -0.073 A 
ATOM      2  C3  UNL d   1      -0.259   1.323  -0.370  0.00  0.00    -0.002 A 
ATOM      3  C4  UNL d   1       0.817   1.933   0.277  0.00  0.00     0.004 A 
ATOM      4  C5  UNL d   1       1.948   1.189   0.611  0.00  0.00    -0.004 A 
ATOM      5  C6  UNL d   1       2.016  -0.172   0.296  0.00  0.00    -0.075 A 
ATOM      6  C7  UNL d   1       3.225  -0.987   0.651  0.00  0.00     0.076 C 
ATOM      7  C8  UNL d   1       0.930  -0.778  -0.350  0.00  0.00     0.001 A 
ENDROOT
BRANCH   1   8
ATOM      8  C1  UNL d   1      -1.372  -0.702  -1.386  0.00  0.00     0.053 C 
ATOM      9  C   UNL d   1      -2.154   0.280  -2.244  0.00  0.00     0.018 C 
ENDBRANCH   1   8
TORSDOF 1
ENDMDL
