MODEL 1
REMARK minimizedAffinity 6.81244373
REMARK minimizedRMSD -1
REMARK  1 active torsions:
REMARK  status: ('A' for Active; 'I' for Inactive)
REMARK    1  A    between atoms: C1_2  and  C2_3 
ROOT
ATOM      1  C2  UNL d   1       0.219  -1.578   0.391  0.00  0.00    -0.081 A 
ATOM      2  C3  UNL d   1      -0.960  -2.040  -0.207  0.00  0.00     0.006 A 
ATOM      3  C4  UNL d   1      -2.181  -1.415   0.059  0.00  0.00     0.002 A 
ATOM      4  C5  UNL d   1      -2.242  -0.314   0.920  0.00  0.00    -0.080 A 
ATOM      5  C6  UNL d   1      -3.541   0.384   1.191  0.00  0.00     0.076 C 
ATOM      6  C7  UNL d   1      -1.067   0.136   1.531  0.00  0.00     0.002 A 
ATOM      7  C8  UNL d   1       0.154  -0.489   1.266  0.00  0.00     0.006 A 
ENDROOT
BRANCH   1   8
ATOM      8  C1  UNL d   1       1.546  -2.209   0.056  0.00  0.00     0.054 C 
ATOM      9  C   UNL d   1       2.525  -1.181  -0.493  0.00  0.00     0.018 C 
ENDBRANCH   1   8
TORSDOF 1
ENDMDL
