MODEL 1
REMARK minimizedAffinity 9.89036942
REMARK minimizedRMSD -1
REMARK  1 active torsions:
REMARK  status: ('A' for Active; 'I' for Inactive)
REMARK    1  A    between atoms: C1_2  and  C2_3 
ROOT
ATOM      1  C2  UNL d   1       2.978  -0.190   0.361  0.00  0.00    -0.081 A 
ATOM      2  C3  UNL d   1       4.281  -0.702   0.413  0.00  0.00     0.006 A 
ATOM      3  C4  UNL d   1       4.511  -2.069   0.244  0.00  0.00     0.002 A 
ATOM      4  C5  UNL d   1       3.446  -2.946   0.014  0.00  0.00    -0.080 A 
ATOM      5  C6  UNL d   1       3.683  -4.412  -0.199  0.00  0.00     0.076 C 
ATOM      6  C7  UNL d   1       2.143  -2.437  -0.020  0.00  0.00     0.002 A 
ATOM      7  C8  UNL d   1       1.911  -1.071   0.149  0.00  0.00     0.006 A 
ENDROOT
BRANCH   1   8
ATOM      8  C1  UNL d   1       2.732   1.292   0.478  0.00  0.00     0.054 C 
ATOM      9  C   UNL d   1       4.035   2.076   0.414  0.00  0.00     0.018 C 
ENDBRANCH   1   8
TORSDOF 1
ENDMDL
