MODEL 1
REMARK minimizedAffinity -0.770214915
REMARK minimizedRMSD -1
REMARK  1 active torsions:
REMARK  status: ('A' for Active; 'I' for Inactive)
REMARK    1  A    between atoms: C1_2  and  C2_3 
ROOT
ATOM      1  C2  UNL d   1      -1.351  -0.338   0.089  0.00  0.00    -0.081 A 
ATOM      2  C3  UNL d   1      -1.688   0.298  -1.112  0.00  0.00     0.006 A 
ATOM      3  C4  UNL d   1      -1.050   1.482  -1.490  0.00  0.00     0.002 A 
ATOM      4  C5  UNL d   1      -0.060   2.045  -0.678  0.00  0.00    -0.080 A 
ATOM      5  C6  UNL d   1       0.655   3.299  -1.087  0.00  0.00     0.076 C 
ATOM      6  C7  UNL d   1       0.265   1.419   0.531  0.00  0.00     0.002 A 
ATOM      7  C8  UNL d   1      -0.373   0.236   0.910  0.00  0.00     0.006 A 
ENDROOT
BRANCH   1   8
ATOM      8  C1  UNL d   1      -1.991  -1.649   0.469  0.00  0.00     0.054 C 
ATOM      9  C   UNL d   1      -0.990  -2.793   0.403  0.00  0.00     0.018 C 
ENDBRANCH   1   8
TORSDOF 1
ENDMDL
