MODEL 1
REMARK minimizedAffinity 12.9816008
REMARK minimizedRMSD -1
REMARK  1 active torsions:
REMARK  status: ('A' for Active; 'I' for Inactive)
REMARK    1  A    between atoms: C1_2  and  C2_3 
ROOT
ATOM      1  C2  UNL d   1      -0.398  -1.619   1.031  0.00  0.00    -0.081 A 
ATOM      2  C3  UNL d   1      -1.297  -2.102   0.073  0.00  0.00     0.006 A 
ATOM      3  C4  UNL d   1      -2.378  -1.320  -0.343  0.00  0.00     0.002 A 
ATOM      4  C5  UNL d   1      -2.573  -0.040   0.187  0.00  0.00    -0.080 A 
ATOM      5  C6  UNL d   1      -3.712   0.821  -0.272  0.00  0.00     0.076 C 
ATOM      6  C7  UNL d   1      -1.685   0.436   1.158  0.00  0.00     0.002 A 
ATOM      7  C8  UNL d   1      -0.605  -0.346   1.574  0.00  0.00     0.006 A 
ENDROOT
BRANCH   1   8
ATOM      8  C1  UNL d   1       0.804  -2.434   1.433  0.00  0.00     0.054 C 
ATOM      9  C   UNL d   1       1.112  -2.272   2.915  0.00  0.00     0.018 C 
ENDBRANCH   1   8
TORSDOF 1
ENDMDL
