MODEL 1
REMARK minimizedAffinity 0.36424759
REMARK minimizedRMSD -1
REMARK  1 active torsions:
REMARK  status: ('A' for Active; 'I' for Inactive)
REMARK    1  A    between atoms: C1_2  and  C2_3 
ROOT
ATOM      1  C2  UNL d   1      -4.922  -2.389  -5.148  0.00  0.00    -0.081 A 
ATOM      2  C3  UNL d   1      -3.850  -1.492  -5.222  0.00  0.00     0.006 A 
ATOM      3  C4  UNL d   1      -3.851  -0.322  -4.459  0.00  0.00     0.002 A 
ATOM      4  C5  UNL d   1      -4.920  -0.033  -3.605  0.00  0.00    -0.080 A 
ATOM      5  C6  UNL d   1      -4.920   1.204  -2.758  0.00  0.00     0.076 C 
ATOM      6  C7  UNL d   1      -6.000  -0.921  -3.544  0.00  0.00     0.002 A 
ATOM      7  C8  UNL d   1      -5.999  -2.091  -4.307  0.00  0.00     0.006 A 
ENDROOT
BRANCH   1   8
ATOM      8  C1  UNL d   1      -4.894  -3.684  -5.921  0.00  0.00     0.054 C 
ATOM      9  C   UNL d   1      -5.226  -4.869  -5.026  0.00  0.00     0.018 C 
ENDBRANCH   1   8
TORSDOF 1
ENDMDL
