MODEL 1
REMARK minimizedAffinity 8.26738453
REMARK minimizedRMSD -1
REMARK  1 active torsions:
REMARK  status: ('A' for Active; 'I' for Inactive)
REMARK    1  A    between atoms: C1_2  and  C2_3 
ROOT
ATOM      1  C2  UNL d   1      -4.789  -1.781  -4.497  0.00  0.00    -0.081 A 
ATOM      2  C3  UNL d   1      -5.997  -1.171  -4.137  0.00  0.00     0.006 A 
ATOM      3  C4  UNL d   1      -5.999   0.023  -3.414  0.00  0.00     0.002 A 
ATOM      4  C5  UNL d   1      -4.795   0.632  -3.045  0.00  0.00    -0.080 A 
ATOM      5  C6  UNL d   1      -4.783   1.931  -2.294  0.00  0.00     0.076 C 
ATOM      6  C7  UNL d   1      -3.588   0.014  -3.389  0.00  0.00     0.002 A 
ATOM      7  C8  UNL d   1      -3.585  -1.181  -4.112  0.00  0.00     0.006 A 
ENDROOT
BRANCH   1   8
ATOM      8  C1  UNL d   1      -4.782  -3.035  -5.333  0.00  0.00     0.054 C 
ATOM      9  C   UNL d   1      -5.998  -3.902  -5.039  0.00  0.00     0.018 C 
ENDBRANCH   1   8
TORSDOF 1
ENDMDL
