MODEL 1
REMARK minimizedAffinity 2.92960167
REMARK minimizedRMSD -1
REMARK  1 active torsions:
REMARK  status: ('A' for Active; 'I' for Inactive)
REMARK    1  A    between atoms: C1_2  and  C2_3 
ROOT
ATOM      1  C2  UNL d   1      -2.899   0.584   2.803  0.00  0.00    -0.081 A 
ATOM      2  C3  UNL d   1      -2.999   0.569   1.406  0.00  0.00     0.006 A 
ATOM      3  C4  UNL d   1      -1.959   0.057   0.627  0.00  0.00     0.002 A 
ATOM      4  C5  UNL d   1      -0.806  -0.456   1.231  0.00  0.00    -0.080 A 
ATOM      5  C6  UNL d   1       0.305  -1.036   0.407  0.00  0.00     0.076 C 
ATOM      6  C7  UNL d   1      -0.698  -0.425   2.625  0.00  0.00     0.002 A 
ATOM      7  C8  UNL d   1      -1.737   0.087   3.405  0.00  0.00     0.006 A 
ENDROOT
BRANCH   1   8
ATOM      8  C1  UNL d   1      -4.046   1.076   3.648  0.00  0.00     0.054 C 
ATOM      9  C   UNL d   1      -5.338   0.350   3.304  0.00  0.00     0.018 C 
ENDBRANCH   1   8
TORSDOF 1
ENDMDL
