MODEL 1
REMARK minimizedAffinity 2.55917907
REMARK minimizedRMSD -1
REMARK  1 active torsions:
REMARK  status: ('A' for Active; 'I' for Inactive)
REMARK    1  A    between atoms: C1_2  and  C2_3 
ROOT
ATOM      1  C2  UNL d   1       0.054  -1.558   0.896  0.00  0.00    -0.081 A 
ATOM      2  C3  UNL d   1      -1.061  -2.074   0.224  0.00  0.00     0.006 A 
ATOM      3  C4  UNL d   1      -2.284  -1.400   0.258  0.00  0.00     0.002 A 
ATOM      4  C5  UNL d   1      -2.410  -0.194   0.956  0.00  0.00    -0.080 A 
ATOM      5  C6  UNL d   1      -3.709   0.555   0.975  0.00  0.00     0.076 C 
ATOM      6  C7  UNL d   1      -1.301   0.313   1.642  0.00  0.00     0.002 A 
ATOM      7  C8  UNL d   1      -0.079  -0.361   1.609  0.00  0.00     0.006 A 
ENDROOT
BRANCH   1   8
ATOM      8  C1  UNL d   1       1.390  -2.249   0.808  0.00  0.00     0.054 C 
ATOM      9  C   UNL d   1       2.406  -1.397   0.061  0.00  0.00     0.018 C 
ENDBRANCH   1   8
TORSDOF 1
ENDMDL
