MODEL 1
REMARK minimizedAffinity 4.35272074
REMARK minimizedRMSD -1
REMARK  1 active torsions:
REMARK  status: ('A' for Active; 'I' for Inactive)
REMARK    1  A    between atoms: C1_2  and  C2_3 
ROOT
ATOM      1  C2  UNL d   1       3.342   1.447  -1.901  0.00  0.00    -0.081 A 
ATOM      2  C3  UNL d   1       4.241   2.454  -1.527  0.00  0.00     0.006 A 
ATOM      3  C4  UNL d   1       4.593   2.626  -0.186  0.00  0.00     0.002 A 
ATOM      4  C5  UNL d   1       4.058   1.790   0.801  0.00  0.00    -0.080 A 
ATOM      5  C6  UNL d   1       4.451   1.945   2.240  0.00  0.00     0.076 C 
ATOM      6  C7  UNL d   1       3.147   0.796   0.429  0.00  0.00     0.002 A 
ATOM      7  C8  UNL d   1       2.794   0.624  -0.911  0.00  0.00     0.006 A 
ENDROOT
BRANCH   1   8
ATOM      8  C1  UNL d   1       3.010   1.218  -3.354  0.00  0.00     0.054 C 
ATOM      9  C   UNL d   1       1.896   0.192  -3.512  0.00  0.00     0.018 C 
ENDBRANCH   1   8
TORSDOF 1
ENDMDL
