MODEL 1
REMARK minimizedAffinity 5.92639589
REMARK minimizedRMSD -1
REMARK  1 active torsions:
REMARK  status: ('A' for Active; 'I' for Inactive)
REMARK    1  A    between atoms: C1_2  and  C2_3 
ROOT
ATOM      1  C2  UNL d   1      -3.507   0.150   2.597  0.00  0.00    -0.081 A 
ATOM      2  C3  UNL d   1      -2.341  -0.015   3.354  0.00  0.00     0.006 A 
ATOM      3  C4  UNL d   1      -1.125  -0.298   2.728  0.00  0.00     0.002 A 
ATOM      4  C5  UNL d   1      -1.053  -0.413   1.335  0.00  0.00    -0.080 A 
ATOM      5  C6  UNL d   1       0.252  -0.687   0.648  0.00  0.00     0.076 C 
ATOM      6  C7  UNL d   1      -2.222  -0.266   0.580  0.00  0.00     0.002 A 
ATOM      7  C8  UNL d   1      -3.438   0.017   1.206  0.00  0.00     0.006 A 
ENDROOT
BRANCH   1   8
ATOM      8  C1  UNL d   1      -4.807   0.520   3.264  0.00  0.00     0.054 C 
ATOM      9  C   UNL d   1      -5.986   0.332   2.320  0.00  0.00     0.018 C 
ENDBRANCH   1   8
TORSDOF 1
ENDMDL
