MODEL 1
REMARK minimizedAffinity 12.5791159
REMARK minimizedRMSD -1
REMARK  1 active torsions:
REMARK  status: ('A' for Active; 'I' for Inactive)
REMARK    1  A    between atoms: C1_2  and  C2_3 
ROOT
ATOM      1  C2  UNL d   1      -0.186  -1.508   1.810  0.00  0.00    -0.081 A 
ATOM      2  C3  UNL d   1      -0.859  -0.382   2.297  0.00  0.00     0.006 A 
ATOM      3  C4  UNL d   1      -2.188  -0.140   1.938  0.00  0.00     0.002 A 
ATOM      4  C5  UNL d   1      -2.866  -1.024   1.093  0.00  0.00    -0.080 A 
ATOM      5  C6  UNL d   1      -4.302  -0.793   0.724  0.00  0.00     0.076 C 
ATOM      6  C7  UNL d   1      -2.188  -2.141   0.592  0.00  0.00     0.002 A 
ATOM      7  C8  UNL d   1      -0.860  -2.382   0.950  0.00  0.00     0.006 A 
ENDROOT
BRANCH   1   8
ATOM      8  C1  UNL d   1       1.226  -1.806   2.246  0.00  0.00     0.054 C 
ATOM      9  C   UNL d   1       1.274  -2.236   3.706  0.00  0.00     0.018 C 
ENDBRANCH   1   8
TORSDOF 1
ENDMDL
