MODEL 1
REMARK minimizedAffinity 3.46136689
REMARK minimizedRMSD -1
REMARK  1 active torsions:
REMARK  status: ('A' for Active; 'I' for Inactive)
REMARK    1  A    between atoms: C1_2  and  C2_3 
ROOT
ATOM      1  C2  UNL d   1      -1.024   0.531  -0.163  0.00  0.00    -0.081 A 
ATOM      2  C3  UNL d   1       0.136   0.023  -0.759  0.00  0.00     0.006 A 
ATOM      3  C4  UNL d   1       0.861  -0.999  -0.141  0.00  0.00     0.002 A 
ATOM      4  C5  UNL d   1       0.433  -1.534   1.079  0.00  0.00    -0.080 A 
ATOM      5  C6  UNL d   1       1.185  -2.652   1.739  0.00  0.00     0.076 C 
ATOM      6  C7  UNL d   1      -0.717  -1.015   1.683  0.00  0.00     0.002 A 
ATOM      7  C8  UNL d   1      -1.441   0.007   1.065  0.00  0.00     0.006 A 
ENDROOT
BRANCH   1   8
ATOM      8  C1  UNL d   1      -1.844   1.588  -0.859  0.00  0.00     0.054 C 
ATOM      9  C   UNL d   1      -2.736   0.979  -1.932  0.00  0.00     0.018 C 
ENDBRANCH   1   8
TORSDOF 1
ENDMDL
