MODEL 1
REMARK minimizedAffinity 13.0926027
REMARK minimizedRMSD -1
REMARK  1 active torsions:
REMARK  status: ('A' for Active; 'I' for Inactive)
REMARK    1  A    between atoms: C1_2  and  C2_3 
ROOT
ATOM      1  C2  UNL d   1       4.609   2.743  -2.489  0.00  0.00    -0.081 A 
ATOM      2  C3  UNL d   1       3.890   2.871  -3.684  0.00  0.00     0.006 A 
ATOM      3  C4  UNL d   1       3.205   1.777  -4.219  0.00  0.00     0.002 A 
ATOM      4  C5  UNL d   1       3.221   0.541  -3.565  0.00  0.00    -0.080 A 
ATOM      5  C6  UNL d   1       2.466  -0.633  -4.113  0.00  0.00     0.076 C 
ATOM      6  C7  UNL d   1       3.954   0.408  -2.381  0.00  0.00     0.002 A 
ATOM      7  C8  UNL d   1       4.639   1.501  -1.846  0.00  0.00     0.006 A 
ENDROOT
BRANCH   1   8
ATOM      8  C1  UNL d   1       5.294   3.937  -1.876  0.00  0.00     0.054 C 
ATOM      9  C   UNL d   1       4.631   4.344  -0.568  0.00  0.00     0.018 C 
ENDBRANCH   1   8
TORSDOF 1
ENDMDL
