MODEL 1
REMARK minimizedAffinity 10.954298
REMARK minimizedRMSD -1
REMARK  1 active torsions:
REMARK  status: ('A' for Active; 'I' for Inactive)
REMARK    1  A    between atoms: C1_2  and  C2_3 
ROOT
ATOM      1  C2  UNL d   1       0.042  -1.602   1.811  0.00  0.00    -0.081 A 
ATOM      2  C3  UNL d   1      -0.758  -2.488   1.079  0.00  0.00     0.006 A 
ATOM      3  C4  UNL d   1      -1.990  -2.073   0.568  0.00  0.00     0.002 A 
ATOM      4  C5  UNL d   1      -2.438  -0.764   0.773  0.00  0.00    -0.080 A 
ATOM      5  C6  UNL d   1      -3.745  -0.296   0.204  0.00  0.00     0.076 C 
ATOM      6  C7  UNL d   1      -1.647   0.116   1.519  0.00  0.00     0.002 A 
ATOM      7  C8  UNL d   1      -0.416  -0.299   2.031  0.00  0.00     0.006 A 
ENDROOT
BRANCH   1   8
ATOM      8  C1  UNL d   1       1.400  -2.028   2.309  0.00  0.00     0.054 C 
ATOM      9  C   UNL d   1       1.440  -2.082   3.829  0.00  0.00     0.018 C 
ENDBRANCH   1   8
TORSDOF 1
ENDMDL
