MODEL 1
REMARK minimizedAffinity -0.115555406
REMARK minimizedRMSD -1
REMARK  0 active torsions:
REMARK  status: ('A' for Active; 'I' for Inactive)
ROOT
ATOM      1  C   UNL d   1      -0.562   0.251  -1.507  0.00  0.00     0.172 C 
ATOM      2  N   UNL d   1      -1.307  -0.967  -1.288  0.00  0.00    -0.070 N 
ATOM      3  C1  UNL d   1      -2.322  -1.435  -2.078  0.00  0.00    -0.004 A 
ATOM      4  C2  UNL d   1      -2.769  -2.620  -1.534  0.00  0.00    -0.047 A 
ATOM      5  C3  UNL d   1      -1.996  -2.872  -0.376  0.00  0.00    -0.047 A 
ATOM      6  C4  UNL d   1      -1.098  -1.833  -0.247  0.00  0.00    -0.004 A 
ENDROOT
TORSDOF 0
ENDMDL
