MODEL 1
REMARK minimizedAffinity -2.87489057
REMARK minimizedRMSD -1
REMARK  0 active torsions:
REMARK  status: ('A' for Active; 'I' for Inactive)
ROOT
ATOM      1  C   UNL d   1       0.375  -0.411  -1.140  0.00  0.00     0.172 C 
ATOM      2  N   UNL d   1       0.917  -0.316  -2.475  0.00  0.00    -0.070 N 
ATOM      3  C1  UNL d   1       2.230  -0.495  -2.819  0.00  0.00    -0.004 A 
ATOM      4  C2  UNL d   1       2.338  -0.321  -4.182  0.00  0.00    -0.047 A 
ATOM      5  C3  UNL d   1       1.044  -0.027  -4.674  0.00  0.00    -0.047 A 
ATOM      6  C4  UNL d   1       0.184  -0.030  -3.597  0.00  0.00    -0.004 A 
ENDROOT
TORSDOF 0
ENDMDL
