MODEL 1
REMARK minimizedAffinity -2.98440647
REMARK minimizedRMSD -1
REMARK  0 active torsions:
REMARK  status: ('A' for Active; 'I' for Inactive)
ROOT
ATOM      1  C   UNL d   1      -4.568   3.639   2.487  0.00  0.00     0.172 C 
ATOM      2  N   UNL d   1      -4.952   4.344   1.287  0.00  0.00    -0.070 N 
ATOM      3  C1  UNL d   1      -5.245   3.766   0.080  0.00  0.00    -0.004 A 
ATOM      4  C2  UNL d   1      -5.564   4.773  -0.804  0.00  0.00    -0.047 A 
ATOM      5  C3  UNL d   1      -5.458   5.999  -0.105  0.00  0.00    -0.047 A 
ATOM      6  C4  UNL d   1      -5.078   5.704   1.187  0.00  0.00    -0.004 A 
ENDROOT
TORSDOF 0
ENDMDL
