MODEL 1
REMARK minimizedAffinity -3.71807837
REMARK minimizedRMSD -1
REMARK  0 active torsions:
REMARK  status: ('A' for Active; 'I' for Inactive)
ROOT
ATOM      1  C   UNL d   1      -2.609  -3.737  -3.648  0.00  0.00     0.172 C 
ATOM      2  N   UNL d   1      -2.235  -2.955  -2.493  0.00  0.00    -0.070 N 
ATOM      3  C1  UNL d   1      -1.575  -3.426  -1.390  0.00  0.00    -0.004 A 
ATOM      4  C2  UNL d   1      -1.407  -2.373  -0.517  0.00  0.00    -0.047 A 
ATOM      5  C3  UNL d   1      -1.986  -1.229  -1.117  0.00  0.00    -0.047 A 
ATOM      6  C4  UNL d   1      -2.491  -1.618  -2.339  0.00  0.00    -0.004 A 
ENDROOT
TORSDOF 0
ENDMDL
