MODEL 1
REMARK minimizedAffinity -2.87677646
REMARK minimizedRMSD -1
REMARK  0 active torsions:
REMARK  status: ('A' for Active; 'I' for Inactive)
ROOT
ATOM      1  C   UNL d   1      -1.582  -0.782   0.086  0.00  0.00     0.172 C 
ATOM      2  N   UNL d   1      -1.961  -1.809  -0.856  0.00  0.00    -0.070 N 
ATOM      3  C1  UNL d   1      -2.671  -1.611  -2.010  0.00  0.00    -0.004 A 
ATOM      4  C2  UNL d   1      -2.826  -2.834  -2.625  0.00  0.00    -0.047 A 
ATOM      5  C3  UNL d   1      -2.188  -3.801  -1.812  0.00  0.00    -0.047 A 
ATOM      6  C4  UNL d   1      -1.661  -3.139  -0.724  0.00  0.00    -0.004 A 
ENDROOT
TORSDOF 0
ENDMDL
