MODEL 1
REMARK minimizedAffinity -0.856150806
REMARK minimizedRMSD -1
REMARK  0 active torsions:
REMARK  status: ('A' for Active; 'I' for Inactive)
ROOT
ATOM      1  C   UNL d   1      -5.230   5.941   0.323  0.00  0.00     0.172 C 
ATOM      2  N   UNL d   1      -5.053   5.708   1.737  0.00  0.00    -0.070 N 
ATOM      3  C1  UNL d   1      -3.925   5.995   2.458  0.00  0.00    -0.004 A 
ATOM      4  C2  UNL d   1      -4.155   5.627   3.766  0.00  0.00    -0.047 A 
ATOM      5  C3  UNL d   1      -5.467   5.100   3.833  0.00  0.00    -0.047 A 
ATOM      6  C4  UNL d   1      -6.000   5.163   2.563  0.00  0.00    -0.004 A 
ENDROOT
TORSDOF 0
ENDMDL
