MODEL 1
REMARK minimizedAffinity 1.72188222
REMARK minimizedRMSD -1
REMARK  0 active torsions:
REMARK  status: ('A' for Active; 'I' for Inactive)
ROOT
ATOM      1  C   UNL d   1      -4.732  -3.597  -1.001  0.00  0.00     0.172 C 
ATOM      2  N   UNL d   1      -3.713  -3.079  -1.883  0.00  0.00    -0.070 N 
ATOM      3  C1  UNL d   1      -3.529  -3.442  -3.191  0.00  0.00    -0.004 A 
ATOM      4  C2  UNL d   1      -2.459  -2.725  -3.681  0.00  0.00    -0.047 A 
ATOM      5  C3  UNL d   1      -1.983  -1.904  -2.632  0.00  0.00    -0.047 A 
ATOM      6  C4  UNL d   1      -2.777  -2.143  -1.530  0.00  0.00    -0.004 A 
ENDROOT
TORSDOF 0
ENDMDL
