MODEL 1
REMARK minimizedAffinity -0.52618742
REMARK minimizedRMSD -1
REMARK  0 active torsions:
REMARK  status: ('A' for Active; 'I' for Inactive)
ROOT
ATOM      1  C   UNL d   1       2.745   3.220   2.473  0.00  0.00     0.172 C 
ATOM      2  N   UNL d   1       3.237   3.621   1.176  0.00  0.00    -0.070 N 
ATOM      3  C1  UNL d   1       4.319   4.428   0.948  0.00  0.00    -0.004 A 
ATOM      4  C2  UNL d   1       4.460   4.569  -0.416  0.00  0.00    -0.047 A 
ATOM      5  C3  UNL d   1       3.426   3.822  -1.028  0.00  0.00    -0.047 A 
ATOM      6  C4  UNL d   1       2.684   3.245  -0.019  0.00  0.00    -0.004 A 
ENDROOT
TORSDOF 0
ENDMDL
