MODEL 1
REMARK minimizedAffinity 0.759618282
REMARK minimizedRMSD -1
REMARK  0 active torsions:
REMARK  status: ('A' for Active; 'I' for Inactive)
ROOT
ATOM      1  C   UNL d   1      -2.340   0.293   2.342  0.00  0.00     0.172 C 
ATOM      2  N   UNL d   1      -2.841  -0.054   3.651  0.00  0.00    -0.070 N 
ATOM      3  C1  UNL d   1      -3.251   0.833   4.610  0.00  0.00    -0.004 A 
ATOM      4  C2  UNL d   1      -3.656   0.108   5.710  0.00  0.00    -0.047 A 
ATOM      5  C3  UNL d   1      -3.482  -1.262   5.402  0.00  0.00    -0.047 A 
ATOM      6  C4  UNL d   1      -2.976  -1.334   4.121  0.00  0.00    -0.004 A 
ENDROOT
TORSDOF 0
ENDMDL
