MODEL 1
REMARK minimizedAffinity -2.64543915
REMARK minimizedRMSD -1
REMARK  0 active torsions:
REMARK  status: ('A' for Active; 'I' for Inactive)
ROOT
ATOM      1  C   UNL d   1      -3.369   1.217   6.000  0.00  0.00     0.172 C 
ATOM      2  N   UNL d   1      -3.710  -0.149   5.676  0.00  0.00    -0.070 N 
ATOM      3  C1  UNL d   1      -4.883  -0.777   5.999  0.00  0.00    -0.004 A 
ATOM      4  C2  UNL d   1      -4.819  -2.066   5.514  0.00  0.00    -0.047 A 
ATOM      5  C3  UNL d   1      -3.563  -2.217   4.879  0.00  0.00    -0.047 A 
ATOM      6  C4  UNL d   1      -2.897  -1.015   4.994  0.00  0.00    -0.004 A 
ENDROOT
TORSDOF 0
ENDMDL
