MODEL 1
REMARK minimizedAffinity -1.71955526
REMARK minimizedRMSD -1
REMARK  0 active torsions:
REMARK  status: ('A' for Active; 'I' for Inactive)
ROOT
ATOM      1  C   UNL d   1      -2.756   4.500   4.872  0.00  0.00     0.172 C 
ATOM      2  N   UNL d   1      -3.752   4.956   3.931  0.00  0.00    -0.070 N 
ATOM      3  C1  UNL d   1      -4.780   5.816   4.211  0.00  0.00    -0.004 A 
ATOM      4  C2  UNL d   1      -5.503   6.000   3.052  0.00  0.00    -0.047 A 
ATOM      5  C3  UNL d   1      -4.888   5.223   2.041  0.00  0.00    -0.047 A 
ATOM      6  C4  UNL d   1      -3.807   4.588   2.613  0.00  0.00    -0.004 A 
ENDROOT
TORSDOF 0
ENDMDL
