MODEL 1
REMARK minimizedAffinity -3.08729911
REMARK minimizedRMSD -1
REMARK  0 active torsions:
REMARK  status: ('A' for Active; 'I' for Inactive)
ROOT
ATOM      1  C   UNL d   1      -5.094   4.571   4.704  0.00  0.00     0.172 C 
ATOM      2  N   UNL d   1      -4.716   3.301   4.128  0.00  0.00    -0.070 N 
ATOM      3  C1  UNL d   1      -4.723   2.096   4.778  0.00  0.00    -0.004 A 
ATOM      4  C2  UNL d   1      -4.298   1.134   3.888  0.00  0.00    -0.047 A 
ATOM      5  C3  UNL d   1      -4.026   1.783   2.660  0.00  0.00    -0.047 A 
ATOM      6  C4  UNL d   1      -4.293   3.125   2.837  0.00  0.00    -0.004 A 
ENDROOT
TORSDOF 0
ENDMDL
