MODEL 1
REMARK minimizedAffinity 0.390588045
REMARK minimizedRMSD -1
REMARK  0 active torsions:
REMARK  status: ('A' for Active; 'I' for Inactive)
ROOT
ATOM      1  C   UNL d   1      -2.476   0.510   2.464  0.00  0.00     0.172 C 
ATOM      2  N   UNL d   1      -2.021   0.052   1.173  0.00  0.00    -0.070 N 
ATOM      3  C1  UNL d   1      -1.408   0.825   0.223  0.00  0.00    -0.004 A 
ATOM      4  C2  UNL d   1      -1.131   0.020  -0.861  0.00  0.00    -0.047 A 
ATOM      5  C3  UNL d   1      -1.595  -1.281  -0.553  0.00  0.00    -0.047 A 
ATOM      6  C4  UNL d   1      -2.142  -1.232   0.713  0.00  0.00    -0.004 A 
ENDROOT
TORSDOF 0
ENDMDL
