MODEL 1
REMARK minimizedAffinity -0.863491952
REMARK minimizedRMSD -1
REMARK  0 active torsions:
REMARK  status: ('A' for Active; 'I' for Inactive)
ROOT
ATOM      1  C   UNL d   1      -5.271   5.622   0.202  0.00  0.00     0.172 C 
ATOM      2  N   UNL d   1      -5.078   5.583   1.633  0.00  0.00    -0.070 N 
ATOM      3  C1  UNL d   1      -3.957   5.128   2.275  0.00  0.00    -0.004 A 
ATOM      4  C2  UNL d   1      -4.166   5.258   3.631  0.00  0.00    -0.047 A 
ATOM      5  C3  UNL d   1      -5.458   5.808   3.810  0.00  0.00    -0.047 A 
ATOM      6  C4  UNL d   1      -6.000   5.999   2.557  0.00  0.00    -0.004 A 
ENDROOT
TORSDOF 0
ENDMDL
