MODEL 1
REMARK minimizedAffinity -1.45498049
REMARK minimizedRMSD -1
REMARK  0 active torsions:
REMARK  status: ('A' for Active; 'I' for Inactive)
ROOT
ATOM      1  C   UNL d   1      -4.871   5.987  -0.006  0.00  0.00     0.172 C 
ATOM      2  N   UNL d   1      -4.964   5.641   1.393  0.00  0.00    -0.070 N 
ATOM      3  C1  UNL d   1      -4.044   4.911   2.097  0.00  0.00    -0.004 A 
ATOM      4  C2  UNL d   1      -4.496   4.801   3.394  0.00  0.00    -0.047 A 
ATOM      5  C3  UNL d   1      -5.732   5.487   3.472  0.00  0.00    -0.047 A 
ATOM      6  C4  UNL d   1      -5.997   5.997   2.218  0.00  0.00    -0.004 A 
ENDROOT
TORSDOF 0
ENDMDL
