MODEL 1
REMARK minimizedAffinity -0.0319165699
REMARK minimizedRMSD -1
REMARK  0 active torsions:
REMARK  status: ('A' for Active; 'I' for Inactive)
ROOT
ATOM      1  C   UNL d   1       3.181   3.491   2.807  0.00  0.00     0.172 C 
ATOM      2  N   UNL d   1       2.447   2.545   3.614  0.00  0.00    -0.070 N 
ATOM      3  C1  UNL d   1       2.999   1.576   4.409  0.00  0.00    -0.004 A 
ATOM      4  C2  UNL d   1       1.969   0.886   5.011  0.00  0.00    -0.047 A 
ATOM      5  C3  UNL d   1       0.756   1.459   4.562  0.00  0.00    -0.047 A 
ATOM      6  C4  UNL d   1       1.081   2.484   3.698  0.00  0.00    -0.004 A 
ENDROOT
TORSDOF 0
ENDMDL
