MODEL 1
REMARK minimizedAffinity -0.71221894
REMARK minimizedRMSD -1
REMARK  0 active torsions:
REMARK  status: ('A' for Active; 'I' for Inactive)
ROOT
ATOM      1  C   UNL d   1      -4.123   3.378   3.908  0.00  0.00     0.172 C 
ATOM      2  N   UNL d   1      -4.662   4.405   3.048  0.00  0.00    -0.070 N 
ATOM      3  C1  UNL d   1      -4.111   4.828   1.868  0.00  0.00    -0.004 A 
ATOM      4  C2  UNL d   1      -4.923   5.816   1.353  0.00  0.00    -0.047 A 
ATOM      5  C3  UNL d   1      -5.998   5.993   2.255  0.00  0.00    -0.047 A 
ATOM      6  C4  UNL d   1      -5.812   5.107   3.295  0.00  0.00    -0.004 A 
ENDROOT
TORSDOF 0
ENDMDL
