MODEL 1
REMARK minimizedAffinity -0.603764713
REMARK minimizedRMSD -1
REMARK  0 active torsions:
REMARK  status: ('A' for Active; 'I' for Inactive)
ROOT
ATOM      1  C   UNL d   1      -5.294   5.891   4.889  0.00  0.00     0.172 C 
ATOM      2  N   UNL d   1      -5.042   5.930   3.467  0.00  0.00    -0.070 N 
ATOM      3  C1  UNL d   1      -5.998   5.947   2.487  0.00  0.00    -0.004 A 
ATOM      4  C2  UNL d   1      -5.353   5.984   1.270  0.00  0.00    -0.047 A 
ATOM      5  C3  UNL d   1      -3.961   5.989   1.527  0.00  0.00    -0.047 A 
ATOM      6  C4  UNL d   1      -3.797   5.955   2.896  0.00  0.00    -0.004 A 
ENDROOT
TORSDOF 0
ENDMDL
