MODEL 1
REMARK minimizedAffinity 6.87238741
REMARK minimizedRMSD -1
REMARK  0 active torsions:
REMARK  status: ('A' for Active; 'I' for Inactive)
ROOT
ATOM      1  C1  DEN d   1       0.378  -1.844   3.295  0.00  0.00     0.130 A 
ATOM      2  C2  DEN d   1       1.540  -1.106   3.781  0.00  0.00    -0.031 A 
ATOM      3  C3  DEN d   1       1.199   0.331   3.789  0.00  0.00     0.027 A 
ATOM      4  C4  DEN d   1      -1.007   1.478   3.102  0.00  0.00     0.027 A 
ATOM      5  C5  DEN d   1      -2.278   1.267   2.613  0.00  0.00    -0.003 A 
ATOM      6  C6  DEN d   1      -2.736   0.018   2.287  0.00  0.00     0.001 A 
ATOM      7  C7  DEN d   1      -1.934  -1.074   2.490  0.00  0.00     0.017 A 
ATOM      8  C8  DEN d   1      -0.649  -0.868   2.975  0.00  0.00    -0.094 A 
ATOM      9  C9  DEN d   1      -0.209   0.401   3.310  0.00  0.00    -0.072 A 
ENDROOT
TORSDOF 0
ENDMDL
