MODEL 1
REMARK minimizedAffinity 12.4356251
REMARK minimizedRMSD -1
REMARK  0 active torsions:
REMARK  status: ('A' for Active; 'I' for Inactive)
ROOT
ATOM      1  C1  DEN d   1       0.207  -3.793   3.968  0.00  0.00     0.130 A 
ATOM      2  C2  DEN d   1       1.559  -3.265   4.125  0.00  0.00    -0.031 A 
ATOM      3  C3  DEN d   1       1.614  -1.947   3.460  0.00  0.00     0.027 A 
ATOM      4  C4  DEN d   1      -0.256  -0.678   2.216  0.00  0.00     0.027 A 
ATOM      5  C5  DEN d   1      -1.572  -0.731   1.813  0.00  0.00    -0.003 A 
ATOM      6  C6  DEN d   1      -2.371  -1.814   2.068  0.00  0.00     0.001 A 
ATOM      7  C7  DEN d   1      -1.874  -2.871   2.785  0.00  0.00     0.017 A 
ATOM      8  C8  DEN d   1      -0.546  -2.828   3.189  0.00  0.00    -0.094 A 
ATOM      9  C9  DEN d   1       0.242  -1.719   2.932  0.00  0.00    -0.072 A 
ENDROOT
TORSDOF 0
ENDMDL
