MODEL 1
REMARK minimizedAffinity 11.1649542
REMARK minimizedRMSD -1
REMARK  0 active torsions:
REMARK  status: ('A' for Active; 'I' for Inactive)
ROOT
ATOM      1  C1  DEN d   1      -0.492   2.025   4.169  0.00  0.00     0.130 A 
ATOM      2  C2  DEN d   1       0.171   2.208   5.457  0.00  0.00    -0.031 A 
ATOM      3  C3  DEN d   1       1.205   1.162   5.592  0.00  0.00     0.027 A 
ATOM      4  C4  DEN d   1       1.843  -0.711   3.938  0.00  0.00     0.027 A 
ATOM      5  C5  DEN d   1       1.553  -1.277   2.717  0.00  0.00    -0.003 A 
ATOM      6  C6  DEN d   1       0.546  -0.807   1.915  0.00  0.00     0.001 A 
ATOM      7  C7  DEN d   1      -0.177   0.289   2.306  0.00  0.00     0.017 A 
ATOM      8  C8  DEN d   1       0.105   0.860   3.540  0.00  0.00    -0.094 A 
ATOM      9  C9  DEN d   1       1.135   0.378   4.330  0.00  0.00    -0.072 A 
ENDROOT
TORSDOF 0
ENDMDL
