MODEL 1
REMARK minimizedAffinity 7.38586235
REMARK minimizedRMSD -1
REMARK  0 active torsions:
REMARK  status: ('A' for Active; 'I' for Inactive)
ROOT
ATOM      1  C1  DEN d   1      -0.848  -0.270   1.947  0.00  0.00     0.130 A 
ATOM      2  C2  DEN d   1      -0.128  -1.539   2.013  0.00  0.00    -0.031 A 
ATOM      3  C3  DEN d   1       0.792  -1.482   3.167  0.00  0.00     0.027 A 
ATOM      4  C4  DEN d   1       1.165   0.434   4.852  0.00  0.00     0.027 A 
ATOM      5  C5  DEN d   1       0.793   1.715   5.197  0.00  0.00    -0.003 A 
ATOM      6  C6  DEN d   1      -0.121   2.430   4.468  0.00  0.00     0.001 A 
ATOM      7  C7  DEN d   1      -0.726   1.853   3.384  0.00  0.00     0.017 A 
ATOM      8  C8  DEN d   1      -0.350   0.565   3.026  0.00  0.00    -0.094 A 
ATOM      9  C9  DEN d   1       0.566  -0.146   3.782  0.00  0.00    -0.072 A 
ENDROOT
TORSDOF 0
ENDMDL
