MODEL 1
REMARK minimizedAffinity 13.5774899
REMARK minimizedRMSD -1
REMARK  0 active torsions:
REMARK  status: ('A' for Active; 'I' for Inactive)
ROOT
ATOM      1  C1  DEN d   1       0.299  -2.280  -5.575  0.00  0.00     0.130 A 
ATOM      2  C2  DEN d   1       1.696  -2.703  -5.627  0.00  0.00    -0.031 A 
ATOM      3  C3  DEN d   1       1.723  -4.169  -5.799  0.00  0.00     0.027 A 
ATOM      4  C4  DEN d   1      -0.251  -5.817  -5.992  0.00  0.00     0.027 A 
ATOM      5  C5  DEN d   1      -1.624  -5.929  -5.992  0.00  0.00    -0.003 A 
ATOM      6  C6  DEN d   1      -2.445  -4.846  -5.820  0.00  0.00     0.001 A 
ATOM      7  C7  DEN d   1      -1.901  -3.596  -5.686  0.00  0.00     0.017 A 
ATOM      8  C8  DEN d   1      -0.517  -3.476  -5.678  0.00  0.00    -0.094 A 
ATOM      9  C9  DEN d   1       0.295  -4.581  -5.866  0.00  0.00    -0.072 A 
ENDROOT
TORSDOF 0
ENDMDL
