MODEL 1
REMARK minimizedAffinity 15.6132545
REMARK minimizedRMSD -1
REMARK  0 active torsions:
REMARK  status: ('A' for Active; 'I' for Inactive)
ROOT
ATOM      1  C1  DEN d   1      -2.568   0.160   2.304  0.00  0.00     0.130 A 
ATOM      2  C2  DEN d   1      -3.347  -1.075   2.344  0.00  0.00    -0.031 A 
ATOM      3  C3  DEN d   1      -2.417  -2.193   2.599  0.00  0.00     0.027 A 
ATOM      4  C4  DEN d   1       0.139  -2.133   2.939  0.00  0.00     0.027 A 
ATOM      5  C5  DEN d   1       1.247  -1.316   2.980  0.00  0.00    -0.003 A 
ATOM      6  C6  DEN d   1       1.166   0.035   2.768  0.00  0.00     0.001 A 
ATOM      7  C7  DEN d   1      -0.055   0.616   2.548  0.00  0.00     0.017 A 
ATOM      8  C8  DEN d   1      -1.176  -0.203   2.497  0.00  0.00    -0.094 A 
ATOM      9  C9  DEN d   1      -1.075  -1.564   2.727  0.00  0.00    -0.072 A 
ENDROOT
TORSDOF 0
ENDMDL
