MODEL 1
REMARK minimizedAffinity 19.7522888
REMARK minimizedRMSD -1
REMARK  0 active torsions:
REMARK  status: ('A' for Active; 'I' for Inactive)
ROOT
ATOM      1  C1  DEN d   1       0.417  -0.429   4.043  0.00  0.00     0.130 A 
ATOM      2  C2  DEN d   1      -0.124  -0.733   2.721  0.00  0.00    -0.031 A 
ATOM      3  C3  DEN d   1      -0.961   0.407   2.298  0.00  0.00     0.027 A 
ATOM      4  C4  DEN d   1      -1.467   2.603   3.553  0.00  0.00     0.027 A 
ATOM      5  C5  DEN d   1      -1.242   3.310   4.713  0.00  0.00    -0.003 A 
ATOM      6  C6  DEN d   1      -0.483   2.810   5.737  0.00  0.00     0.001 A 
ATOM      7  C7  DEN d   1       0.117   1.586   5.602  0.00  0.00     0.017 A 
ATOM      8  C8  DEN d   1      -0.111   0.864   4.438  0.00  0.00    -0.094 A 
ATOM      9  C9  DEN d   1      -0.872   1.392   3.409  0.00  0.00    -0.072 A 
ENDROOT
TORSDOF 0
ENDMDL
