MODEL 1
REMARK minimizedAffinity 12.9931183
REMARK minimizedRMSD -1
REMARK  0 active torsions:
REMARK  status: ('A' for Active; 'I' for Inactive)
ROOT
ATOM      1  C1  DEN d   1      -2.466   0.343   2.551  0.00  0.00     0.130 A 
ATOM      2  C2  DEN d   1      -3.273  -0.825   2.896  0.00  0.00    -0.031 A 
ATOM      3  C3  DEN d   1      -2.355  -1.923   3.260  0.00  0.00     0.027 A 
ATOM      4  C4  DEN d   1       0.223  -1.927   3.329  0.00  0.00     0.027 A 
ATOM      5  C5  DEN d   1       1.353  -1.170   3.109  0.00  0.00    -0.003 A 
ATOM      6  C6  DEN d   1       1.291   0.122   2.659  0.00  0.00     0.001 A 
ATOM      7  C7  DEN d   1       0.071   0.712   2.458  0.00  0.00     0.017 A 
ATOM      8  C8  DEN d   1      -1.072  -0.046   2.670  0.00  0.00    -0.094 A 
ATOM      9  C9  DEN d   1      -0.989  -1.347   3.136  0.00  0.00    -0.072 A 
ENDROOT
TORSDOF 0
ENDMDL
