MODEL 1
REMARK minimizedAffinity 14.307044
REMARK minimizedRMSD -1
REMARK  0 active torsions:
REMARK  status: ('A' for Active; 'I' for Inactive)
ROOT
ATOM      1  C1  DEN d   1       3.964   1.502  -5.328  0.00  0.00     0.130 A 
ATOM      2  C2  DEN d   1       5.019   0.748  -6.000  0.00  0.00    -0.031 A 
ATOM      3  C3  DEN d   1       4.662  -0.684  -5.945  0.00  0.00     0.027 A 
ATOM      4  C4  DEN d   1       2.587  -1.800  -4.896  0.00  0.00     0.027 A 
ATOM      5  C5  DEN d   1       1.420  -1.571  -4.202  0.00  0.00    -0.003 A 
ATOM      6  C6  DEN d   1       1.038  -0.316  -3.809  0.00  0.00     0.001 A 
ATOM      7  C7  DEN d   1       1.810   0.765  -4.146  0.00  0.00     0.017 A 
ATOM      8  C8  DEN d   1       2.992   0.541  -4.839  0.00  0.00    -0.094 A 
ATOM      9  C9  DEN d   1       3.354  -0.734  -5.238  0.00  0.00    -0.072 A 
ENDROOT
TORSDOF 0
ENDMDL
