MODEL 1
REMARK minimizedAffinity 4.02690125
REMARK minimizedRMSD -1
REMARK  1 active torsions:
REMARK  status: ('A' for Active; 'I' for Inactive)
REMARK    1  A    between atoms: C1_2  and  C2_3 
ROOT
ATOM      1  C2  UNL d   1      -3.458  -1.076   2.594  0.00  0.00    -0.081 A 
ATOM      2  C3  UNL d   1      -2.625  -1.226   1.478  0.00  0.00     0.006 A 
ATOM      3  C4  UNL d   1      -3.164  -1.233   0.189  0.00  0.00     0.002 A 
ATOM      4  C5  UNL d   1      -4.541  -1.082  -0.006  0.00  0.00    -0.080 A 
ATOM      5  C6  UNL d   1      -5.128  -1.057  -1.386  0.00  0.00     0.076 C 
ATOM      6  C7  UNL d   1      -5.374  -0.950   1.110  0.00  0.00     0.002 A 
ATOM      7  C8  UNL d   1      -4.837  -0.944   2.399  0.00  0.00     0.006 A 
ENDROOT
BRANCH   1   8
ATOM      8  C1  UNL d   1      -2.873  -1.004   3.981  0.00  0.00     0.054 C 
ATOM      9  C   UNL d   1      -1.782   0.054   4.068  0.00  0.00     0.018 C 
ENDBRANCH   1   8
TORSDOF 1
ENDMDL
