MODEL 1
REMARK minimizedAffinity 5.34367609
REMARK minimizedRMSD -1
REMARK  1 active torsions:
REMARK  status: ('A' for Active; 'I' for Inactive)
REMARK    1  A    between atoms: C1_2  and  C2_3 
ROOT
ATOM      1  C2  UNL d   1       5.029   2.366  -5.931  0.00  0.00    -0.081 A 
ATOM      2  C3  UNL d   1       5.493   3.680  -5.792  0.00  0.00     0.006 A 
ATOM      3  C4  UNL d   1       4.591   4.740  -5.672  0.00  0.00     0.002 A 
ATOM      4  C5  UNL d   1       3.212   4.503  -5.681  0.00  0.00    -0.080 A 
ATOM      5  C6  UNL d   1       2.233   5.629  -5.523  0.00  0.00     0.076 C 
ATOM      6  C7  UNL d   1       2.749   3.192  -5.837  0.00  0.00     0.002 A 
ATOM      7  C8  UNL d   1       3.650   2.132  -5.957  0.00  0.00     0.006 A 
ENDROOT
BRANCH   1   8
ATOM      8  C1  UNL d   1       5.999   1.214  -5.995  0.00  0.00     0.054 C 
ATOM      9  C   UNL d   1       6.000   0.418  -4.698  0.00  0.00     0.018 C 
ENDBRANCH   1   8
TORSDOF 1
ENDMDL
