MODEL 1
REMARK minimizedAffinity 5.53836107
REMARK minimizedRMSD -1
REMARK  1 active torsions:
REMARK  status: ('A' for Active; 'I' for Inactive)
REMARK    1  A    between atoms: C1_2  and  C2_3 
ROOT
ATOM      1  C2  UNL d   1      -0.683   2.012  -1.154  0.00  0.00    -0.081 A 
ATOM      2  C3  UNL d   1      -2.035   1.655  -1.100  0.00  0.00     0.006 A 
ATOM      3  C4  UNL d   1      -2.983   2.543  -0.586  0.00  0.00     0.002 A 
ATOM      4  C5  UNL d   1      -2.595   3.806  -0.124  0.00  0.00    -0.080 A 
ATOM      5  C6  UNL d   1      -3.606   4.781   0.402  0.00  0.00     0.076 C 
ATOM      6  C7  UNL d   1      -1.241   4.156  -0.162  0.00  0.00     0.002 A 
ATOM      7  C8  UNL d   1      -0.293   3.268  -0.675  0.00  0.00     0.006 A 
ENDROOT
BRANCH   1   8
ATOM      8  C1  UNL d   1       0.332   1.082  -1.767  0.00  0.00     0.054 C 
ATOM      9  C   UNL d   1       0.496   1.346  -3.257  0.00  0.00     0.018 C 
ENDBRANCH   1   8
TORSDOF 1
ENDMDL
