MODEL 1
REMARK minimizedAffinity 12.2930679
REMARK minimizedRMSD -1
REMARK  1 active torsions:
REMARK  status: ('A' for Active; 'I' for Inactive)
REMARK    1  A    between atoms: C1_2  and  C2_3 
ROOT
ATOM      1  C2  UNL d   1       5.154   1.330   3.618  0.00  0.00    -0.081 A 
ATOM      2  C3  UNL d   1       5.008   2.723   3.656  0.00  0.00     0.006 A 
ATOM      3  C4  UNL d   1       4.176   3.373   2.742  0.00  0.00     0.002 A 
ATOM      4  C5  UNL d   1       3.471   2.642   1.780  0.00  0.00    -0.080 A 
ATOM      5  C6  UNL d   1       2.551   3.325   0.812  0.00  0.00     0.076 C 
ATOM      6  C7  UNL d   1       3.630   1.253   1.730  0.00  0.00     0.002 A 
ATOM      7  C8  UNL d   1       4.462   0.603   2.644  0.00  0.00     0.006 A 
ENDROOT
BRANCH   1   8
ATOM      8  C1  UNL d   1       6.000   0.620   4.643  0.00  0.00     0.054 C 
ATOM      9  C   UNL d   1       6.000   1.363   5.972  0.00  0.00     0.018 C 
ENDBRANCH   1   8
TORSDOF 1
ENDMDL
