MODEL 1
REMARK minimizedAffinity 6.58307409
REMARK minimizedRMSD -1
REMARK  1 active torsions:
REMARK  status: ('A' for Active; 'I' for Inactive)
REMARK    1  A    between atoms: C1_2  and  C2_3 
ROOT
ATOM      1  C2  UNL d   1       4.086   4.433  -4.796  0.00  0.00    -0.081 A 
ATOM      2  C3  UNL d   1       3.413   3.492  -5.586  0.00  0.00     0.006 A 
ATOM      3  C4  UNL d   1       4.027   2.285  -5.928  0.00  0.00     0.002 A 
ATOM      4  C5  UNL d   1       5.320   1.994  -5.479  0.00  0.00    -0.080 A 
ATOM      5  C6  UNL d   1       5.979   0.689  -5.813  0.00  0.00     0.076 C 
ATOM      6  C7  UNL d   1       5.999   2.941  -4.704  0.00  0.00     0.002 A 
ATOM      7  C8  UNL d   1       5.386   4.148  -4.363  0.00  0.00     0.006 A 
ENDROOT
BRANCH   1   8
ATOM      8  C1  UNL d   1       3.403   5.707  -4.373  0.00  0.00     0.054 C 
ATOM      9  C   UNL d   1       3.520   5.926  -2.871  0.00  0.00     0.018 C 
ENDBRANCH   1   8
TORSDOF 1
ENDMDL
