MODEL 1
REMARK minimizedAffinity -0.866321921
REMARK minimizedRMSD -1
REMARK  1 active torsions:
REMARK  status: ('A' for Active; 'I' for Inactive)
REMARK    1  A    between atoms: C1_2  and  C2_3 
ROOT
ATOM      1  C2  UNL d   1       2.398   0.674  -3.659  0.00  0.00    -0.081 A 
ATOM      2  C3  UNL d   1       3.531   0.062  -3.108  0.00  0.00     0.006 A 
ATOM      3  C4  UNL d   1       4.694  -0.089  -3.866  0.00  0.00     0.002 A 
ATOM      4  C5  UNL d   1       4.747   0.376  -5.184  0.00  0.00    -0.080 A 
ATOM      5  C6  UNL d   1       6.000   0.248  -5.999  0.00  0.00     0.076 C 
ATOM      6  C7  UNL d   1       3.610   0.972  -5.741  0.00  0.00     0.002 A 
ATOM      7  C8  UNL d   1       2.447   1.122  -4.983  0.00  0.00     0.006 A 
ENDROOT
BRANCH   1   8
ATOM      8  C1  UNL d   1       1.164   0.896  -2.823  0.00  0.00     0.054 C 
ATOM      9  C   UNL d   1       0.955   2.374  -2.527  0.00  0.00     0.018 C 
ENDBRANCH   1   8
TORSDOF 1
ENDMDL
