MODEL 1
REMARK minimizedAffinity 5.18756771
REMARK minimizedRMSD -1
REMARK  1 active torsions:
REMARK  status: ('A' for Active; 'I' for Inactive)
REMARK    1  A    between atoms: C1_2  and  C2_3 
ROOT
ATOM      1  C2  UNL d   1       0.192   0.341  -2.146  0.00  0.00    -0.081 A 
ATOM      2  C3  UNL d   1       0.126  -1.034  -1.892  0.00  0.00     0.006 A 
ATOM      3  C4  UNL d   1      -0.762  -1.536  -0.938  0.00  0.00     0.002 A 
ATOM      4  C5  UNL d   1      -1.603  -0.672  -0.228  0.00  0.00    -0.080 A 
ATOM      5  C6  UNL d   1      -2.583  -1.201   0.778  0.00  0.00     0.076 C 
ATOM      6  C7  UNL d   1      -1.525   0.703  -0.469  0.00  0.00     0.002 A 
ATOM      7  C8  UNL d   1      -0.637   1.206  -1.423  0.00  0.00     0.006 A 
ENDROOT
BRANCH   1   8
ATOM      8  C1  UNL d   1       1.103   0.879  -3.221  0.00  0.00     0.054 C 
ATOM      9  C   UNL d   1       0.884   2.370  -3.437  0.00  0.00     0.018 C 
ENDBRANCH   1   8
TORSDOF 1
ENDMDL
