MODEL 1
REMARK minimizedAffinity 10.4230938
REMARK minimizedRMSD -1
REMARK  1 active torsions:
REMARK  status: ('A' for Active; 'I' for Inactive)
REMARK    1  A    between atoms: C1_2  and  C2_3 
ROOT
ATOM      1  C2  UNL d   1       3.694   4.197  -5.434  0.00  0.00    -0.081 A 
ATOM      2  C3  UNL d   1       3.055   2.952  -5.490  0.00  0.00     0.006 A 
ATOM      3  C4  UNL d   1       3.796   1.784  -5.685  0.00  0.00     0.002 A 
ATOM      4  C5  UNL d   1       5.187   1.840  -5.820  0.00  0.00    -0.080 A 
ATOM      5  C6  UNL d   1       5.997   0.591  -6.000  0.00  0.00     0.076 C 
ATOM      6  C7  UNL d   1       5.824   3.085  -5.782  0.00  0.00     0.002 A 
ATOM      7  C8  UNL d   1       5.084   4.254  -5.588  0.00  0.00     0.006 A 
ENDROOT
BRANCH   1   8
ATOM      8  C1  UNL d   1       2.906   5.452  -5.159  0.00  0.00     0.054 C 
ATOM      9  C   UNL d   1       3.172   5.976  -3.755  0.00  0.00     0.018 C 
ENDBRANCH   1   8
TORSDOF 1
ENDMDL
