MODEL 1
REMARK minimizedAffinity 3.96127534
REMARK minimizedRMSD -1
REMARK  1 active torsions:
REMARK  status: ('A' for Active; 'I' for Inactive)
REMARK    1  A    between atoms: C1_2  and  C2_3 
ROOT
ATOM      1  C2  UNL d   1       5.468   1.716   3.789  0.00  0.00    -0.081 A 
ATOM      2  C3  UNL d   1       5.815   2.298   5.015  0.00  0.00     0.006 A 
ATOM      3  C4  UNL d   1       6.000   3.679   5.116  0.00  0.00     0.002 A 
ATOM      4  C5  UNL d   1       5.833   4.501   3.996  0.00  0.00    -0.080 A 
ATOM      5  C6  UNL d   1       5.999   5.988   4.097  0.00  0.00     0.076 C 
ATOM      6  C7  UNL d   1       5.504   3.917   2.768  0.00  0.00     0.002 A 
ATOM      7  C8  UNL d   1       5.320   2.537   2.666  0.00  0.00     0.006 A 
ENDROOT
BRANCH   1   8
ATOM      8  C1  UNL d   1       5.205   0.235   3.692  0.00  0.00     0.054 C 
ATOM      9  C   UNL d   1       6.000  -0.539   4.735  0.00  0.00     0.018 C 
ENDBRANCH   1   8
TORSDOF 1
ENDMDL
