MODEL 1
REMARK minimizedAffinity 4.81951571
REMARK minimizedRMSD -1
REMARK  1 active torsions:
REMARK  status: ('A' for Active; 'I' for Inactive)
REMARK    1  A    between atoms: C1_2  and  C2_3 
ROOT
ATOM      1  C2  UNL d   1       3.670   3.635  -5.232  0.00  0.00    -0.081 A 
ATOM      2  C3  UNL d   1       3.075   2.493  -5.782  0.00  0.00     0.006 A 
ATOM      3  C4  UNL d   1       3.829   1.337  -6.000  0.00  0.00     0.002 A 
ATOM      4  C5  UNL d   1       5.187   1.301  -5.664  0.00  0.00    -0.080 A 
ATOM      5  C6  UNL d   1       6.000   0.057  -5.865  0.00  0.00     0.076 C 
ATOM      6  C7  UNL d   1       5.785   2.447  -5.131  0.00  0.00     0.002 A 
ATOM      7  C8  UNL d   1       5.032   3.604  -4.914  0.00  0.00     0.006 A 
ENDROOT
BRANCH   1   8
ATOM      8  C1  UNL d   1       2.846   4.861  -4.936  0.00  0.00     0.054 C 
ATOM      9  C   UNL d   1       1.520   4.831  -5.684  0.00  0.00     0.018 C 
ENDBRANCH   1   8
TORSDOF 1
ENDMDL
