MODEL 1
REMARK minimizedAffinity 10.9378834
REMARK minimizedRMSD -1
REMARK  0 active torsions:
REMARK  status: ('A' for Active; 'I' for Inactive)
ROOT
ATOM      1  C   UNL d   1      -5.800   4.901  -1.861  0.00  0.00     0.023 A 
ATOM      2  C1  UNL d   1      -4.958   5.998  -2.046  0.00  0.00     0.003 A 
ATOM      3  C2  UNL d   1      -3.678   6.000  -1.486  0.00  0.00     0.048 A 
ATOM      4  C3  UNL d   1      -3.247   4.901  -0.744  0.00  0.00     0.023 A 
ATOM      5  C4  UNL d   1      -4.086   3.801  -0.556  0.00  0.00     0.048 A 
ATOM      6  C5  UNL d   1      -5.364   3.805  -1.117  0.00  0.00     0.003 A 
ATOM      7  I   UNL d   1      -1.343   4.902   0.090  0.00  0.00    -0.146 I 
ENDROOT
TORSDOF 0
ENDMDL
