MODEL 1
REMARK minimizedAffinity 12.6484041
REMARK minimizedRMSD -1
REMARK  0 active torsions:
REMARK  status: ('A' for Active; 'I' for Inactive)
ROOT
ATOM      1  C   UNL d   1       5.218   3.414   5.796  0.00  0.00     0.023 A 
ATOM      2  C1  UNL d   1       4.888   2.073   5.596  0.00  0.00     0.003 A 
ATOM      3  C2  UNL d   1       5.112   1.476   4.353  0.00  0.00     0.048 A 
ATOM      4  C3  UNL d   1       5.665   2.225   3.316  0.00  0.00     0.023 A 
ATOM      5  C4  UNL d   1       5.997   3.566   3.511  0.00  0.00     0.048 A 
ATOM      6  C5  UNL d   1       5.772   4.160   4.755  0.00  0.00     0.003 A 
ATOM      7  I   UNL d   1       5.999   1.338   1.466  0.00  0.00    -0.146 I 
ENDROOT
TORSDOF 0
ENDMDL
