MODEL 1
REMARK minimizedAffinity 1.16241372
REMARK minimizedRMSD -1
REMARK  0 active torsions:
REMARK  status: ('A' for Active; 'I' for Inactive)
ROOT
ATOM      1  C   UNL d   1       4.029   5.005   0.128  0.00  0.00     0.023 A 
ATOM      2  C1  UNL d   1       3.743   3.757   0.682  0.00  0.00     0.003 A 
ATOM      3  C2  UNL d   1       4.307   3.388   1.905  0.00  0.00     0.048 A 
ATOM      4  C3  UNL d   1       5.155   4.273   2.570  0.00  0.00     0.023 A 
ATOM      5  C4  UNL d   1       5.443   5.523   2.020  0.00  0.00     0.048 A 
ATOM      6  C5  UNL d   1       4.878   5.887   0.797  0.00  0.00     0.003 A 
ATOM      7  I   UNL d   1       5.996   3.727   4.390  0.00  0.00    -0.146 I 
ENDROOT
TORSDOF 0
ENDMDL
