MODEL 1
REMARK minimizedAffinity 10.2058134
REMARK minimizedRMSD -1
REMARK  0 active torsions:
REMARK  status: ('A' for Active; 'I' for Inactive)
ROOT
ATOM      1  C   UNL d   1      -3.363   0.856   2.084  0.00  0.00     0.023 A 
ATOM      2  C1  UNL d   1      -2.335   1.780   2.266  0.00  0.00     0.003 A 
ATOM      3  C2  UNL d   1      -1.091   1.359   2.741  0.00  0.00     0.048 A 
ATOM      4  C3  UNL d   1      -0.882   0.011   3.031  0.00  0.00     0.023 A 
ATOM      5  C4  UNL d   1      -1.909  -0.918   2.849  0.00  0.00     0.048 A 
ATOM      6  C5  UNL d   1      -3.150  -0.492   2.375  0.00  0.00     0.003 A 
ATOM      7  I   UNL d   1       0.968  -0.619   3.738  0.00  0.00    -0.146 I 
ENDROOT
TORSDOF 0
ENDMDL
