MODEL 1
REMARK minimizedAffinity 19.4437103
REMARK minimizedRMSD -1
REMARK  0 active torsions:
REMARK  status: ('A' for Active; 'I' for Inactive)
ROOT
ATOM      1  C   UNL d   1       0.124  -0.681  -3.550  0.00  0.00     0.023 A 
ATOM      2  C1  UNL d   1       0.403  -0.930  -4.894  0.00  0.00     0.003 A 
ATOM      3  C2  UNL d   1      -0.264  -1.954  -5.568  0.00  0.00     0.048 A 
ATOM      4  C3  UNL d   1      -1.209  -2.726  -4.893  0.00  0.00     0.023 A 
ATOM      5  C4  UNL d   1      -1.492  -2.480  -3.548  0.00  0.00     0.048 A 
ATOM      6  C5  UNL d   1      -0.822  -1.454  -2.878  0.00  0.00     0.003 A 
ATOM      7  I   UNL d   1      -2.204  -4.251  -5.894  0.00  0.00    -0.146 I 
ENDROOT
TORSDOF 0
ENDMDL
