MODEL 1
REMARK minimizedAffinity 4.48840666
REMARK minimizedRMSD -1
REMARK  0 active torsions:
REMARK  status: ('A' for Active; 'I' for Inactive)
ROOT
ATOM      1  C   UNL d   1       2.972  -1.390   6.000  0.00  0.00     0.023 A 
ATOM      2  C1  UNL d   1       1.984  -2.277   5.571  0.00  0.00     0.003 A 
ATOM      3  C2  UNL d   1       1.065  -1.883   4.597  0.00  0.00     0.048 A 
ATOM      4  C3  UNL d   1       1.139  -0.600   4.055  0.00  0.00     0.023 A 
ATOM      5  C4  UNL d   1       2.126   0.291   4.481  0.00  0.00     0.048 A 
ATOM      6  C5  UNL d   1       3.043  -0.108   5.456  0.00  0.00     0.003 A 
ATOM      7  I   UNL d   1      -0.228  -0.011   2.605  0.00  0.00    -0.146 I 
ENDROOT
TORSDOF 0
ENDMDL
