MODEL 1
REMARK minimizedAffinity 9.29419231
REMARK minimizedRMSD -1
REMARK  0 active torsions:
REMARK  status: ('A' for Active; 'I' for Inactive)
ROOT
ATOM      1  C   UNL d   1      -0.111  -0.211   2.731  0.00  0.00     0.023 A 
ATOM      2  C1  UNL d   1       1.118   0.362   3.059  0.00  0.00     0.003 A 
ATOM      3  C2  UNL d   1       2.076  -0.384   3.749  0.00  0.00     0.048 A 
ATOM      4  C3  UNL d   1       1.799  -1.703   4.106  0.00  0.00     0.023 A 
ATOM      5  C4  UNL d   1       0.571  -2.281   3.779  0.00  0.00     0.048 A 
ATOM      6  C5  UNL d   1      -0.384  -1.531   3.091  0.00  0.00     0.003 A 
ATOM      7  I   UNL d   1       3.223  -2.816   5.132  0.00  0.00    -0.146 I 
ENDROOT
TORSDOF 0
ENDMDL
