MODEL 1
REMARK minimizedAffinity 13.8519192
REMARK minimizedRMSD -1
REMARK  0 active torsions:
REMARK  status: ('A' for Active; 'I' for Inactive)
ROOT
ATOM      1  C   UNL d   1       1.421  -1.138   1.979  0.00  0.00     0.023 A 
ATOM      2  C1  UNL d   1       2.207  -1.441   3.091  0.00  0.00     0.003 A 
ATOM      3  C2  UNL d   1       2.116  -0.661   4.245  0.00  0.00     0.048 A 
ATOM      4  C3  UNL d   1       1.236   0.420   4.281  0.00  0.00     0.023 A 
ATOM      5  C4  UNL d   1       0.447   0.727   3.171  0.00  0.00     0.048 A 
ATOM      6  C5  UNL d   1       0.542  -0.056   2.019  0.00  0.00     0.003 A 
ATOM      7  I   UNL d   1       1.098   1.583   5.998  0.00  0.00    -0.146 I 
ENDROOT
TORSDOF 0
ENDMDL
