MODEL 1
REMARK minimizedAffinity 16.3645039
REMARK minimizedRMSD -1
REMARK  0 active torsions:
REMARK  status: ('A' for Active; 'I' for Inactive)
ROOT
ATOM      1  C   UNL d   1      -2.564  -2.212   1.643  0.00  0.00     0.023 A 
ATOM      2  C1  UNL d   1      -1.577  -1.288   1.300  0.00  0.00     0.003 A 
ATOM      3  C2  UNL d   1      -0.306  -1.376   1.872  0.00  0.00     0.048 A 
ATOM      4  C3  UNL d   1      -0.029  -2.392   2.786  0.00  0.00     0.023 A 
ATOM      5  C4  UNL d   1      -1.013  -3.319   3.132  0.00  0.00     0.048 A 
ATOM      6  C5  UNL d   1      -2.282  -3.226   2.558  0.00  0.00     0.003 A 
ATOM      7  I   UNL d   1       1.861  -2.526   3.639  0.00  0.00    -0.146 I 
ENDROOT
TORSDOF 0
ENDMDL
