MODEL 1
REMARK minimizedAffinity 13.6101532
REMARK minimizedRMSD -1
REMARK  0 active torsions:
REMARK  status: ('A' for Active; 'I' for Inactive)
ROOT
ATOM      1  C   UNL d   1       1.491  -4.512  -5.711  0.00  0.00     0.023 A 
ATOM      2  C1  UNL d   1       0.951  -5.790  -5.569  0.00  0.00     0.003 A 
ATOM      3  C2  UNL d   1      -0.430  -5.978  -5.641  0.00  0.00     0.048 A 
ATOM      4  C3  UNL d   1      -1.267  -4.882  -5.856  0.00  0.00     0.023 A 
ATOM      5  C4  UNL d   1      -0.731  -3.601  -5.999  0.00  0.00     0.048 A 
ATOM      6  C5  UNL d   1       0.651  -3.419  -5.925  0.00  0.00     0.003 A 
ATOM      7  I   UNL d   1      -3.324  -5.159  -5.964  0.00  0.00    -0.146 I 
ENDROOT
TORSDOF 0
ENDMDL
