MODEL 1
REMARK minimizedAffinity 20.9722557
REMARK minimizedRMSD -1
REMARK  0 active torsions:
REMARK  status: ('A' for Active; 'I' for Inactive)
ROOT
ATOM      1  C   UNL d   1      -3.153  -1.073   2.501  0.00  0.00     0.023 A 
ATOM      2  C1  UNL d   1      -2.060  -1.933   2.392  0.00  0.00     0.003 A 
ATOM      3  C2  UNL d   1      -0.772  -1.413   2.258  0.00  0.00     0.048 A 
ATOM      4  C3  UNL d   1      -0.583  -0.031   2.235  0.00  0.00     0.023 A 
ATOM      5  C4  UNL d   1      -1.673   0.833   2.345  0.00  0.00     0.048 A 
ATOM      6  C5  UNL d   1      -2.960   0.308   2.478  0.00  0.00     0.003 A 
ATOM      7  I   UNL d   1       1.335   0.746   2.036  0.00  0.00    -0.146 I 
ENDROOT
TORSDOF 0
ENDMDL
