MODEL 1
REMARK minimizedAffinity -3.67404938
REMARK minimizedRMSD -1
REMARK  1 active torsions:
REMARK  status: ('A' for Active; 'I' for Inactive)
REMARK    1  A    between atoms: C1_2  and  C2_3 
ROOT
ATOM      1  C2  UNL d   1      -1.213   0.752  -0.309  0.00  0.00    -0.081 A 
ATOM      2  C3  UNL d   1      -0.759  -0.571  -0.230  0.00  0.00     0.006 A 
ATOM      3  C4  UNL d   1       0.593  -0.843  -0.009  0.00  0.00     0.002 A 
ATOM      4  C5  UNL d   1       1.512   0.201   0.144  0.00  0.00    -0.080 A 
ATOM      5  C6  UNL d   1       2.961  -0.077   0.412  0.00  0.00     0.076 C 
ATOM      6  C7  UNL d   1       1.061   1.522   0.048  0.00  0.00     0.002 A 
ATOM      7  C8  UNL d   1      -0.291   1.795  -0.174  0.00  0.00     0.006 A 
ENDROOT
BRANCH   1   8
ATOM      8  C1  UNL d   1      -2.681   1.049  -0.482  0.00  0.00     0.054 C 
ATOM      9  C   UNL d   1      -3.390   1.140   0.862  0.00  0.00     0.018 C 
ENDBRANCH   1   8
TORSDOF 1
ENDMDL
