MODEL 1
REMARK minimizedAffinity -3.81857514
REMARK minimizedRMSD -1
REMARK  1 active torsions:
REMARK  status: ('A' for Active; 'I' for Inactive)
REMARK    1  A    between atoms: C1_2  and  C2_3 
ROOT
ATOM      1  C2  UNL d   1      -0.863   0.635  -0.306  0.00  0.00    -0.081 A 
ATOM      2  C3  UNL d   1       0.306   1.013   0.364  0.00  0.00     0.006 A 
ATOM      3  C4  UNL d   1       1.458   0.228   0.278  0.00  0.00     0.002 A 
ATOM      4  C5  UNL d   1       1.462  -0.944  -0.486  0.00  0.00    -0.080 A 
ATOM      5  C6  UNL d   1       2.701  -1.780  -0.612  0.00  0.00     0.076 C 
ATOM      6  C7  UNL d   1       0.289  -1.332  -1.142  0.00  0.00     0.002 A 
ATOM      7  C8  UNL d   1      -0.863  -0.547  -1.055  0.00  0.00     0.006 A 
ENDROOT
BRANCH   1   8
ATOM      8  C1  UNL d   1      -2.088   1.513  -0.267  0.00  0.00     0.054 C 
ATOM      9  C   UNL d   1      -3.351   0.692  -0.048  0.00  0.00     0.018 C 
ENDBRANCH   1   8
TORSDOF 1
ENDMDL
