MODEL 1
REMARK minimizedAffinity -5.54605198
REMARK minimizedRMSD -1
REMARK  1 active torsions:
REMARK  status: ('A' for Active; 'I' for Inactive)
REMARK    1  A    between atoms: C1_2  and  C2_3 
ROOT
ATOM      1  C2  UNL d   1      -0.585   0.019  -0.382  0.00  0.00    -0.081 A 
ATOM      2  C3  UNL d   1      -0.110  -1.284  -0.582  0.00  0.00     0.006 A 
ATOM      3  C4  UNL d   1       1.126  -1.674  -0.063  0.00  0.00     0.002 A 
ATOM      4  C5  UNL d   1       1.905  -0.772   0.670  0.00  0.00    -0.080 A 
ATOM      5  C6  UNL d   1       3.221  -1.187   1.258  0.00  0.00     0.076 C 
ATOM      6  C7  UNL d   1       1.439   0.534   0.854  0.00  0.00     0.002 A 
ATOM      7  C8  UNL d   1       0.203   0.925   0.335  0.00  0.00     0.006 A 
ENDROOT
BRANCH   1   8
ATOM      8  C1  UNL d   1      -1.947   0.423  -0.885  0.00  0.00     0.054 C 
ATOM      9  C   UNL d   1      -2.906   0.688   0.267  0.00  0.00     0.018 C 
ENDBRANCH   1   8
TORSDOF 1
ENDMDL
