MODEL 1
REMARK minimizedAffinity 4.51700544
REMARK minimizedRMSD -1
REMARK  0 active torsions:
REMARK  status: ('A' for Active; 'I' for Inactive)
ROOT
ATOM      1  C   UNL d   1       1.638   0.286   0.763  0.00  0.00     0.023 A 
ATOM      2  C1  UNL d   1       2.758   1.001   0.338  0.00  0.00     0.003 A 
ATOM      3  C2  UNL d   1       3.951   0.924   1.060  0.00  0.00     0.048 A 
ATOM      4  C3  UNL d   1       4.017   0.131   2.205  0.00  0.00     0.023 A 
ATOM      5  C4  UNL d   1       2.899  -0.586   2.633  0.00  0.00     0.048 A 
ATOM      6  C5  UNL d   1       1.708  -0.506   1.908  0.00  0.00     0.003 A 
ATOM      7  I   UNL d   1       5.792   0.015   3.280  0.00  0.00    -0.146 I 
ENDROOT
TORSDOF 0
ENDMDL
