MODEL 1
REMARK minimizedAffinity 4.97067213
REMARK minimizedRMSD -1
REMARK  0 active torsions:
REMARK  status: ('A' for Active; 'I' for Inactive)
ROOT
ATOM      1  C   UNL d   1      -0.428   4.137   4.125  0.00  0.00     0.023 A 
ATOM      2  C1  UNL d   1      -1.501   4.542   3.331  0.00  0.00     0.003 A 
ATOM      3  C2  UNL d   1      -2.790   4.588   3.868  0.00  0.00     0.048 A 
ATOM      4  C3  UNL d   1      -2.998   4.229   5.199  0.00  0.00     0.023 A 
ATOM      5  C4  UNL d   1      -1.926   3.824   5.997  0.00  0.00     0.048 A 
ATOM      6  C5  UNL d   1      -0.640   3.779   5.456  0.00  0.00     0.003 A 
ATOM      7  I   UNL d   1      -4.914   4.297   6.000  0.00  0.00    -0.146 I 
ENDROOT
TORSDOF 0
ENDMDL
