MODEL 1
REMARK minimizedAffinity 5.66749907
REMARK minimizedRMSD -1
REMARK  0 active torsions:
REMARK  status: ('A' for Active; 'I' for Inactive)
ROOT
ATOM      1  C   UNL d   1       5.293   1.344   1.122  0.00  0.00     0.023 A 
ATOM      2  C1  UNL d   1       5.611   0.284   1.972  0.00  0.00     0.003 A 
ATOM      3  C2  UNL d   1       4.599  -0.533   2.479  0.00  0.00     0.048 A 
ATOM      4  C3  UNL d   1       3.271  -0.286   2.132  0.00  0.00     0.023 A 
ATOM      5  C4  UNL d   1       2.948   0.772   1.281  0.00  0.00     0.048 A 
ATOM      6  C5  UNL d   1       3.963   1.587   0.777  0.00  0.00     0.003 A 
ATOM      7  I   UNL d   1       1.763  -1.502   2.886  0.00  0.00    -0.146 I 
ENDROOT
TORSDOF 0
ENDMDL
