MODEL 1
REMARK minimizedAffinity 9.73971653
REMARK minimizedRMSD -1
REMARK  0 active torsions:
REMARK  status: ('A' for Active; 'I' for Inactive)
ROOT
ATOM      1  C   UNL d   1       1.581  -0.334   1.466  0.00  0.00     0.023 A 
ATOM      2  C1  UNL d   1       1.950  -1.219   2.480  0.00  0.00     0.003 A 
ATOM      3  C2  UNL d   1       3.218  -1.131   3.058  0.00  0.00     0.048 A 
ATOM      4  C3  UNL d   1       4.112  -0.155   2.619  0.00  0.00     0.023 A 
ATOM      5  C4  UNL d   1       3.747   0.733   1.606  0.00  0.00     0.048 A 
ATOM      6  C5  UNL d   1       2.478   0.641   1.030  0.00  0.00     0.003 A 
ATOM      7  I   UNL d   1       5.999  -0.022   3.478  0.00  0.00    -0.146 I 
ENDROOT
TORSDOF 0
ENDMDL
