MODEL 1
REMARK minimizedAffinity 4.27214861
REMARK minimizedRMSD -1
REMARK  0 active torsions:
REMARK  status: ('A' for Active; 'I' for Inactive)
ROOT
ATOM      1  C   UNL d   1      -4.683  -4.564   4.103  0.00  0.00     0.023 A 
ATOM      2  C1  UNL d   1      -4.617  -3.433   3.289  0.00  0.00     0.003 A 
ATOM      3  C2  UNL d   1      -4.205  -2.211   3.823  0.00  0.00     0.048 A 
ATOM      4  C3  UNL d   1      -3.859  -2.126   5.171  0.00  0.00     0.023 A 
ATOM      5  C4  UNL d   1      -3.923  -3.256   5.989  0.00  0.00     0.048 A 
ATOM      6  C5  UNL d   1      -4.337  -4.476   5.451  0.00  0.00     0.003 A 
ATOM      7  I   UNL d   1      -3.245  -0.308   5.968  0.00  0.00    -0.146 I 
ENDROOT
TORSDOF 0
ENDMDL
