MODEL 1
REMARK minimizedAffinity -0.596548617
REMARK minimizedRMSD -1
REMARK  0 active torsions:
REMARK  status: ('A' for Active; 'I' for Inactive)
ROOT
ATOM      1  C   UNL d   1       1.479  -0.963   1.342  0.00  0.00     0.023 A 
ATOM      2  C1  UNL d   1       2.106  -1.679   2.361  0.00  0.00     0.003 A 
ATOM      3  C2  UNL d   1       3.403  -1.344   2.756  0.00  0.00     0.048 A 
ATOM      4  C3  UNL d   1       4.066  -0.290   2.128  0.00  0.00     0.023 A 
ATOM      5  C4  UNL d   1       3.443   0.430   1.108  0.00  0.00     0.048 A 
ATOM      6  C5  UNL d   1       2.146   0.090   0.716  0.00  0.00     0.003 A 
ATOM      7  I   UNL d   1       5.996   0.211   2.714  0.00  0.00    -0.146 I 
ENDROOT
TORSDOF 0
ENDMDL
