MODEL 1
REMARK minimizedAffinity 4.56365013
REMARK minimizedRMSD -1
REMARK  0 active torsions:
REMARK  status: ('A' for Active; 'I' for Inactive)
ROOT
ATOM      1  C   UNL d   1       3.245  -1.470   2.969  0.00  0.00     0.023 A 
ATOM      2  C1  UNL d   1       2.174  -0.816   2.359  0.00  0.00     0.003 A 
ATOM      3  C2  UNL d   1       2.407   0.267   1.509  0.00  0.00     0.048 A 
ATOM      4  C3  UNL d   1       3.715   0.690   1.273  0.00  0.00     0.023 A 
ATOM      5  C4  UNL d   1       4.789   0.039   1.880  0.00  0.00     0.048 A 
ATOM      6  C5  UNL d   1       4.551  -1.043   2.730  0.00  0.00     0.003 A 
ATOM      7  I   UNL d   1       4.065   2.302   0.008  0.00  0.00    -0.146 I 
ENDROOT
TORSDOF 0
ENDMDL
