MODEL 1
REMARK minimizedAffinity 5.36297798
REMARK minimizedRMSD -1
REMARK  0 active torsions:
REMARK  status: ('A' for Active; 'I' for Inactive)
ROOT
ATOM      1  C   UNL d   1       1.911   0.502   0.836  0.00  0.00     0.023 A 
ATOM      2  C1  UNL d   1       1.863  -0.254   2.007  0.00  0.00     0.003 A 
ATOM      3  C2  UNL d   1       3.036  -0.517   2.718  0.00  0.00     0.048 A 
ATOM      4  C3  UNL d   1       4.253  -0.020   2.253  0.00  0.00     0.023 A 
ATOM      5  C4  UNL d   1       4.305   0.738   1.081  0.00  0.00     0.048 A 
ATOM      6  C5  UNL d   1       3.130   0.997   0.374  0.00  0.00     0.003 A 
ATOM      7  I   UNL d   1       6.000  -0.410   3.309  0.00  0.00    -0.146 I 
ENDROOT
TORSDOF 0
ENDMDL
