MODEL 1
REMARK minimizedAffinity 2.52009606
REMARK minimizedRMSD -1
REMARK  0 active torsions:
REMARK  status: ('A' for Active; 'I' for Inactive)
ROOT
ATOM      1  C   UNL d   1       2.008  -0.687   0.743  0.00  0.00     0.023 A 
ATOM      2  C1  UNL d   1       2.866   0.353   0.385  0.00  0.00     0.003 A 
ATOM      3  C2  UNL d   1       4.012   0.606   1.142  0.00  0.00     0.048 A 
ATOM      4  C3  UNL d   1       4.294  -0.185   2.256  0.00  0.00     0.023 A 
ATOM      5  C4  UNL d   1       3.438  -1.227   2.617  0.00  0.00     0.048 A 
ATOM      6  C5  UNL d   1       2.293  -1.476   1.858  0.00  0.00     0.003 A 
ATOM      7  I   UNL d   1       5.999   0.190   3.384  0.00  0.00    -0.146 I 
ENDROOT
TORSDOF 0
ENDMDL
