MODEL 1
REMARK minimizedAffinity 11.9968166
REMARK minimizedRMSD -1
REMARK  0 active torsions:
REMARK  status: ('A' for Active; 'I' for Inactive)
ROOT
ATOM      1  C   UNL d   1      -5.988   1.481   1.528  0.00  0.00     0.023 A 
ATOM      2  C1  UNL d   1      -5.799   0.639   2.624  0.00  0.00     0.003 A 
ATOM      3  C2  UNL d   1      -5.618   1.180   3.899  0.00  0.00     0.048 A 
ATOM      4  C3  UNL d   1      -5.628   2.564   4.071  0.00  0.00     0.023 A 
ATOM      5  C4  UNL d   1      -5.817   3.410   2.977  0.00  0.00     0.048 A 
ATOM      6  C5  UNL d   1      -5.997   2.865   1.704  0.00  0.00     0.003 A 
ATOM      7  I   UNL d   1      -5.359   3.371   5.967  0.00  0.00    -0.146 I 
ENDROOT
TORSDOF 0
ENDMDL
