MODEL 1
REMARK minimizedAffinity 4.10480261
REMARK minimizedRMSD -1
REMARK  0 active torsions:
REMARK  status: ('A' for Active; 'I' for Inactive)
ROOT
ATOM      1  C   UNL d   1       1.403   0.128   0.908  0.00  0.00     0.023 A 
ATOM      2  C1  UNL d   1       1.551  -0.676   2.038  0.00  0.00     0.003 A 
ATOM      3  C2  UNL d   1       2.784  -0.747   2.690  0.00  0.00     0.048 A 
ATOM      4  C3  UNL d   1       3.865  -0.010   2.206  0.00  0.00     0.023 A 
ATOM      5  C4  UNL d   1       3.721   0.796   1.076  0.00  0.00     0.048 A 
ATOM      6  C5  UNL d   1       2.486   0.863   0.428  0.00  0.00     0.003 A 
ATOM      7  I   UNL d   1       5.701  -0.114   3.174  0.00  0.00    -0.146 I 
ENDROOT
TORSDOF 0
ENDMDL
