MODEL 1
REMARK minimizedAffinity 5.77913618
REMARK minimizedRMSD -1
REMARK  0 active torsions:
REMARK  status: ('A' for Active; 'I' for Inactive)
ROOT
ATOM      1  C   UNL d   1       2.476  -1.504  -3.588  0.00  0.00     0.023 A 
ATOM      2  C1  UNL d   1       3.111  -0.381  -4.117  0.00  0.00     0.003 A 
ATOM      3  C2  UNL d   1       4.122   0.256  -3.395  0.00  0.00     0.048 A 
ATOM      4  C3  UNL d   1       4.494  -0.238  -2.144  0.00  0.00     0.023 A 
ATOM      5  C4  UNL d   1       3.862  -1.362  -1.612  0.00  0.00     0.048 A 
ATOM      6  C5  UNL d   1       2.851  -1.995  -2.337  0.00  0.00     0.003 A 
ATOM      7  I   UNL d   1       6.000   0.708  -1.068  0.00  0.00    -0.146 I 
ENDROOT
TORSDOF 0
ENDMDL
