MODEL 1
REMARK minimizedAffinity 2.77539396
REMARK minimizedRMSD -1
REMARK  0 active torsions:
REMARK  status: ('A' for Active; 'I' for Inactive)
ROOT
ATOM      1  C   UNL d   1      -5.432   4.210   5.831  0.00  0.00     0.023 A 
ATOM      2  C1  UNL d   1      -5.856   4.687   4.590  0.00  0.00     0.003 A 
ATOM      3  C2  UNL d   1      -6.000   3.809   3.515  0.00  0.00     0.048 A 
ATOM      4  C3  UNL d   1      -5.720   2.454   3.686  0.00  0.00     0.023 A 
ATOM      5  C4  UNL d   1      -5.296   1.971   4.925  0.00  0.00     0.048 A 
ATOM      6  C5  UNL d   1      -5.152   2.853   5.998  0.00  0.00     0.003 A 
ATOM      7  I   UNL d   1      -5.934   1.144   2.086  0.00  0.00    -0.146 I 
ENDROOT
TORSDOF 0
ENDMDL
