MODEL 1
REMARK minimizedAffinity 1.70317519
REMARK minimizedRMSD -1
REMARK  0 active torsions:
REMARK  status: ('A' for Active; 'I' for Inactive)
ROOT
ATOM      1  C   UNL d   1      -4.841   3.623   5.546  0.00  0.00     0.023 A 
ATOM      2  C1  UNL d   1      -5.269   3.934   4.256  0.00  0.00     0.003 A 
ATOM      3  C2  UNL d   1      -5.592   2.912   3.360  0.00  0.00     0.048 A 
ATOM      4  C3  UNL d   1      -5.486   1.581   3.763  0.00  0.00     0.023 A 
ATOM      5  C4  UNL d   1      -5.059   1.265   5.054  0.00  0.00     0.048 A 
ATOM      6  C5  UNL d   1      -4.736   2.290   5.945  0.00  0.00     0.003 A 
ATOM      7  I   UNL d   1      -5.966   0.059   2.432  0.00  0.00    -0.146 I 
ENDROOT
TORSDOF 0
ENDMDL
