MODEL 1
REMARK minimizedAffinity 1.33417714
REMARK minimizedRMSD -1
REMARK  0 active torsions:
REMARK  status: ('A' for Active; 'I' for Inactive)
ROOT
ATOM      1  C   UNL d   1       0.262   5.835  -4.073  0.00  0.00     0.023 A 
ATOM      2  C1  UNL d   1       1.056   5.847  -5.220  0.00  0.00     0.003 A 
ATOM      3  C2  UNL d   1       1.765   4.703  -5.592  0.00  0.00     0.048 A 
ATOM      4  C3  UNL d   1       1.674   3.550  -4.814  0.00  0.00     0.023 A 
ATOM      5  C4  UNL d   1       0.880   3.532  -3.666  0.00  0.00     0.048 A 
ATOM      6  C5  UNL d   1       0.174   4.679  -3.297  0.00  0.00     0.003 A 
ATOM      7  I   UNL d   1       2.728   1.846  -5.366  0.00  0.00    -0.146 I 
ENDROOT
TORSDOF 0
ENDMDL
