MODEL 1
REMARK minimizedAffinity 3.26233387
REMARK minimizedRMSD -1
REMARK  0 active torsions:
REMARK  status: ('A' for Active; 'I' for Inactive)
ROOT
ATOM      1  C   UNL d   1      -3.768  -2.227   5.999  0.00  0.00     0.023 A 
ATOM      2  C1  UNL d   1      -3.703  -3.207   5.008  0.00  0.00     0.003 A 
ATOM      3  C2  UNL d   1      -3.693  -2.840   3.661  0.00  0.00     0.048 A 
ATOM      4  C3  UNL d   1      -3.745  -1.491   3.312  0.00  0.00     0.023 A 
ATOM      5  C4  UNL d   1      -3.809  -0.507   4.300  0.00  0.00     0.048 A 
ATOM      6  C5  UNL d   1      -3.820  -0.879   5.645  0.00  0.00     0.003 A 
ATOM      7  I   UNL d   1      -3.730  -0.942   1.307  0.00  0.00    -0.146 I 
ENDROOT
TORSDOF 0
ENDMDL
