MODEL 1
REMARK minimizedAffinity 5.89315319
REMARK minimizedRMSD -1
REMARK  1 active torsions:
REMARK  status: ('A' for Active; 'I' for Inactive)
REMARK    1  A    between atoms: C3_4  and  O_7 
ROOT
ATOM      1  C   UNL d   1      -0.763   0.676   1.686  0.00  0.00    -0.033 A 
ATOM      2  C1  UNL d   1      -0.798   0.726   3.081  0.00  0.00     0.039 A 
ATOM      3  C2  UNL d   1      -1.754  -0.009   3.784  0.00  0.00    -0.080 A 
ATOM      4  C3  UNL d   1      -2.668  -0.789   3.081  0.00  0.00     0.150 A 
ATOM      5  C4  UNL d   1      -2.637  -0.847   1.692  0.00  0.00    -0.007 A 
ATOM      6  C5  UNL d   1      -1.682  -0.111   0.992  0.00  0.00     0.039 A 
ENDROOT
BRANCH   4   7
ATOM      7  O   UNL d   1      -3.623  -1.520   3.723  0.00  0.00    -0.526 OA
ATOM      8  H5  UNL d   1      -3.542  -1.361   4.678  0.00  0.00     0.418 HD
ENDBRANCH   4   7
TORSDOF 1
ENDMDL
