MODEL 1
REMARK minimizedAffinity 5.56095743
REMARK minimizedRMSD -1
REMARK  1 active torsions:
REMARK  status: ('A' for Active; 'I' for Inactive)
REMARK    1  A    between atoms: C3_4  and  O_7 
ROOT
ATOM      1  C   UNL d   1       0.550   0.717   3.803  0.00  0.00    -0.033 A 
ATOM      2  C1  UNL d   1       0.104   1.896   3.203  0.00  0.00     0.039 A 
ATOM      3  C2  UNL d   1      -1.084   1.903   2.470  0.00  0.00    -0.080 A 
ATOM      4  C3  UNL d   1      -1.817   0.726   2.346  0.00  0.00     0.150 A 
ATOM      5  C4  UNL d   1      -1.381  -0.452   2.945  0.00  0.00    -0.007 A 
ATOM      6  C5  UNL d   1      -0.194  -0.456   3.676  0.00  0.00     0.039 A 
ENDROOT
BRANCH   4   7
ATOM      7  O   UNL d   1      -2.980   0.682   1.636  0.00  0.00    -0.526 OA
ATOM      8  H5  UNL d   1      -3.142   1.561   1.255  0.00  0.00     0.418 HD
ENDBRANCH   4   7
TORSDOF 1
ENDMDL
