MODEL 1
REMARK minimizedAffinity 0.739818037
REMARK minimizedRMSD -1
REMARK  1 active torsions:
REMARK  status: ('A' for Active; 'I' for Inactive)
REMARK    1  A    between atoms: C3_4  and  O_7 
ROOT
ATOM      1  C   UNL d   1       3.701  -0.121  -1.656  0.00  0.00    -0.033 A 
ATOM      2  C1  UNL d   1       4.243  -0.246  -2.937  0.00  0.00     0.039 A 
ATOM      3  C2  UNL d   1       3.492   0.123  -4.054  0.00  0.00    -0.080 A 
ATOM      4  C3  UNL d   1       2.202   0.617  -3.878  0.00  0.00     0.150 A 
ATOM      5  C4  UNL d   1       1.657   0.747  -2.605  0.00  0.00    -0.007 A 
ATOM      6  C5  UNL d   1       2.409   0.377  -1.490  0.00  0.00     0.039 A 
ENDROOT
BRANCH   4   7
ATOM      7  O   UNL d   1       1.429   0.986  -4.938  0.00  0.00    -0.526 OA
ATOM      8  H5  UNL d   1       1.925   0.813  -5.756  0.00  0.00     0.418 HD
ENDBRANCH   4   7
TORSDOF 1
ENDMDL
