MODEL 1
REMARK minimizedAffinity 3.94820404
REMARK minimizedRMSD -1
REMARK  1 active torsions:
REMARK  status: ('A' for Active; 'I' for Inactive)
REMARK    1  A    between atoms: C3_4  and  O_7 
ROOT
ATOM      1  C   UNL d   1       2.759   0.722  -2.991  0.00  0.00    -0.033 A 
ATOM      2  C1  UNL d   1       3.128   0.929  -4.321  0.00  0.00     0.039 A 
ATOM      3  C2  UNL d   1       2.218   0.668  -5.348  0.00  0.00    -0.080 A 
ATOM      4  C3  UNL d   1       0.945   0.202  -5.031  0.00  0.00     0.150 A 
ATOM      5  C4  UNL d   1       0.570  -0.003  -3.707  0.00  0.00    -0.007 A 
ATOM      6  C5  UNL d   1       1.480   0.257  -2.684  0.00  0.00     0.039 A 
ENDROOT
BRANCH   4   7
ATOM      7  O   UNL d   1       0.025  -0.071  -5.999  0.00  0.00    -0.526 OA
ATOM      8  H5  UNL d   1       0.433   0.090  -6.866  0.00  0.00     0.418 HD
ENDBRANCH   4   7
TORSDOF 1
ENDMDL
