MODEL 1
REMARK minimizedAffinity -0.583156228
REMARK minimizedRMSD -1
REMARK  1 active torsions:
REMARK  status: ('A' for Active; 'I' for Inactive)
REMARK    1  A    between atoms: C3_4  and  O_7 
ROOT
ATOM      1  C   UNL d   1       2.936   0.514  -4.137  0.00  0.00    -0.033 A 
ATOM      2  C1  UNL d   1       3.878  -0.188  -3.383  0.00  0.00     0.039 A 
ATOM      3  C2  UNL d   1       3.462  -1.023  -2.344  0.00  0.00    -0.080 A 
ATOM      4  C3  UNL d   1       2.102  -1.147  -2.070  0.00  0.00     0.150 A 
ATOM      5  C4  UNL d   1       1.158  -0.453  -2.820  0.00  0.00    -0.007 A 
ATOM      6  C5  UNL d   1       1.576   0.381  -3.856  0.00  0.00     0.039 A 
ENDROOT
BRANCH   4   7
ATOM      7  O   UNL d   1       1.648  -1.946  -1.063  0.00  0.00    -0.526 OA
ATOM      8  H5  UNL d   1       2.414  -2.340  -0.614  0.00  0.00     0.418 HD
ENDBRANCH   4   7
TORSDOF 1
ENDMDL
