MODEL 1
REMARK minimizedAffinity 5.42795944
REMARK minimizedRMSD -1
REMARK  1 active torsions:
REMARK  status: ('A' for Active; 'I' for Inactive)
REMARK    1  A    between atoms: C3_4  and  O_7 
ROOT
ATOM      1  C   UNL d   1       2.820  -0.854   1.913  0.00  0.00    -0.033 A 
ATOM      2  C1  UNL d   1       1.440  -0.687   2.042  0.00  0.00     0.039 A 
ATOM      3  C2  UNL d   1       0.574  -1.290   1.128  0.00  0.00    -0.080 A 
ATOM      4  C3  UNL d   1       1.100  -2.057   0.092  0.00  0.00     0.150 A 
ATOM      5  C4  UNL d   1       2.474  -2.230  -0.041  0.00  0.00    -0.007 A 
ATOM      6  C5  UNL d   1       3.337  -1.626   0.873  0.00  0.00     0.039 A 
ENDROOT
BRANCH   4   7
ATOM      7  O   UNL d   1       0.294  -2.660  -0.827  0.00  0.00    -0.526 OA
ATOM      8  H5  UNL d   1      -0.628  -2.430  -0.627  0.00  0.00     0.418 HD
ENDBRANCH   4   7
TORSDOF 1
ENDMDL
