MODEL 1
REMARK minimizedAffinity 2.22524738
REMARK minimizedRMSD -1
REMARK  1 active torsions:
REMARK  status: ('A' for Active; 'I' for Inactive)
REMARK    1  A    between atoms: C3_4  and  O_7 
ROOT
ATOM      1  C   UNL d   1       0.926   0.817  -4.259  0.00  0.00    -0.033 A 
ATOM      2  C1  UNL d   1       0.079  -0.217  -3.855  0.00  0.00     0.039 A 
ATOM      3  C2  UNL d   1       0.181  -0.742  -2.566  0.00  0.00    -0.080 A 
ATOM      4  C3  UNL d   1       1.131  -0.224  -1.690  0.00  0.00     0.150 A 
ATOM      5  C4  UNL d   1       1.976   0.808  -2.084  0.00  0.00    -0.007 A 
ATOM      6  C5  UNL d   1       1.874   1.331  -3.373  0.00  0.00     0.039 A 
ENDROOT
BRANCH   4   7
ATOM      7  O   UNL d   1       1.271  -0.708  -0.423  0.00  0.00    -0.526 OA
ATOM      8  H5  UNL d   1       0.641  -1.437  -0.301  0.00  0.00     0.418 HD
ENDBRANCH   4   7
TORSDOF 1
ENDMDL
