MODEL 1
REMARK minimizedAffinity 7.57320642
REMARK minimizedRMSD -1
REMARK  1 active torsions:
REMARK  status: ('A' for Active; 'I' for Inactive)
REMARK    1  A    between atoms: C3_4  and  O_7 
ROOT
ATOM      1  C   UNL d   1       3.910   1.204  -2.990  0.00  0.00    -0.033 A 
ATOM      2  C1  UNL d   1       2.849   2.080  -2.752  0.00  0.00     0.039 A 
ATOM      3  C2  UNL d   1       1.601   1.840  -3.330  0.00  0.00    -0.080 A 
ATOM      4  C3  UNL d   1       1.427   0.723  -4.141  0.00  0.00     0.150 A 
ATOM      5  C4  UNL d   1       2.478  -0.156  -4.380  0.00  0.00    -0.007 A 
ATOM      6  C5  UNL d   1       3.725   0.085  -3.803  0.00  0.00     0.039 A 
ENDROOT
BRANCH   4   7
ATOM      7  O   UNL d   1       0.228   0.450  -4.731  0.00  0.00    -0.526 OA
ATOM      8  H5  UNL d   1      -0.396   1.158  -4.500  0.00  0.00     0.418 HD
ENDBRANCH   4   7
TORSDOF 1
ENDMDL
