MODEL 1
REMARK minimizedAffinity 2.60881162
REMARK minimizedRMSD -1
REMARK  1 active torsions:
REMARK  status: ('A' for Active; 'I' for Inactive)
REMARK    1  A    between atoms: C3_4  and  O_7 
ROOT
ATOM      1  C   UNL d   1      -1.895   0.801   2.487  0.00  0.00    -0.033 A 
ATOM      2  C1  UNL d   1      -1.697  -0.214   1.548  0.00  0.00     0.039 A 
ATOM      3  C2  UNL d   1      -0.403  -0.563   1.158  0.00  0.00    -0.080 A 
ATOM      4  C3  UNL d   1       0.683   0.108   1.713  0.00  0.00     0.150 A 
ATOM      5  C4  UNL d   1       0.494   1.117   2.651  0.00  0.00    -0.007 A 
ATOM      6  C5  UNL d   1      -0.799   1.465   3.039  0.00  0.00     0.039 A 
ENDROOT
BRANCH   4   7
ATOM      7  O   UNL d   1       1.964  -0.195   1.359  0.00  0.00    -0.526 OA
ATOM      8  H5  UNL d   1       1.940  -0.891   0.681  0.00  0.00     0.418 HD
ENDBRANCH   4   7
TORSDOF 1
ENDMDL
