MODEL 1
REMARK minimizedAffinity 2.77852345
REMARK minimizedRMSD -1
REMARK  1 active torsions:
REMARK  status: ('A' for Active; 'I' for Inactive)
REMARK    1  A    between atoms: C3_4  and  O_7 
ROOT
ATOM      1  C   UNL d   1       2.183   0.899  -2.856  0.00  0.00    -0.033 A 
ATOM      2  C1  UNL d   1       1.110   0.061  -2.545  0.00  0.00     0.039 A 
ATOM      3  C2  UNL d   1       0.218  -0.334  -3.543  0.00  0.00    -0.080 A 
ATOM      4  C3  UNL d   1       0.410   0.115  -4.847  0.00  0.00     0.150 A 
ATOM      5  C4  UNL d   1       1.478   0.948  -5.165  0.00  0.00    -0.007 A 
ATOM      6  C5  UNL d   1       2.367   1.342  -4.166  0.00  0.00     0.039 A 
ENDROOT
BRANCH   4   7
ATOM      7  O   UNL d   1      -0.437  -0.239  -5.855  0.00  0.00    -0.526 OA
ATOM      8  H5  UNL d   1      -1.144  -0.793  -5.482  0.00  0.00     0.418 HD
ENDBRANCH   4   7
TORSDOF 1
ENDMDL
