MODEL 1
REMARK minimizedAffinity 4.7936244
REMARK minimizedRMSD -1
REMARK  1 active torsions:
REMARK  status: ('A' for Active; 'I' for Inactive)
REMARK    1  A    between atoms: C3_4  and  O_7 
ROOT
ATOM      1  C   UNL d   1       1.482   0.803  -4.578  0.00  0.00    -0.033 A 
ATOM      2  C1  UNL d   1       0.566  -0.233  -4.389  0.00  0.00     0.039 A 
ATOM      3  C2  UNL d   1       0.560  -0.952  -3.192  0.00  0.00    -0.080 A 
ATOM      4  C3  UNL d   1       1.473  -0.626  -2.194  0.00  0.00     0.150 A 
ATOM      5  C4  UNL d   1       2.386   0.408  -2.374  0.00  0.00    -0.007 A 
ATOM      6  C5  UNL d   1       2.392   1.125  -3.569  0.00  0.00     0.039 A 
ENDROOT
BRANCH   4   7
ATOM      7  O   UNL d   1       1.508  -1.303  -1.011  0.00  0.00    -0.526 OA
ATOM      8  H5  UNL d   1       0.840  -2.008  -1.040  0.00  0.00     0.418 HD
ENDBRANCH   4   7
TORSDOF 1
ENDMDL
