MODEL 1
REMARK minimizedAffinity -5.09212208
REMARK minimizedRMSD -1
REMARK  0 active torsions:
REMARK  status: ('A' for Active; 'I' for Inactive)
ROOT
ATOM      1  C   UNL d   1      -0.407   3.009   0.001  0.00  0.00     0.077 C 
ATOM      2  C1  UNL d   1      -0.016   1.562   0.073  0.00  0.00    -0.074 A 
ATOM      3  C2  UNL d   1      -0.945   0.552  -0.194  0.00  0.00    -0.005 A 
ATOM      4  C3  UNL d   1      -0.564  -0.788  -0.133  0.00  0.00     0.006 A 
ATOM      5  C4  UNL d   1       0.748  -1.131   0.196  0.00  0.00    -0.005 A 
ATOM      6  C5  UNL d   1       1.691  -0.135   0.465  0.00  0.00    -0.074 A 
ATOM      7  C6  UNL d   1       3.108  -0.486   0.811  0.00  0.00     0.077 C 
ATOM      8  C7  UNL d   1       1.302   1.210   0.395  0.00  0.00    -0.001 A 
ENDROOT
TORSDOF 0
ENDMDL
