MODEL 1
REMARK minimizedAffinity -4.10272312
REMARK minimizedRMSD -1
REMARK  0 active torsions:
REMARK  status: ('A' for Active; 'I' for Inactive)
ROOT
ATOM      1  C   UNL d   1      -1.744  -1.098   0.755  0.00  0.00     0.077 C 
ATOM      2  C1  UNL d   1      -0.260  -0.908   0.655  0.00  0.00    -0.074 A 
ATOM      3  C2  UNL d   1       0.566  -1.938   0.194  0.00  0.00    -0.005 A 
ATOM      4  C3  UNL d   1       1.944  -1.744   0.096  0.00  0.00     0.006 A 
ATOM      5  C4  UNL d   1       2.509  -0.521   0.458  0.00  0.00    -0.005 A 
ATOM      6  C5  UNL d   1       1.698   0.521   0.920  0.00  0.00    -0.074 A 
ATOM      7  C6  UNL d   1       2.288   1.846   1.304  0.00  0.00     0.077 C 
ATOM      8  C7  UNL d   1       0.314   0.321   1.009  0.00  0.00    -0.001 A 
ENDROOT
TORSDOF 0
ENDMDL
