MODEL 1
REMARK minimizedAffinity -5.96301413
REMARK minimizedRMSD -1
REMARK  0 active torsions:
REMARK  status: ('A' for Active; 'I' for Inactive)
ROOT
ATOM      1  C   UNL d   1      -0.727  -2.236   1.507  0.00  0.00     0.077 C 
ATOM      2  C1  UNL d   1       0.482  -1.408   1.186  0.00  0.00    -0.074 A 
ATOM      3  C2  UNL d   1       1.772  -1.913   1.385  0.00  0.00    -0.005 A 
ATOM      4  C3  UNL d   1       2.887  -1.135   1.073  0.00  0.00     0.006 A 
ATOM      5  C4  UNL d   1       2.724   0.153   0.560  0.00  0.00    -0.005 A 
ATOM      6  C5  UNL d   1       1.443   0.673   0.354  0.00  0.00    -0.074 A 
ATOM      7  C6  UNL d   1       1.250   2.051  -0.206  0.00  0.00     0.077 C 
ATOM      8  C7  UNL d   1       0.327  -0.117   0.663  0.00  0.00    -0.001 A 
ENDROOT
TORSDOF 0
ENDMDL
