MODEL 1
REMARK minimizedAffinity -4.39167881
REMARK minimizedRMSD -1
REMARK  0 active torsions:
REMARK  status: ('A' for Active; 'I' for Inactive)
ROOT
ATOM      1  C   UNL d   1      -0.214   0.740   0.246  0.00  0.00     0.077 C 
ATOM      2  C1  UNL d   1      -1.147   0.612  -0.921  0.00  0.00    -0.074 A 
ATOM      3  C2  UNL d   1      -1.709  -0.623  -1.261  0.00  0.00    -0.005 A 
ATOM      4  C3  UNL d   1      -2.583  -0.724  -2.343  0.00  0.00     0.006 A 
ATOM      5  C4  UNL d   1      -2.904   0.406  -3.095  0.00  0.00    -0.005 A 
ATOM      6  C5  UNL d   1      -2.353   1.650  -2.770  0.00  0.00    -0.074 A 
ATOM      7  C6  UNL d   1      -2.695   2.876  -3.563  0.00  0.00     0.077 C 
ATOM      8  C7  UNL d   1      -1.481   1.745  -1.677  0.00  0.00    -0.001 A 
ENDROOT
TORSDOF 0
ENDMDL
