MODEL 1
REMARK minimizedAffinity -5.35938692
REMARK minimizedRMSD -1
REMARK  0 active torsions:
REMARK  status: ('A' for Active; 'I' for Inactive)
ROOT
ATOM      1  C   UNL d   1       3.327  -0.050   1.855  0.00  0.00     0.077 C 
ATOM      2  C1  UNL d   1       2.008  -0.733   1.652  0.00  0.00    -0.074 A 
ATOM      3  C2  UNL d   1       1.706  -1.926   2.318  0.00  0.00    -0.005 A 
ATOM      4  C3  UNL d   1       0.471  -2.544   2.127  0.00  0.00     0.006 A 
ATOM      5  C4  UNL d   1      -0.474  -1.978   1.270  0.00  0.00    -0.005 A 
ATOM      6  C5  UNL d   1      -0.191  -0.786   0.597  0.00  0.00    -0.074 A 
ATOM      7  C6  UNL d   1      -1.198  -0.158  -0.320  0.00  0.00     0.077 C 
ATOM      8  C7  UNL d   1       1.050  -0.166   0.799  0.00  0.00    -0.001 A 
ENDROOT
TORSDOF 0
ENDMDL
