MODEL 1
REMARK minimizedAffinity -4.95170259
REMARK minimizedRMSD -1
REMARK  0 active torsions:
REMARK  status: ('A' for Active; 'I' for Inactive)
ROOT
ATOM      1  C   UNL d   1      -1.131   0.362  -0.678  0.00  0.00     0.077 C 
ATOM      2  C1  UNL d   1       0.128  -0.047   0.028  0.00  0.00    -0.074 A 
ATOM      3  C2  UNL d   1       1.246   0.793   0.047  0.00  0.00    -0.005 A 
ATOM      4  C3  UNL d   1       2.407   0.404   0.716  0.00  0.00     0.006 A 
ATOM      5  C4  UNL d   1       2.461  -0.827   1.370  0.00  0.00    -0.005 A 
ATOM      6  C5  UNL d   1       1.352  -1.680   1.362  0.00  0.00    -0.074 A 
ATOM      7  C6  UNL d   1       1.391  -3.002   2.069  0.00  0.00     0.077 C 
ATOM      8  C7  UNL d   1       0.187  -1.279   0.694  0.00  0.00    -0.001 A 
ENDROOT
TORSDOF 0
ENDMDL
