MODEL 1
REMARK minimizedAffinity 1.48494685
REMARK minimizedRMSD -1
REMARK  0 active torsions:
REMARK  status: ('A' for Active; 'I' for Inactive)
ROOT
ATOM      1  C1  BNZ d   1       5.056   1.408  -0.869  0.00  0.00     0.000 A 
ATOM      2  C2  BNZ d   1       4.398   0.976  -1.989  0.00  0.00     0.000 A 
ATOM      3  C3  BNZ d   1       3.287   0.186  -1.887  0.00  0.00     0.000 A 
ATOM      4  C4  BNZ d   1       2.860  -0.204  -0.669  0.00  0.00     0.000 A 
ATOM      5  C5  BNZ d   1       3.519   0.216   0.470  0.00  0.00     0.000 A 
ATOM      6  C6  BNZ d   1       4.614   1.043   0.365  0.00  0.00     0.000 A 
ENDROOT
TORSDOF 0
ENDMDL
