MODEL 1
REMARK minimizedAffinity -0.256396085
REMARK minimizedRMSD -1
REMARK  0 active torsions:
REMARK  status: ('A' for Active; 'I' for Inactive)
ROOT
ATOM      1  C1  BNZ d   1       4.611   1.459   0.136  0.00  0.00     0.000 A 
ATOM      2  C2  BNZ d   1       3.506   0.650   0.125  0.00  0.00     0.000 A 
ATOM      3  C3  BNZ d   1       2.910   0.295  -1.052  0.00  0.00     0.000 A 
ATOM      4  C4  BNZ d   1       3.393   0.782  -2.213  0.00  0.00     0.000 A 
ATOM      5  C5  BNZ d   1       4.501   1.606  -2.219  0.00  0.00     0.000 A 
ATOM      6  C6  BNZ d   1       5.122   1.930  -1.034  0.00  0.00     0.000 A 
ENDROOT
TORSDOF 0
ENDMDL
