MODEL 1
REMARK minimizedAffinity 0.061447002
REMARK minimizedRMSD -1
REMARK  0 active torsions:
REMARK  status: ('A' for Active; 'I' for Inactive)
ROOT
ATOM      1  C1  BNZ d   1       3.759   1.148  -2.331  0.00  0.00     0.000 A 
ATOM      2  C2  BNZ d   1       3.048   0.412  -1.422  0.00  0.00     0.000 A 
ATOM      3  C3  BNZ d   1       3.332   0.485  -0.087  0.00  0.00     0.000 A 
ATOM      4  C4  BNZ d   1       4.351   1.262   0.333  0.00  0.00     0.000 A 
ATOM      5  C5  BNZ d   1       5.084   2.003  -0.572  0.00  0.00     0.000 A 
ATOM      6  C6  BNZ d   1       4.770   1.957  -1.911  0.00  0.00     0.000 A 
ENDROOT
TORSDOF 0
ENDMDL
