MODEL 1
REMARK minimizedAffinity -0.356824189
REMARK minimizedRMSD -1
REMARK  0 active torsions:
REMARK  status: ('A' for Active; 'I' for Inactive)
ROOT
ATOM      1  C1  BNZ d   1       4.188   0.753  -0.815  0.00  0.00     0.000 A 
ATOM      2  C2  BNZ d   1       5.242   1.555  -1.163  0.00  0.00     0.000 A 
ATOM      3  C3  BNZ d   1       5.618   1.689  -2.470  0.00  0.00     0.000 A 
ATOM      4  C4  BNZ d   1       4.967   0.990  -3.422  0.00  0.00     0.000 A 
ATOM      5  C5  BNZ d   1       3.909   0.170  -3.087  0.00  0.00     0.000 A 
ATOM      6  C6  BNZ d   1       3.507   0.068  -1.774  0.00  0.00     0.000 A 
ENDROOT
TORSDOF 0
ENDMDL
