MODEL 1
REMARK minimizedAffinity 8.08884716
REMARK minimizedRMSD -1
REMARK  0 active torsions:
REMARK  status: ('A' for Active; 'I' for Inactive)
ROOT
ATOM      1  C1  BNZ d   1      -5.989   0.897  -3.633  0.00  0.00     0.000 A 
ATOM      2  C2  BNZ d   1      -6.000   1.574  -4.823  0.00  0.00     0.000 A 
ATOM      3  C3  BNZ d   1      -5.730   0.929  -5.997  0.00  0.00     0.000 A 
ATOM      4  C4  BNZ d   1      -5.410  -0.381  -5.976  0.00  0.00     0.000 A 
ATOM      5  C5  BNZ d   1      -5.387  -1.075  -4.783  0.00  0.00     0.000 A 
ATOM      6  C6  BNZ d   1      -5.697  -0.431  -3.607  0.00  0.00     0.000 A 
ENDROOT
TORSDOF 0
ENDMDL
