MODEL 1
REMARK minimizedAffinity 3.70945358
REMARK minimizedRMSD -1
REMARK  0 active torsions:
REMARK  status: ('A' for Active; 'I' for Inactive)
ROOT
ATOM      1  C1  BNZ d   1       3.355   0.761  -2.611  0.00  0.00     0.000 A 
ATOM      2  C2  BNZ d   1       2.460   0.029  -1.877  0.00  0.00     0.000 A 
ATOM      3  C3  BNZ d   1       2.424   0.131  -0.514  0.00  0.00     0.000 A 
ATOM      4  C4  BNZ d   1       3.307   0.933   0.115  0.00  0.00     0.000 A 
ATOM      5  C5  BNZ d   1       4.222   1.671  -0.611  0.00  0.00     0.000 A 
ATOM      6  C6  BNZ d   1       4.229   1.595  -1.985  0.00  0.00     0.000 A 
ENDROOT
TORSDOF 0
ENDMDL
