MODEL 1
REMARK minimizedAffinity 2.66573524
REMARK minimizedRMSD -1
REMARK  0 active torsions:
REMARK  status: ('A' for Active; 'I' for Inactive)
ROOT
ATOM      1  C1  BNZ d   1      -2.036   2.048  -0.657  0.00  0.00     0.000 A 
ATOM      2  C2  BNZ d   1      -2.332   3.146   0.106  0.00  0.00     0.000 A 
ATOM      3  C3  BNZ d   1      -1.338   3.878   0.694  0.00  0.00     0.000 A 
ATOM      4  C4  BNZ d   1      -0.055   3.488   0.553  0.00  0.00     0.000 A 
ATOM      5  C5  BNZ d   1       0.259   2.378  -0.205  0.00  0.00     0.000 A 
ATOM      6  C6  BNZ d   1      -0.741   1.666  -0.828  0.00  0.00     0.000 A 
ENDROOT
TORSDOF 0
ENDMDL
