MODEL 1
REMARK minimizedAffinity 8.29692554
REMARK minimizedRMSD -1
REMARK  2 active torsions:
REMARK  status: ('A' for Active; 'I' for Inactive)
REMARK    1  A    between atoms: C1_2  and  C2_3 
REMARK    2  A    between atoms: C2_3  and  C3_4 
ROOT
ATOM      1  C3  UNL d   1       3.648  -1.882   2.255  0.00  0.00    -0.075 A 
ATOM      2  C4  UNL d   1       2.709  -1.148   1.516  0.00  0.00     0.002 A 
ATOM      3  C5  UNL d   1       1.364  -1.144   1.886  0.00  0.00     0.002 A 
ATOM      4  C6  UNL d   1       0.940  -1.879   2.991  0.00  0.00    -0.004 A 
ATOM      5  C7  UNL d   1       1.861  -2.625   3.722  0.00  0.00     0.002 A 
ATOM      6  C8  UNL d   1       3.209  -2.628   3.357  0.00  0.00     0.002 A 
ENDROOT
BRANCH   1   7
ATOM      7  C2  UNL d   1       5.110  -1.868   1.877  0.00  0.00     0.056 C 
BRANCH   7   8
ATOM      8  C1  UNL d   1       5.999  -2.718   2.791  0.00  0.00     0.007 C 
ATOM      9  C   UNL d   1       6.000  -2.243   4.238  0.00  0.00     0.009 C 
ENDBRANCH   7   8
ENDBRANCH   1   7
TORSDOF 2
ENDMDL
