MODEL 1
REMARK minimizedAffinity 13.5860424
REMARK minimizedRMSD -1
REMARK  2 active torsions:
REMARK  status: ('A' for Active; 'I' for Inactive)
REMARK    1  A    between atoms: C1_2  and  C2_3 
REMARK    2  A    between atoms: C2_3  and  C3_4 
ROOT
ATOM      1  C3  UNL d   1      -4.530  -3.396  -4.505  0.00  0.00    -0.075 A 
ATOM      2  C4  UNL d   1      -3.960  -4.032  -5.618  0.00  0.00     0.002 A 
ATOM      3  C5  UNL d   1      -4.382  -5.305  -6.000  0.00  0.00     0.002 A 
ATOM      4  C6  UNL d   1      -5.370  -5.963  -5.270  0.00  0.00    -0.004 A 
ATOM      5  C7  UNL d   1      -5.932  -5.348  -4.153  0.00  0.00     0.002 A 
ATOM      6  C8  UNL d   1      -5.515  -4.072  -3.771  0.00  0.00     0.002 A 
ENDROOT
BRANCH   1   7
ATOM      7  C2  UNL d   1      -4.099  -2.006  -4.104  0.00  0.00     0.056 C 
BRANCH   7   8
ATOM      8  C1  UNL d   1      -4.942  -1.390  -2.983  0.00  0.00     0.007 C 
ATOM      9  C   UNL d   1      -4.915   0.133  -2.979  0.00  0.00     0.009 C 
ENDBRANCH   7   8
ENDBRANCH   1   7
TORSDOF 2
ENDMDL
