MODEL 1
REMARK minimizedAffinity 5.56573772
REMARK minimizedRMSD -1
REMARK  2 active torsions:
REMARK  status: ('A' for Active; 'I' for Inactive)
REMARK    1  A    between atoms: C1_2  and  C2_3 
REMARK    2  A    between atoms: C2_3  and  C3_4 
ROOT
ATOM      1  C3  UNL d   1      -4.807  -3.295  -3.874  0.00  0.00    -0.075 A 
ATOM      2  C4  UNL d   1      -4.203  -4.561  -3.861  0.00  0.00     0.002 A 
ATOM      3  C5  UNL d   1      -4.485  -5.490  -4.863  0.00  0.00     0.002 A 
ATOM      4  C6  UNL d   1      -5.380  -5.171  -5.882  0.00  0.00    -0.004 A 
ATOM      5  C7  UNL d   1      -5.999  -3.923  -5.894  0.00  0.00     0.002 A 
ATOM      6  C8  UNL d   1      -5.716  -2.990  -4.896  0.00  0.00     0.002 A 
ENDROOT
BRANCH   1   7
ATOM      7  C2  UNL d   1      -4.484  -2.275  -2.809  0.00  0.00     0.056 C 
BRANCH   7   8
ATOM      8  C1  UNL d   1      -3.553  -1.153  -3.282  0.00  0.00     0.007 C 
ATOM      9  C   UNL d   1      -3.506   0.031  -2.326  0.00  0.00     0.009 C 
ENDBRANCH   7   8
ENDBRANCH   1   7
TORSDOF 2
ENDMDL
