MODEL 1
REMARK minimizedAffinity -2.1548996
REMARK minimizedRMSD -1
REMARK  2 active torsions:
REMARK  status: ('A' for Active; 'I' for Inactive)
REMARK    1  A    between atoms: C1_2  and  C2_3 
REMARK    2  A    between atoms: C2_3  and  C3_4 
ROOT
ATOM      1  C3  UNL d   1       4.223   5.526  -4.011  0.00  0.00    -0.075 A 
ATOM      2  C4  UNL d   1       4.918   5.989  -2.884  0.00  0.00     0.002 A 
ATOM      3  C5  UNL d   1       4.580   5.536  -1.608  0.00  0.00     0.002 A 
ATOM      4  C6  UNL d   1       3.540   4.624  -1.442  0.00  0.00    -0.004 A 
ATOM      5  C7  UNL d   1       2.832   4.171  -2.553  0.00  0.00     0.002 A 
ATOM      6  C8  UNL d   1       3.170   4.619  -3.831  0.00  0.00     0.002 A 
ENDROOT
BRANCH   1   7
ATOM      7  C2  UNL d   1       4.602   5.990  -5.397  0.00  0.00     0.056 C 
BRANCH   7   8
ATOM      8  C1  UNL d   1       5.899   5.371  -5.928  0.00  0.00     0.007 C 
ATOM      9  C   UNL d   1       5.984   3.867  -5.701  0.00  0.00     0.009 C 
ENDBRANCH   7   8
ENDBRANCH   1   7
TORSDOF 2
ENDMDL
