MODEL 1
REMARK minimizedAffinity 11.9950418
REMARK minimizedRMSD -1
REMARK  2 active torsions:
REMARK  status: ('A' for Active; 'I' for Inactive)
REMARK    1  A    between atoms: C1_2  and  C2_3 
REMARK    2  A    between atoms: C2_3  and  C3_4 
ROOT
ATOM      1  C3  UNL d   1       1.135   2.068   1.831  0.00  0.00    -0.075 A 
ATOM      2  C4  UNL d   1       0.219   3.109   1.615  0.00  0.00     0.002 A 
ATOM      3  C5  UNL d   1      -1.035   2.846   1.064  0.00  0.00     0.002 A 
ATOM      4  C6  UNL d   1      -1.386   1.544   0.713  0.00  0.00    -0.004 A 
ATOM      5  C7  UNL d   1      -0.479   0.505   0.908  0.00  0.00     0.002 A 
ATOM      6  C8  UNL d   1       0.776   0.764   1.463  0.00  0.00     0.002 A 
ENDROOT
BRANCH   1   7
ATOM      7  C2  UNL d   1       2.483   2.342   2.454  0.00  0.00     0.056 C 
BRANCH   7   8
ATOM      8  C1  UNL d   1       2.435   2.569   3.968  0.00  0.00     0.007 C 
ATOM      9  C   UNL d   1       3.765   3.033   4.548  0.00  0.00     0.009 C 
ENDBRANCH   7   8
ENDBRANCH   1   7
TORSDOF 2
ENDMDL
