MODEL 1
REMARK minimizedAffinity -0.284265429
REMARK minimizedRMSD -1
REMARK  2 active torsions:
REMARK  status: ('A' for Active; 'I' for Inactive)
REMARK    1  A    between atoms: C1_2  and  C2_3 
REMARK    2  A    between atoms: C2_3  and  C3_4 
ROOT
ATOM      1  C3  UNL d   1       2.133  -0.584   1.772  0.00  0.00    -0.075 A 
ATOM      2  C4  UNL d   1       1.449   0.586   2.133  0.00  0.00     0.002 A 
ATOM      3  C5  UNL d   1       1.905   1.834   1.707  0.00  0.00     0.002 A 
ATOM      4  C6  UNL d   1       3.054   1.928   0.925  0.00  0.00    -0.004 A 
ATOM      5  C7  UNL d   1       3.751   0.774   0.574  0.00  0.00     0.002 A 
ATOM      6  C8  UNL d   1       3.294  -0.476   0.995  0.00  0.00     0.002 A 
ENDROOT
BRANCH   1   7
ATOM      7  C2  UNL d   1       1.627  -1.939   2.205  0.00  0.00     0.056 C 
BRANCH   7   8
ATOM      8  C1  UNL d   1       0.382  -1.885   3.096  0.00  0.00     0.007 C 
ATOM      9  C   UNL d   1       0.704  -1.941   4.583  0.00  0.00     0.009 C 
ENDBRANCH   7   8
ENDBRANCH   1   7
TORSDOF 2
ENDMDL
