MODEL 1
REMARK minimizedAffinity 3.88572788
REMARK minimizedRMSD -1
REMARK  2 active torsions:
REMARK  status: ('A' for Active; 'I' for Inactive)
REMARK    1  A    between atoms: C1_2  and  C2_3 
REMARK    2  A    between atoms: C2_3  and  C3_4 
ROOT
ATOM      1  C3  UNL d   1       3.603  -2.310   2.338  0.00  0.00    -0.075 A 
ATOM      2  C4  UNL d   1       3.617  -2.136   0.946  0.00  0.00     0.002 A 
ATOM      3  C5  UNL d   1       4.807  -2.255   0.229  0.00  0.00     0.002 A 
ATOM      4  C6  UNL d   1       5.999  -2.537   0.893  0.00  0.00    -0.004 A 
ATOM      5  C7  UNL d   1       6.000  -2.696   2.277  0.00  0.00     0.002 A 
ATOM      6  C8  UNL d   1       4.809  -2.582   2.997  0.00  0.00     0.002 A 
ENDROOT
BRANCH   1   7
ATOM      7  C2  UNL d   1       2.313  -2.213   3.116  0.00  0.00     0.056 C 
BRANCH   7   8
ATOM      8  C1  UNL d   1       1.398  -1.069   2.666  0.00  0.00     0.007 C 
ATOM      9  C   UNL d   1       1.140  -0.041   3.759  0.00  0.00     0.009 C 
ENDBRANCH   7   8
ENDBRANCH   1   7
TORSDOF 2
ENDMDL
