MODEL 1
REMARK minimizedAffinity -2.90665174
REMARK minimizedRMSD -1
REMARK  0 active torsions:
REMARK  status: ('A' for Active; 'I' for Inactive)
ROOT
ATOM      1  N1  IND d   1      -1.745   0.726   0.956  0.00  0.00    -0.196 N 
ATOM      2  C2  IND d   1      -1.670   1.091   2.271  0.00  0.00     0.054 A 
ATOM      3  C3  IND d   1      -0.454   0.783   2.776  0.00  0.00    -0.031 A 
ATOM      4  C4  IND d   1       1.597  -0.232   1.597  0.00  0.00     0.051 A 
ATOM      5  C5  IND d   1       2.000  -0.766   0.405  0.00  0.00    -0.031 A 
ATOM      6  C6  IND d   1       1.158  -0.829  -0.687  0.00  0.00     0.015 A 
ATOM      7  C7  IND d   1      -0.119  -0.347  -0.631  0.00  0.00    -0.016 A 
ATOM      8  C8  IND d   1      -0.534   0.189   0.580  0.00  0.00    -0.047 A 
ATOM      9  C9  IND d   1       0.302   0.217   1.704  0.00  0.00    -0.096 A 
ATOM     10  HN1 IND d   1      -2.434   0.815   0.449  0.00  0.00     0.298 HD
ENDROOT
TORSDOF 0
ENDMDL
