MODEL 1
REMARK minimizedAffinity -1.50869298
REMARK minimizedRMSD -1
REMARK  0 active torsions:
REMARK  status: ('A' for Active; 'I' for Inactive)
ROOT
ATOM      1  N1  IND d   1       1.963  -1.057   0.508  0.00  0.00    -0.196 N 
ATOM      2  C2  IND d   1       1.734  -1.566  -0.740  0.00  0.00     0.054 A 
ATOM      3  C3  IND d   1       0.721  -0.902  -1.340  0.00  0.00    -0.031 A 
ATOM      4  C4  IND d   1      -0.635   1.119  -0.500  0.00  0.00     0.051 A 
ATOM      5  C5  IND d   1      -0.815   1.915   0.597  0.00  0.00    -0.031 A 
ATOM      6  C6  IND d   1      -0.060   1.759   1.742  0.00  0.00     0.015 A 
ATOM      7  C7  IND d   1       0.914   0.805   1.829  0.00  0.00    -0.016 A 
ATOM      8  C8  IND d   1       1.094  -0.010   0.720  0.00  0.00    -0.047 A 
ATOM      9  C9  IND d   1       0.302   0.116  -0.429  0.00  0.00    -0.096 A 
ATOM     10  HN1 IND d   1       2.550  -1.344   1.066  0.00  0.00     0.298 HD
ENDROOT
TORSDOF 0
ENDMDL
