MODEL 1
REMARK minimizedAffinity 0.376381427
REMARK minimizedRMSD -1
REMARK  0 active torsions:
REMARK  status: ('A' for Active; 'I' for Inactive)
ROOT
ATOM      1  N1  IND d   1       1.358  -1.525  -0.991  0.00  0.00    -0.196 N 
ATOM      2  C2  IND d   1       0.375  -1.125  -1.853  0.00  0.00     0.054 A 
ATOM      3  C3  IND d   1      -0.336  -0.108  -1.316  0.00  0.00    -0.031 A 
ATOM      4  C4  IND d   1       0.003   1.125   0.918  0.00  0.00     0.051 A 
ATOM      5  C5  IND d   1       0.750   1.095   2.062  0.00  0.00    -0.031 A 
ATOM      6  C6  IND d   1       1.760   0.173   2.250  0.00  0.00     0.015 A 
ATOM      7  C7  IND d   1       2.069  -0.750   1.291  0.00  0.00    -0.016 A 
ATOM      8  C8  IND d   1       1.308  -0.727   0.131  0.00  0.00    -0.047 A 
ATOM      9  C9  IND d   1       0.254   0.179  -0.048  0.00  0.00    -0.096 A 
ATOM     10  HN1 IND d   1       1.913  -2.167  -1.127  0.00  0.00     0.298 HD
ENDROOT
TORSDOF 0
ENDMDL
