MODEL 1
REMARK minimizedAffinity -2.61198831
REMARK minimizedRMSD -1
REMARK  0 active torsions:
REMARK  status: ('A' for Active; 'I' for Inactive)
ROOT
ATOM      1  N1  IND d   1      -0.981   1.051   0.629  0.00  0.00    -0.196 N 
ATOM      2  C2  IND d   1      -0.681   1.601   1.844  0.00  0.00     0.054 A 
ATOM      3  C3  IND d   1       0.465   1.073   2.329  0.00  0.00    -0.031 A 
ATOM      4  C4  IND d   1       2.067  -0.629   1.251  0.00  0.00     0.051 A 
ATOM      5  C5  IND d   1       2.199  -1.443   0.161  0.00  0.00    -0.031 A 
ATOM      6  C6  IND d   1       1.260  -1.466  -0.850  0.00  0.00     0.015 A 
ATOM      7  C7  IND d   1       0.155  -0.663  -0.815  0.00  0.00    -0.016 A 
ATOM      8  C8  IND d   1       0.014   0.159   0.294  0.00  0.00    -0.047 A 
ATOM      9  C9  IND d   1       0.942   0.156   1.344  0.00  0.00    -0.096 A 
ATOM     10  HN1 IND d   1      -1.674   1.232   0.153  0.00  0.00     0.298 HD
ENDROOT
TORSDOF 0
ENDMDL
