MODEL 1
REMARK minimizedAffinity -1.75855482
REMARK minimizedRMSD -1
REMARK  0 active torsions:
REMARK  status: ('A' for Active; 'I' for Inactive)
ROOT
ATOM      1  N1  IND d   1       1.121  -1.295  -0.798  0.00  0.00    -0.196 N 
ATOM      2  C2  IND d   1      -0.116  -1.294  -1.379  0.00  0.00     0.054 A 
ATOM      3  C3  IND d   1      -0.967  -0.517  -0.672  0.00  0.00    -0.031 A 
ATOM      4  C4  IND d   1      -0.518   0.925   1.412  0.00  0.00     0.051 A 
ATOM      5  C5  IND d   1       0.451   1.220   2.329  0.00  0.00    -0.031 A 
ATOM      6  C6  IND d   1       1.720   0.683   2.248  0.00  0.00     0.015 A 
ATOM      7  C7  IND d   1       2.071  -0.164   1.235  0.00  0.00    -0.016 A 
ATOM      8  C8  IND d   1       1.088  -0.471   0.306  0.00  0.00    -0.047 A 
ATOM      9  C9  IND d   1      -0.214   0.037   0.407  0.00  0.00    -0.096 A 
ATOM     10  HN1 IND d   1       1.805  -1.736  -1.075  0.00  0.00     0.298 HD
ENDROOT
TORSDOF 0
ENDMDL
