MODEL 1
REMARK minimizedAffinity -3.63876176
REMARK minimizedRMSD -1
REMARK  0 active torsions:
REMARK  status: ('A' for Active; 'I' for Inactive)
ROOT
ATOM      1  N1  IND d   1      -1.283  -0.656  -0.572  0.00  0.00    -0.196 N 
ATOM      2  C2  IND d   1      -0.058  -0.810  -1.158  0.00  0.00     0.054 A 
ATOM      3  C3  IND d   1       0.894  -0.187  -0.428  0.00  0.00    -0.031 A 
ATOM      4  C4  IND d   1       0.681   1.061   1.813  0.00  0.00     0.051 A 
ATOM      5  C5  IND d   1      -0.244   1.496   2.720  0.00  0.00    -0.031 A 
ATOM      6  C6  IND d   1      -1.590   1.228   2.575  0.00  0.00     0.015 A 
ATOM      7  C7  IND d   1      -2.061   0.502   1.518  0.00  0.00    -0.016 A 
ATOM      8  C8  IND d   1      -1.125   0.065   0.591  0.00  0.00    -0.047 A 
ATOM      9  C9  IND d   1       0.237   0.370   0.711  0.00  0.00    -0.096 A 
ATOM     10  HN1 IND d   1      -2.028  -0.958  -0.879  0.00  0.00     0.298 HD
ENDROOT
TORSDOF 0
ENDMDL
