MODEL 1
REMARK minimizedAffinity -5.02133989
REMARK minimizedRMSD -1
REMARK  0 active torsions:
REMARK  status: ('A' for Active; 'I' for Inactive)
ROOT
ATOM      1  N1  IND d   1       0.731   1.297  -1.146  0.00  0.00    -0.196 N 
ATOM      2  C2  IND d   1       0.429   0.300  -2.032  0.00  0.00     0.054 A 
ATOM      3  C3  IND d   1      -0.446  -0.570  -1.480  0.00  0.00    -0.031 A 
ATOM      4  C4  IND d   1      -1.591  -0.498   0.825  0.00  0.00     0.051 A 
ATOM      5  C5  IND d   1      -1.605   0.201   1.999  0.00  0.00    -0.031 A 
ATOM      6  C6  IND d   1      -0.828   1.325   2.188  0.00  0.00     0.015 A 
ATOM      7  C7  IND d   1      -0.012   1.801   1.201  0.00  0.00    -0.016 A 
ATOM      8  C8  IND d   1       0.011   1.090   0.010  0.00  0.00    -0.047 A 
ATOM      9  C9  IND d   1      -0.744  -0.076  -0.173  0.00  0.00    -0.096 A 
ATOM     10  HN1 IND d   1       1.280   1.944  -1.287  0.00  0.00     0.298 HD
ENDROOT
TORSDOF 0
ENDMDL
