MODEL 1
REMARK minimizedAffinity -1.83789527
REMARK minimizedRMSD -1
REMARK  0 active torsions:
REMARK  status: ('A' for Active; 'I' for Inactive)
ROOT
ATOM      1  N1  IND d   1      -1.148  -0.542   0.034  0.00  0.00    -0.196 N 
ATOM      2  C2  IND d   1      -2.475  -0.245   0.171  0.00  0.00     0.054 A 
ATOM      3  C3  IND d   1      -2.689   0.432   1.322  0.00  0.00    -0.031 A 
ATOM      4  C4  IND d   1      -0.994   1.247   3.079  0.00  0.00     0.051 A 
ATOM      5  C5  IND d   1       0.332   1.185   3.408  0.00  0.00    -0.031 A 
ATOM      6  C6  IND d   1       1.250   0.533   2.611  0.00  0.00     0.015 A 
ATOM      7  C7  IND d   1       0.878  -0.074   1.445  0.00  0.00    -0.016 A 
ATOM      8  C8  IND d   1      -0.468  -0.019   1.112  0.00  0.00    -0.047 A 
ATOM      9  C9  IND d   1      -1.412   0.605   1.938  0.00  0.00    -0.096 A 
ATOM     10  HN1 IND d   1      -0.797  -0.981  -0.617  0.00  0.00     0.298 HD
ENDROOT
TORSDOF 0
ENDMDL
