MODEL 1
REMARK minimizedAffinity -6.62543297
REMARK minimizedRMSD -1
REMARK  0 active torsions:
REMARK  status: ('A' for Active; 'I' for Inactive)
ROOT
ATOM      1  N1  IND d   1       0.807  -0.888   0.022  0.00  0.00    -0.196 N 
ATOM      2  C2  IND d   1      -0.300  -0.637  -0.738  0.00  0.00     0.054 A 
ATOM      3  C3  IND d   1      -1.191   0.105  -0.042  0.00  0.00    -0.031 A 
ATOM      4  C4  IND d   1      -0.993   1.104   2.322  0.00  0.00     0.051 A 
ATOM      5  C5  IND d   1      -0.181   1.117   3.421  0.00  0.00    -0.031 A 
ATOM      6  C6  IND d   1       1.027   0.452   3.443  0.00  0.00     0.015 A 
ATOM      7  C7  IND d   1       1.476  -0.245   2.358  0.00  0.00    -0.016 A 
ATOM      8  C8  IND d   1       0.651  -0.267   1.242  0.00  0.00    -0.047 A 
ATOM      9  C9  IND d   1      -0.596   0.371   1.229  0.00  0.00    -0.096 A 
ATOM     10  HN1 IND d   1       1.487  -1.355  -0.220  0.00  0.00     0.298 HD
ENDROOT
TORSDOF 0
ENDMDL
