MODEL 1
REMARK minimizedAffinity 7.23572111
REMARK minimizedRMSD -1
REMARK  0 active torsions:
REMARK  status: ('A' for Active; 'I' for Inactive)
ROOT
ATOM      1  N1  IND d   1      -1.039   1.335   4.091  0.00  0.00    -0.196 N 
ATOM      2  C2  IND d   1      -0.335   2.034   3.150  0.00  0.00     0.054 A 
ATOM      3  C3  IND d   1      -0.539   1.507   1.923  0.00  0.00    -0.031 A 
ATOM      4  C4  IND d   1      -2.066  -0.440   1.211  0.00  0.00     0.051 A 
ATOM      5  C5  IND d   1      -2.881  -1.412   1.721  0.00  0.00    -0.031 A 
ATOM      6  C6  IND d   1      -3.131  -1.518   3.074  0.00  0.00     0.015 A 
ATOM      7  C7  IND d   1      -2.581  -0.645   3.971  0.00  0.00    -0.016 A 
ATOM      8  C8  IND d   1      -1.748   0.338   3.457  0.00  0.00    -0.047 A 
ATOM      9  C9  IND d   1      -1.457   0.425   2.090  0.00  0.00    -0.096 A 
ATOM     10  HN1 IND d   1      -1.039   1.491   4.937  0.00  0.00     0.298 HD
ENDROOT
TORSDOF 0
ENDMDL
