MODEL 1
REMARK minimizedAffinity 5.44627953
REMARK minimizedRMSD -1
REMARK  0 active torsions:
REMARK  status: ('A' for Active; 'I' for Inactive)
ROOT
ATOM      1  N1  IND d   1       2.904   0.323  -4.592  0.00  0.00    -0.196 N 
ATOM      2  C2  IND d   1       2.344   0.631  -3.384  0.00  0.00     0.054 A 
ATOM      3  C3  IND d   1       3.021   0.024  -2.383  0.00  0.00    -0.031 A 
ATOM      4  C4  IND d   1       5.138  -1.436  -2.492  0.00  0.00     0.051 A 
ATOM      5  C5  IND d   1       5.996  -2.027  -3.377  0.00  0.00    -0.031 A 
ATOM      6  C6  IND d   1       5.865  -1.858  -4.741  0.00  0.00     0.015 A 
ATOM      7  C7  IND d   1       4.875  -1.081  -5.271  0.00  0.00    -0.016 A 
ATOM      8  C8  IND d   1       3.998  -0.485  -4.375  0.00  0.00    -0.047 A 
ATOM      9  C9  IND d   1       4.100  -0.687  -2.992  0.00  0.00    -0.096 A 
ATOM     10  HN1 IND d   1       2.621   0.590  -5.359  0.00  0.00     0.298 HD
ENDROOT
TORSDOF 0
ENDMDL
