MODEL 1
REMARK minimizedAffinity 6.23637486
REMARK minimizedRMSD -1
REMARK  0 active torsions:
REMARK  status: ('A' for Active; 'I' for Inactive)
ROOT
ATOM      1  N1  IND d   1       1.253   1.474  -4.109  0.00  0.00    -0.196 N 
ATOM      2  C2  IND d   1       0.469   0.451  -4.563  0.00  0.00     0.054 A 
ATOM      3  C3  IND d   1       1.176  -0.700  -4.606  0.00  0.00    -0.031 A 
ATOM      4  C4  IND d   1       3.604  -1.157  -3.881  0.00  0.00     0.051 A 
ATOM      5  C5  IND d   1       4.731  -0.527  -3.435  0.00  0.00    -0.031 A 
ATOM      6  C6  IND d   1       4.757   0.830  -3.183  0.00  0.00     0.015 A 
ATOM      7  C7  IND d   1       3.648   1.608  -3.358  0.00  0.00    -0.016 A 
ATOM      8  C8  IND d   1       2.503   0.972  -3.817  0.00  0.00    -0.047 A 
ATOM      9  C9  IND d   1       2.483  -0.396  -4.115  0.00  0.00    -0.096 A 
ATOM     10  HN1 IND d   1       1.008   2.293  -4.020  0.00  0.00     0.298 HD
ENDROOT
TORSDOF 0
ENDMDL
