MODEL 1
REMARK minimizedAffinity 15.7901134
REMARK minimizedRMSD -1
REMARK  1 active torsions:
REMARK  status: ('A' for Active; 'I' for Inactive)
REMARK    1  A    between atoms: C1_2  and  C2_3 
ROOT
ATOM      1  C2  UNL d   1       3.046   1.960   2.462  0.00  0.00    -0.076 A 
ATOM      2  C3  UNL d   1       3.587   0.721   2.078  0.00  0.00     0.004 A 
ATOM      3  C4  UNL d   1       4.965   0.514   2.064  0.00  0.00    -0.003 A 
ATOM      4  C5  UNL d   1       5.825   1.542   2.434  0.00  0.00     0.000 A 
ATOM      5  C6  UNL d   1       5.304   2.772   2.835  0.00  0.00     0.000 A 
ATOM      6  C7  UNL d   1       3.917   2.993   2.871  0.00  0.00    -0.073 A 
ATOM      7  C8  UNL d   1       3.410   4.341   3.305  0.00  0.00     0.078 C 
ENDROOT
BRANCH   1   8
ATOM      8  C1  UNL d   1       1.544   2.135   2.432  0.00  0.00     0.053 C 
ATOM      9  C   UNL d   1       0.862   1.523   3.646  0.00  0.00     0.018 C 
ENDBRANCH   1   8
TORSDOF 1
ENDMDL
