MODEL 1
REMARK minimizedAffinity 14.2986355
REMARK minimizedRMSD -1
REMARK  1 active torsions:
REMARK  status: ('A' for Active; 'I' for Inactive)
REMARK    1  A    between atoms: C1_2  and  C2_3 
ROOT
ATOM      1  C2  UNL d   1      -3.699  -1.588   0.989  0.00  0.00    -0.076 A 
ATOM      2  C3  UNL d   1      -2.650  -0.792   1.482  0.00  0.00     0.004 A 
ATOM      3  C4  UNL d   1      -2.640   0.587   1.279  0.00  0.00    -0.003 A 
ATOM      4  C5  UNL d   1      -3.678   1.193   0.580  0.00  0.00     0.000 A 
ATOM      5  C6  UNL d   1      -4.735   0.421   0.099  0.00  0.00     0.000 A 
ATOM      6  C7  UNL d   1      -4.769  -0.969   0.309  0.00  0.00    -0.073 A 
ATOM      7  C8  UNL d   1      -5.931  -1.753  -0.237  0.00  0.00     0.078 C 
ENDROOT
BRANCH   1   8
ATOM      8  C1  UNL d   1      -3.643  -3.082   1.216  0.00  0.00     0.053 C 
ATOM      9  C   UNL d   1      -2.217  -3.604   1.308  0.00  0.00     0.018 C 
ENDBRANCH   1   8
TORSDOF 1
ENDMDL
