MODEL 1
REMARK minimizedAffinity 2.92393947
REMARK minimizedRMSD -1
REMARK  1 active torsions:
REMARK  status: ('A' for Active; 'I' for Inactive)
REMARK    1  A    between atoms: C1_2  and  C2_3 
ROOT
ATOM      1  C2  UNL d   1       1.054  -0.931  -0.811  0.00  0.00    -0.076 A 
ATOM      2  C3  UNL d   1       0.847  -2.223  -1.326  0.00  0.00     0.004 A 
ATOM      3  C4  UNL d   1      -0.402  -2.612  -1.807  0.00  0.00    -0.003 A 
ATOM      4  C5  UNL d   1      -1.464  -1.715  -1.783  0.00  0.00     0.000 A 
ATOM      5  C6  UNL d   1      -1.273  -0.424  -1.293  0.00  0.00     0.000 A 
ATOM      6  C7  UNL d   1      -0.016  -0.011  -0.818  0.00  0.00    -0.073 A 
ATOM      7  C8  UNL d   1       0.132   1.392  -0.295  0.00  0.00     0.078 C 
ENDROOT
BRANCH   1   8
ATOM      8  C1  UNL d   1       2.423  -0.575  -0.278  0.00  0.00     0.053 C 
ATOM      9  C   UNL d   1       2.590  -0.940   1.189  0.00  0.00     0.018 C 
ENDBRANCH   1   8
TORSDOF 1
ENDMDL
