MODEL 1
REMARK minimizedAffinity 6.60840893
REMARK minimizedRMSD -1
REMARK  1 active torsions:
REMARK  status: ('A' for Active; 'I' for Inactive)
REMARK    1  A    between atoms: C1_2  and  C2_3 
ROOT
ATOM      1  C2  UNL d   1      -1.641  -0.265  -0.937  0.00  0.00    -0.076 A 
ATOM      2  C3  UNL d   1      -2.251  -0.974   0.113  0.00  0.00     0.004 A 
ATOM      3  C4  UNL d   1      -3.628  -1.191   0.126  0.00  0.00    -0.003 A 
ATOM      4  C5  UNL d   1      -4.416  -0.704  -0.910  0.00  0.00     0.000 A 
ATOM      5  C6  UNL d   1      -3.825  -0.015  -1.969  0.00  0.00     0.000 A 
ATOM      6  C7  UNL d   1      -2.437   0.199  -2.005  0.00  0.00    -0.073 A 
ATOM      7  C8  UNL d   1      -1.853   0.955  -3.168  0.00  0.00     0.078 C 
ENDROOT
BRANCH   1   8
ATOM      8  C1  UNL d   1      -0.147  -0.036  -0.884  0.00  0.00     0.053 C 
ATOM      9  C   UNL d   1       0.628  -1.313  -0.597  0.00  0.00     0.018 C 
ENDBRANCH   1   8
TORSDOF 1
ENDMDL
