MODEL 1
REMARK minimizedAffinity 7.95400667
REMARK minimizedRMSD -1
REMARK  1 active torsions:
REMARK  status: ('A' for Active; 'I' for Inactive)
REMARK    1  A    between atoms: C1_2  and  C2_3 
ROOT
ATOM      1  C2  UNL d   1       1.330  -1.986   0.045  0.00  0.00    -0.076 A 
ATOM      2  C3  UNL d   1       1.714  -1.245  -1.087  0.00  0.00     0.004 A 
ATOM      3  C4  UNL d   1       2.659  -0.225  -0.990  0.00  0.00    -0.003 A 
ATOM      4  C5  UNL d   1       3.236   0.070   0.241  0.00  0.00     0.000 A 
ATOM      5  C6  UNL d   1       2.880  -0.666   1.370  0.00  0.00     0.000 A 
ATOM      6  C7  UNL d   1       1.941  -1.708   1.286  0.00  0.00    -0.073 A 
ATOM      7  C8  UNL d   1       1.589  -2.466   2.537  0.00  0.00     0.078 C 
ENDROOT
BRANCH   1   8
ATOM      8  C1  UNL d   1       0.280  -3.062  -0.117  0.00  0.00     0.053 C 
ATOM      9  C   UNL d   1      -0.422  -2.993  -1.464  0.00  0.00     0.018 C 
ENDBRANCH   1   8
TORSDOF 1
ENDMDL
