MODEL 1
REMARK minimizedAffinity 8.65407944
REMARK minimizedRMSD -1
REMARK  1 active torsions:
REMARK  status: ('A' for Active; 'I' for Inactive)
REMARK    1  A    between atoms: C1_2  and  C2_3 
ROOT
ATOM      1  C2  UNL d   1      -5.142  -0.315  -0.055  0.00  0.00    -0.076 A 
ATOM      2  C3  UNL d   1      -5.998   0.800  -0.018  0.00  0.00     0.004 A 
ATOM      3  C4  UNL d   1      -5.675   1.927   0.737  0.00  0.00    -0.003 A 
ATOM      4  C5  UNL d   1      -4.492   1.957   1.467  0.00  0.00     0.000 A 
ATOM      5  C6  UNL d   1      -3.623   0.866   1.427  0.00  0.00     0.000 A 
ATOM      6  C7  UNL d   1      -3.925  -0.270   0.658  0.00  0.00    -0.073 A 
ATOM      7  C8  UNL d   1      -2.955  -1.420   0.657  0.00  0.00     0.078 C 
ENDROOT
BRANCH   1   8
ATOM      8  C1  UNL d   1      -5.558  -1.519  -0.870  0.00  0.00     0.053 C 
ATOM      9  C   UNL d   1      -5.997  -1.146  -2.277  0.00  0.00     0.018 C 
ENDBRANCH   1   8
TORSDOF 1
ENDMDL
