MODEL 1
REMARK minimizedAffinity 2.05704975
REMARK minimizedRMSD -1
REMARK  1 active torsions:
REMARK  status: ('A' for Active; 'I' for Inactive)
REMARK    1  A    between atoms: C1_2  and  C2_3 
ROOT
ATOM      1  C2  UNL d   1      -3.990   1.784   1.498  0.00  0.00    -0.076 A 
ATOM      2  C3  UNL d   1      -3.413   1.032   0.461  0.00  0.00     0.004 A 
ATOM      3  C4  UNL d   1      -4.115  -0.008  -0.147  0.00  0.00    -0.003 A 
ATOM      4  C5  UNL d   1      -5.405  -0.311   0.272  0.00  0.00     0.000 A 
ATOM      5  C6  UNL d   1      -6.000   0.436   1.288  0.00  0.00     0.000 A 
ATOM      6  C7  UNL d   1      -5.312   1.498   1.900  0.00  0.00    -0.073 A 
ATOM      7  C8  UNL d   1      -6.000   2.267   2.995  0.00  0.00     0.078 C 
ENDROOT
BRANCH   1   8
ATOM      8  C1  UNL d   1      -3.171   2.882   2.139  0.00  0.00     0.053 C 
ATOM      9  C   UNL d   1      -1.779   2.997   1.537  0.00  0.00     0.018 C 
ENDBRANCH   1   8
TORSDOF 1
ENDMDL
