MODEL 1
REMARK minimizedAffinity -0.0213939436
REMARK minimizedRMSD -1
REMARK  1 active torsions:
REMARK  status: ('A' for Active; 'I' for Inactive)
REMARK    1  A    between atoms: C1_2  and  C2_3 
ROOT
ATOM      1  C2  UNL d   1       1.394  -4.464   5.994  0.00  0.00    -0.076 A 
ATOM      2  C3  UNL d   1       2.062  -3.227   5.999  0.00  0.00     0.004 A 
ATOM      3  C4  UNL d   1       1.353  -2.028   5.970  0.00  0.00    -0.003 A 
ATOM      4  C5  UNL d   1      -0.037  -2.045   5.936  0.00  0.00     0.000 A 
ATOM      5  C6  UNL d   1      -0.717  -3.262   5.948  0.00  0.00     0.000 A 
ATOM      6  C7  UNL d   1      -0.017  -4.480   5.994  0.00  0.00    -0.073 A 
ATOM      7  C8  UNL d   1      -0.802  -5.764   6.000  0.00  0.00     0.078 C 
ENDROOT
BRANCH   1   8
ATOM      8  C1  UNL d   1       2.217  -5.732   6.000  0.00  0.00     0.053 C 
ATOM      9  C   UNL d   1       3.411  -5.656   5.061  0.00  0.00     0.018 C 
ENDBRANCH   1   8
TORSDOF 1
ENDMDL
