MODEL 1
REMARK minimizedAffinity 3.94940925
REMARK minimizedRMSD -1
REMARK  1 active torsions:
REMARK  status: ('A' for Active; 'I' for Inactive)
REMARK    1  A    between atoms: C1_2  and  C2_3 
ROOT
ATOM      1  C2  UNL d   1      -0.047  -1.223  -0.947  0.00  0.00    -0.076 A 
ATOM      2  C3  UNL d   1       1.339  -1.271  -1.179  0.00  0.00     0.004 A 
ATOM      3  C4  UNL d   1       2.233  -0.644  -0.313  0.00  0.00    -0.003 A 
ATOM      4  C5  UNL d   1       1.757   0.040   0.800  0.00  0.00     0.000 A 
ATOM      5  C6  UNL d   1       0.387   0.082   1.055  0.00  0.00     0.000 A 
ATOM      6  C7  UNL d   1      -0.528  -0.557   0.201  0.00  0.00    -0.073 A 
ATOM      7  C8  UNL d   1      -1.995  -0.474   0.521  0.00  0.00     0.078 C 
ENDROOT
BRANCH   1   8
ATOM      8  C1  UNL d   1      -0.971  -1.897  -1.936  0.00  0.00     0.053 C 
ATOM      9  C   UNL d   1      -0.867  -3.414  -1.888  0.00  0.00     0.018 C 
ENDBRANCH   1   8
TORSDOF 1
ENDMDL
