MODEL 1
REMARK minimizedAffinity 3.05432606
REMARK minimizedRMSD -1
REMARK  0 active torsions:
REMARK  status: ('A' for Active; 'I' for Inactive)
ROOT
ATOM      1  C   UNL d   1      -0.018  -4.194  -0.795  0.00  0.00     0.077 C 
ATOM      2  C1  UNL d   1       0.943  -3.065  -0.570  0.00  0.00    -0.074 A 
ATOM      3  C2  UNL d   1       1.215  -2.140  -1.583  0.00  0.00    -0.005 A 
ATOM      4  C3  UNL d   1       2.104  -1.090  -1.355  0.00  0.00     0.006 A 
ATOM      5  C4  UNL d   1       2.729  -0.954  -0.115  0.00  0.00    -0.005 A 
ATOM      6  C5  UNL d   1       2.468  -1.869   0.910  0.00  0.00    -0.074 A 
ATOM      7  C6  UNL d   1       3.123  -1.732   2.253  0.00  0.00     0.077 C 
ATOM      8  C7  UNL d   1       1.568  -2.918   0.676  0.00  0.00    -0.001 A 
ENDROOT
TORSDOF 0
ENDMDL
