MODEL 1
REMARK minimizedAffinity 14.1741476
REMARK minimizedRMSD -1
REMARK  0 active torsions:
REMARK  status: ('A' for Active; 'I' for Inactive)
ROOT
ATOM      1  C   UNL d   1       2.312  -2.179   0.379  0.00  0.00     0.077 C 
ATOM      2  C1  UNL d   1       2.315  -0.680   0.333  0.00  0.00    -0.074 A 
ATOM      3  C2  UNL d   1       3.514   0.033   0.225  0.00  0.00    -0.005 A 
ATOM      4  C3  UNL d   1       3.501   1.427   0.174  0.00  0.00     0.006 A 
ATOM      5  C4  UNL d   1       2.291   2.120   0.231  0.00  0.00    -0.005 A 
ATOM      6  C5  UNL d   1       1.083   1.424   0.338  0.00  0.00    -0.074 A 
ATOM      7  C6  UNL d   1      -0.226   2.154   0.390  0.00  0.00     0.077 C 
ATOM      8  C7  UNL d   1       1.104   0.024   0.382  0.00  0.00    -0.001 A 
ENDROOT
TORSDOF 0
ENDMDL
