MODEL 1
REMARK minimizedAffinity 6.25874805
REMARK minimizedRMSD -1
REMARK  0 active torsions:
REMARK  status: ('A' for Active; 'I' for Inactive)
ROOT
ATOM      1  C   UNL d   1       0.200   2.147   0.099  0.00  0.00     0.077 C 
ATOM      2  C1  UNL d   1       1.396   1.251   0.224  0.00  0.00    -0.074 A 
ATOM      3  C2  UNL d   1       2.678   1.782   0.399  0.00  0.00    -0.005 A 
ATOM      4  C3  UNL d   1       3.779   0.936   0.524  0.00  0.00     0.006 A 
ATOM      5  C4  UNL d   1       3.611  -0.449   0.474  0.00  0.00    -0.005 A 
ATOM      6  C5  UNL d   1       2.337  -0.998   0.301  0.00  0.00    -0.074 A 
ATOM      7  C6  UNL d   1       2.137  -2.484   0.256  0.00  0.00     0.077 C 
ATOM      8  C7  UNL d   1       1.234  -0.141   0.184  0.00  0.00    -0.001 A 
ENDROOT
TORSDOF 0
ENDMDL
