MODEL 1
REMARK minimizedAffinity 5.57734871
REMARK minimizedRMSD -1
REMARK  0 active torsions:
REMARK  status: ('A' for Active; 'I' for Inactive)
ROOT
ATOM      1  C   UNL d   1      -4.112  -0.528  -1.422  0.00  0.00     0.077 C 
ATOM      2  C1  UNL d   1      -4.607   0.681  -2.158  0.00  0.00    -0.074 A 
ATOM      3  C2  UNL d   1      -4.648   0.705  -3.556  0.00  0.00    -0.005 A 
ATOM      4  C3  UNL d   1      -5.120   1.833  -4.227  0.00  0.00     0.006 A 
ATOM      5  C4  UNL d   1      -5.555   2.947  -3.509  0.00  0.00    -0.005 A 
ATOM      6  C5  UNL d   1      -5.522   2.941  -2.111  0.00  0.00    -0.074 A 
ATOM      7  C6  UNL d   1      -5.996   4.127  -1.323  0.00  0.00     0.077 C 
ATOM      8  C7  UNL d   1      -5.053   1.802  -1.444  0.00  0.00    -0.001 A 
ENDROOT
TORSDOF 0
ENDMDL
