MODEL 1
REMARK minimizedAffinity 7.54849005
REMARK minimizedRMSD -1
REMARK  0 active torsions:
REMARK  status: ('A' for Active; 'I' for Inactive)
ROOT
ATOM      1  C   UNL d   1       2.602   2.694   0.606  0.00  0.00     0.077 C 
ATOM      2  C1  UNL d   1       1.954   1.394   0.234  0.00  0.00    -0.074 A 
ATOM      3  C2  UNL d   1       0.624   1.350  -0.196  0.00  0.00    -0.005 A 
ATOM      4  C3  UNL d   1       0.038   0.135  -0.548  0.00  0.00     0.006 A 
ATOM      5  C4  UNL d   1       0.775  -1.048  -0.475  0.00  0.00    -0.005 A 
ATOM      6  C5  UNL d   1       2.107  -1.024  -0.048  0.00  0.00    -0.074 A 
ATOM      7  C6  UNL d   1       2.916  -2.284   0.027  0.00  0.00     0.077 C 
ATOM      8  C7  UNL d   1       2.690   0.203   0.297  0.00  0.00    -0.001 A 
ENDROOT
TORSDOF 0
ENDMDL
