MODEL 1
REMARK minimizedAffinity 5.39023972
REMARK minimizedRMSD -1
REMARK  0 active torsions:
REMARK  status: ('A' for Active; 'I' for Inactive)
ROOT
ATOM      1  C   UNL d   1       2.966  -1.836  -2.065  0.00  0.00     0.077 C 
ATOM      2  C1  UNL d   1       2.924  -1.271  -0.676  0.00  0.00    -0.074 A 
ATOM      3  C2  UNL d   1       3.087  -2.096   0.441  0.00  0.00    -0.005 A 
ATOM      4  C3  UNL d   1       3.055  -1.555   1.726  0.00  0.00     0.006 A 
ATOM      5  C4  UNL d   1       2.860  -0.185   1.907  0.00  0.00    -0.005 A 
ATOM      6  C5  UNL d   1       2.696   0.656   0.802  0.00  0.00    -0.074 A 
ATOM      7  C6  UNL d   1       2.495   2.132   0.978  0.00  0.00     0.077 C 
ATOM      8  C7  UNL d   1       2.736   0.105  -0.486  0.00  0.00    -0.001 A 
ENDROOT
TORSDOF 0
ENDMDL
