MODEL 1
REMARK minimizedAffinity 4.66019106
REMARK minimizedRMSD -1
REMARK  0 active torsions:
REMARK  status: ('A' for Active; 'I' for Inactive)
ROOT
ATOM      1  C   UNL d   1       6.000  -0.749   1.875  0.00  0.00     0.077 C 
ATOM      2  C1  UNL d   1       4.621  -0.759   1.284  0.00  0.00    -0.074 A 
ATOM      3  C2  UNL d   1       4.067   0.400   0.731  0.00  0.00    -0.005 A 
ATOM      4  C3  UNL d   1       2.787   0.372   0.177  0.00  0.00     0.006 A 
ATOM      5  C4  UNL d   1       2.050  -0.813   0.170  0.00  0.00    -0.005 A 
ATOM      6  C5  UNL d   1       2.588  -1.982   0.717  0.00  0.00    -0.074 A 
ATOM      7  C6  UNL d   1       1.813  -3.266   0.709  0.00  0.00     0.077 C 
ATOM      8  C7  UNL d   1       3.877  -1.948   1.266  0.00  0.00    -0.001 A 
ENDROOT
TORSDOF 0
ENDMDL
