MODEL 1
REMARK minimizedAffinity 9.60348892
REMARK minimizedRMSD -1
REMARK  0 active torsions:
REMARK  status: ('A' for Active; 'I' for Inactive)
ROOT
ATOM      1  C   UNL d   1       3.426   3.317   1.489  0.00  0.00     0.077 C 
ATOM      2  C1  UNL d   1       2.065   2.700   1.365  0.00  0.00    -0.074 A 
ATOM      3  C2  UNL d   1       1.410   2.642   0.131  0.00  0.00    -0.005 A 
ATOM      4  C3  UNL d   1       0.149   2.056   0.030  0.00  0.00     0.006 A 
ATOM      5  C4  UNL d   1      -0.470   1.522   1.161  0.00  0.00    -0.005 A 
ATOM      6  C5  UNL d   1       0.169   1.569   2.404  0.00  0.00    -0.074 A 
ATOM      7  C6  UNL d   1      -0.478   0.992   3.627  0.00  0.00     0.077 C 
ATOM      8  C7  UNL d   1       1.440   2.154   2.496  0.00  0.00    -0.001 A 
ENDROOT
TORSDOF 0
ENDMDL
