MODEL 1
REMARK minimizedAffinity 11.9738894
REMARK minimizedRMSD -1
REMARK  0 active torsions:
REMARK  status: ('A' for Active; 'I' for Inactive)
ROOT
ATOM      1  C   UNL d   1       0.734  -3.255  -0.989  0.00  0.00     0.077 C 
ATOM      2  C1  UNL d   1       1.670  -2.618  -0.005  0.00  0.00    -0.074 A 
ATOM      3  C2  UNL d   1       2.865  -2.026  -0.429  0.00  0.00    -0.005 A 
ATOM      4  C3  UNL d   1       3.721  -1.430   0.496  0.00  0.00     0.006 A 
ATOM      5  C4  UNL d   1       3.393  -1.419   1.852  0.00  0.00    -0.005 A 
ATOM      6  C5  UNL d   1       2.203  -2.005   2.295  0.00  0.00    -0.074 A 
ATOM      7  C6  UNL d   1       1.830  -1.993   3.748  0.00  0.00     0.077 C 
ATOM      8  C7  UNL d   1       1.344  -2.596   1.358  0.00  0.00    -0.001 A 
ENDROOT
TORSDOF 0
ENDMDL
