MODEL 1
REMARK minimizedAffinity -1.16107786
REMARK minimizedRMSD -1
REMARK  0 active torsions:
REMARK  status: ('A' for Active; 'I' for Inactive)
ROOT
ATOM      1  C   UNL d   1      -0.527  -0.636  -1.718  0.00  0.00     0.077 C 
ATOM      2  C1  UNL d   1       0.928  -0.644  -1.356  0.00  0.00    -0.074 A 
ATOM      3  C2  UNL d   1       1.551  -1.814  -0.909  0.00  0.00    -0.005 A 
ATOM      4  C3  UNL d   1       2.908  -1.809  -0.585  0.00  0.00     0.006 A 
ATOM      5  C4  UNL d   1       3.654  -0.636  -0.703  0.00  0.00    -0.005 A 
ATOM      6  C5  UNL d   1       3.048   0.543  -1.148  0.00  0.00    -0.074 A 
ATOM      7  C6  UNL d   1       3.838   1.811  -1.291  0.00  0.00     0.077 C 
ATOM      8  C7  UNL d   1       1.687   0.529  -1.479  0.00  0.00    -0.001 A 
ENDROOT
TORSDOF 0
ENDMDL
