MODEL 1
REMARK minimizedAffinity -3.43303561
REMARK minimizedRMSD -1
REMARK  1 active torsions:
REMARK  status: ('A' for Active; 'I' for Inactive)
REMARK    1  A    between atoms: N_2  and  C1_3 
ROOT
ATOM      1  C1  UNL d   1      -0.221  -0.326  -0.075  0.00  0.00     0.143 A 
ATOM      2  C2  UNL d   1       0.465   0.746  -0.657  0.00  0.00    -0.057 A 
ATOM      3  C3  UNL d   1       0.108   2.072  -0.380  0.00  0.00     0.033 A 
ATOM      4  C4  UNL d   1      -0.963   2.348   0.464  0.00  0.00    -0.042 A 
ATOM      5  C5  UNL d   1      -1.674   1.298   1.033  0.00  0.00     0.033 A 
ATOM      6  C6  UNL d   1      -1.309  -0.023   0.758  0.00  0.00    -0.057 A 
ENDROOT
BRANCH   1   7
ATOM      7  N   UNL d   1       0.023  -1.666  -0.388  0.00  0.00    -0.732 N 
ATOM      8  C   UNL d   1      -0.152  -2.151  -1.740  0.00  0.00     0.284 C 
ATOM      9  H3  UNL d   1       0.849  -2.030   0.081  0.00  0.00     0.395 HD
ENDBRANCH   1   7
TORSDOF 1
ENDMDL
