MODEL 1
REMARK minimizedAffinity -1.25709307
REMARK minimizedRMSD -1
REMARK  1 active torsions:
REMARK  status: ('A' for Active; 'I' for Inactive)
REMARK    1  A    between atoms: N_2  and  C1_3 
ROOT
ATOM      1  C1  UNL d   1      -0.291   0.793   0.419  0.00  0.00     0.143 A 
ATOM      2  C2  UNL d   1      -0.605   2.126   0.704  0.00  0.00    -0.057 A 
ATOM      3  C3  UNL d   1       0.113   3.180   0.128  0.00  0.00     0.033 A 
ATOM      4  C4  UNL d   1       1.182   2.918  -0.723  0.00  0.00    -0.042 A 
ATOM      5  C5  UNL d   1       1.528   1.601  -1.001  0.00  0.00     0.033 A 
ATOM      6  C6  UNL d   1       0.802   0.552  -0.428  0.00  0.00    -0.057 A 
ENDROOT
BRANCH   1   7
ATOM      7  N   UNL d   1      -0.904  -0.300   1.037  0.00  0.00    -0.732 N 
ATOM      8  C   UNL d   1      -2.110  -0.124   1.818  0.00  0.00     0.284 C 
ATOM      9  H3  UNL d   1      -0.909  -1.128   0.445  0.00  0.00     0.395 HD
ENDBRANCH   1   7
TORSDOF 1
ENDMDL
