MODEL 1
REMARK minimizedAffinity -4.83372688
REMARK minimizedRMSD -1
REMARK  1 active torsions:
REMARK  status: ('A' for Active; 'I' for Inactive)
REMARK    1  A    between atoms: N_2  and  C1_3 
ROOT
ATOM      1  C1  UNL d   1      -0.064   0.160   0.419  0.00  0.00     0.143 A 
ATOM      2  C2  UNL d   1      -1.193   0.920   0.743  0.00  0.00    -0.057 A 
ATOM      3  C3  UNL d   1      -1.212   2.308   0.559  0.00  0.00     0.033 A 
ATOM      4  C4  UNL d   1      -0.087   2.966   0.074  0.00  0.00    -0.042 A 
ATOM      5  C5  UNL d   1       1.056   2.234  -0.231  0.00  0.00     0.033 A 
ATOM      6  C6  UNL d   1       1.065   0.848  -0.051  0.00  0.00    -0.057 A 
ENDROOT
BRANCH   1   7
ATOM      7  N   UNL d   1       0.050  -1.209   0.672  0.00  0.00    -0.732 N 
ATOM      8  C   UNL d   1      -0.079  -2.170  -0.403  0.00  0.00     0.284 C 
ATOM      9  H3  UNL d   1       0.795  -1.422   1.332  0.00  0.00     0.395 HD
ENDBRANCH   1   7
TORSDOF 1
ENDMDL
