MODEL 1
REMARK minimizedAffinity -4.26500797
REMARK minimizedRMSD -1
REMARK  1 active torsions:
REMARK  status: ('A' for Active; 'I' for Inactive)
REMARK    1  A    between atoms: N_2  and  C1_3 
ROOT
ATOM      1  C1  UNL d   1      -0.155   0.051  -0.286  0.00  0.00     0.143 A 
ATOM      2  C2  UNL d   1      -1.190   0.798   0.287  0.00  0.00    -0.057 A 
ATOM      3  C3  UNL d   1      -1.080   2.184   0.453  0.00  0.00     0.033 A 
ATOM      4  C4  UNL d   1       0.084   2.845   0.075  0.00  0.00    -0.042 A 
ATOM      5  C5  UNL d   1       1.136   2.120  -0.473  0.00  0.00     0.033 A 
ATOM      6  C6  UNL d   1       1.017   0.737  -0.643  0.00  0.00    -0.057 A 
ENDROOT
BRANCH   1   7
ATOM      7  N   UNL d   1      -0.165  -1.342  -0.388  0.00  0.00    -0.732 N 
ATOM      8  C   UNL d   1       0.130  -1.991  -1.647  0.00  0.00     0.284 C 
ATOM      9  H3  UNL d   1       0.255  -1.794   0.421  0.00  0.00     0.395 HD
ENDBRANCH   1   7
TORSDOF 1
ENDMDL
