MODEL 1
REMARK minimizedAffinity -4.18356752
REMARK minimizedRMSD -1
REMARK  1 active torsions:
REMARK  status: ('A' for Active; 'I' for Inactive)
REMARK    1  A    between atoms: N_2  and  C1_3 
ROOT
ATOM      1  C1  UNL d   1       0.060   0.372  -0.003  0.00  0.00     0.143 A 
ATOM      2  C2  UNL d   1       1.042   1.092  -0.691  0.00  0.00    -0.057 A 
ATOM      3  C3  UNL d   1       1.020   2.491  -0.735  0.00  0.00     0.033 A 
ATOM      4  C4  UNL d   1      -0.006   3.196  -0.115  0.00  0.00    -0.042 A 
ATOM      5  C5  UNL d   1      -1.007   2.500   0.554  0.00  0.00     0.033 A 
ATOM      6  C6  UNL d   1      -0.975   1.103   0.600  0.00  0.00    -0.057 A 
ENDROOT
BRANCH   1   7
ATOM      7  N   UNL d   1      -0.027  -1.022  -0.005  0.00  0.00    -0.732 N 
ATOM      8  C   UNL d   1      -0.058  -1.757  -1.252  0.00  0.00     0.284 C 
ATOM      9  H3  UNL d   1       0.552  -1.449   0.714  0.00  0.00     0.395 HD
ENDBRANCH   1   7
TORSDOF 1
ENDMDL
