MODEL 1
REMARK minimizedAffinity -5.1435647
REMARK minimizedRMSD -1
REMARK  1 active torsions:
REMARK  status: ('A' for Active; 'I' for Inactive)
REMARK    1  A    between atoms: N_2  and  C1_3 
ROOT
ATOM      1  C1  UNL d   1      -0.099   0.265  -0.042  0.00  0.00     0.143 A 
ATOM      2  C2  UNL d   1      -0.854   1.442  -0.097  0.00  0.00    -0.057 A 
ATOM      3  C3  UNL d   1      -0.241   2.700  -0.063  0.00  0.00     0.033 A 
ATOM      4  C4  UNL d   1       1.141   2.804   0.056  0.00  0.00    -0.042 A 
ATOM      5  C5  UNL d   1       1.909   1.648   0.137  0.00  0.00     0.033 A 
ATOM      6  C6  UNL d   1       1.291   0.394   0.096  0.00  0.00    -0.057 A 
ENDROOT
BRANCH   1   7
ATOM      7  N   UNL d   1      -0.657  -1.014   0.027  0.00  0.00    -0.732 N 
ATOM      8  C   UNL d   1       0.148  -2.185  -0.246  0.00  0.00     0.284 C 
ATOM      9  H3  UNL d   1      -1.289  -1.119   0.818  0.00  0.00     0.395 HD
ENDBRANCH   1   7
TORSDOF 1
ENDMDL
