MODEL 1
REMARK minimizedAffinity -5.6663332
REMARK minimizedRMSD -1
REMARK  1 active torsions:
REMARK  status: ('A' for Active; 'I' for Inactive)
REMARK    1  A    between atoms: N_2  and  C1_3 
ROOT
ATOM      1  C1  UNL d   1       1.403   1.167   0.592  0.00  0.00     0.143 A 
ATOM      2  C2  UNL d   1       2.475   2.066   0.617  0.00  0.00    -0.057 A 
ATOM      3  C3  UNL d   1       2.279   3.436   0.406  0.00  0.00     0.033 A 
ATOM      4  C4  UNL d   1       1.006   3.929   0.137  0.00  0.00    -0.042 A 
ATOM      5  C5  UNL d   1      -0.070   3.051   0.083  0.00  0.00     0.033 A 
ATOM      6  C6  UNL d   1       0.131   1.685   0.301  0.00  0.00    -0.057 A 
ENDROOT
BRANCH   1   7
ATOM      7  N   UNL d   1       1.547  -0.219   0.696  0.00  0.00    -0.732 N 
ATOM      8  C   UNL d   1       0.656  -1.108  -0.018  0.00  0.00     0.284 C 
ATOM      9  H3  UNL d   1       2.522  -0.510   0.684  0.00  0.00     0.395 HD
ENDBRANCH   1   7
TORSDOF 1
ENDMDL
