MODEL 1
REMARK minimizedAffinity -1.87318981
REMARK minimizedRMSD -1
REMARK  2 active torsions:
REMARK  status: ('A' for Active; 'I' for Inactive)
REMARK    1  A    between atoms: C2'_3  and  C1'_4 
REMARK    2  A    between atoms: C1'_4  and  C1_5 
ROOT
ATOM      1  C1  I4B d   1      -5.845  -4.463   1.967  0.00  0.00    -0.075 A 
ATOM      2  C2  I4B d   1      -5.774  -3.112   2.201  0.00  0.00     0.003 A 
ATOM      3  C3  I4B d   1      -5.659  -2.624   3.525  0.00  0.00     0.002 A 
ATOM      4  C4  I4B d   1      -5.669  -3.513   4.581  0.00  0.00    -0.004 A 
ATOM      5  C5  I4B d   1      -5.718  -4.883   4.340  0.00  0.00     0.002 A 
ATOM      6  C6  I4B d   1      -5.794  -5.362   3.024  0.00  0.00     0.003 A 
ENDROOT
BRANCH   1   7
ATOM      7  C1' I4B d   1      -6.000  -4.942   0.558  0.00  0.00     0.060 C 
BRANCH   7   8
ATOM      8  C2' I4B d   1      -4.944  -5.999   0.306  0.00  0.00    -0.013 C 
ATOM      9  C4' I4B d   1      -4.506  -6.000  -1.135  0.00  0.00     0.013 C 
ATOM     10  C3' I4B d   1      -3.789  -5.727   1.223  0.00  0.00     0.013 C 
ENDBRANCH   7   8
ENDBRANCH   1   7
TORSDOF 2
ENDMDL
