MODEL 1
REMARK minimizedAffinity 19.2840405
REMARK minimizedRMSD -1
REMARK  2 active torsions:
REMARK  status: ('A' for Active; 'I' for Inactive)
REMARK    1  A    between atoms: C2'_3  and  C1'_4 
REMARK    2  A    between atoms: C1'_4  and  C1_5 
ROOT
ATOM      1  C1  I4B d   1      -3.529   1.461   3.720  0.00  0.00    -0.075 A 
ATOM      2  C2  I4B d   1      -2.741   1.410   4.842  0.00  0.00     0.003 A 
ATOM      3  C3  I4B d   1      -3.099   2.143   5.999  0.00  0.00     0.002 A 
ATOM      4  C4  I4B d   1      -4.219   2.949   5.973  0.00  0.00    -0.004 A 
ATOM      5  C5  I4B d   1      -5.030   2.982   4.842  0.00  0.00     0.002 A 
ATOM      6  C6  I4B d   1      -4.690   2.224   3.712  0.00  0.00     0.003 A 
ENDROOT
BRANCH   1   7
ATOM      7  C1' I4B d   1      -3.104   0.700   2.504  0.00  0.00     0.060 C 
BRANCH   7   8
ATOM      8  C2' I4B d   1      -3.488  -0.752   2.704  0.00  0.00    -0.013 C 
ATOM      9  C4' I4B d   1      -3.623  -1.083   4.167  0.00  0.00     0.013 C 
ATOM     10  C3' I4B d   1      -4.774  -0.996   1.973  0.00  0.00     0.013 C 
ENDBRANCH   7   8
ENDBRANCH   1   7
TORSDOF 2
ENDMDL
