MODEL 1
REMARK minimizedAffinity 14.9849176
REMARK minimizedRMSD -1
REMARK  2 active torsions:
REMARK  status: ('A' for Active; 'I' for Inactive)
REMARK    1  A    between atoms: C2'_3  and  C1'_4 
REMARK    2  A    between atoms: C1'_4  and  C1_5 
ROOT
ATOM      1  C1  I4B d   1       2.570  -0.675  -1.235  0.00  0.00    -0.075 A 
ATOM      2  C2  I4B d   1       1.537  -1.192  -1.977  0.00  0.00     0.003 A 
ATOM      3  C3  I4B d   1       1.306  -2.588  -2.000  0.00  0.00     0.002 A 
ATOM      4  C4  I4B d   1       2.156  -3.430  -1.312  0.00  0.00    -0.004 A 
ATOM      5  C5  I4B d   1       3.188  -2.902  -0.542  0.00  0.00     0.002 A 
ATOM      6  C6  I4B d   1       3.389  -1.515  -0.493  0.00  0.00     0.003 A 
ENDROOT
BRANCH   1   7
ATOM      7  C1' I4B d   1       2.806   0.802  -1.259  0.00  0.00     0.060 C 
BRANCH   7   8
ATOM      8  C2' I4B d   1       3.807   1.132  -0.171  0.00  0.00    -0.013 C 
ATOM      9  C4' I4B d   1       5.059   1.739  -0.748  0.00  0.00     0.013 C 
ATOM     10  C3' I4B d   1       3.148   2.070   0.796  0.00  0.00     0.013 C 
ENDBRANCH   7   8
ENDBRANCH   1   7
TORSDOF 2
ENDMDL
