MODEL 1
REMARK minimizedAffinity 8.78573704
REMARK minimizedRMSD -1
REMARK  2 active torsions:
REMARK  status: ('A' for Active; 'I' for Inactive)
REMARK    1  A    between atoms: C2'_3  and  C1'_4 
REMARK    2  A    between atoms: C1'_4  and  C1_5 
ROOT
ATOM      1  C1  I4B d   1       2.593  -2.704  -1.251  0.00  0.00    -0.075 A 
ATOM      2  C2  I4B d   1       2.480  -1.541  -0.532  0.00  0.00     0.003 A 
ATOM      3  C3  I4B d   1       2.150  -0.328  -1.184  0.00  0.00     0.002 A 
ATOM      4  C4  I4B d   1       1.991  -0.315  -2.555  0.00  0.00    -0.004 A 
ATOM      5  C5  I4B d   1       2.083  -1.500  -3.280  0.00  0.00     0.002 A 
ATOM      6  C6  I4B d   1       2.373  -2.705  -2.623  0.00  0.00     0.003 A 
ENDROOT
BRANCH   1   7
ATOM      7  C1' I4B d   1       2.975  -3.960  -0.535  0.00  0.00     0.060 C 
BRANCH   7   8
ATOM      8  C2' I4B d   1       4.473  -4.140  -0.676  0.00  0.00    -0.013 C 
ATOM      9  C4' I4B d   1       5.219  -3.300   0.327  0.00  0.00     0.013 C 
ATOM     10  C3' I4B d   1       4.784  -5.596  -0.500  0.00  0.00     0.013 C 
ENDBRANCH   7   8
ENDBRANCH   1   7
TORSDOF 2
ENDMDL
