MODEL 1
REMARK minimizedAffinity -2.04275346
REMARK minimizedRMSD -1
REMARK  2 active torsions:
REMARK  status: ('A' for Active; 'I' for Inactive)
REMARK    1  A    between atoms: C2'_3  and  C1'_4 
REMARK    2  A    between atoms: C1'_4  and  C1_5 
ROOT
ATOM      1  C1  I4B d   1       3.193  -4.133  -3.787  0.00  0.00    -0.075 A 
ATOM      2  C2  I4B d   1       3.118  -3.515  -5.010  0.00  0.00     0.003 A 
ATOM      3  C3  I4B d   1       4.099  -3.769  -5.999  0.00  0.00     0.002 A 
ATOM      4  C4  I4B d   1       5.158  -4.604  -5.707  0.00  0.00    -0.004 A 
ATOM      5  C5  I4B d   1       5.220  -5.248  -4.475  0.00  0.00     0.002 A 
ATOM      6  C6  I4B d   1       4.225  -5.021  -3.513  0.00  0.00     0.003 A 
ENDROOT
BRANCH   1   7
ATOM      7  C1' I4B d   1       2.159  -3.817  -2.754  0.00  0.00     0.060 C 
BRANCH   7   8
ATOM      8  C2' I4B d   1       2.655  -2.637  -1.943  0.00  0.00    -0.013 C 
ATOM      9  C4' I4B d   1       1.748  -1.445  -2.105  0.00  0.00     0.013 C 
ATOM     10  C3' I4B d   1       2.738  -3.063  -0.508  0.00  0.00     0.013 C 
ENDBRANCH   7   8
ENDBRANCH   1   7
TORSDOF 2
ENDMDL
