MODEL 1
REMARK minimizedAffinity 8.73839474
REMARK minimizedRMSD -1
REMARK  2 active torsions:
REMARK  status: ('A' for Active; 'I' for Inactive)
REMARK    1  A    between atoms: C2'_3  and  C1'_4 
REMARK    2  A    between atoms: C1'_4  and  C1_5 
ROOT
ATOM      1  C1  I4B d   1      -3.738   0.020   3.566  0.00  0.00    -0.075 A 
ATOM      2  C2  I4B d   1      -4.190  -0.359   2.327  0.00  0.00     0.003 A 
ATOM      3  C3  I4B d   1      -4.637  -1.684   2.105  0.00  0.00     0.002 A 
ATOM      4  C4  I4B d   1      -4.568  -2.605   3.131  0.00  0.00    -0.004 A 
ATOM      5  C5  I4B d   1      -4.131  -2.213   4.393  0.00  0.00     0.002 A 
ATOM      6  C6  I4B d   1      -3.725  -0.889   4.616  0.00  0.00     0.003 A 
ENDROOT
BRANCH   1   7
ATOM      7  C1' I4B d   1      -3.243   1.419   3.756  0.00  0.00     0.060 C 
BRANCH   7   8
ATOM      8  C2' I4B d   1      -3.718   1.902   5.112  0.00  0.00    -0.013 C 
ATOM      9  C4' I4B d   1      -2.557   2.288   5.990  0.00  0.00     0.013 C 
ATOM     10  C3' I4B d   1      -4.640   3.064   4.892  0.00  0.00     0.013 C 
ENDBRANCH   7   8
ENDBRANCH   1   7
TORSDOF 2
ENDMDL
