MODEL 1
REMARK minimizedAffinity 9.71137905
REMARK minimizedRMSD -1
REMARK  2 active torsions:
REMARK  status: ('A' for Active; 'I' for Inactive)
REMARK    1  A    between atoms: C2'_3  and  C1'_4 
REMARK    2  A    between atoms: C1'_4  and  C1_5 
ROOT
ATOM      1  C1  I4B d   1      -0.985   1.869   3.865  0.00  0.00    -0.075 A 
ATOM      2  C2  I4B d   1      -1.063   2.389   5.133  0.00  0.00     0.003 A 
ATOM      3  C3  I4B d   1       0.056   2.329   5.999  0.00  0.00     0.002 A 
ATOM      4  C4  I4B d   1       1.209   1.700   5.576  0.00  0.00    -0.004 A 
ATOM      5  C5  I4B d   1       1.294   1.194   4.282  0.00  0.00     0.002 A 
ATOM      6  C6  I4B d   1       0.195   1.290   3.417  0.00  0.00     0.003 A 
ENDROOT
BRANCH   1   7
ATOM      7  C1' I4B d   1      -2.196   1.920   2.989  0.00  0.00     0.060 C 
BRANCH   7   8
ATOM      8  C2' I4B d   1      -3.294   1.123   3.664  0.00  0.00    -0.013 C 
ATOM      9  C4' I4B d   1      -4.266   2.028   4.375  0.00  0.00     0.013 C 
ATOM     10  C3' I4B d   1      -3.985   0.305   2.614  0.00  0.00     0.013 C 
ENDBRANCH   7   8
ENDBRANCH   1   7
TORSDOF 2
ENDMDL
