MODEL 1
REMARK minimizedAffinity 16.0137024
REMARK minimizedRMSD -1
REMARK  2 active torsions:
REMARK  status: ('A' for Active; 'I' for Inactive)
REMARK    1  A    between atoms: C2'_3  and  C1'_4 
REMARK    2  A    between atoms: C1'_4  and  C1_5 
ROOT
ATOM      1  C1  I4B d   1      -4.119  -0.775   4.709  0.00  0.00    -0.075 A 
ATOM      2  C2  I4B d   1      -4.786  -0.601   3.522  0.00  0.00     0.003 A 
ATOM      3  C3  I4B d   1      -5.220  -1.724   2.776  0.00  0.00     0.002 A 
ATOM      4  C4  I4B d   1      -4.923  -2.994   3.226  0.00  0.00    -0.004 A 
ATOM      5  C5  I4B d   1      -4.267  -3.169   4.441  0.00  0.00     0.002 A 
ATOM      6  C6  I4B d   1      -3.873  -2.053   5.194  0.00  0.00     0.003 A 
ENDROOT
BRANCH   1   7
ATOM      7  C1' I4B d   1      -3.647   0.433   5.454  0.00  0.00     0.060 C 
BRANCH   7   8
ATOM      8  C2' I4B d   1      -3.860   1.642   4.566  0.00  0.00    -0.013 C 
ATOM      9  C4' I4B d   1      -4.626   2.719   5.286  0.00  0.00     0.013 C 
ATOM     10  C3' I4B d   1      -2.513   2.136   4.127  0.00  0.00     0.013 C 
ENDBRANCH   7   8
ENDBRANCH   1   7
TORSDOF 2
ENDMDL
