MODEL 1
REMARK minimizedAffinity 2.70376587
REMARK minimizedRMSD -1
REMARK  2 active torsions:
REMARK  status: ('A' for Active; 'I' for Inactive)
REMARK    1  A    between atoms: C2'_3  and  C1'_4 
REMARK    2  A    between atoms: C1'_4  and  C1_5 
ROOT
ATOM      1  C1  I4B d   1       3.095  -3.470  -1.516  0.00  0.00    -0.075 A 
ATOM      2  C2  I4B d   1       2.453  -3.155  -2.687  0.00  0.00     0.003 A 
ATOM      3  C3  I4B d   1       2.612  -3.975  -3.830  0.00  0.00     0.002 A 
ATOM      4  C4  I4B d   1       3.458  -5.064  -3.773  0.00  0.00    -0.004 A 
ATOM      5  C5  I4B d   1       4.091  -5.395  -2.578  0.00  0.00     0.002 A 
ATOM      6  C6  I4B d   1       3.899  -4.600  -1.438  0.00  0.00     0.003 A 
ENDROOT
BRANCH   1   7
ATOM      7  C1' I4B d   1       2.930  -2.564  -0.337  0.00  0.00     0.060 C 
BRANCH   7   8
ATOM      8  C2' I4B d   1       3.694  -1.287  -0.620  0.00  0.00    -0.013 C 
ATOM      9  C4' I4B d   1       2.780  -0.090  -0.610  0.00  0.00     0.013 C 
ATOM     10  C3' I4B d   1       4.772  -1.153   0.415  0.00  0.00     0.013 C 
ENDBRANCH   7   8
ENDBRANCH   1   7
TORSDOF 2
ENDMDL
