MODEL 1
REMARK minimizedAffinity 6.27779102
REMARK minimizedRMSD -1
REMARK  1 active torsions:
REMARK  status: ('A' for Active; 'I' for Inactive)
REMARK    1  A    between atoms: C1_2  and  C2_3 
ROOT
ATOM      1  C2  UNL d   1      -0.131  -0.481   3.409  0.00  0.00    -0.076 A 
ATOM      2  C3  UNL d   1      -0.917  -1.067   2.401  0.00  0.00     0.004 A 
ATOM      3  C4  UNL d   1      -2.059  -0.429   1.921  0.00  0.00    -0.003 A 
ATOM      4  C5  UNL d   1      -2.435   0.805   2.440  0.00  0.00     0.000 A 
ATOM      5  C6  UNL d   1      -1.658   1.409   3.427  0.00  0.00     0.000 A 
ATOM      6  C7  UNL d   1      -0.494   0.788   3.912  0.00  0.00    -0.073 A 
ATOM      7  C8  UNL d   1       0.303   1.482   4.982  0.00  0.00     0.078 C 
ENDROOT
BRANCH   1   8
ATOM      8  C1  UNL d   1       1.082  -1.231   3.910  0.00  0.00     0.053 C 
ATOM      9  C   UNL d   1       0.711  -2.480   4.695  0.00  0.00     0.018 C 
ENDBRANCH   1   8
TORSDOF 1
ENDMDL
