MODEL 1
REMARK minimizedAffinity 9.36950016
REMARK minimizedRMSD -1
REMARK  1 active torsions:
REMARK  status: ('A' for Active; 'I' for Inactive)
REMARK    1  A    between atoms: C1_2  and  C2_3 
ROOT
ATOM      1  C2  UNL d   1      -0.869  -0.293   2.153  0.00  0.00    -0.076 A 
ATOM      2  C3  UNL d   1      -0.377   0.393   3.277  0.00  0.00     0.004 A 
ATOM      3  C4  UNL d   1       0.965   0.298   3.645  0.00  0.00    -0.003 A 
ATOM      4  C5  UNL d   1       1.835  -0.484   2.893  0.00  0.00     0.000 A 
ATOM      5  C6  UNL d   1       1.368  -1.157   1.765  0.00  0.00     0.000 A 
ATOM      6  C7  UNL d   1       0.022  -1.059   1.372  0.00  0.00    -0.073 A 
ATOM      7  C8  UNL d   1      -0.430  -1.811   0.150  0.00  0.00     0.078 C 
ENDROOT
BRANCH   1   8
ATOM      8  C1  UNL d   1      -2.339  -0.174   1.819  0.00  0.00     0.053 C 
ATOM      9  C   UNL d   1      -3.115  -1.442   2.142  0.00  0.00     0.018 C 
ENDBRANCH   1   8
TORSDOF 1
ENDMDL
