MODEL 1
REMARK minimizedAffinity 9.92433739
REMARK minimizedRMSD -1
REMARK  1 active torsions:
REMARK  status: ('A' for Active; 'I' for Inactive)
REMARK    1  A    between atoms: C1_2  and  C2_3 
ROOT
ATOM      1  C2  UNL d   1       0.087  -1.228   2.885  0.00  0.00    -0.076 A 
ATOM      2  C3  UNL d   1      -1.199  -1.545   2.413  0.00  0.00     0.004 A 
ATOM      3  C4  UNL d   1      -2.139  -0.546   2.169  0.00  0.00    -0.003 A 
ATOM      4  C5  UNL d   1      -1.810   0.787   2.391  0.00  0.00     0.000 A 
ATOM      5  C6  UNL d   1      -0.533   1.121   2.842  0.00  0.00     0.000 A 
ATOM      6  C7  UNL d   1       0.433   0.127   3.078  0.00  0.00    -0.073 A 
ATOM      7  C8  UNL d   1       1.792   0.543   3.570  0.00  0.00     0.078 C 
ENDROOT
BRANCH   1   8
ATOM      8  C1  UNL d   1       1.057  -2.355   3.158  0.00  0.00     0.053 C 
ATOM      9  C   UNL d   1       0.844  -2.988   4.525  0.00  0.00     0.018 C 
ENDBRANCH   1   8
TORSDOF 1
ENDMDL
