MODEL 1
REMARK minimizedAffinity 12.8509207
REMARK minimizedRMSD -1
REMARK  1 active torsions:
REMARK  status: ('A' for Active; 'I' for Inactive)
REMARK    1  A    between atoms: C1_2  and  C2_3 
ROOT
ATOM      1  C2  UNL d   1      -0.425  -1.967  -3.582  0.00  0.00    -0.076 A 
ATOM      2  C3  UNL d   1       0.274  -0.752  -3.478  0.00  0.00     0.004 A 
ATOM      3  C4  UNL d   1       0.705  -0.072  -4.616  0.00  0.00    -0.003 A 
ATOM      4  C5  UNL d   1       0.444  -0.597  -5.877  0.00  0.00     0.000 A 
ATOM      5  C6  UNL d   1      -0.263  -1.793  -6.000  0.00  0.00     0.000 A 
ATOM      6  C7  UNL d   1      -0.720  -2.482  -4.863  0.00  0.00    -0.073 A 
ATOM      7  C8  UNL d   1      -1.473  -3.770  -5.054  0.00  0.00     0.078 C 
ENDROOT
BRANCH   1   8
ATOM      8  C1  UNL d   1      -0.844  -2.672  -2.312  0.00  0.00     0.053 C 
ATOM      9  C   UNL d   1       0.251  -2.673  -1.258  0.00  0.00     0.018 C 
ENDBRANCH   1   8
TORSDOF 1
ENDMDL
