MODEL 1
REMARK minimizedAffinity 16.6883221
REMARK minimizedRMSD -1
REMARK  1 active torsions:
REMARK  status: ('A' for Active; 'I' for Inactive)
REMARK    1  A    between atoms: C1_2  and  C2_3 
ROOT
ATOM      1  C2  UNL d   1      -0.518   1.277   3.688  0.00  0.00    -0.076 A 
ATOM      2  C3  UNL d   1       0.097   0.969   4.914  0.00  0.00     0.004 A 
ATOM      3  C4  UNL d   1       0.006   1.838   6.000  0.00  0.00    -0.003 A 
ATOM      4  C5  UNL d   1      -0.701   3.029   5.878  0.00  0.00     0.000 A 
ATOM      5  C6  UNL d   1      -1.332   3.342   4.674  0.00  0.00     0.000 A 
ATOM      6  C7  UNL d   1      -1.264   2.470   3.575  0.00  0.00    -0.073 A 
ATOM      7  C8  UNL d   1      -1.959   2.860   2.299  0.00  0.00     0.078 C 
ENDROOT
BRANCH   1   8
ATOM      8  C1  UNL d   1      -0.363   0.309   2.537  0.00  0.00     0.053 C 
ATOM      9  C   UNL d   1       0.053  -1.080   2.995  0.00  0.00     0.018 C 
ENDBRANCH   1   8
TORSDOF 1
ENDMDL
