MODEL 1
REMARK minimizedAffinity 9.15527058
REMARK minimizedRMSD -1
REMARK  1 active torsions:
REMARK  status: ('A' for Active; 'I' for Inactive)
REMARK    1  A    between atoms: C1_2  and  C2_3 
ROOT
ATOM      1  C2  UNL d   1      -3.993  -0.364  -0.703  0.00  0.00    -0.076 A 
ATOM      2  C3  UNL d   1      -3.476  -1.635  -0.398  0.00  0.00     0.004 A 
ATOM      3  C4  UNL d   1      -2.955  -1.914   0.865  0.00  0.00    -0.003 A 
ATOM      4  C5  UNL d   1      -2.944  -0.926   1.843  0.00  0.00     0.000 A 
ATOM      5  C6  UNL d   1      -3.469   0.336   1.564  0.00  0.00     0.000 A 
ATOM      6  C7  UNL d   1      -4.012   0.628   0.301  0.00  0.00    -0.073 A 
ATOM      7  C8  UNL d   1      -4.560   2.007   0.053  0.00  0.00     0.078 C 
ENDROOT
BRANCH   1   8
ATOM      8  C1  UNL d   1      -4.519  -0.111  -2.097  0.00  0.00     0.053 C 
ATOM      9  C   UNL d   1      -6.000  -0.435  -2.229  0.00  0.00     0.018 C 
ENDBRANCH   1   8
TORSDOF 1
ENDMDL
