MODEL 1
REMARK minimizedAffinity 2.67091298
REMARK minimizedRMSD -1
REMARK  1 active torsions:
REMARK  status: ('A' for Active; 'I' for Inactive)
REMARK    1  A    between atoms: C1_2  and  C2_3 
ROOT
ATOM      1  C2  UNL d   1       0.165  -1.781   3.198  0.00  0.00    -0.076 A 
ATOM      2  C3  UNL d   1       1.345  -1.086   2.879  0.00  0.00     0.004 A 
ATOM      3  C4  UNL d   1       1.339  -0.055   1.941  0.00  0.00    -0.003 A 
ATOM      4  C5  UNL d   1       0.152   0.300   1.308  0.00  0.00     0.000 A 
ATOM      5  C6  UNL d   1      -1.031  -0.367   1.626  0.00  0.00     0.000 A 
ATOM      6  C7  UNL d   1      -1.045  -1.398   2.581  0.00  0.00    -0.073 A 
ATOM      7  C8  UNL d   1      -2.348  -2.087   2.880  0.00  0.00     0.078 C 
ENDROOT
BRANCH   1   8
ATOM      8  C1  UNL d   1       0.238  -2.908   4.203  0.00  0.00     0.053 C 
ATOM      9  C   UNL d   1       1.473  -2.823   5.086  0.00  0.00     0.018 C 
ENDBRANCH   1   8
TORSDOF 1
ENDMDL
