MODEL 1
REMARK minimizedAffinity 1.43522251
REMARK minimizedRMSD -1
REMARK  1 active torsions:
REMARK  status: ('A' for Active; 'I' for Inactive)
REMARK    1  A    between atoms: C1_2  and  C2_3 
ROOT
ATOM      1  C2  UNL d   1       0.134  -1.492   3.333  0.00  0.00    -0.076 A 
ATOM      2  C3  UNL d   1      -1.264  -1.404   3.452  0.00  0.00     0.004 A 
ATOM      3  C4  UNL d   1      -2.019  -0.689   2.524  0.00  0.00    -0.003 A 
ATOM      4  C5  UNL d   1      -1.389  -0.052   1.461  0.00  0.00     0.000 A 
ATOM      5  C6  UNL d   1      -0.005  -0.144   1.317  0.00  0.00     0.000 A 
ATOM      6  C7  UNL d   1       0.770  -0.873   2.235  0.00  0.00    -0.073 A 
ATOM      7  C8  UNL d   1       2.259  -0.934   2.035  0.00  0.00     0.078 C 
ENDROOT
BRANCH   1   8
ATOM      8  C1  UNL d   1       0.904  -2.258   4.386  0.00  0.00     0.053 C 
ATOM      9  C   UNL d   1       2.044  -1.445   4.980  0.00  0.00     0.018 C 
ENDBRANCH   1   8
TORSDOF 1
ENDMDL
