MODEL 1
REMARK minimizedAffinity 1.21940267
REMARK minimizedRMSD -1
REMARK  1 active torsions:
REMARK  status: ('A' for Active; 'I' for Inactive)
REMARK    1  A    between atoms: C1_2  and  C2_3 
ROOT
ATOM      1  C2  UNL d   1       0.044  -0.842   2.862  0.00  0.00    -0.076 A 
ATOM      2  C3  UNL d   1      -1.327  -0.872   2.553  0.00  0.00     0.004 A 
ATOM      3  C4  UNL d   1      -2.221  -1.610   3.326  0.00  0.00    -0.003 A 
ATOM      4  C5  UNL d   1      -1.759  -2.330   4.422  0.00  0.00     0.000 A 
ATOM      5  C6  UNL d   1      -0.405  -2.298   4.754  0.00  0.00     0.000 A 
ATOM      6  C7  UNL d   1       0.507  -1.545   3.995  0.00  0.00    -0.073 A 
ATOM      7  C8  UNL d   1       1.957  -1.551   4.394  0.00  0.00     0.078 C 
ENDROOT
BRANCH   1   8
ATOM      8  C1  UNL d   1       0.970  -0.046   1.971  0.00  0.00     0.053 C 
ATOM      9  C   UNL d   1       1.881  -0.933   1.137  0.00  0.00     0.018 C 
ENDBRANCH   1   8
TORSDOF 1
ENDMDL
