MODEL 1
REMARK minimizedAffinity -1.63870645
REMARK minimizedRMSD -1
REMARK  1 active torsions:
REMARK  status: ('A' for Active; 'I' for Inactive)
REMARK    1  A    between atoms: C1_2  and  C2_3 
ROOT
ATOM      1  C2  UNL d   1      -0.713  -0.764   2.072  0.00  0.00    -0.076 A 
ATOM      2  C3  UNL d   1       0.648  -0.441   2.210  0.00  0.00     0.004 A 
ATOM      3  C4  UNL d   1       1.464  -1.137   3.100  0.00  0.00    -0.003 A 
ATOM      4  C5  UNL d   1       0.932  -2.169   3.866  0.00  0.00     0.000 A 
ATOM      5  C6  UNL d   1      -0.412  -2.515   3.728  0.00  0.00     0.000 A 
ATOM      6  C7  UNL d   1      -1.244  -1.834   2.824  0.00  0.00    -0.073 A 
ATOM      7  C8  UNL d   1      -2.687  -2.245   2.721  0.00  0.00     0.078 C 
ENDROOT
BRANCH   1   8
ATOM      8  C1  UNL d   1      -1.555   0.044   1.111  0.00  0.00     0.053 C 
ATOM      9  C   UNL d   1      -1.626  -0.585  -0.272  0.00  0.00     0.018 C 
ENDBRANCH   1   8
TORSDOF 1
ENDMDL
