MODEL 1
REMARK minimizedAffinity 1.9837389
REMARK minimizedRMSD -1
REMARK  1 active torsions:
REMARK  status: ('A' for Active; 'I' for Inactive)
REMARK    1  A    between atoms: C1_2  and  C2_3 
ROOT
ATOM      1  C2  UNL d   1      -1.020  -2.028   3.230  0.00  0.00    -0.076 A 
ATOM      2  C3  UNL d   1      -0.169  -2.655   4.156  0.00  0.00     0.004 A 
ATOM      3  C4  UNL d   1       1.126  -2.186   4.373  0.00  0.00    -0.003 A 
ATOM      4  C5  UNL d   1       1.590  -1.082   3.666  0.00  0.00     0.000 A 
ATOM      5  C6  UNL d   1       0.753  -0.437   2.756  0.00  0.00     0.000 A 
ATOM      6  C7  UNL d   1      -0.560  -0.886   2.538  0.00  0.00    -0.073 A 
ATOM      7  C8  UNL d   1      -1.417  -0.156   1.541  0.00  0.00     0.078 C 
ENDROOT
BRANCH   1   8
ATOM      8  C1  UNL d   1      -2.405  -2.597   3.017  0.00  0.00     0.053 C 
ATOM      9  C   UNL d   1      -3.500  -1.663   3.508  0.00  0.00     0.018 C 
ENDBRANCH   1   8
TORSDOF 1
ENDMDL
