MODEL 1
REMARK minimizedAffinity 9.19602871
REMARK minimizedRMSD -1
REMARK  1 active torsions:
REMARK  status: ('A' for Active; 'I' for Inactive)
REMARK    1  A    between atoms: C1_2  and  C2_3 
ROOT
ATOM      1  C2  UNL d   1      -3.368  -3.551  -1.551  0.00  0.00    -0.076 A 
ATOM      2  C3  UNL d   1      -3.498  -2.152  -1.500  0.00  0.00     0.004 A 
ATOM      3  C4  UNL d   1      -4.612  -1.515  -2.045  0.00  0.00    -0.003 A 
ATOM      4  C5  UNL d   1      -5.613  -2.266  -2.650  0.00  0.00     0.000 A 
ATOM      5  C6  UNL d   1      -5.509  -3.656  -2.693  0.00  0.00     0.000 A 
ATOM      6  C7  UNL d   1      -4.401  -4.315  -2.134  0.00  0.00    -0.073 A 
ATOM      7  C8  UNL d   1      -4.338  -5.816  -2.214  0.00  0.00     0.078 C 
ENDROOT
BRANCH   1   8
ATOM      8  C1  UNL d   1      -2.126  -4.184  -0.967  0.00  0.00     0.053 C 
ATOM      9  C   UNL d   1      -0.873  -3.853  -1.764  0.00  0.00     0.018 C 
ENDBRANCH   1   8
TORSDOF 1
ENDMDL
