MODEL 1
REMARK minimizedAffinity -4.94557858
REMARK minimizedRMSD -1
REMARK  0 active torsions:
REMARK  status: ('A' for Active; 'I' for Inactive)
ROOT
ATOM      1  C1  BNZ d   1       1.064   1.489  -2.568  0.00  0.00     0.000 A 
ATOM      2  C2  BNZ d   1       2.168   1.289  -3.353  0.00  0.00     0.000 A 
ATOM      3  C3  BNZ d   1       2.899   0.138  -3.253  0.00  0.00     0.000 A 
ATOM      4  C4  BNZ d   1       2.551  -0.791  -2.340  0.00  0.00     0.000 A 
ATOM      5  C5  BNZ d   1       1.446  -0.600  -1.534  0.00  0.00     0.000 A 
ATOM      6  C6  BNZ d   1       0.689   0.541  -1.665  0.00  0.00     0.000 A 
ENDROOT
TORSDOF 0
ENDMDL
