MODEL 1
REMARK minimizedAffinity -2.52607679
REMARK minimizedRMSD -1
REMARK  0 active torsions:
REMARK  status: ('A' for Active; 'I' for Inactive)
ROOT
ATOM      1  C1  BNZ d   1      -1.253   0.478  -0.201  0.00  0.00     0.000 A 
ATOM      2  C2  BNZ d   1      -1.306  -0.869   0.040  0.00  0.00     0.000 A 
ATOM      3  C3  BNZ d   1      -0.229  -1.670  -0.219  0.00  0.00     0.000 A 
ATOM      4  C4  BNZ d   1       0.885  -1.130  -0.754  0.00  0.00     0.000 A 
ATOM      5  C5  BNZ d   1       0.951   0.225  -1.011  0.00  0.00     0.000 A 
ATOM      6  C6  BNZ d   1      -0.122   1.034  -0.713  0.00  0.00     0.000 A 
ENDROOT
TORSDOF 0
ENDMDL
