MODEL 1
REMARK minimizedAffinity -4.32785845
REMARK minimizedRMSD -1
REMARK  0 active torsions:
REMARK  status: ('A' for Active; 'I' for Inactive)
ROOT
ATOM      1  C1  BNZ d   1       0.343  -1.768  -0.327  0.00  0.00     0.000 A 
ATOM      2  C2  BNZ d   1       1.481  -1.649  -1.080  0.00  0.00     0.000 A 
ATOM      3  C3  BNZ d   1       1.970  -0.419  -1.421  0.00  0.00     0.000 A 
ATOM      4  C4  BNZ d   1       1.299   0.689  -1.043  0.00  0.00     0.000 A 
ATOM      5  C5  BNZ d   1       0.145   0.586  -0.292  0.00  0.00     0.000 A 
ATOM      6  C6  BNZ d   1      -0.323  -0.653   0.082  0.00  0.00     0.000 A 
ENDROOT
TORSDOF 0
ENDMDL
