MODEL 1
REMARK minimizedAffinity -3.30028653
REMARK minimizedRMSD -1
REMARK  0 active torsions:
REMARK  status: ('A' for Active; 'I' for Inactive)
ROOT
ATOM      1  C1  BNZ d   1       0.662  -0.162   1.431  0.00  0.00     0.000 A 
ATOM      2  C2  BNZ d   1      -0.436   0.501   1.912  0.00  0.00     0.000 A 
ATOM      3  C3  BNZ d   1      -1.621   0.479   1.231  0.00  0.00     0.000 A 
ATOM      4  C4  BNZ d   1      -1.696  -0.171   0.052  0.00  0.00     0.000 A 
ATOM      5  C5  BNZ d   1      -0.595  -0.836  -0.451  0.00  0.00     0.000 A 
ATOM      6  C6  BNZ d   1       0.585  -0.844   0.256  0.00  0.00     0.000 A 
ENDROOT
TORSDOF 0
ENDMDL
