MODEL 1
REMARK minimizedAffinity -1.76654303
REMARK minimizedRMSD -1
REMARK  0 active torsions:
REMARK  status: ('A' for Active; 'I' for Inactive)
ROOT
ATOM      1  C1  BNZ d   1      -1.135   2.510   3.332  0.00  0.00     0.000 A 
ATOM      2  C2  BNZ d   1      -0.533   2.117   2.167  0.00  0.00     0.000 A 
ATOM      3  C3  BNZ d   1      -0.912   0.965   1.536  0.00  0.00     0.000 A 
ATOM      4  C4  BNZ d   1      -1.864   0.188   2.092  0.00  0.00     0.000 A 
ATOM      5  C5  BNZ d   1      -2.475   0.566   3.271  0.00  0.00     0.000 A 
ATOM      6  C6  BNZ d   1      -2.117   1.745   3.883  0.00  0.00     0.000 A 
ENDROOT
TORSDOF 0
ENDMDL
