MODEL 1
REMARK minimizedAffinity -2.38871264
REMARK minimizedRMSD -1
REMARK  0 active torsions:
REMARK  status: ('A' for Active; 'I' for Inactive)
ROOT
ATOM      1  C1  BNZ d   1      -2.308   0.588   1.276  0.00  0.00     0.000 A 
ATOM      2  C2  BNZ d   1      -1.555   0.251   0.183  0.00  0.00     0.000 A 
ATOM      3  C3  BNZ d   1      -0.223  -0.028   0.310  0.00  0.00     0.000 A 
ATOM      4  C4  BNZ d   1       0.362   0.069   1.521  0.00  0.00     0.000 A 
ATOM      5  C5  BNZ d   1      -0.381   0.417   2.631  0.00  0.00     0.000 A 
ATOM      6  C6  BNZ d   1      -1.730   0.659   2.506  0.00  0.00     0.000 A 
ENDROOT
TORSDOF 0
ENDMDL
