MODEL 1
REMARK minimizedAffinity -5.1272769
REMARK minimizedRMSD -1
REMARK  0 active torsions:
REMARK  status: ('A' for Active; 'I' for Inactive)
ROOT
ATOM      1  C1  BNZ d   1       1.629  -0.273  -0.612  0.00  0.00     0.000 A 
ATOM      2  C2  BNZ d   1       2.767  -0.287  -1.373  0.00  0.00     0.000 A 
ATOM      3  C3  BNZ d   1       2.964   0.643  -2.356  0.00  0.00     0.000 A 
ATOM      4  C4  BNZ d   1       2.006   1.559  -2.603  0.00  0.00     0.000 A 
ATOM      5  C5  BNZ d   1       0.848   1.581  -1.850  0.00  0.00     0.000 A 
ATOM      6  C6  BNZ d   1       0.671   0.668  -0.836  0.00  0.00     0.000 A 
ENDROOT
TORSDOF 0
ENDMDL
