MODEL 1
REMARK minimizedAffinity -3.78819966
REMARK minimizedRMSD -1
REMARK  0 active torsions:
REMARK  status: ('A' for Active; 'I' for Inactive)
ROOT
ATOM      1  C1  BNZ d   1       2.486   0.756  -3.030  0.00  0.00     0.000 A 
ATOM      2  C2  BNZ d   1       3.176  -0.373  -2.677  0.00  0.00     0.000 A 
ATOM      3  C3  BNZ d   1       2.856  -1.062  -1.542  0.00  0.00     0.000 A 
ATOM      4  C4  BNZ d   1       1.875  -0.600  -0.740  0.00  0.00     0.000 A 
ATOM      5  C5  BNZ d   1       1.176   0.542  -1.077  0.00  0.00     0.000 A 
ATOM      6  C6  BNZ d   1       1.475   1.211  -2.242  0.00  0.00     0.000 A 
ENDROOT
TORSDOF 0
ENDMDL
