MODEL 1
REMARK minimizedAffinity -4.00312662
REMARK minimizedRMSD -1
REMARK  0 active torsions:
REMARK  status: ('A' for Active; 'I' for Inactive)
ROOT
ATOM      1  C1  BNZ d   1       1.452  -1.757  -1.020  0.00  0.00     0.000 A 
ATOM      2  C2  BNZ d   1       0.443  -1.723  -0.095  0.00  0.00     0.000 A 
ATOM      3  C3  BNZ d   1      -0.381  -0.636   0.002  0.00  0.00     0.000 A 
ATOM      4  C4  BNZ d   1      -0.169   0.430  -0.797  0.00  0.00     0.000 A 
ATOM      5  C5  BNZ d   1       0.851   0.415  -1.728  0.00  0.00     0.000 A 
ATOM      6  C6  BNZ d   1       1.653  -0.697  -1.849  0.00  0.00     0.000 A 
ENDROOT
TORSDOF 0
ENDMDL
