MODEL 1
REMARK minimizedAffinity -3.70456529
REMARK minimizedRMSD -1
REMARK  0 active torsions:
REMARK  status: ('A' for Active; 'I' for Inactive)
ROOT
ATOM      1  C1  BNZ d   1       2.253  -0.190  -2.529  0.00  0.00     0.000 A 
ATOM      2  C2  BNZ d   1       1.958  -1.080  -1.530  0.00  0.00     0.000 A 
ATOM      3  C3  BNZ d   1       0.909  -0.859  -0.683  0.00  0.00     0.000 A 
ATOM      4  C4  BNZ d   1       0.181   0.270  -0.809  0.00  0.00     0.000 A 
ATOM      5  C5  BNZ d   1       0.471   1.181  -1.805  0.00  0.00     0.000 A 
ATOM      6  C6  BNZ d   1       1.504   0.936  -2.681  0.00  0.00     0.000 A 
ENDROOT
TORSDOF 0
ENDMDL
