MODEL 1
REMARK minimizedAffinity -4.1720233
REMARK minimizedRMSD -1
REMARK  0 active torsions:
REMARK  status: ('A' for Active; 'I' for Inactive)
ROOT
ATOM      1  C1  BNZ d   1      -0.033  -0.917   0.086  0.00  0.00     0.000 A 
ATOM      2  C2  BNZ d   1       0.650  -2.012  -0.371  0.00  0.00     0.000 A 
ATOM      3  C3  BNZ d   1       1.763  -1.868  -1.150  0.00  0.00     0.000 A 
ATOM      4  C4  BNZ d   1       2.169  -0.631  -1.505  0.00  0.00     0.000 A 
ATOM      5  C5  BNZ d   1       1.485   0.483  -1.059  0.00  0.00     0.000 A 
ATOM      6  C6  BNZ d   1       0.388   0.334  -0.243  0.00  0.00     0.000 A 
ENDROOT
TORSDOF 0
ENDMDL
