MODEL 1
REMARK minimizedAffinity -3.31620932
REMARK minimizedRMSD -1
REMARK  0 active torsions:
REMARK  status: ('A' for Active; 'I' for Inactive)
ROOT
ATOM      1  C1  BNZ d   1      -1.832  -0.273   0.188  0.00  0.00     0.000 A 
ATOM      2  C2  BNZ d   1      -1.028  -1.279  -0.280  0.00  0.00     0.000 A 
ATOM      3  C3  BNZ d   1       0.333  -1.179  -0.205  0.00  0.00     0.000 A 
ATOM      4  C4  BNZ d   1       0.889  -0.059   0.300  0.00  0.00     0.000 A 
ATOM      5  C5  BNZ d   1       0.092   0.967   0.767  0.00  0.00     0.000 A 
ATOM      6  C6  BNZ d   1      -1.278   0.847   0.726  0.00  0.00     0.000 A 
ENDROOT
TORSDOF 0
ENDMDL
