MODEL 1
REMARK minimizedAffinity -1.93143034
REMARK minimizedRMSD -1
REMARK  0 active torsions:
REMARK  status: ('A' for Active; 'I' for Inactive)
ROOT
ATOM      1  C1  BNZ d   1      -3.001   0.494   2.370  0.00  0.00     0.000 A 
ATOM      2  C2  BNZ d   1      -2.711   0.412   1.034  0.00  0.00     0.000 A 
ATOM      3  C3  BNZ d   1      -1.659   1.104   0.503  0.00  0.00     0.000 A 
ATOM      4  C4  BNZ d   1      -0.924   1.908   1.298  0.00  0.00     0.000 A 
ATOM      5  C5  BNZ d   1      -1.210   2.009   2.645  0.00  0.00     0.000 A 
ATOM      6  C6  BNZ d   1      -2.246   1.280   3.184  0.00  0.00     0.000 A 
ENDROOT
TORSDOF 0
ENDMDL
