MODEL 1
REMARK minimizedAffinity -1.9766351
REMARK minimizedRMSD -1
REMARK  0 active torsions:
REMARK  status: ('A' for Active; 'I' for Inactive)
ROOT
ATOM      1  C1  BNZ d   1      -0.248  -0.988   0.474  0.00  0.00     0.000 A 
ATOM      2  C2  BNZ d   1       0.657  -1.835  -0.108  0.00  0.00     0.000 A 
ATOM      3  C3  BNZ d   1       1.486  -1.397  -1.103  0.00  0.00     0.000 A 
ATOM      4  C4  BNZ d   1       1.381  -0.127  -1.542  0.00  0.00     0.000 A 
ATOM      5  C5  BNZ d   1       0.468   0.737  -0.972  0.00  0.00     0.000 A 
ATOM      6  C6  BNZ d   1      -0.338   0.304   0.056  0.00  0.00     0.000 A 
ENDROOT
TORSDOF 0
ENDMDL
