MODEL 1
REMARK minimizedAffinity -4.39756966
REMARK minimizedRMSD -1
REMARK  0 active torsions:
REMARK  status: ('A' for Active; 'I' for Inactive)
ROOT
ATOM      1  C1  BNZ d   1       1.133  -1.012  -1.132  0.00  0.00     0.000 A 
ATOM      2  C2  BNZ d   1       0.445   0.139  -0.852  0.00  0.00     0.000 A 
ATOM      3  C3  BNZ d   1      -0.739   0.098  -0.169  0.00  0.00     0.000 A 
ATOM      4  C4  BNZ d   1      -1.252  -1.095   0.197  0.00  0.00     0.000 A 
ATOM      5  C5  BNZ d   1      -0.574  -2.264  -0.086  0.00  0.00     0.000 A 
ATOM      6  C6  BNZ d   1       0.636  -2.216  -0.739  0.00  0.00     0.000 A 
ENDROOT
TORSDOF 0
ENDMDL
