MODEL 1
REMARK minimizedAffinity -4.32545853
REMARK minimizedRMSD -1
REMARK  0 active torsions:
REMARK  status: ('A' for Active; 'I' for Inactive)
ROOT
ATOM      1  C1  BNZ d   1       1.822   1.327  -1.805  0.00  0.00     0.000 A 
ATOM      2  C2  BNZ d   1       2.965   0.975  -2.473  0.00  0.00     0.000 A 
ATOM      3  C3  BNZ d   1       3.484  -0.285  -2.357  0.00  0.00     0.000 A 
ATOM      4  C4  BNZ d   1       2.882  -1.177  -1.545  0.00  0.00     0.000 A 
ATOM      5  C5  BNZ d   1       1.734  -0.835  -0.858  0.00  0.00     0.000 A 
ATOM      6  C6  BNZ d   1       1.193   0.422  -1.007  0.00  0.00     0.000 A 
ENDROOT
TORSDOF 0
ENDMDL
