MODEL 1
REMARK minimizedAffinity -5.33536291
REMARK minimizedRMSD -1
REMARK  0 active torsions:
REMARK  status: ('A' for Active; 'I' for Inactive)
ROOT
ATOM      1  C1  BNZ d   1       3.396   0.132  -2.282  0.00  0.00     0.000 A 
ATOM      2  C2  BNZ d   1       3.000  -0.730  -1.295  0.00  0.00     0.000 A 
ATOM      3  C3  BNZ d   1       1.878  -0.479  -0.554  0.00  0.00     0.000 A 
ATOM      4  C4  BNZ d   1       1.178   0.652  -0.775  0.00  0.00     0.000 A 
ATOM      5  C5  BNZ d   1       1.570   1.536  -1.760  0.00  0.00     0.000 A 
ATOM      6  C6  BNZ d   1       2.677   1.261  -2.529  0.00  0.00     0.000 A 
ENDROOT
TORSDOF 0
ENDMDL
