MODEL 1
REMARK minimizedAffinity -4.90730238
REMARK minimizedRMSD -1
REMARK  0 active torsions:
REMARK  status: ('A' for Active; 'I' for Inactive)
ROOT
ATOM      1  C1  BNZ d   1       1.763   1.578  -2.533  0.00  0.00     0.000 A 
ATOM      2  C2  BNZ d   1       2.842   0.805  -2.196  0.00  0.00     0.000 A 
ATOM      3  C3  BNZ d   1       2.735  -0.167  -1.241  0.00  0.00     0.000 A 
ATOM      4  C4  BNZ d   1       1.563  -0.337  -0.596  0.00  0.00     0.000 A 
ATOM      5  C5  BNZ d   1       0.469   0.441  -0.918  0.00  0.00     0.000 A 
ATOM      6  C6  BNZ d   1       0.569   1.392  -1.907  0.00  0.00     0.000 A 
ENDROOT
TORSDOF 0
ENDMDL
