MODEL 1
REMARK minimizedAffinity -5.08121204
REMARK minimizedRMSD -1
REMARK  0 active torsions:
REMARK  status: ('A' for Active; 'I' for Inactive)
ROOT
ATOM      1  C1  BNZ d   1       3.005  -0.472  -1.140  0.00  0.00     0.000 A 
ATOM      2  C2  BNZ d   1       3.171   0.426  -2.161  0.00  0.00     0.000 A 
ATOM      3  C3  BNZ d   1       2.153   1.258  -2.535  0.00  0.00     0.000 A 
ATOM      4  C4  BNZ d   1       0.959   1.164  -1.916  0.00  0.00     0.000 A 
ATOM      5  C5  BNZ d   1       0.772   0.258  -0.891  0.00  0.00     0.000 A 
ATOM      6  C6  BNZ d   1       1.811  -0.551  -0.491  0.00  0.00     0.000 A 
ENDROOT
TORSDOF 0
ENDMDL
