MODEL 1
REMARK minimizedAffinity 2.44339657
REMARK minimizedRMSD -1
REMARK  1 active torsions:
REMARK  status: ('A' for Active; 'I' for Inactive)
REMARK    1  A    between atoms: C1_2  and  C2_3 
ROOT
ATOM      1  C2  UNL d   1       4.004  -1.228  -4.126  0.00  0.00    -0.073 A 
ATOM      2  C3  UNL d   1       5.138  -1.892  -4.610  0.00  0.00    -0.002 A 
ATOM      3  C4  UNL d   1       5.971  -1.276  -5.544  0.00  0.00     0.004 A 
ATOM      4  C5  UNL d   1       5.684   0.011  -5.999  0.00  0.00    -0.004 A 
ATOM      5  C6  UNL d   1       4.563   0.696  -5.519  0.00  0.00    -0.075 A 
ATOM      6  C7  UNL d   1       4.240   2.080  -5.999  0.00  0.00     0.076 C 
ATOM      7  C8  UNL d   1       3.730   0.069  -4.582  0.00  0.00     0.001 A 
ENDROOT
BRANCH   1   8
ATOM      8  C1  UNL d   1       3.105  -1.888  -3.113  0.00  0.00     0.053 C 
ATOM      9  C   UNL d   1       2.246  -2.976  -3.735  0.00  0.00     0.018 C 
ENDBRANCH   1   8
TORSDOF 1
ENDMDL
