MODEL 1
REMARK minimizedAffinity 12.5413084
REMARK minimizedRMSD -1
REMARK  1 active torsions:
REMARK  status: ('A' for Active; 'I' for Inactive)
REMARK    1  A    between atoms: C1_2  and  C2_3 
ROOT
ATOM      1  C2  UNL d   1       1.982  -4.244   2.620  0.00  0.00    -0.073 A 
ATOM      2  C3  UNL d   1       1.363  -3.693   1.492  0.00  0.00    -0.002 A 
ATOM      3  C4  UNL d   1       0.801  -2.416   1.550  0.00  0.00     0.004 A 
ATOM      4  C5  UNL d   1       0.859  -1.677   2.731  0.00  0.00    -0.004 A 
ATOM      5  C6  UNL d   1       1.484  -2.206   3.865  0.00  0.00    -0.075 A 
ATOM      6  C7  UNL d   1       1.552  -1.424   5.144  0.00  0.00     0.076 C 
ATOM      7  C8  UNL d   1       2.043  -3.489   3.800  0.00  0.00     0.001 A 
ENDROOT
BRANCH   1   8
ATOM      8  C1  UNL d   1       2.596  -5.619   2.560  0.00  0.00     0.053 C 
ATOM      9  C   UNL d   1       3.009  -5.998   1.147  0.00  0.00     0.018 C 
ENDBRANCH   1   8
TORSDOF 1
ENDMDL
