MODEL 1
REMARK minimizedAffinity -1.9816637
REMARK minimizedRMSD -1
REMARK  1 active torsions:
REMARK  status: ('A' for Active; 'I' for Inactive)
REMARK    1  A    between atoms: C1_2  and  C2_3 
ROOT
ATOM      1  C2  UNL d   1       4.221  -2.924   3.236  0.00  0.00    -0.073 A 
ATOM      2  C3  UNL d   1       3.088  -3.400   3.905  0.00  0.00    -0.002 A 
ATOM      3  C4  UNL d   1       1.816  -2.953   3.545  0.00  0.00     0.004 A 
ATOM      4  C5  UNL d   1       1.664  -2.031   2.509  0.00  0.00    -0.004 A 
ATOM      5  C6  UNL d   1       2.783  -1.552   1.820  0.00  0.00    -0.075 A 
ATOM      6  C7  UNL d   1       2.636  -0.559   0.705  0.00  0.00     0.076 C 
ATOM      7  C8  UNL d   1       4.057  -2.004   2.190  0.00  0.00     0.001 A 
ENDROOT
BRANCH   1   8
ATOM      8  C1  UNL d   1       5.595  -3.409   3.617  0.00  0.00     0.053 C 
ATOM      9  C   UNL d   1       5.992  -2.959   5.014  0.00  0.00     0.018 C 
ENDBRANCH   1   8
TORSDOF 1
ENDMDL
