MODEL 1
REMARK minimizedAffinity 14.2240314
REMARK minimizedRMSD -1
REMARK  1 active torsions:
REMARK  status: ('A' for Active; 'I' for Inactive)
REMARK    1  A    between atoms: C1_2  and  C2_3 
ROOT
ATOM      1  C2  UNL d   1       2.060  -0.812  -0.078  0.00  0.00    -0.073 A 
ATOM      2  C3  UNL d   1       2.074   0.491   0.432  0.00  0.00    -0.002 A 
ATOM      3  C4  UNL d   1       1.708   0.733   1.757  0.00  0.00     0.004 A 
ATOM      4  C5  UNL d   1       1.331  -0.324   2.586  0.00  0.00    -0.004 A 
ATOM      5  C6  UNL d   1       1.322  -1.635   2.097  0.00  0.00    -0.075 A 
ATOM      6  C7  UNL d   1       0.917  -2.782   2.975  0.00  0.00     0.076 C 
ATOM      7  C8  UNL d   1       1.688  -1.869   0.765  0.00  0.00     0.001 A 
ENDROOT
BRANCH   1   8
ATOM      8  C1  UNL d   1       2.460  -1.079  -1.506  0.00  0.00     0.053 C 
ATOM      9  C   UNL d   1       3.914  -0.717  -1.768  0.00  0.00     0.018 C 
ENDBRANCH   1   8
TORSDOF 1
ENDMDL
