MODEL 1
REMARK minimizedAffinity 9.41924572
REMARK minimizedRMSD -1
REMARK  1 active torsions:
REMARK  status: ('A' for Active; 'I' for Inactive)
REMARK    1  A    between atoms: C1_2  and  C2_3 
ROOT
ATOM      1  C2  UNL d   1       2.481  -1.138  -0.127  0.00  0.00    -0.073 A 
ATOM      2  C3  UNL d   1       3.506  -0.365  -0.683  0.00  0.00    -0.002 A 
ATOM      3  C4  UNL d   1       4.038  -0.693  -1.931  0.00  0.00     0.004 A 
ATOM      4  C5  UNL d   1       3.545  -1.791  -2.638  0.00  0.00    -0.004 A 
ATOM      5  C6  UNL d   1       2.513  -2.568  -2.104  0.00  0.00    -0.075 A 
ATOM      6  C7  UNL d   1       1.973  -3.753  -2.850  0.00  0.00     0.076 C 
ATOM      7  C8  UNL d   1       1.986  -2.234  -0.848  0.00  0.00     0.001 A 
ENDROOT
BRANCH   1   8
ATOM      8  C1  UNL d   1       1.899  -0.784   1.218  0.00  0.00     0.053 C 
ATOM      9  C   UNL d   1       1.663  -2.015   2.078  0.00  0.00     0.018 C 
ENDBRANCH   1   8
TORSDOF 1
ENDMDL
