MODEL 1
REMARK minimizedAffinity 1.55525243
REMARK minimizedRMSD -1
REMARK  1 active torsions:
REMARK  status: ('A' for Active; 'I' for Inactive)
REMARK    1  A    between atoms: C1_2  and  C2_3 
ROOT
ATOM      1  C2  UNL d   1       3.422  -1.338  -3.748  0.00  0.00    -0.073 A 
ATOM      2  C3  UNL d   1       4.524  -2.059  -4.222  0.00  0.00    -0.002 A 
ATOM      3  C4  UNL d   1       5.296  -1.557  -5.271  0.00  0.00     0.004 A 
ATOM      4  C5  UNL d   1       4.979  -0.329  -5.851  0.00  0.00    -0.004 A 
ATOM      5  C6  UNL d   1       3.889   0.412  -5.383  0.00  0.00    -0.075 A 
ATOM      6  C7  UNL d   1       3.533   1.734  -5.998  0.00  0.00     0.076 C 
ATOM      7  C8  UNL d   1       3.117  -0.100  -4.331  0.00  0.00     0.001 A 
ENDROOT
BRANCH   1   8
ATOM      8  C1  UNL d   1       2.590  -1.873  -2.612  0.00  0.00     0.053 C 
ATOM      9  C   UNL d   1       2.515  -3.391  -2.625  0.00  0.00     0.018 C 
ENDBRANCH   1   8
TORSDOF 1
ENDMDL
