MODEL 1
REMARK minimizedAffinity -2.3553915
REMARK minimizedRMSD -1
REMARK  1 active torsions:
REMARK  status: ('A' for Active; 'I' for Inactive)
REMARK    1  A    between atoms: N_2  and  C1_3 
ROOT
ATOM      1  C1  UNL d   1       0.367   0.003  -0.123  0.00  0.00     0.143 A 
ATOM      2  C2  UNL d   1       0.451  -1.376  -0.344  0.00  0.00    -0.057 A 
ATOM      3  C3  UNL d   1       1.681  -2.044  -0.302  0.00  0.00     0.033 A 
ATOM      4  C4  UNL d   1       2.856  -1.337  -0.068  0.00  0.00    -0.042 A 
ATOM      5  C5  UNL d   1       2.799   0.038   0.130  0.00  0.00     0.033 A 
ATOM      6  C6  UNL d   1       1.567   0.698   0.094  0.00  0.00    -0.057 A 
ENDROOT
BRANCH   1   7
ATOM      7  N   UNL d   1      -0.814   0.740  -0.248  0.00  0.00    -0.732 N 
ATOM      8  C   UNL d   1      -2.056   0.240   0.300  0.00  0.00     0.284 C 
ATOM      9  H3  UNL d   1      -0.667   1.736  -0.104  0.00  0.00     0.395 HD
ENDBRANCH   1   7
TORSDOF 1
ENDMDL
