MODEL 1
REMARK minimizedAffinity -2.69020319
REMARK minimizedRMSD -1
REMARK  1 active torsions:
REMARK  status: ('A' for Active; 'I' for Inactive)
REMARK    1  A    between atoms: N_2  and  C1_3 
ROOT
ATOM      1  C1  UNL d   1      -0.762   0.098  -0.257  0.00  0.00     0.143 A 
ATOM      2  C2  UNL d   1       0.359   0.621   0.398  0.00  0.00    -0.057 A 
ATOM      3  C3  UNL d   1       1.501  -0.158   0.617  0.00  0.00     0.033 A 
ATOM      4  C4  UNL d   1       1.532  -1.487   0.209  0.00  0.00    -0.042 A 
ATOM      5  C5  UNL d   1       0.421  -2.036  -0.422  0.00  0.00     0.033 A 
ATOM      6  C6  UNL d   1      -0.715  -1.250  -0.643  0.00  0.00    -0.057 A 
ENDROOT
BRANCH   1   7
ATOM      7  N   UNL d   1      -1.964   0.792  -0.417  0.00  0.00    -0.732 N 
ATOM      8  C   UNL d   1      -2.956   0.799   0.637  0.00  0.00     0.284 C 
ATOM      9  H3  UNL d   1      -1.835   1.693  -0.872  0.00  0.00     0.395 HD
ENDBRANCH   1   7
TORSDOF 1
ENDMDL
