MODEL 1
REMARK minimizedAffinity -2.10314083
REMARK minimizedRMSD -1
REMARK  1 active torsions:
REMARK  status: ('A' for Active; 'I' for Inactive)
REMARK    1  A    between atoms: N_2  and  C1_3 
ROOT
ATOM      1  C1  UNL d   1      -1.987   1.208   0.283  0.00  0.00     0.143 A 
ATOM      2  C2  UNL d   1      -3.131   0.548  -0.179  0.00  0.00    -0.057 A 
ATOM      3  C3  UNL d   1      -4.352   0.650   0.499  0.00  0.00     0.033 A 
ATOM      4  C4  UNL d   1      -4.443   1.393   1.671  0.00  0.00    -0.042 A 
ATOM      5  C5  UNL d   1      -3.313   2.037   2.163  0.00  0.00     0.033 A 
ATOM      6  C6  UNL d   1      -2.098   1.937   1.477  0.00  0.00    -0.057 A 
ENDROOT
BRANCH   1   7
ATOM      7  N   UNL d   1      -0.722   1.065  -0.292  0.00  0.00    -0.732 N 
ATOM      8  C   UNL d   1       0.041  -0.150  -0.102  0.00  0.00     0.284 C 
ATOM      9  H3  UNL d   1      -0.680   1.439  -1.237  0.00  0.00     0.395 HD
ENDBRANCH   1   7
TORSDOF 1
ENDMDL
