MODEL 1
REMARK minimizedAffinity -4.08448696
REMARK minimizedRMSD -1
REMARK  1 active torsions:
REMARK  status: ('A' for Active; 'I' for Inactive)
REMARK    1  A    between atoms: N_2  and  C1_3 
ROOT
ATOM      1  C1  UNL d   1       1.670  -0.606   0.254  0.00  0.00     0.143 A 
ATOM      2  C2  UNL d   1       1.216   0.704   0.062  0.00  0.00    -0.057 A 
ATOM      3  C3  UNL d   1      -0.103   0.965  -0.330  0.00  0.00     0.033 A 
ATOM      4  C4  UNL d   1      -0.986  -0.084  -0.564  0.00  0.00    -0.042 A 
ATOM      5  C5  UNL d   1      -0.549  -1.394  -0.403  0.00  0.00     0.033 A 
ATOM      6  C6  UNL d   1       0.767  -1.648  -0.006  0.00  0.00    -0.057 A 
ENDROOT
BRANCH   1   7
ATOM      7  N   UNL d   1       2.996  -0.934   0.547  0.00  0.00    -0.732 N 
ATOM      8  C   UNL d   1       4.085  -0.139   0.023  0.00  0.00     0.284 C 
ATOM      9  H3  UNL d   1       3.120  -1.222   1.515  0.00  0.00     0.395 HD
ENDBRANCH   1   7
TORSDOF 1
ENDMDL
