MODEL 1
REMARK minimizedAffinity -2.58684587
REMARK minimizedRMSD -1
REMARK  1 active torsions:
REMARK  status: ('A' for Active; 'I' for Inactive)
REMARK    1  A    between atoms: N_2  and  C1_3 
ROOT
ATOM      1  C1  UNL d   1       0.499   0.118  -0.199  0.00  0.00     0.143 A 
ATOM      2  C2  UNL d   1       1.032  -0.937  -0.947  0.00  0.00    -0.057 A 
ATOM      3  C3  UNL d   1       2.034  -1.764  -0.425  0.00  0.00     0.033 A 
ATOM      4  C4  UNL d   1       2.543  -1.532   0.849  0.00  0.00    -0.042 A 
ATOM      5  C5  UNL d   1       2.045  -0.473   1.601  0.00  0.00     0.033 A 
ATOM      6  C6  UNL d   1       1.040   0.345   1.076  0.00  0.00    -0.057 A 
ENDROOT
BRANCH   1   7
ATOM      7  N   UNL d   1      -0.428   1.035  -0.699  0.00  0.00    -0.732 N 
ATOM      8  C   UNL d   1      -1.735   1.168  -0.092  0.00  0.00     0.284 C 
ATOM      9  H3  UNL d   1       0.002   1.920  -0.958  0.00  0.00     0.395 HD
ENDBRANCH   1   7
TORSDOF 1
ENDMDL
