MODEL 1
REMARK minimizedAffinity -3.25970483
REMARK minimizedRMSD -1
REMARK  1 active torsions:
REMARK  status: ('A' for Active; 'I' for Inactive)
REMARK    1  A    between atoms: N_2  and  C1_3 
ROOT
ATOM      1  C1  UNL d   1      -0.171   0.311  -0.073  0.00  0.00     0.143 A 
ATOM      2  C2  UNL d   1       1.173   0.562   0.222  0.00  0.00    -0.057 A 
ATOM      3  C3  UNL d   1       2.128  -0.462   0.187  0.00  0.00     0.033 A 
ATOM      4  C4  UNL d   1       1.748  -1.765  -0.116  0.00  0.00    -0.042 A 
ATOM      5  C5  UNL d   1       0.413  -2.043  -0.388  0.00  0.00     0.033 A 
ATOM      6  C6  UNL d   1      -0.535  -1.015  -0.358  0.00  0.00    -0.057 A 
ENDROOT
BRANCH   1   7
ATOM      7  N   UNL d   1      -1.184   1.266   0.041  0.00  0.00    -0.732 N 
ATOM      8  C   UNL d   1      -2.514   0.884   0.463  0.00  0.00     0.284 C 
ATOM      9  H3  UNL d   1      -0.853   2.137   0.450  0.00  0.00     0.395 HD
ENDBRANCH   1   7
TORSDOF 1
ENDMDL
