MODEL 1
REMARK minimizedAffinity -5.74043703
REMARK minimizedRMSD -1
REMARK  1 active torsions:
REMARK  status: ('A' for Active; 'I' for Inactive)
REMARK    1  A    between atoms: C1_2  and  C2_3 
ROOT
ATOM      1  C2  UNL d   1       0.238   0.560   0.084  0.00  0.00    -0.077 A 
ATOM      2  C3  UNL d   1      -0.711   1.248   0.853  0.00  0.00     0.002 A 
ATOM      3  C4  UNL d   1      -0.760   2.643   0.832  0.00  0.00     0.002 A 
ATOM      4  C5  UNL d   1       0.135   3.361   0.041  0.00  0.00    -0.004 A 
ATOM      5  C6  UNL d   1       1.084   2.686  -0.725  0.00  0.00     0.002 A 
ATOM      6  C7  UNL d   1       1.135   1.292  -0.704  0.00  0.00     0.002 A 
ENDROOT
BRANCH   1   7
ATOM      7  C1  UNL d   1       0.260  -0.946   0.068  0.00  0.00     0.055 C 
ATOM      8  C   UNL d   1      -0.126  -1.491  -1.300  0.00  0.00     0.019 C 
ENDBRANCH   1   7
TORSDOF 1
ENDMDL
