MODEL 1
REMARK minimizedAffinity -0.653827667
REMARK minimizedRMSD -1
REMARK  1 active torsions:
REMARK  status: ('A' for Active; 'I' for Inactive)
REMARK    1  A    between atoms: C1_2  and  C2_3 
ROOT
ATOM      1  C2  UNL d   1       0.462  -0.901  -0.154  0.00  0.00    -0.077 A 
ATOM      2  C3  UNL d   1      -0.281   0.270  -0.357  0.00  0.00     0.002 A 
ATOM      3  C4  UNL d   1       0.331   1.521  -0.254  0.00  0.00     0.002 A 
ATOM      4  C5  UNL d   1       1.687   1.612   0.050  0.00  0.00    -0.004 A 
ATOM      5  C6  UNL d   1       2.434   0.453   0.256  0.00  0.00     0.002 A 
ATOM      6  C7  UNL d   1       1.825  -0.798   0.154  0.00  0.00     0.002 A 
ENDROOT
BRANCH   1   7
ATOM      7  C1  UNL d   1      -0.184  -2.253  -0.314  0.00  0.00     0.055 C 
ATOM      8  C   UNL d   1      -0.071  -2.754  -1.746  0.00  0.00     0.019 C 
ENDBRANCH   1   7
TORSDOF 1
ENDMDL
