MODEL 1
REMARK minimizedAffinity -0.650502443
REMARK minimizedRMSD -1
REMARK  1 active torsions:
REMARK  status: ('A' for Active; 'I' for Inactive)
REMARK    1  A    between atoms: C1_2  and  C2_3 
ROOT
ATOM      1  C2  UNL d   1       0.264  -2.417  -0.893  0.00  0.00    -0.077 A 
ATOM      2  C3  UNL d   1       1.011  -2.742  -2.034  0.00  0.00     0.002 A 
ATOM      3  C4  UNL d   1       0.502  -3.634  -2.980  0.00  0.00     0.002 A 
ATOM      4  C5  UNL d   1      -0.757  -4.203  -2.798  0.00  0.00    -0.004 A 
ATOM      5  C6  UNL d   1      -1.506  -3.887  -1.665  0.00  0.00     0.002 A 
ATOM      6  C7  UNL d   1      -0.998  -2.998  -0.717  0.00  0.00     0.002 A 
ENDROOT
BRANCH   1   7
ATOM      7  C1  UNL d   1       0.791  -1.418   0.105  0.00  0.00     0.055 C 
ATOM      8  C   UNL d   1       0.165  -0.046  -0.103  0.00  0.00     0.019 C 
ENDBRANCH   1   7
TORSDOF 1
ENDMDL
