MODEL 1
REMARK minimizedAffinity -1.98295021
REMARK minimizedRMSD -1
REMARK  1 active torsions:
REMARK  status: ('A' for Active; 'I' for Inactive)
REMARK    1  A    between atoms: C1_2  and  C2_3 
ROOT
ATOM      1  C2  UNL d   1       0.483  -0.904  -0.426  0.00  0.00    -0.077 A 
ATOM      2  C3  UNL d   1       1.662  -0.773   0.322  0.00  0.00     0.002 A 
ATOM      3  C4  UNL d   1       2.466   0.360   0.178  0.00  0.00     0.002 A 
ATOM      4  C5  UNL d   1       2.099   1.370  -0.708  0.00  0.00    -0.004 A 
ATOM      5  C6  UNL d   1       0.929   1.247  -1.458  0.00  0.00     0.002 A 
ATOM      6  C7  UNL d   1       0.125   0.115  -1.316  0.00  0.00     0.002 A 
ENDROOT
BRANCH   1   7
ATOM      7  C1  UNL d   1      -0.411  -2.102  -0.236  0.00  0.00     0.055 C 
ATOM      8  C   UNL d   1      -0.496  -2.936  -1.506  0.00  0.00     0.019 C 
ENDBRANCH   1   7
TORSDOF 1
ENDMDL
