MODEL 1
REMARK minimizedAffinity -2.33386755
REMARK minimizedRMSD -1
REMARK  1 active torsions:
REMARK  status: ('A' for Active; 'I' for Inactive)
REMARK    1  A    between atoms: C1_2  and  C2_3 
ROOT
ATOM      1  C2  UNL d   1       0.571  -2.037  -0.691  0.00  0.00    -0.077 A 
ATOM      2  C3  UNL d   1      -0.612  -2.405  -0.035  0.00  0.00     0.002 A 
ATOM      3  C4  UNL d   1      -1.534  -3.247  -0.660  0.00  0.00     0.002 A 
ATOM      4  C5  UNL d   1      -1.280  -3.732  -1.941  0.00  0.00    -0.004 A 
ATOM      5  C6  UNL d   1      -0.107  -3.370  -2.603  0.00  0.00     0.002 A 
ATOM      6  C7  UNL d   1       0.814  -2.527  -1.980  0.00  0.00     0.002 A 
ENDROOT
BRANCH   1   7
ATOM      7  C1  UNL d   1       1.589  -1.168   0.000  0.00  0.00     0.055 C 
ATOM      8  C   UNL d   1       1.171   0.295  -0.017  0.00  0.00     0.019 C 
ENDBRANCH   1   7
TORSDOF 1
ENDMDL
