MODEL 1
REMARK minimizedAffinity -0.849940598
REMARK minimizedRMSD -1
REMARK  1 active torsions:
REMARK  status: ('A' for Active; 'I' for Inactive)
REMARK    1  A    between atoms: C1_2  and  C2_3 
ROOT
ATOM      1  C2  UNL d   1      -0.453  -2.431  -1.740  0.00  0.00    -0.077 A 
ATOM      2  C3  UNL d   1      -0.585  -1.179  -2.356  0.00  0.00     0.002 A 
ATOM      3  C4  UNL d   1      -0.629  -0.015  -1.586  0.00  0.00     0.002 A 
ATOM      4  C5  UNL d   1      -0.538  -0.091  -0.198  0.00  0.00    -0.004 A 
ATOM      5  C6  UNL d   1      -0.408  -1.332   0.424  0.00  0.00     0.002 A 
ATOM      6  C7  UNL d   1      -0.365  -2.497  -0.343  0.00  0.00     0.002 A 
ENDROOT
BRANCH   1   7
ATOM      7  C1  UNL d   1      -0.356  -3.684  -2.571  0.00  0.00     0.055 C 
ATOM      8  C   UNL d   1      -1.733  -4.177  -2.992  0.00  0.00     0.019 C 
ENDBRANCH   1   7
TORSDOF 1
ENDMDL
