MODEL 1
REMARK minimizedAffinity -4.72488213
REMARK minimizedRMSD -1
REMARK  1 active torsions:
REMARK  status: ('A' for Active; 'I' for Inactive)
REMARK    1  A    between atoms: C1_2  and  C2_3 
ROOT
ATOM      1  C2  UNL d   1      -2.249  -3.267  -1.229  0.00  0.00    -0.077 A 
ATOM      2  C3  UNL d   1      -1.607  -3.467  -2.459  0.00  0.00     0.002 A 
ATOM      3  C4  UNL d   1      -0.249  -3.178  -2.602  0.00  0.00     0.002 A 
ATOM      4  C5  UNL d   1       0.479  -2.690  -1.519  0.00  0.00    -0.004 A 
ATOM      5  C6  UNL d   1      -0.151  -2.486  -0.292  0.00  0.00     0.002 A 
ATOM      6  C7  UNL d   1      -1.509  -2.773  -0.147  0.00  0.00     0.002 A 
ENDROOT
BRANCH   1   7
ATOM      7  C1  UNL d   1      -3.703  -3.625  -1.059  0.00  0.00     0.055 C 
ATOM      8  C   UNL d   1      -3.973  -4.200   0.324  0.00  0.00     0.019 C 
ENDBRANCH   1   7
TORSDOF 1
ENDMDL
