MODEL 1
REMARK minimizedAffinity -5.02736855
REMARK minimizedRMSD -1
REMARK  1 active torsions:
REMARK  status: ('A' for Active; 'I' for Inactive)
REMARK    1  A    between atoms: C1_2  and  C2_3 
ROOT
ATOM      1  C2  UNL d   1      -0.077   0.190   0.091  0.00  0.00    -0.077 A 
ATOM      2  C3  UNL d   1       0.894   0.914  -0.615  0.00  0.00     0.002 A 
ATOM      3  C4  UNL d   1       0.841   2.308  -0.660  0.00  0.00     0.002 A 
ATOM      4  C5  UNL d   1      -0.177   2.990   0.003  0.00  0.00    -0.004 A 
ATOM      5  C6  UNL d   1      -1.148   2.279   0.706  0.00  0.00     0.002 A 
ATOM      6  C7  UNL d   1      -1.098   0.885   0.751  0.00  0.00     0.002 A 
ENDROOT
BRANCH   1   7
ATOM      7  C1  UNL d   1       0.006  -1.312   0.182  0.00  0.00     0.055 C 
ATOM      8  C   UNL d   1      -0.354  -1.967  -1.144  0.00  0.00     0.019 C 
ENDBRANCH   1   7
TORSDOF 1
ENDMDL
