MODEL 1
REMARK minimizedAffinity -2.76574826
REMARK minimizedRMSD -1
REMARK  1 active torsions:
REMARK  status: ('A' for Active; 'I' for Inactive)
REMARK    1  A    between atoms: C1_2  and  C2_3 
ROOT
ATOM      1  C2  UNL d   1      -0.517   0.215   0.296  0.00  0.00    -0.077 A 
ATOM      2  C3  UNL d   1       0.575   1.028  -0.038  0.00  0.00     0.002 A 
ATOM      3  C4  UNL d   1       0.619   2.358   0.383  0.00  0.00     0.002 A 
ATOM      4  C5  UNL d   1      -0.423   2.886   1.142  0.00  0.00    -0.004 A 
ATOM      5  C6  UNL d   1      -1.515   2.086   1.477  0.00  0.00     0.002 A 
ATOM      6  C7  UNL d   1      -1.562   0.756   1.057  0.00  0.00     0.002 A 
ENDROOT
BRANCH   1   7
ATOM      7  C1  UNL d   1      -0.544  -1.235  -0.115  0.00  0.00     0.055 C 
ATOM      8  C   UNL d   1       0.474  -2.051   0.669  0.00  0.00     0.019 C 
ENDBRANCH   1   7
TORSDOF 1
ENDMDL
