MODEL 1
REMARK minimizedAffinity -5.29688644
REMARK minimizedRMSD -1
REMARK  1 active torsions:
REMARK  status: ('A' for Active; 'I' for Inactive)
REMARK    1  A    between atoms: C1_2  and  C2_3 
ROOT
ATOM      1  C2  UNL d   1      -0.469   0.573   0.165  0.00  0.00    -0.077 A 
ATOM      2  C3  UNL d   1      -1.344   1.418   0.861  0.00  0.00     0.002 A 
ATOM      3  C4  UNL d   1      -1.098   2.791   0.926  0.00  0.00     0.002 A 
ATOM      4  C5  UNL d   1       0.020   3.330   0.293  0.00  0.00    -0.004 A 
ATOM      5  C6  UNL d   1       0.897   2.498  -0.401  0.00  0.00     0.002 A 
ATOM      6  C7  UNL d   1       0.653   1.125  -0.465  0.00  0.00     0.002 A 
ENDROOT
BRANCH   1   7
ATOM      7  C1  UNL d   1      -0.759  -0.901   0.052  0.00  0.00     0.055 C 
ATOM      8  C   UNL d   1       0.469  -1.735   0.387  0.00  0.00     0.019 C 
ENDBRANCH   1   7
TORSDOF 1
ENDMDL
