MODEL 1
REMARK minimizedAffinity -1.00650418
REMARK minimizedRMSD -1
REMARK  1 active torsions:
REMARK  status: ('A' for Active; 'I' for Inactive)
REMARK    1  A    between atoms: C1_2  and  C2_3 
ROOT
ATOM      1  C2  UNL d   1      -2.181  -3.416  -1.203  0.00  0.00    -0.077 A 
ATOM      2  C3  UNL d   1      -1.683  -3.245  -2.503  0.00  0.00     0.002 A 
ATOM      3  C4  UNL d   1      -0.396  -2.743  -2.706  0.00  0.00     0.002 A 
ATOM      4  C5  UNL d   1       0.404  -2.412  -1.615  0.00  0.00    -0.004 A 
ATOM      5  C6  UNL d   1      -0.082  -2.577  -0.319  0.00  0.00     0.002 A 
ATOM      6  C7  UNL d   1      -1.369  -3.077  -0.114  0.00  0.00     0.002 A 
ENDROOT
BRANCH   1   7
ATOM      7  C1  UNL d   1      -3.550  -4.004  -0.981  0.00  0.00     0.055 C 
ATOM      8  C   UNL d   1      -3.685  -4.580   0.421  0.00  0.00     0.019 C 
ENDBRANCH   1   7
TORSDOF 1
ENDMDL
