MODEL 1
REMARK minimizedAffinity -4.08850479
REMARK minimizedRMSD -1
REMARK  1 active torsions:
REMARK  status: ('A' for Active; 'I' for Inactive)
REMARK    1  A    between atoms: C1_2  and  C2_3 
ROOT
ATOM      1  C2  UNL d   1      -1.972  -3.757  -1.066  0.00  0.00    -0.077 A 
ATOM      2  C3  UNL d   1      -1.740  -2.596  -0.314  0.00  0.00     0.002 A 
ATOM      3  C4  UNL d   1      -0.485  -1.985  -0.327  0.00  0.00     0.002 A 
ATOM      4  C5  UNL d   1       0.546  -2.525  -1.094  0.00  0.00    -0.004 A 
ATOM      5  C6  UNL d   1       0.326  -3.679  -1.843  0.00  0.00     0.002 A 
ATOM      6  C7  UNL d   1      -0.928  -4.292  -1.830  0.00  0.00     0.002 A 
ENDROOT
BRANCH   1   7
ATOM      7  C1  UNL d   1      -3.339  -4.389  -1.092  0.00  0.00     0.055 C 
ATOM      8  C   UNL d   1      -3.663  -5.061   0.234  0.00  0.00     0.019 C 
ENDBRANCH   1   7
TORSDOF 1
ENDMDL
