MODEL 1
REMARK minimizedAffinity -6.22499847
REMARK minimizedRMSD -1
REMARK  1 active torsions:
REMARK  status: ('A' for Active; 'I' for Inactive)
REMARK    1  A    between atoms: C1_2  and  C2_3 
ROOT
ATOM      1  C2  UNL d   1      -0.159  -0.222  -0.627  0.00  0.00    -0.077 A 
ATOM      2  C3  UNL d   1       1.155  -0.030  -0.179  0.00  0.00     0.002 A 
ATOM      3  C4  UNL d   1       1.573   1.224   0.269  0.00  0.00     0.002 A 
ATOM      4  C5  UNL d   1       0.682   2.295   0.277  0.00  0.00    -0.004 A 
ATOM      5  C6  UNL d   1      -0.627   2.116  -0.169  0.00  0.00     0.002 A 
ATOM      6  C7  UNL d   1      -1.046   0.862  -0.618  0.00  0.00     0.002 A 
ENDROOT
BRANCH   1   7
ATOM      7  C1  UNL d   1      -0.626  -1.586  -1.063  0.00  0.00     0.055 C 
ATOM      8  C   UNL d   1       0.125  -2.059  -2.299  0.00  0.00     0.019 C 
ENDBRANCH   1   7
TORSDOF 1
ENDMDL
