MODEL 1
REMARK minimizedAffinity -4.01909733
REMARK minimizedRMSD -1
REMARK  0 active torsions:
REMARK  status: ('A' for Active; 'I' for Inactive)
ROOT
ATOM      1  C4' PXY d   1       2.506   1.126   1.640  0.00  0.00     0.077 C 
ATOM      2  C1' PXY d   1      -1.894  -0.521  -1.728  0.00  0.00     0.077 C 
ATOM      3  C1  PXY d   1      -0.735  -0.101  -0.845  0.00  0.00    -0.082 A 
ATOM      4  C2  PXY d   1      -0.879   0.923  -0.020  0.00  0.00     0.003 A 
ATOM      5  C3  PXY d   1       0.169   1.336   0.762  0.00  0.00     0.003 A 
ATOM      6  C4  PXY d   1       1.360   0.661   0.737  0.00  0.00    -0.082 A 
ATOM      7  C5  PXY d   1       1.511  -0.391  -0.094  0.00  0.00     0.003 A 
ATOM      8  C6  PXY d   1       0.449  -0.769  -0.910  0.00  0.00     0.003 A 
ENDROOT
TORSDOF 0
ENDMDL
