MODEL 1
REMARK minimizedAffinity -3.53595543
REMARK minimizedRMSD -1
REMARK  0 active torsions:
REMARK  status: ('A' for Active; 'I' for Inactive)
ROOT
ATOM      1  C4' PXY d   1      -1.974   0.377  -0.765  0.00  0.00     0.077 C 
ATOM      2  C1' PXY d   1       3.383  -0.672   1.139  0.00  0.00     0.077 C 
ATOM      3  C1  PXY d   1       1.979  -0.385   0.644  0.00  0.00    -0.082 A 
ATOM      4  C2  PXY d   1       1.136  -1.386   0.451  0.00  0.00     0.003 A 
ATOM      5  C3  PXY d   1      -0.127  -1.147  -0.026  0.00  0.00     0.003 A 
ATOM      6  C4  PXY d   1      -0.550   0.135  -0.257  0.00  0.00    -0.082 A 
ATOM      7  C5  PXY d   1       0.301   1.162  -0.053  0.00  0.00     0.003 A 
ATOM      8  C6  PXY d   1       1.592   0.895   0.393  0.00  0.00     0.003 A 
ENDROOT
TORSDOF 0
ENDMDL
