MODEL 1
REMARK minimizedAffinity -5.45803642
REMARK minimizedRMSD -1
REMARK  0 active torsions:
REMARK  status: ('A' for Active; 'I' for Inactive)
ROOT
ATOM      1  C4' PXY d   1      -1.724  -0.004  -0.618  0.00  0.00     0.077 C 
ATOM      2  C1' PXY d   1       3.642  -0.217   1.521  0.00  0.00     0.077 C 
ATOM      3  C1  PXY d   1       2.234  -0.149   0.963  0.00  0.00    -0.082 A 
ATOM      4  C2  PXY d   1       1.495  -1.246   0.915  0.00  0.00     0.003 A 
ATOM      5  C3  PXY d   1       0.232  -1.208   0.384  0.00  0.00     0.003 A 
ATOM      6  C4  PXY d   1      -0.301  -0.025  -0.054  0.00  0.00    -0.082 A 
ATOM      7  C5  PXY d   1       0.442   1.101   0.002  0.00  0.00     0.003 A 
ATOM      8  C6  PXY d   1       1.738   1.033   0.507  0.00  0.00     0.003 A 
ENDROOT
TORSDOF 0
ENDMDL
