MODEL 1
REMARK minimizedAffinity -3.97839832
REMARK minimizedRMSD -1
REMARK  0 active torsions:
REMARK  status: ('A' for Active; 'I' for Inactive)
ROOT
ATOM      1  C4' PXY d   1       1.468  -2.639   1.653  0.00  0.00     0.077 C 
ATOM      2  C1' PXY d   1       1.570   2.640  -0.700  0.00  0.00     0.077 C 
ATOM      3  C1  PXY d   1       1.556   1.255  -0.084  0.00  0.00    -0.082 A 
ATOM      4  C2  PXY d   1       0.448   0.534  -0.121  0.00  0.00     0.003 A 
ATOM      5  C3  PXY d   1       0.408  -0.708   0.459  0.00  0.00     0.003 A 
ATOM      6  C4  PXY d   1       1.530  -1.239   1.036  0.00  0.00    -0.082 A 
ATOM      7  C5  PXY d   1       2.669  -0.514   1.069  0.00  0.00     0.003 A 
ATOM      8  C6  PXY d   1       2.676   0.761   0.511  0.00  0.00     0.003 A 
ENDROOT
TORSDOF 0
ENDMDL
