MODEL 1
REMARK minimizedAffinity -1.96320951
REMARK minimizedRMSD -1
REMARK  0 active torsions:
REMARK  status: ('A' for Active; 'I' for Inactive)
ROOT
ATOM      1  C4' PXY d   1       1.686   2.371  -0.362  0.00  0.00     0.077 C 
ATOM      2  C1' PXY d   1       0.462  -2.567   2.381  0.00  0.00     0.077 C 
ATOM      3  C1  PXY d   1       0.775  -1.276   1.652  0.00  0.00    -0.082 A 
ATOM      4  C2  PXY d   1       1.898  -0.628   1.920  0.00  0.00     0.003 A 
ATOM      5  C3  PXY d   1       2.181   0.558   1.293  0.00  0.00     0.003 A 
ATOM      6  C4  PXY d   1       1.333   1.059   0.343  0.00  0.00    -0.082 A 
ATOM      7  C5  PXY d   1       0.191   0.399   0.055  0.00  0.00     0.003 A 
ATOM      8  C6  PXY d   1      -0.098  -0.782   0.733  0.00  0.00     0.003 A 
ENDROOT
TORSDOF 0
ENDMDL
