MODEL 1
REMARK minimizedAffinity 0.796981156
REMARK minimizedRMSD -1
REMARK  0 active torsions:
REMARK  status: ('A' for Active; 'I' for Inactive)
ROOT
ATOM      1  C4' PXY d   1       2.375  -0.887   3.823  0.00  0.00     0.077 C 
ATOM      2  C1' PXY d   1       0.287   2.188  -0.603  0.00  0.00     0.077 C 
ATOM      3  C1  PXY d   1       0.846   1.387   0.556  0.00  0.00    -0.082 A 
ATOM      4  C2  PXY d   1       0.276   0.242   0.895  0.00  0.00     0.003 A 
ATOM      5  C3  PXY d   1       0.749  -0.479   1.961  0.00  0.00     0.003 A 
ATOM      6  C4  PXY d   1       1.850  -0.050   2.654  0.00  0.00    -0.082 A 
ATOM      7  C5  PXY d   1       2.444   1.112   2.307  0.00  0.00     0.003 A 
ATOM      8  C6  PXY d   1       1.923   1.850   1.248  0.00  0.00     0.003 A 
ENDROOT
TORSDOF 0
ENDMDL
