MODEL 1
REMARK minimizedAffinity -4.37363386
REMARK minimizedRMSD -1
REMARK  0 active torsions:
REMARK  status: ('A' for Active; 'I' for Inactive)
ROOT
ATOM      1  C4' PXY d   1       3.398  -1.825   2.170  0.00  0.00     0.077 C 
ATOM      2  C1' PXY d   1      -1.342   0.498  -0.185  0.00  0.00     0.077 C 
ATOM      3  C1  PXY d   1      -0.107  -0.120   0.438  0.00  0.00    -0.082 A 
ATOM      4  C2  PXY d   1       0.982   0.615   0.601  0.00  0.00     0.003 A 
ATOM      5  C3  PXY d   1       2.118   0.063   1.133  0.00  0.00     0.003 A 
ATOM      6  C4  PXY d   1       2.124  -1.240   1.553  0.00  0.00    -0.082 A 
ATOM      7  C5  PXY d   1       1.015  -1.993   1.401  0.00  0.00     0.003 A 
ATOM      8  C6  PXY d   1      -0.116  -1.426   0.820  0.00  0.00     0.003 A 
ENDROOT
TORSDOF 0
ENDMDL
