MODEL 1
REMARK minimizedAffinity -2.19283724
REMARK minimizedRMSD -1
REMARK  1 active torsions:
REMARK  status: ('A' for Active; 'I' for Inactive)
REMARK    1  A    between atoms: N_2  and  C1_3 
ROOT
ATOM      1  C1  UNL d   1      -4.344  -3.594  -0.867  0.00  0.00     0.143 A 
ATOM      2  C2  UNL d   1      -5.397  -3.733   0.043  0.00  0.00    -0.057 A 
ATOM      3  C3  UNL d   1      -5.576  -4.916   0.771  0.00  0.00     0.033 A 
ATOM      4  C4  UNL d   1      -4.719  -5.994   0.579  0.00  0.00    -0.042 A 
ATOM      5  C5  UNL d   1      -3.680  -5.887  -0.340  0.00  0.00     0.033 A 
ATOM      6  C6  UNL d   1      -3.503  -4.701  -1.059  0.00  0.00    -0.057 A 
ENDROOT
BRANCH   1   7
ATOM      7  N   UNL d   1      -4.172  -2.480  -1.693  0.00  0.00    -0.732 N 
ATOM      8  C   UNL d   1      -3.810  -2.643  -3.085  0.00  0.00     0.284 C 
ATOM      9  H3  UNL d   1      -4.873  -1.762  -1.527  0.00  0.00     0.395 HD
ENDBRANCH   1   7
TORSDOF 1
ENDMDL
