MODEL 1
REMARK minimizedAffinity -4.34629107
REMARK minimizedRMSD -1
REMARK  1 active torsions:
REMARK  status: ('A' for Active; 'I' for Inactive)
REMARK    1  A    between atoms: N_2  and  C1_3 
ROOT
ATOM      1  C1  UNL d   1       1.067   0.518   2.566  0.00  0.00     0.143 A 
ATOM      2  C2  UNL d   1       0.267  -0.279   1.742  0.00  0.00    -0.057 A 
ATOM      3  C3  UNL d   1      -0.605   0.290   0.805  0.00  0.00     0.033 A 
ATOM      4  C4  UNL d   1      -0.712   1.673   0.697  0.00  0.00    -0.042 A 
ATOM      5  C5  UNL d   1       0.056   2.485   1.524  0.00  0.00     0.033 A 
ATOM      6  C6  UNL d   1       0.929   1.910   2.453  0.00  0.00    -0.057 A 
ENDROOT
BRANCH   1   7
ATOM      7  N   UNL d   1       1.880   0.014   3.584  0.00  0.00    -0.732 N 
ATOM      8  C   UNL d   1       3.236  -0.408   3.304  0.00  0.00     0.284 C 
ATOM      9  H3  UNL d   1       1.777   0.529   4.455  0.00  0.00     0.395 HD
ENDBRANCH   1   7
TORSDOF 1
ENDMDL
