MODEL 1
REMARK minimizedAffinity -2.13085318
REMARK minimizedRMSD -1
REMARK  1 active torsions:
REMARK  status: ('A' for Active; 'I' for Inactive)
REMARK    1  A    between atoms: N_2  and  C1_3 
ROOT
ATOM      1  C1  UNL d   1      -2.065   1.429   1.832  0.00  0.00     0.143 A 
ATOM      2  C2  UNL d   1      -0.857   2.120   1.687  0.00  0.00    -0.057 A 
ATOM      3  C3  UNL d   1       0.288   1.485   1.191  0.00  0.00     0.033 A 
ATOM      4  C4  UNL d   1       0.252   0.135   0.858  0.00  0.00    -0.042 A 
ATOM      5  C5  UNL d   1      -0.931  -0.578   1.018  0.00  0.00     0.033 A 
ATOM      6  C6  UNL d   1      -2.073   0.064   1.507  0.00  0.00    -0.057 A 
ENDROOT
BRANCH   1   7
ATOM      7  N   UNL d   1      -3.211   1.980   2.411  0.00  0.00    -0.732 N 
ATOM      8  C   UNL d   1      -4.132   1.148   3.156  0.00  0.00     0.284 C 
ATOM      9  H3  UNL d   1      -3.034   2.888   2.835  0.00  0.00     0.395 HD
ENDBRANCH   1   7
TORSDOF 1
ENDMDL
