MODEL 1
REMARK minimizedAffinity -1.41883409
REMARK minimizedRMSD -1
REMARK  1 active torsions:
REMARK  status: ('A' for Active; 'I' for Inactive)
REMARK    1  A    between atoms: N_2  and  C1_3 
ROOT
ATOM      1  C1  UNL d   1      -1.800   1.712   2.129  0.00  0.00     0.143 A 
ATOM      2  C2  UNL d   1      -0.700   2.288   1.485  0.00  0.00    -0.057 A 
ATOM      3  C3  UNL d   1       0.386   1.511   1.066  0.00  0.00     0.033 A 
ATOM      4  C4  UNL d   1       0.405   0.142   1.313  0.00  0.00    -0.042 A 
ATOM      5  C5  UNL d   1      -0.665  -0.449   1.974  0.00  0.00     0.033 A 
ATOM      6  C6  UNL d   1      -1.750   0.332   2.383  0.00  0.00    -0.057 A 
ENDROOT
BRANCH   1   7
ATOM      7  N   UNL d   1      -2.865   2.446   2.657  0.00  0.00    -0.732 N 
ATOM      8  C   UNL d   1      -3.890   1.795   3.444  0.00  0.00     0.284 C 
ATOM      9  H3  UNL d   1      -2.571   3.349   3.022  0.00  0.00     0.395 HD
ENDBRANCH   1   7
TORSDOF 1
ENDMDL
