MODEL 1
REMARK minimizedAffinity -1.3757292
REMARK minimizedRMSD -1
REMARK  1 active torsions:
REMARK  status: ('A' for Active; 'I' for Inactive)
REMARK    1  A    between atoms: N_2  and  C1_3 
ROOT
ATOM      1  C1  UNL d   1      -1.771   1.760   1.777  0.00  0.00     0.143 A 
ATOM      2  C2  UNL d   1      -0.624   2.560   1.782  0.00  0.00    -0.057 A 
ATOM      3  C3  UNL d   1       0.636   2.024   1.489  0.00  0.00     0.033 A 
ATOM      4  C4  UNL d   1       0.775   0.668   1.214  0.00  0.00    -0.042 A 
ATOM      5  C5  UNL d   1      -0.349  -0.151   1.228  0.00  0.00     0.033 A 
ATOM      6  C6  UNL d   1      -1.605   0.391   1.514  0.00  0.00    -0.057 A 
ENDROOT
BRANCH   1   7
ATOM      7  N   UNL d   1      -3.037   2.214   2.156  0.00  0.00    -0.732 N 
ATOM      8  C   UNL d   1      -3.912   1.379   2.951  0.00  0.00     0.284 C 
ATOM      9  H3  UNL d   1      -3.032   3.193   2.432  0.00  0.00     0.395 HD
ENDBRANCH   1   7
TORSDOF 1
ENDMDL
