MODEL 1
REMARK minimizedAffinity 1.96773148
REMARK minimizedRMSD -1
REMARK  1 active torsions:
REMARK  status: ('A' for Active; 'I' for Inactive)
REMARK    1  A    between atoms: N_2  and  C1_3 
ROOT
ATOM      1  C1  UNL d   1       0.970   0.293   0.290  0.00  0.00     0.143 A 
ATOM      2  C2  UNL d   1       0.897  -0.853   1.090  0.00  0.00    -0.057 A 
ATOM      3  C3  UNL d   1      -0.244  -1.136   1.850  0.00  0.00     0.033 A 
ATOM      4  C4  UNL d   1      -1.325  -0.260   1.846  0.00  0.00    -0.042 A 
ATOM      5  C5  UNL d   1      -1.264   0.898   1.079  0.00  0.00     0.033 A 
ATOM      6  C6  UNL d   1      -0.124   1.171   0.316  0.00  0.00    -0.057 A 
ENDROOT
BRANCH   1   7
ATOM      7  N   UNL d   1       2.115   0.680  -0.411  0.00  0.00    -0.732 N 
ATOM      8  C   UNL d   1       3.135  -0.290  -0.749  0.00  0.00     0.284 C 
ATOM      9  H3  UNL d   1       1.909   1.343  -1.154  0.00  0.00     0.395 HD
ENDBRANCH   1   7
TORSDOF 1
ENDMDL
