MODEL 1
REMARK minimizedAffinity 0.722189128
REMARK minimizedRMSD -1
REMARK  1 active torsions:
REMARK  status: ('A' for Active; 'I' for Inactive)
REMARK    1  A    between atoms: N_2  and  C1_3 
ROOT
ATOM      1  C1  UNL d   1      -0.084   0.813   1.098  0.00  0.00     0.143 A 
ATOM      2  C2  UNL d   1       0.897  -0.043   1.608  0.00  0.00    -0.057 A 
ATOM      3  C3  UNL d   1       0.627  -1.396   1.848  0.00  0.00     0.033 A 
ATOM      4  C4  UNL d   1      -0.643  -1.911   1.608  0.00  0.00    -0.042 A 
ATOM      5  C5  UNL d   1      -1.641  -1.072   1.124  0.00  0.00     0.033 A 
ATOM      6  C6  UNL d   1      -1.363   0.276   0.880  0.00  0.00    -0.057 A 
ENDROOT
BRANCH   1   7
ATOM      7  N   UNL d   1       0.094   2.189   0.931  0.00  0.00    -0.732 N 
ATOM      8  C   UNL d   1      -0.761   3.132   1.618  0.00  0.00     0.284 C 
ATOM      9  H3  UNL d   1       1.077   2.454   0.915  0.00  0.00     0.395 HD
ENDBRANCH   1   7
TORSDOF 1
ENDMDL
