MODEL 1
REMARK minimizedAffinity 3.06815434
REMARK minimizedRMSD -1
REMARK  1 active torsions:
REMARK  status: ('A' for Active; 'I' for Inactive)
REMARK    1  A    between atoms: N_2  and  C1_3 
ROOT
ATOM      1  C1  UNL d   1      -1.624  -0.176   1.105  0.00  0.00     0.143 A 
ATOM      2  C2  UNL d   1      -0.294  -0.608   1.082  0.00  0.00    -0.057 A 
ATOM      3  C3  UNL d   1       0.767   0.301   1.177  0.00  0.00     0.033 A 
ATOM      4  C4  UNL d   1       0.515   1.666   1.268  0.00  0.00    -0.042 A 
ATOM      5  C5  UNL d   1      -0.799   2.120   1.267  0.00  0.00     0.033 A 
ATOM      6  C6  UNL d   1      -1.854   1.207   1.178  0.00  0.00    -0.057 A 
ENDROOT
BRANCH   1   7
ATOM      7  N   UNL d   1      -2.720  -1.021   0.915  0.00  0.00    -0.732 N 
ATOM      8  C   UNL d   1      -3.094  -1.456  -0.414  0.00  0.00     0.284 C 
ATOM      9  H3  UNL d   1      -2.775  -1.750   1.622  0.00  0.00     0.395 HD
ENDBRANCH   1   7
TORSDOF 1
ENDMDL
