MODEL 1
REMARK minimizedAffinity 0.667456865
REMARK minimizedRMSD -1
REMARK  1 active torsions:
REMARK  status: ('A' for Active; 'I' for Inactive)
REMARK    1  A    between atoms: N_2  and  C1_3 
ROOT
ATOM      1  C1  UNL d   1      -0.812   1.168   1.911  0.00  0.00     0.143 A 
ATOM      2  C2  UNL d   1      -1.432  -0.029   2.285  0.00  0.00    -0.057 A 
ATOM      3  C3  UNL d   1      -2.759  -0.051   2.731  0.00  0.00     0.033 A 
ATOM      4  C4  UNL d   1      -3.483   1.132   2.837  0.00  0.00    -0.042 A 
ATOM      5  C5  UNL d   1      -2.879   2.336   2.494  0.00  0.00     0.033 A 
ATOM      6  C6  UNL d   1      -1.556   2.351   2.044  0.00  0.00    -0.057 A 
ENDROOT
BRANCH   1   7
ATOM      7  N   UNL d   1       0.535   1.267   1.554  0.00  0.00    -0.732 N 
ATOM      8  C   UNL d   1       0.941   2.081   0.428  0.00  0.00     0.284 C 
ATOM      9  H3  UNL d   1       1.147   1.342   2.363  0.00  0.00     0.395 HD
ENDBRANCH   1   7
TORSDOF 1
ENDMDL
