MODEL 1
REMARK minimizedAffinity 0.95861733
REMARK minimizedRMSD -1
REMARK  1 active torsions:
REMARK  status: ('A' for Active; 'I' for Inactive)
REMARK    1  A    between atoms: N_2  and  C1_3 
ROOT
ATOM      1  C1  UNL d   1      -3.754  -3.689  -1.481  0.00  0.00     0.143 A 
ATOM      2  C2  UNL d   1      -3.329  -3.657  -2.813  0.00  0.00    -0.057 A 
ATOM      3  C3  UNL d   1      -3.400  -2.482  -3.571  0.00  0.00     0.033 A 
ATOM      4  C4  UNL d   1      -3.927  -1.320  -3.015  0.00  0.00    -0.042 A 
ATOM      5  C5  UNL d   1      -4.379  -1.335  -1.700  0.00  0.00     0.033 A 
ATOM      6  C6  UNL d   1      -4.299  -2.510  -0.947  0.00  0.00    -0.057 A 
ENDROOT
BRANCH   1   7
ATOM      7  N   UNL d   1      -3.800  -4.850  -0.706  0.00  0.00    -0.732 N 
ATOM      8  C   UNL d   1      -2.991  -6.000  -1.052  0.00  0.00     0.284 C 
ATOM      9  H3  UNL d   1      -3.835  -4.651   0.291  0.00  0.00     0.395 HD
ENDBRANCH   1   7
TORSDOF 1
ENDMDL
