MODEL 1
REMARK minimizedAffinity 0.93464005
REMARK minimizedRMSD -1
REMARK  1 active torsions:
REMARK  status: ('A' for Active; 'I' for Inactive)
REMARK    1  A    between atoms: N_2  and  C1_3 
ROOT
ATOM      1  C1  UNL d   1      -1.425   0.157   1.298  0.00  0.00     0.143 A 
ATOM      2  C2  UNL d   1      -1.213   1.517   1.543  0.00  0.00    -0.057 A 
ATOM      3  C3  UNL d   1       0.077   2.063   1.543  0.00  0.00     0.033 A 
ATOM      4  C4  UNL d   1       1.183   1.248   1.326  0.00  0.00    -0.042 A 
ATOM      5  C5  UNL d   1       0.998  -0.113   1.106  0.00  0.00     0.033 A 
ATOM      6  C6  UNL d   1      -0.293  -0.650   1.100  0.00  0.00    -0.057 A 
ENDROOT
BRANCH   1   7
ATOM      7  N   UNL d   1      -2.674  -0.463   1.383  0.00  0.00    -0.732 N 
ATOM      8  C   UNL d   1      -3.504  -0.293   2.556  0.00  0.00     0.284 C 
ATOM      9  H3  UNL d   1      -3.185  -0.428   0.503  0.00  0.00     0.395 HD
ENDBRANCH   1   7
TORSDOF 1
ENDMDL
