MODEL 1
REMARK minimizedAffinity 12.1500187
REMARK minimizedRMSD -1
REMARK  3 active torsions:
REMARK  status: ('A' for Active; 'I' for Inactive)
REMARK    1  A    between atoms: C3'_2  and  C2'_3 
REMARK    2  A    between atoms: C2'_3  and  C1'_4 
REMARK    3  A    between atoms: C1'_4  and  C1_5 
ROOT
ATOM      1  C1  N4B d   1      -2.416   0.639   1.929  0.00  0.00    -0.075 A 
ATOM      2  C2  N4B d   1      -3.040   0.799   3.186  0.00  0.00     0.002 A 
ATOM      3  C3  N4B d   1      -4.404   0.937   3.263  0.00  0.00     0.002 A 
ATOM      4  C4  N4B d   1      -5.160   0.936   2.101  0.00  0.00    -0.004 A 
ATOM      5  C5  N4B d   1      -4.553   0.755   0.893  0.00  0.00     0.002 A 
ATOM      6  C6  N4B d   1      -3.183   0.612   0.800  0.00  0.00     0.002 A 
ENDROOT
BRANCH   1   7
ATOM      7  C1' N4B d   1      -0.920   0.571   1.788  0.00  0.00     0.057 C 
BRANCH   7   8
ATOM      8  C2' N4B d   1      -0.331  -0.112   3.018  0.00  0.00     0.009 C 
BRANCH   8   9
ATOM      9  C3' N4B d   1       1.065   0.394   3.335  0.00  0.00     0.004 C 
ATOM     10  C4' N4B d   1       1.322   1.768   2.794  0.00  0.00     0.003 C 
ENDBRANCH   8   9
ENDBRANCH   7   8
ENDBRANCH   1   7
TORSDOF 3
ENDMDL
