MODEL 1
REMARK minimizedAffinity 3.66527224
REMARK minimizedRMSD -1
REMARK  3 active torsions:
REMARK  status: ('A' for Active; 'I' for Inactive)
REMARK    1  A    between atoms: C3'_2  and  C2'_3 
REMARK    2  A    between atoms: C2'_3  and  C1'_4 
REMARK    3  A    between atoms: C1'_4  and  C1_5 
ROOT
ATOM      1  C1  N4B d   1      -1.822   0.365   1.913  0.00  0.00    -0.075 A 
ATOM      2  C2  N4B d   1      -2.450  -0.084   0.730  0.00  0.00     0.002 A 
ATOM      3  C3  N4B d   1      -3.820  -0.174   0.672  0.00  0.00     0.002 A 
ATOM      4  C4  N4B d   1      -4.577   0.158   1.785  0.00  0.00    -0.004 A 
ATOM      5  C5  N4B d   1      -3.964   0.615   2.915  0.00  0.00     0.002 A 
ATOM      6  C6  N4B d   1      -2.589   0.715   2.987  0.00  0.00     0.002 A 
ENDROOT
BRANCH   1   7
ATOM      7  C1' N4B d   1      -0.325   0.399   2.053  0.00  0.00     0.057 C 
BRANCH   7   8
ATOM      8  C2' N4B d   1       0.047   0.169   3.515  0.00  0.00     0.009 C 
BRANCH   8   9
ATOM      9  C3' N4B d   1       1.140   1.115   3.979  0.00  0.00     0.004 C 
ATOM     10  C4' N4B d   1       0.847   2.549   3.649  0.00  0.00     0.003 C 
ENDBRANCH   8   9
ENDBRANCH   7   8
ENDBRANCH   1   7
TORSDOF 3
ENDMDL
