MODEL 1
REMARK minimizedAffinity 11.8993616
REMARK minimizedRMSD -1
REMARK  3 active torsions:
REMARK  status: ('A' for Active; 'I' for Inactive)
REMARK    1  A    between atoms: C3'_2  and  C2'_3 
REMARK    2  A    between atoms: C2'_3  and  C1'_4 
REMARK    3  A    between atoms: C1'_4  and  C1_5 
ROOT
ATOM      1  C1  N4B d   1      -5.091  -0.772   2.099  0.00  0.00    -0.075 A 
ATOM      2  C2  N4B d   1      -5.560  -0.644   3.425  0.00  0.00     0.002 A 
ATOM      3  C3  N4B d   1      -5.999  -1.752   4.108  0.00  0.00     0.002 A 
ATOM      4  C4  N4B d   1      -5.996  -2.989   3.481  0.00  0.00    -0.004 A 
ATOM      5  C5  N4B d   1      -5.518  -3.108   2.209  0.00  0.00     0.002 A 
ATOM      6  C6  N4B d   1      -5.070  -2.004   1.513  0.00  0.00     0.002 A 
ENDROOT
BRANCH   1   7
ATOM      7  C1' N4B d   1      -4.681   0.424   1.283  0.00  0.00     0.057 C 
BRANCH   7   8
ATOM      8  C2' N4B d   1      -3.159   0.469   1.191  0.00  0.00     0.009 C 
BRANCH   8   9
ATOM      9  C3' N4B d   1      -2.546   1.293   2.311  0.00  0.00     0.004 C 
ATOM     10  C4' N4B d   1      -1.165   0.838   2.677  0.00  0.00     0.003 C 
ENDBRANCH   8   9
ENDBRANCH   7   8
ENDBRANCH   1   7
TORSDOF 3
ENDMDL
