MODEL 1
REMARK minimizedAffinity 0.955652297
REMARK minimizedRMSD -1
REMARK  3 active torsions:
REMARK  status: ('A' for Active; 'I' for Inactive)
REMARK    1  A    between atoms: C3'_2  and  C2'_3 
REMARK    2  A    between atoms: C2'_3  and  C1'_4 
REMARK    3  A    between atoms: C1'_4  and  C1_5 
ROOT
ATOM      1  C1  N4B d   1      -1.757   1.172   2.979  0.00  0.00    -0.075 A 
ATOM      2  C2  N4B d   1      -1.352   2.500   3.236  0.00  0.00     0.002 A 
ATOM      3  C3  N4B d   1      -0.078   2.756   3.680  0.00  0.00     0.002 A 
ATOM      4  C4  N4B d   1       0.798   1.702   3.892  0.00  0.00    -0.004 A 
ATOM      5  C5  N4B d   1       0.408   0.424   3.617  0.00  0.00     0.002 A 
ATOM      6  C6  N4B d   1      -0.869   0.153   3.167  0.00  0.00     0.002 A 
ENDROOT
BRANCH   1   7
ATOM      7  C1' N4B d   1      -3.167   0.835   2.575  0.00  0.00     0.057 C 
BRANCH   7   8
ATOM      8  C2' N4B d   1      -3.166   0.317   1.140  0.00  0.00     0.009 C 
BRANCH   8   9
ATOM      9  C3' N4B d   1      -4.567   0.256   0.556  0.00  0.00     0.004 C 
ATOM     10  C4' N4B d   1      -4.931  -1.112   0.062  0.00  0.00     0.003 C 
ENDBRANCH   8   9
ENDBRANCH   7   8
ENDBRANCH   1   7
TORSDOF 3
ENDMDL
