MODEL 1
REMARK minimizedAffinity 2.82235909
REMARK minimizedRMSD -1
REMARK  3 active torsions:
REMARK  status: ('A' for Active; 'I' for Inactive)
REMARK    1  A    between atoms: C3'_2  and  C2'_3 
REMARK    2  A    between atoms: C2'_3  and  C1'_4 
REMARK    3  A    between atoms: C1'_4  and  C1_5 
ROOT
ATOM      1  C1  N4B d   1      -1.405   0.388   2.407  0.00  0.00    -0.075 A 
ATOM      2  C2  N4B d   1      -0.390  -0.499   2.827  0.00  0.00     0.002 A 
ATOM      3  C3  N4B d   1       0.588  -0.065   3.688  0.00  0.00     0.002 A 
ATOM      4  C4  N4B d   1       0.582   1.251   4.125  0.00  0.00    -0.004 A 
ATOM      5  C5  N4B d   1      -0.417   2.095   3.735  0.00  0.00     0.002 A 
ATOM      6  C6  N4B d   1      -1.408   1.671   2.873  0.00  0.00     0.002 A 
ENDROOT
BRANCH   1   7
ATOM      7  C1' N4B d   1      -2.446  -0.017   1.399  0.00  0.00     0.057 C 
BRANCH   7   8
ATOM      8  C2' N4B d   1      -3.833   0.267   1.970  0.00  0.00     0.009 C 
BRANCH   8   9
ATOM      9  C3' N4B d   1      -3.902  -0.014   3.461  0.00  0.00     0.004 C 
ATOM     10  C4' N4B d   1      -5.263   0.241   4.037  0.00  0.00     0.003 C 
ENDBRANCH   8   9
ENDBRANCH   7   8
ENDBRANCH   1   7
TORSDOF 3
ENDMDL
