MODEL 1
REMARK minimizedAffinity 3.94015789
REMARK minimizedRMSD -1
REMARK  3 active torsions:
REMARK  status: ('A' for Active; 'I' for Inactive)
REMARK    1  A    between atoms: C3'_2  and  C2'_3 
REMARK    2  A    between atoms: C2'_3  and  C1'_4 
REMARK    3  A    between atoms: C1'_4  and  C1_5 
ROOT
ATOM      1  C1  N4B d   1       2.630   0.159   1.388  0.00  0.00    -0.075 A 
ATOM      2  C2  N4B d   1       1.416   0.376   0.701  0.00  0.00     0.002 A 
ATOM      3  C3  N4B d   1       0.234   0.433   1.398  0.00  0.00     0.002 A 
ATOM      4  C4  N4B d   1       0.240   0.259   2.774  0.00  0.00    -0.004 A 
ATOM      5  C5  N4B d   1       1.420   0.075   3.433  0.00  0.00     0.002 A 
ATOM      6  C6  N4B d   1       2.616   0.020   2.746  0.00  0.00     0.002 A 
ENDROOT
BRANCH   1   7
ATOM      7  C1' N4B d   1       3.937   0.003   0.660  0.00  0.00     0.057 C 
BRANCH   7   8
ATOM      8  C2' N4B d   1       4.887  -0.836   1.509  0.00  0.00     0.009 C 
BRANCH   8   9
ATOM      9  C3' N4B d   1       5.891   0.023   2.258  0.00  0.00     0.004 C 
ATOM     10  C4' N4B d   1       6.000  -0.341   3.709  0.00  0.00     0.003 C 
ENDBRANCH   8   9
ENDBRANCH   7   8
ENDBRANCH   1   7
TORSDOF 3
ENDMDL
