MODEL 1
REMARK minimizedAffinity 3.31759262
REMARK minimizedRMSD -1
REMARK  2 active torsions:
REMARK  status: ('A' for Active; 'I' for Inactive)
REMARK    1  A    between atoms: C2'_3  and  C1'_4 
REMARK    2  A    between atoms: C1'_4  and  C1_5 
ROOT
ATOM      1  C1  I4B d   1      -0.082  -0.953   0.721  0.00  0.00    -0.075 A 
ATOM      2  C2  I4B d   1      -1.213  -0.448   0.130  0.00  0.00     0.003 A 
ATOM      3  C3  I4B d   1      -2.333  -0.092   0.920  0.00  0.00     0.002 A 
ATOM      4  C4  I4B d   1      -2.297  -0.304   2.283  0.00  0.00    -0.004 A 
ATOM      5  C5  I4B d   1      -1.141  -0.794   2.884  0.00  0.00     0.002 A 
ATOM      6  C6  I4B d   1      -0.022  -1.109   2.100  0.00  0.00     0.003 A 
ENDROOT
BRANCH   1   7
ATOM      7  C1' I4B d   1       1.070  -1.349  -0.147  0.00  0.00     0.060 C 
BRANCH   7   8
ATOM      8  C2' I4B d   1       2.333  -1.259   0.684  0.00  0.00    -0.013 C 
ATOM      9  C4' I4B d   1       3.066  -2.575   0.706  0.00  0.00     0.013 C 
ATOM     10  C3' I4B d   1       3.191  -0.172   0.108  0.00  0.00     0.013 C 
ENDBRANCH   7   8
ENDBRANCH   1   7
TORSDOF 2
ENDMDL
