MODEL 1
REMARK minimizedAffinity -1.8996805
REMARK minimizedRMSD -1
REMARK  2 active torsions:
REMARK  status: ('A' for Active; 'I' for Inactive)
REMARK    1  A    between atoms: C2'_3  and  C1'_4 
REMARK    2  A    between atoms: C1'_4  and  C1_5 
ROOT
ATOM      1  C1  I4B d   1      -1.020   0.465  -2.292  0.00  0.00    -0.075 A 
ATOM      2  C2  I4B d   1      -2.313   0.856  -2.538  0.00  0.00     0.003 A 
ATOM      3  C3  I4B d   1      -2.575   2.100  -3.162  0.00  0.00     0.002 A 
ATOM      4  C4  I4B d   1      -1.524   2.938  -3.474  0.00  0.00    -0.004 A 
ATOM      5  C5  I4B d   1      -0.213   2.531  -3.245  0.00  0.00     0.002 A 
ATOM      6  C6  I4B d   1       0.042   1.281  -2.661  0.00  0.00     0.003 A 
ENDROOT
BRANCH   1   7
ATOM      7  C1' I4B d   1      -0.781  -0.840  -1.601  0.00  0.00     0.060 C 
BRANCH   7   8
ATOM      8  C2' I4B d   1      -0.219  -0.544  -0.226  0.00  0.00    -0.013 C 
ATOM      9  C4' I4B d   1      -1.189  -0.940   0.856  0.00  0.00     0.013 C 
ATOM     10  C3' I4B d   1       1.078  -1.284  -0.086  0.00  0.00     0.013 C 
ENDBRANCH   7   8
ENDBRANCH   1   7
TORSDOF 2
ENDMDL
