MODEL 1
REMARK minimizedAffinity 1.65307486
REMARK minimizedRMSD -1
REMARK  2 active torsions:
REMARK  status: ('A' for Active; 'I' for Inactive)
REMARK    1  A    between atoms: C2'_3  and  C1'_4 
REMARK    2  A    between atoms: C1'_4  and  C1_5 
ROOT
ATOM      1  C1  I4B d   1      -1.460  -0.932   1.971  0.00  0.00    -0.075 A 
ATOM      2  C2  I4B d   1      -0.145  -1.322   2.032  0.00  0.00     0.003 A 
ATOM      3  C3  I4B d   1       0.716  -1.100   0.930  0.00  0.00     0.002 A 
ATOM      4  C4  I4B d   1       0.211  -0.535  -0.224  0.00  0.00    -0.004 A 
ATOM      5  C5  I4B d   1      -1.116  -0.120  -0.275  0.00  0.00     0.002 A 
ATOM      6  C6  I4B d   1      -1.954  -0.308   0.834  0.00  0.00     0.003 A 
ENDROOT
BRANCH   1   7
ATOM      7  C1' I4B d   1      -2.349  -1.212   3.141  0.00  0.00     0.060 C 
BRANCH   7   8
ATOM      8  C2' I4B d   1      -2.962  -2.583   2.945  0.00  0.00    -0.013 C 
ATOM      9  C4' I4B d   1      -2.964  -3.369   4.230  0.00  0.00     0.013 C 
ATOM     10  C3' I4B d   1      -4.354  -2.397   2.421  0.00  0.00     0.013 C 
ENDBRANCH   7   8
ENDBRANCH   1   7
TORSDOF 2
ENDMDL
