MODEL 1
REMARK minimizedAffinity 5.99045181
REMARK minimizedRMSD -1
REMARK  2 active torsions:
REMARK  status: ('A' for Active; 'I' for Inactive)
REMARK    1  A    between atoms: C2'_3  and  C1'_4 
REMARK    2  A    between atoms: C1'_4  and  C1_5 
ROOT
ATOM      1  C1  I4B d   1       2.170  -1.990   0.320  0.00  0.00    -0.075 A 
ATOM      2  C2  I4B d   1       1.404  -2.237   1.432  0.00  0.00     0.003 A 
ATOM      3  C3  I4B d   1       0.115  -1.665   1.551  0.00  0.00     0.002 A 
ATOM      4  C4  I4B d   1      -0.346  -0.817   0.565  0.00  0.00    -0.004 A 
ATOM      5  C5  I4B d   1       0.421  -0.586  -0.572  0.00  0.00     0.002 A 
ATOM      6  C6  I4B d   1       1.682  -1.186  -0.702  0.00  0.00     0.003 A 
ENDROOT
BRANCH   1   7
ATOM      7  C1' I4B d   1       3.540  -2.584   0.241  0.00  0.00     0.060 C 
BRANCH   7   8
ATOM      8  C2' I4B d   1       3.395  -4.092   0.228  0.00  0.00    -0.013 C 
ATOM      9  C4' I4B d   1       3.906  -4.678  -1.062  0.00  0.00     0.013 C 
ATOM     10  C3' I4B d   1       4.146  -4.640   1.406  0.00  0.00     0.013 C 
ENDBRANCH   7   8
ENDBRANCH   1   7
TORSDOF 2
ENDMDL
