MODEL 1
REMARK minimizedAffinity 9.78204632
REMARK minimizedRMSD -1
REMARK  2 active torsions:
REMARK  status: ('A' for Active; 'I' for Inactive)
REMARK    1  A    between atoms: C2'_3  and  C1'_4 
REMARK    2  A    between atoms: C1'_4  and  C1_5 
ROOT
ATOM      1  C1  I4B d   1      -0.656  -0.103   0.709  0.00  0.00    -0.075 A 
ATOM      2  C2  I4B d   1       0.508  -0.501   1.318  0.00  0.00     0.003 A 
ATOM      3  C3  I4B d   1       1.535  -1.116   0.560  0.00  0.00     0.002 A 
ATOM      4  C4  I4B d   1       1.336  -1.357  -0.784  0.00  0.00    -0.004 A 
ATOM      5  C5  I4B d   1       0.165  -0.931  -1.404  0.00  0.00     0.002 A 
ATOM      6  C6  I4B d   1      -0.832  -0.289  -0.656  0.00  0.00     0.003 A 
ENDROOT
BRANCH   1   7
ATOM      7  C1' I4B d   1      -1.732   0.513   1.545  0.00  0.00     0.060 C 
BRANCH   7   8
ATOM      8  C2' I4B d   1      -2.664  -0.594   1.996  0.00  0.00    -0.013 C 
ATOM      9  C4' I4B d   1      -3.311  -1.275   0.819  0.00  0.00     0.013 C 
ATOM     10  C3' I4B d   1      -1.866  -1.566   2.813  0.00  0.00     0.013 C 
ENDBRANCH   7   8
ENDBRANCH   1   7
TORSDOF 2
ENDMDL
