MODEL 1
REMARK minimizedAffinity -3.6462357
REMARK minimizedRMSD -1
REMARK  3 active torsions:
REMARK  status: ('A' for Active; 'I' for Inactive)
REMARK    1  A    between atoms: C3'_2  and  C2'_3 
REMARK    2  A    between atoms: C2'_3  and  C1'_4 
REMARK    3  A    between atoms: C1'_4  and  C1_5 
ROOT
ATOM      1  C1  N4B d   1      -0.660  -0.621   0.354  0.00  0.00    -0.075 A 
ATOM      2  C2  N4B d   1      -0.523  -1.969   0.753  0.00  0.00     0.002 A 
ATOM      3  C3  N4B d   1      -1.317  -2.473   1.754  0.00  0.00     0.002 A 
ATOM      4  C4  N4B d   1      -2.237  -1.646   2.381  0.00  0.00    -0.004 A 
ATOM      5  C5  N4B d   1      -2.381  -0.352   1.972  0.00  0.00     0.002 A 
ATOM      6  C6  N4B d   1      -1.592   0.166   0.964  0.00  0.00     0.002 A 
ENDROOT
BRANCH   1   7
ATOM      7  C1' N4B d   1       0.245  -0.003  -0.677  0.00  0.00     0.057 C 
BRANCH   7   8
ATOM      8  C2' N4B d   1       0.300   1.506  -0.454  0.00  0.00     0.009 C 
BRANCH   8   9
ATOM      9  C3' N4B d   1       1.300   2.181  -1.377  0.00  0.00     0.004 C 
ATOM     10  C4' N4B d   1       0.706   2.553  -2.703  0.00  0.00     0.003 C 
ENDBRANCH   8   9
ENDBRANCH   7   8
ENDBRANCH   1   7
TORSDOF 3
ENDMDL
