MODEL 1
REMARK minimizedAffinity -3.92100096
REMARK minimizedRMSD -1
REMARK  3 active torsions:
REMARK  status: ('A' for Active; 'I' for Inactive)
REMARK    1  A    between atoms: C3'_2  and  C2'_3 
REMARK    2  A    between atoms: C2'_3  and  C1'_4 
REMARK    3  A    between atoms: C1'_4  and  C1_5 
ROOT
ATOM      1  C1  N4B d   1      -0.476  -0.306   0.603  0.00  0.00    -0.075 A 
ATOM      2  C2  N4B d   1      -1.606  -0.015   1.399  0.00  0.00     0.002 A 
ATOM      3  C3  N4B d   1      -2.134  -0.981   2.220  0.00  0.00     0.002 A 
ATOM      4  C4  N4B d   1      -1.564  -2.245   2.247  0.00  0.00    -0.004 A 
ATOM      5  C5  N4B d   1      -0.457  -2.510   1.495  0.00  0.00     0.002 A 
ATOM      6  C6  N4B d   1       0.087  -1.548   0.668  0.00  0.00     0.002 A 
ENDROOT
BRANCH   1   7
ATOM      7  C1' N4B d   1       0.085   0.691  -0.374  0.00  0.00     0.057 C 
BRANCH   7   8
ATOM      8  C2' N4B d   1      -0.378   0.327  -1.782  0.00  0.00     0.009 C 
BRANCH   8   9
ATOM      9  C3' N4B d   1       0.786   0.220  -2.753  0.00  0.00     0.004 C 
ATOM     10  C4' N4B d   1       1.058   1.504  -3.477  0.00  0.00     0.003 C 
ENDBRANCH   8   9
ENDBRANCH   7   8
ENDBRANCH   1   7
TORSDOF 3
ENDMDL
