MODEL 1
REMARK minimizedAffinity -4.93685341
REMARK minimizedRMSD -1
REMARK  3 active torsions:
REMARK  status: ('A' for Active; 'I' for Inactive)
REMARK    1  A    between atoms: C3'_2  and  C2'_3 
REMARK    2  A    between atoms: C2'_3  and  C1'_4 
REMARK    3  A    between atoms: C1'_4  and  C1_5 
ROOT
ATOM      1  C1  N4B d   1       0.199   0.877  -1.116  0.00  0.00    -0.075 A 
ATOM      2  C2  N4B d   1       1.419   1.573  -0.969  0.00  0.00     0.002 A 
ATOM      3  C3  N4B d   1       1.953   2.256  -2.035  0.00  0.00     0.002 A 
ATOM      4  C4  N4B d   1       1.298   2.241  -3.257  0.00  0.00    -0.004 A 
ATOM      5  C5  N4B d   1       0.107   1.588  -3.383  0.00  0.00     0.002 A 
ATOM      6  C6  N4B d   1      -0.444   0.901  -2.320  0.00  0.00     0.002 A 
ENDROOT
BRANCH   1   7
ATOM      7  C1' N4B d   1      -0.380   0.046  -0.004  0.00  0.00     0.057 C 
BRANCH   7   8
ATOM      8  C2' N4B d   1       0.534  -1.148   0.256  0.00  0.00     0.009 C 
BRANCH   8   9
ATOM      9  C3' N4B d   1      -0.099  -2.151   1.205  0.00  0.00     0.004 C 
ATOM     10  C4' N4B d   1      -1.541  -2.419   0.890  0.00  0.00     0.003 C 
ENDBRANCH   8   9
ENDBRANCH   7   8
ENDBRANCH   1   7
TORSDOF 3
ENDMDL
