MODEL 1
REMARK minimizedAffinity -4.86516285
REMARK minimizedRMSD -1
REMARK  3 active torsions:
REMARK  status: ('A' for Active; 'I' for Inactive)
REMARK    1  A    between atoms: C3'_2  and  C2'_3 
REMARK    2  A    between atoms: C2'_3  and  C1'_4 
REMARK    3  A    between atoms: C1'_4  and  C1_5 
ROOT
ATOM      1  C1  N4B d   1      -0.076  -0.338  -0.044  0.00  0.00    -0.075 A 
ATOM      2  C2  N4B d   1       0.697  -1.265   0.689  0.00  0.00     0.002 A 
ATOM      3  C3  N4B d   1       0.114  -2.407   1.181  0.00  0.00     0.002 A 
ATOM      4  C4  N4B d   1      -1.238  -2.633   0.969  0.00  0.00    -0.004 A 
ATOM      5  C5  N4B d   1      -1.971  -1.745   0.238  0.00  0.00     0.002 A 
ATOM      6  C6  N4B d   1      -1.398  -0.595  -0.266  0.00  0.00     0.002 A 
ENDROOT
BRANCH   1   7
ATOM      7  C1' N4B d   1       0.497   0.966  -0.528  0.00  0.00     0.057 C 
BRANCH   7   8
ATOM      8  C2' N4B d   1       0.430   1.008  -2.052  0.00  0.00     0.009 C 
BRANCH   8   9
ATOM      9  C3' N4B d   1       0.820   2.370  -2.600  0.00  0.00     0.004 C 
ATOM     10  C4' N4B d   1      -0.344   3.120  -3.175  0.00  0.00     0.003 C 
ENDBRANCH   8   9
ENDBRANCH   7   8
ENDBRANCH   1   7
TORSDOF 3
ENDMDL
