MODEL 1
REMARK minimizedAffinity 9.91604042
REMARK minimizedRMSD -1
REMARK  0 active torsions:
REMARK  status: ('A' for Active; 'I' for Inactive)
ROOT
ATOM      1  C   UNL d   1       3.686   5.142  -0.499  0.00  0.00    -0.002 A 
ATOM      2  C1  UNL d   1       3.827   3.764  -0.411  0.00  0.00     0.010 A 
ATOM      3  C2  UNL d   1       4.278   3.171   0.770  0.00  0.00     0.041 A 
ATOM      4  C3  UNL d   1       4.586   3.993   1.871  0.00  0.00    -0.075 A 
ATOM      5  S   UNL d   1       5.153   3.487   3.419  0.00  0.00     0.015 SA
ATOM      6  C4  UNL d   1       5.221   5.088   4.000  0.00  0.00     0.022 A 
ATOM      7  C5  UNL d   1       4.824   5.999   3.049  0.00  0.00     0.026 A 
ATOM      8  C6  UNL d   1       4.451   5.383   1.807  0.00  0.00    -0.082 A 
ATOM      9  C7  UNL d   1       3.993   5.954   0.596  0.00  0.00     0.045 A 
ENDROOT
TORSDOF 0
ENDMDL
