MODEL 1
REMARK minimizedAffinity 5.6012764
REMARK minimizedRMSD -1
REMARK  0 active torsions:
REMARK  status: ('A' for Active; 'I' for Inactive)
ROOT
ATOM      1  C   UNL d   1       5.156  -1.075   4.827  0.00  0.00    -0.002 A 
ATOM      2  C1  UNL d   1       5.740  -0.507   5.950  0.00  0.00     0.010 A 
ATOM      3  C2  UNL d   1       5.999   0.865   5.999  0.00  0.00     0.041 A 
ATOM      4  C3  UNL d   1       5.657   1.663   4.890  0.00  0.00    -0.075 A 
ATOM      5  S   UNL d   1       5.880   3.364   4.725  0.00  0.00     0.015 SA
ATOM      6  C4  UNL d   1       5.205   3.377   3.161  0.00  0.00     0.022 A 
ATOM      7  C5  UNL d   1       4.814   2.122   2.758  0.00  0.00     0.026 A 
ATOM      8  C6  UNL d   1       5.067   1.114   3.748  0.00  0.00    -0.082 A 
ATOM      9  C7  UNL d   1       4.818  -0.280   3.729  0.00  0.00     0.045 A 
ENDROOT
TORSDOF 0
ENDMDL
