MODEL 1
REMARK minimizedAffinity 8.90708828
REMARK minimizedRMSD -1
REMARK  0 active torsions:
REMARK  status: ('A' for Active; 'I' for Inactive)
ROOT
ATOM      1  C   UNL d   1      -2.251  -4.923   0.250  0.00  0.00    -0.002 A 
ATOM      2  C1  UNL d   1      -3.382  -4.187  -0.074  0.00  0.00     0.010 A 
ATOM      3  C2  UNL d   1      -3.296  -2.810  -0.288  0.00  0.00     0.041 A 
ATOM      4  C3  UNL d   1      -2.042  -2.179  -0.172  0.00  0.00    -0.075 A 
ATOM      5  S   UNL d   1      -1.696  -0.504  -0.391  0.00  0.00     0.015 SA
ATOM      6  C4  UNL d   1      -0.039  -0.726  -0.060  0.00  0.00     0.022 A 
ATOM      7  C5  UNL d   1       0.261  -2.039   0.213  0.00  0.00     0.026 A 
ATOM      8  C6  UNL d   1      -0.888  -2.899   0.152  0.00  0.00    -0.082 A 
ATOM      9  C7  UNL d   1      -1.008  -4.293   0.365  0.00  0.00     0.045 A 
ENDROOT
TORSDOF 0
ENDMDL
