MODEL 1
REMARK minimizedAffinity 7.03730345
REMARK minimizedRMSD -1
REMARK  0 active torsions:
REMARK  status: ('A' for Active; 'I' for Inactive)
ROOT
ATOM      1  C   UNL d   1       3.735   3.892  -0.332  0.00  0.00    -0.002 A 
ATOM      2  C1  UNL d   1       3.878   5.270  -0.408  0.00  0.00     0.010 A 
ATOM      3  C2  UNL d   1       4.330   6.000   0.693  0.00  0.00     0.041 A 
ATOM      4  C3  UNL d   1       4.641   5.314   1.884  0.00  0.00    -0.075 A 
ATOM      5  S   UNL d   1       5.213   5.999   3.359  0.00  0.00     0.015 SA
ATOM      6  C4  UNL d   1       5.281   4.479   4.125  0.00  0.00     0.022 A 
ATOM      7  C5  UNL d   1       4.881   3.462   3.291  0.00  0.00     0.026 A 
ATOM      8  C6  UNL d   1       4.506   3.927   1.985  0.00  0.00    -0.082 A 
ATOM      9  C7  UNL d   1       4.044   3.215   0.851  0.00  0.00     0.045 A 
ENDROOT
TORSDOF 0
ENDMDL
