MODEL 1
REMARK minimizedAffinity -3.95107341
REMARK minimizedRMSD -1
REMARK  0 active torsions:
REMARK  status: ('A' for Active; 'I' for Inactive)
ROOT
ATOM      1  C   UNL d   1       5.529  -1.937   4.907  0.00  0.00    -0.002 A 
ATOM      2  C1  UNL d   1       5.845  -1.132   5.993  0.00  0.00     0.010 A 
ATOM      3  C2  UNL d   1       6.000   0.246   5.834  0.00  0.00     0.041 A 
ATOM      4  C3  UNL d   1       5.827   0.808   4.553  0.00  0.00    -0.075 A 
ATOM      5  S   UNL d   1       5.967   2.471   4.121  0.00  0.00     0.015 SA
ATOM      6  C4  UNL d   1       5.608   2.153   2.485  0.00  0.00     0.022 A 
ATOM      7  C5  UNL d   1       5.385   0.815   2.257  0.00  0.00     0.026 A 
ATOM      8  C6  UNL d   1       5.507   0.018   3.445  0.00  0.00    -0.082 A 
ATOM      9  C7  UNL d   1       5.358  -1.376   3.639  0.00  0.00     0.045 A 
ENDROOT
TORSDOF 0
ENDMDL
