MODEL 1
REMARK minimizedAffinity -4.21173429
REMARK minimizedRMSD -1
REMARK  0 active torsions:
REMARK  status: ('A' for Active; 'I' for Inactive)
ROOT
ATOM      1  C   UNL d   1       3.767   4.104  -1.322  0.00  0.00    -0.002 A 
ATOM      2  C1  UNL d   1       4.855   4.917  -1.609  0.00  0.00     0.010 A 
ATOM      3  C2  UNL d   1       5.564   5.543  -0.582  0.00  0.00     0.041 A 
ATOM      4  C3  UNL d   1       5.160   5.335   0.751  0.00  0.00    -0.075 A 
ATOM      5  S   UNL d   1       5.879   5.998   2.171  0.00  0.00     0.015 SA
ATOM      6  C4  UNL d   1       4.760   5.217   3.192  0.00  0.00     0.022 A 
ATOM      7  C5  UNL d   1       3.853   4.465   2.484  0.00  0.00     0.026 A 
ATOM      8  C6  UNL d   1       4.068   4.520   1.066  0.00  0.00    -0.082 A 
ATOM      9  C7  UNL d   1       3.369   3.901   0.002  0.00  0.00     0.045 A 
ENDROOT
TORSDOF 0
ENDMDL
