MODEL 1
REMARK minimizedAffinity 7.55060148
REMARK minimizedRMSD -1
REMARK  0 active torsions:
REMARK  status: ('A' for Active; 'I' for Inactive)
ROOT
ATOM      1  C   UNL d   1       3.767   4.188  -0.619  0.00  0.00    -0.002 A 
ATOM      2  C1  UNL d   1       4.501   5.365  -0.677  0.00  0.00     0.010 A 
ATOM      3  C2  UNL d   1       4.931   5.992   0.494  0.00  0.00     0.041 A 
ATOM      4  C3  UNL d   1       4.611   5.410   1.736  0.00  0.00    -0.075 A 
ATOM      5  S   UNL d   1       5.034   6.000   3.300  0.00  0.00     0.015 SA
ATOM      6  C4  UNL d   1       4.251   4.703   4.083  0.00  0.00     0.022 A 
ATOM      7  C5  UNL d   1       3.676   3.832   3.188  0.00  0.00     0.026 A 
ATOM      8  C6  UNL d   1       3.875   4.225   1.821  0.00  0.00    -0.082 A 
ATOM      9  C7  UNL d   1       3.452   3.614   0.616  0.00  0.00     0.045 A 
ENDROOT
TORSDOF 0
ENDMDL
