MODEL 1
REMARK minimizedAffinity 5.02346945
REMARK minimizedRMSD -1
REMARK  0 active torsions:
REMARK  status: ('A' for Active; 'I' for Inactive)
ROOT
ATOM      1  C   UNL d   1      -2.574  -1.338   4.319  0.00  0.00    -0.002 A 
ATOM      2  C1  UNL d   1      -3.844  -1.491   3.781  0.00  0.00     0.010 A 
ATOM      3  C2  UNL d   1      -4.055  -1.354   2.408  0.00  0.00     0.041 A 
ATOM      4  C3  UNL d   1      -2.957  -1.059   1.576  0.00  0.00    -0.075 A 
ATOM      5  S   UNL d   1      -2.977  -0.847  -0.135  0.00  0.00     0.015 SA
ATOM      6  C4  UNL d   1      -1.300  -0.548  -0.193  0.00  0.00     0.022 A 
ATOM      7  C5  UNL d   1      -0.724  -0.605   1.054  0.00  0.00     0.026 A 
ATOM      8  C6  UNL d   1      -1.669  -0.901   2.094  0.00  0.00    -0.082 A 
ATOM      9  C7  UNL d   1      -1.488  -1.045   3.490  0.00  0.00     0.045 A 
ENDROOT
TORSDOF 0
ENDMDL
