MODEL 1
REMARK minimizedAffinity 9.76822567
REMARK minimizedRMSD -1
REMARK  0 active torsions:
REMARK  status: ('A' for Active; 'I' for Inactive)
ROOT
ATOM      1  C   UNL d   1       4.133   5.276  -0.411  0.00  0.00    -0.002 A 
ATOM      2  C1  UNL d   1       3.544   4.046  -0.157  0.00  0.00     0.010 A 
ATOM      3  C2  UNL d   1       3.561   3.502   1.129  0.00  0.00     0.041 A 
ATOM      4  C3  UNL d   1       4.184   4.223   2.166  0.00  0.00    -0.075 A 
ATOM      5  S   UNL d   1       4.326   3.754   3.819  0.00  0.00     0.015 SA
ATOM      6  C4  UNL d   1       5.172   5.176   4.227  0.00  0.00     0.022 A 
ATOM      7  C5  UNL d   1       5.350   6.000   3.141  0.00  0.00     0.026 A 
ATOM      8  C6  UNL d   1       4.784   5.464   1.935  0.00  0.00    -0.082 A 
ATOM      9  C7  UNL d   1       4.751   5.989   0.621  0.00  0.00     0.045 A 
ENDROOT
TORSDOF 0
ENDMDL
