MODEL 1
REMARK minimizedAffinity 5.12099981
REMARK minimizedRMSD -1
REMARK  0 active torsions:
REMARK  status: ('A' for Active; 'I' for Inactive)
ROOT
ATOM      1  C   UNL d   1       4.441   1.445   4.963  0.00  0.00    -0.002 A 
ATOM      2  C1  UNL d   1       5.256   1.878   5.999  0.00  0.00     0.010 A 
ATOM      3  C2  UNL d   1       5.782   3.171   5.997  0.00  0.00     0.041 A 
ATOM      4  C3  UNL d   1       5.470   4.031   4.925  0.00  0.00    -0.075 A 
ATOM      5  S   UNL d   1       5.999   5.658   4.710  0.00  0.00     0.015 SA
ATOM      6  C4  UNL d   1       5.156   5.817   3.238  0.00  0.00     0.022 A 
ATOM      7  C5  UNL d   1       4.482   4.666   2.903  0.00  0.00     0.026 A 
ATOM      8  C6  UNL d   1       4.651   3.618   3.870  0.00  0.00    -0.082 A 
ATOM      9  C7  UNL d   1       4.135   2.301   3.902  0.00  0.00     0.045 A 
ENDROOT
TORSDOF 0
ENDMDL
