MODEL 1
REMARK minimizedAffinity 3.50956273
REMARK minimizedRMSD -1
REMARK  2 active torsions:
REMARK  status: ('A' for Active; 'I' for Inactive)
REMARK    1  A    between atoms: C2'_3  and  C1'_4 
REMARK    2  A    between atoms: C1'_4  and  C1_5 
ROOT
ATOM      1  C1  I4B d   1       0.968   0.271   0.305  0.00  0.00    -0.075 A 
ATOM      2  C2  I4B d   1       0.196   1.396   0.156  0.00  0.00     0.003 A 
ATOM      3  C3  I4B d   1      -1.216   1.299   0.175  0.00  0.00     0.002 A 
ATOM      4  C4  I4B d   1      -1.811   0.060   0.294  0.00  0.00    -0.004 A 
ATOM      5  C5  I4B d   1      -1.027  -1.077   0.468  0.00  0.00     0.002 A 
ATOM      6  C6  I4B d   1       0.372  -0.970   0.486  0.00  0.00     0.003 A 
ENDROOT
BRANCH   1   7
ATOM      7  C1' I4B d   1       2.457   0.406   0.248  0.00  0.00     0.060 C 
BRANCH   7   8
ATOM      8  C2' I4B d   1       3.016  -0.014   1.592  0.00  0.00    -0.013 C 
ATOM      9  C4' I4B d   1       4.433  -0.507   1.463  0.00  0.00     0.013 C 
ATOM     10  C3' I4B d   1       2.934   1.164   2.516  0.00  0.00     0.013 C 
ENDBRANCH   7   8
ENDBRANCH   1   7
TORSDOF 2
ENDMDL
