MODEL 1
REMARK minimizedAffinity -3.07923698
REMARK minimizedRMSD -1
REMARK  2 active torsions:
REMARK  status: ('A' for Active; 'I' for Inactive)
REMARK    1  A    between atoms: C2'_3  and  C1'_4 
REMARK    2  A    between atoms: C1'_4  and  C1_5 
ROOT
ATOM      1  C1  I4B d   1      -0.046  -0.040  -0.058  0.00  0.00    -0.075 A 
ATOM      2  C2  I4B d   1       0.531  -1.223   0.329  0.00  0.00     0.003 A 
ATOM      3  C3  I4B d   1       1.903  -1.268   0.675  0.00  0.00     0.002 A 
ATOM      4  C4  I4B d   1       2.668  -0.124   0.573  0.00  0.00    -0.004 A 
ATOM      5  C5  I4B d   1       2.076   1.081   0.202  0.00  0.00     0.002 A 
ATOM      6  C6  I4B d   1       0.708   1.126  -0.103  0.00  0.00     0.003 A 
ENDROOT
BRANCH   1   7
ATOM      7  C1' I4B d   1      -1.490  -0.035  -0.449  0.00  0.00     0.060 C 
BRANCH   7   8
ATOM      8  C2' I4B d   1      -1.565  -0.125  -1.959  0.00  0.00    -0.013 C 
ATOM      9  C4' I4B d   1      -1.633  -1.559  -2.417  0.00  0.00     0.013 C 
ATOM     10  C3' I4B d   1      -2.770   0.644  -2.410  0.00  0.00     0.013 C 
ENDBRANCH   7   8
ENDBRANCH   1   7
TORSDOF 2
ENDMDL
