MODEL 1
REMARK minimizedAffinity -5.61513519
REMARK minimizedRMSD -1
REMARK  2 active torsions:
REMARK  status: ('A' for Active; 'I' for Inactive)
REMARK    1  A    between atoms: C2'_3  and  C1'_4 
REMARK    2  A    between atoms: C1'_4  and  C1_5 
ROOT
ATOM      1  C1  I4B d   1      -0.236   0.038  -0.142  0.00  0.00    -0.075 A 
ATOM      2  C2  I4B d   1       0.541   1.169  -0.146  0.00  0.00     0.003 A 
ATOM      3  C3  I4B d   1       1.895   1.105   0.265  0.00  0.00     0.002 A 
ATOM      4  C4  I4B d   1       2.412  -0.091   0.717  0.00  0.00    -0.004 A 
ATOM      5  C5  I4B d   1       1.629  -1.242   0.699  0.00  0.00     0.002 A 
ATOM      6  C6  I4B d   1       0.300  -1.180   0.255  0.00  0.00     0.003 A 
ENDROOT
BRANCH   1   7
ATOM      7  C1' I4B d   1      -1.671   0.147  -0.551  0.00  0.00     0.060 C 
BRANCH   7   8
ATOM      8  C2' I4B d   1      -1.735   0.040  -2.061  0.00  0.00    -0.013 C 
ATOM      9  C4' I4B d   1      -1.890  -1.392  -2.500  0.00  0.00     0.013 C 
ATOM     10  C3' I4B d   1      -2.884   0.879  -2.536  0.00  0.00     0.013 C 
ENDBRANCH   7   8
ENDBRANCH   1   7
TORSDOF 2
ENDMDL
