MODEL 1
REMARK minimizedAffinity -5.96202183
REMARK minimizedRMSD -1
REMARK  2 active torsions:
REMARK  status: ('A' for Active; 'I' for Inactive)
REMARK    1  A    between atoms: C2'_3  and  C1'_4 
REMARK    2  A    between atoms: C1'_4  and  C1_5 
ROOT
ATOM      1  C1  I4B d   1       0.787  -0.307   0.489  0.00  0.00    -0.075 A 
ATOM      2  C2  I4B d   1       1.981   0.364   0.573  0.00  0.00     0.003 A 
ATOM      3  C3  I4B d   1       3.070  -0.204   1.277  0.00  0.00     0.002 A 
ATOM      4  C4  I4B d   1       2.906  -1.414   1.920  0.00  0.00    -0.004 A 
ATOM      5  C5  I4B d   1       1.702  -2.104   1.815  0.00  0.00     0.002 A 
ATOM      6  C6  I4B d   1       0.639  -1.553   1.084  0.00  0.00     0.003 A 
ENDROOT
BRANCH   1   7
ATOM      7  C1' I4B d   1      -0.353   0.338  -0.235  0.00  0.00     0.060 C 
BRANCH   7   8
ATOM      8  C2' I4B d   1      -1.408  -0.721  -0.481  0.00  0.00    -0.013 C 
ATOM      9  C4' I4B d   1      -2.191  -1.012   0.772  0.00  0.00     0.013 C 
ATOM     10  C3' I4B d   1      -2.305  -0.233  -1.579  0.00  0.00     0.013 C 
ENDBRANCH   7   8
ENDBRANCH   1   7
TORSDOF 2
ENDMDL
