MODEL 1
REMARK minimizedAffinity -2.99570203
REMARK minimizedRMSD -1
REMARK  2 active torsions:
REMARK  status: ('A' for Active; 'I' for Inactive)
REMARK    1  A    between atoms: C2'_3  and  C1'_4 
REMARK    2  A    between atoms: C1'_4  and  C1_5 
ROOT
ATOM      1  C1  I4B d   1      -0.415  -0.009   0.303  0.00  0.00    -0.075 A 
ATOM      2  C2  I4B d   1      -0.036   1.304   0.437  0.00  0.00     0.003 A 
ATOM      3  C3  I4B d   1       1.304   1.630   0.756  0.00  0.00     0.002 A 
ATOM      4  C4  I4B d   1       2.215   0.618   0.982  0.00  0.00    -0.004 A 
ATOM      5  C5  I4B d   1       1.834  -0.712   0.825  0.00  0.00     0.002 A 
ATOM      6  C6  I4B d   1       0.514  -1.027   0.471  0.00  0.00     0.003 A 
ENDROOT
BRANCH   1   7
ATOM      7  C1' I4B d   1      -1.846  -0.318  -0.003  0.00  0.00     0.060 C 
BRANCH   7   8
ATOM      8  C2' I4B d   1      -2.059  -0.121  -1.490  0.00  0.00    -0.013 C 
ATOM      9  C4' I4B d   1      -2.451  -1.411  -2.161  0.00  0.00     0.013 C 
ATOM     10  C3' I4B d   1      -3.116   0.927  -1.671  0.00  0.00     0.013 C 
ENDBRANCH   7   8
ENDBRANCH   1   7
TORSDOF 2
ENDMDL
