MODEL 1
REMARK minimizedAffinity -4.79757547
REMARK minimizedRMSD -1
REMARK  2 active torsions:
REMARK  status: ('A' for Active; 'I' for Inactive)
REMARK    1  A    between atoms: C2'_3  and  C1'_4 
REMARK    2  A    between atoms: C1'_4  and  C1_5 
ROOT
ATOM      1  C1  I4B d   1      -0.214   0.204  -0.347  0.00  0.00    -0.075 A 
ATOM      2  C2  I4B d   1      -1.404   0.566   0.233  0.00  0.00     0.003 A 
ATOM      3  C3  I4B d   1      -2.627   0.319  -0.436  0.00  0.00     0.002 A 
ATOM      4  C4  I4B d   1      -2.611  -0.243  -1.696  0.00  0.00    -0.004 A 
ATOM      5  C5  I4B d   1      -1.405  -0.631  -2.273  0.00  0.00     0.002 A 
ATOM      6  C6  I4B d   1      -0.199  -0.418  -1.589  0.00  0.00     0.003 A 
ENDROOT
BRANCH   1   7
ATOM      7  C1' I4B d   1       1.061   0.510   0.373  0.00  0.00     0.060 C 
BRANCH   7   8
ATOM      8  C2' I4B d   1       2.023  -0.635   0.126  0.00  0.00    -0.013 C 
ATOM      9  C4' I4B d   1       3.369  -0.128  -0.321  0.00  0.00     0.013 C 
ATOM     10  C3' I4B d   1       2.136  -1.426   1.394  0.00  0.00     0.013 C 
ENDBRANCH   7   8
ENDBRANCH   1   7
TORSDOF 2
ENDMDL
