MODEL 1
REMARK minimizedAffinity -5.02135468
REMARK minimizedRMSD -1
REMARK  2 active torsions:
REMARK  status: ('A' for Active; 'I' for Inactive)
REMARK    1  A    between atoms: C2'_3  and  C1'_4 
REMARK    2  A    between atoms: C1'_4  and  C1_5 
ROOT
ATOM      1  C1  I4B d   1       1.381  -1.068   0.404  0.00  0.00    -0.075 A 
ATOM      2  C2  I4B d   1       1.498  -1.884   1.501  0.00  0.00     0.003 A 
ATOM      3  C3  I4B d   1       2.678  -1.860   2.284  0.00  0.00     0.002 A 
ATOM      4  C4  I4B d   1       3.728  -1.048   1.907  0.00  0.00    -0.004 A 
ATOM      5  C5  I4B d   1       3.598  -0.204   0.807  0.00  0.00     0.002 A 
ATOM      6  C6  I4B d   1       2.412  -0.205   0.058  0.00  0.00     0.003 A 
ENDROOT
BRANCH   1   7
ATOM      7  C1' I4B d   1       0.134  -1.142  -0.419  0.00  0.00     0.060 C 
BRANCH   7   8
ATOM      8  C2' I4B d   1      -0.839  -0.109   0.112  0.00  0.00    -0.013 C 
ATOM      9  C4' I4B d   1      -0.139   1.186   0.431  0.00  0.00     0.013 C 
ATOM     10  C3' I4B d   1      -1.908   0.094  -0.920  0.00  0.00     0.013 C 
ENDBRANCH   7   8
ENDBRANCH   1   7
TORSDOF 2
ENDMDL
