MODEL 1
REMARK minimizedAffinity -5.12917089
REMARK minimizedRMSD -1
REMARK  2 active torsions:
REMARK  status: ('A' for Active; 'I' for Inactive)
REMARK    1  A    between atoms: C2'_3  and  C1'_4 
REMARK    2  A    between atoms: C1'_4  and  C1_5 
ROOT
ATOM      1  C1  I4B d   1      -0.345  -0.116  -0.085  0.00  0.00    -0.075 A 
ATOM      2  C2  I4B d   1       0.277   1.085  -0.321  0.00  0.00     0.003 A 
ATOM      3  C3  I4B d   1       1.630   1.272   0.052  0.00  0.00     0.002 A 
ATOM      4  C4  I4B d   1       2.303   0.257   0.700  0.00  0.00    -0.004 A 
ATOM      5  C5  I4B d   1       1.678  -0.968   0.918  0.00  0.00     0.002 A 
ATOM      6  C6  I4B d   1       0.349  -1.160   0.513  0.00  0.00     0.003 A 
ENDROOT
BRANCH   1   7
ATOM      7  C1' I4B d   1      -1.784  -0.268  -0.462  0.00  0.00     0.060 C 
BRANCH   7   8
ATOM      8  C2' I4B d   1      -1.937   0.165  -1.906  0.00  0.00    -0.013 C 
ATOM      9  C4' I4B d   1      -1.775  -1.001  -2.845  0.00  0.00     0.013 C 
ATOM     10  C3' I4B d   1      -3.287   0.800  -2.059  0.00  0.00     0.013 C 
ENDBRANCH   7   8
ENDBRANCH   1   7
TORSDOF 2
ENDMDL
