MODEL 1
REMARK minimizedAffinity -4.28010464
REMARK minimizedRMSD -1
REMARK  2 active torsions:
REMARK  status: ('A' for Active; 'I' for Inactive)
REMARK    1  A    between atoms: C2'_3  and  C1'_4 
REMARK    2  A    between atoms: C1'_4  and  C1_5 
ROOT
ATOM      1  C1  I4B d   1      -0.031  -0.292   0.331  0.00  0.00    -0.075 A 
ATOM      2  C2  I4B d   1       0.525   0.959   0.419  0.00  0.00     0.003 A 
ATOM      3  C3  I4B d   1       1.914   1.107   0.653  0.00  0.00     0.002 A 
ATOM      4  C4  I4B d   1       2.694  -0.015   0.842  0.00  0.00    -0.004 A 
ATOM      5  C5  I4B d   1       2.132  -1.284   0.730  0.00  0.00     0.002 A 
ATOM      6  C6  I4B d   1       0.763  -1.424   0.461  0.00  0.00     0.003 A 
ENDROOT
BRANCH   1   7
ATOM      7  C1' I4B d   1      -1.507  -0.411   0.116  0.00  0.00     0.060 C 
BRANCH   7   8
ATOM      8  C2' I4B d   1      -1.825   0.142  -1.258  0.00  0.00    -0.013 C 
ATOM      9  C4' I4B d   1      -1.787  -0.942  -2.304  0.00  0.00     0.013 C 
ATOM     10  C3' I4B d   1      -3.176   0.788  -1.196  0.00  0.00     0.013 C 
ENDBRANCH   7   8
ENDBRANCH   1   7
TORSDOF 2
ENDMDL
