MODEL 1
REMARK minimizedAffinity -5.31901646
REMARK minimizedRMSD -1
REMARK  2 active torsions:
REMARK  status: ('A' for Active; 'I' for Inactive)
REMARK    1  A    between atoms: C2'_3  and  C1'_4 
REMARK    2  A    between atoms: C1'_4  and  C1_5 
ROOT
ATOM      1  C1  I4B d   1      -0.567   0.453   0.734  0.00  0.00    -0.075 A 
ATOM      2  C2  I4B d   1      -1.505  -0.508   1.017  0.00  0.00     0.003 A 
ATOM      3  C3  I4B d   1      -2.348  -0.371   2.146  0.00  0.00     0.002 A 
ATOM      4  C4  I4B d   1      -2.186   0.710   2.988  0.00  0.00    -0.004 A 
ATOM      5  C5  I4B d   1      -1.250   1.696   2.687  0.00  0.00     0.002 A 
ATOM      6  C6  I4B d   1      -0.444   1.573   1.546  0.00  0.00     0.003 A 
ENDROOT
BRANCH   1   7
ATOM      7  C1' I4B d   1       0.330   0.260  -0.448  0.00  0.00     0.060 C 
BRANCH   7   8
ATOM      8  C2' I4B d   1       1.268  -0.888  -0.139  0.00  0.00    -0.013 C 
ATOM      9  C4' I4B d   1       1.124  -1.997  -1.149  0.00  0.00     0.013 C 
ATOM     10  C3' I4B d   1       2.668  -0.350  -0.121  0.00  0.00     0.013 C 
ENDBRANCH   7   8
ENDBRANCH   1   7
TORSDOF 2
ENDMDL
