MODEL 1
REMARK minimizedAffinity -2.14936471
REMARK minimizedRMSD -1
REMARK  2 active torsions:
REMARK  status: ('A' for Active; 'I' for Inactive)
REMARK    1  A    between atoms: C2'_3  and  C1'_4 
REMARK    2  A    between atoms: C1'_4  and  C1_5 
ROOT
ATOM      1  C1  I4B d   1      -2.546  -0.823   1.304  0.00  0.00    -0.075 A 
ATOM      2  C2  I4B d   1      -3.431  -1.851   1.516  0.00  0.00     0.003 A 
ATOM      3  C3  I4B d   1      -3.749  -2.257   2.835  0.00  0.00     0.002 A 
ATOM      4  C4  I4B d   1      -3.124  -1.647   3.903  0.00  0.00    -0.004 A 
ATOM      5  C5  I4B d   1      -2.244  -0.590   3.687  0.00  0.00     0.002 A 
ATOM      6  C6  I4B d   1      -1.962  -0.167   2.380  0.00  0.00     0.003 A 
ENDROOT
BRANCH   1   7
ATOM      7  C1' I4B d   1      -2.208  -0.442  -0.102  0.00  0.00     0.060 C 
BRANCH   7   8
ATOM      8  C2' I4B d   1      -0.867   0.264  -0.085  0.00  0.00    -0.013 C 
ATOM      9  C4' I4B d   1       0.220  -0.620  -0.636  0.00  0.00     0.013 C 
ATOM     10  C3' I4B d   1      -0.998   1.525  -0.886  0.00  0.00     0.013 C 
ENDBRANCH   7   8
ENDBRANCH   1   7
TORSDOF 2
ENDMDL
