MODEL 1
REMARK minimizedAffinity 3.81622553
REMARK minimizedRMSD -1
REMARK  2 active torsions:
REMARK  status: ('A' for Active; 'I' for Inactive)
REMARK    1  A    between atoms: C2'_3  and  C1'_4 
REMARK    2  A    between atoms: C1'_4  and  C1_5 
ROOT
ATOM      1  C1  I4B d   1      -2.083  -0.884   1.008  0.00  0.00    -0.075 A 
ATOM      2  C2  I4B d   1      -2.053  -0.762  -0.358  0.00  0.00     0.003 A 
ATOM      3  C3  I4B d   1      -0.830  -0.505  -1.024  0.00  0.00     0.002 A 
ATOM      4  C4  I4B d   1       0.322  -0.329  -0.285  0.00  0.00    -0.004 A 
ATOM      5  C5  I4B d   1       0.294  -0.477   1.099  0.00  0.00     0.002 A 
ATOM      6  C6  I4B d   1      -0.914  -0.768   1.749  0.00  0.00     0.003 A 
ENDROOT
BRANCH   1   7
ATOM      7  C1' I4B d   1      -3.397  -1.123   1.682  0.00  0.00     0.060 C 
BRANCH   7   8
ATOM      8  C2' I4B d   1      -3.123  -1.765   3.026  0.00  0.00    -0.013 C 
ATOM      9  C4' I4B d   1      -2.913  -0.725   4.095  0.00  0.00     0.013 C 
ATOM     10  C3' I4B d   1      -4.283  -2.656   3.359  0.00  0.00     0.013 C 
ENDBRANCH   7   8
ENDBRANCH   1   7
TORSDOF 2
ENDMDL
