MODEL 1
REMARK minimizedAffinity -2.9867332
REMARK minimizedRMSD -1
REMARK  2 active torsions:
REMARK  status: ('A' for Active; 'I' for Inactive)
REMARK    1  A    between atoms: C2'_3  and  C1'_4 
REMARK    2  A    between atoms: C1'_4  and  C1_5 
ROOT
ATOM      1  C1  I4B d   1      -0.579   0.163  -0.369  0.00  0.00    -0.075 A 
ATOM      2  C2  I4B d   1       0.433   0.708  -1.119  0.00  0.00     0.003 A 
ATOM      3  C3  I4B d   1       1.505  -0.102  -1.566  0.00  0.00     0.002 A 
ATOM      4  C4  I4B d   1       1.551  -1.432  -1.198  0.00  0.00    -0.004 A 
ATOM      5  C5  I4B d   1       0.512  -1.987  -0.456  0.00  0.00     0.002 A 
ATOM      6  C6  I4B d   1      -0.566  -1.188  -0.049  0.00  0.00     0.003 A 
ENDROOT
BRANCH   1   7
ATOM      7  C1' I4B d   1      -1.678   1.055   0.114  0.00  0.00     0.060 C 
BRANCH   7   8
ATOM      8  C2' I4B d   1      -1.721   0.968   1.626  0.00  0.00    -0.013 C 
ATOM      9  C4' I4B d   1      -1.673   2.337   2.252  0.00  0.00     0.013 C 
ATOM     10  C3' I4B d   1      -2.972   0.239   2.013  0.00  0.00     0.013 C 
ENDBRANCH   7   8
ENDBRANCH   1   7
TORSDOF 2
ENDMDL
