MODEL 1
REMARK minimizedAffinity -1.28804028
REMARK minimizedRMSD -1
REMARK  2 active torsions:
REMARK  status: ('A' for Active; 'I' for Inactive)
REMARK    1  A    between atoms: C2'_3  and  C1'_4 
REMARK    2  A    between atoms: C1'_4  and  C1_5 
ROOT
ATOM      1  C1  I4B d   1      -1.425   0.943   0.862  0.00  0.00    -0.075 A 
ATOM      2  C2  I4B d   1      -2.008  -0.260   1.174  0.00  0.00     0.003 A 
ATOM      3  C3  I4B d   1      -2.621  -0.449   2.437  0.00  0.00     0.002 A 
ATOM      4  C4  I4B d   1      -2.583   0.568   3.369  0.00  0.00    -0.004 A 
ATOM      5  C5  I4B d   1      -2.012   1.794   3.043  0.00  0.00     0.002 A 
ATOM      6  C6  I4B d   1      -1.440   1.988   1.777  0.00  0.00     0.003 A 
ENDROOT
BRANCH   1   7
ATOM      7  C1' I4B d   1      -0.758   1.097  -0.468  0.00  0.00     0.060 C 
BRANCH   7   8
ATOM      8  C2' I4B d   1       0.718   0.808  -0.286  0.00  0.00    -0.013 C 
ATOM      9  C4' I4B d   1       1.053  -0.600  -0.701  0.00  0.00     0.013 C 
ATOM     10  C3' I4B d   1       1.489   1.809  -1.094  0.00  0.00     0.013 C 
ENDBRANCH   7   8
ENDBRANCH   1   7
TORSDOF 2
ENDMDL
