MODEL 1
REMARK minimizedAffinity -4.71574259
REMARK minimizedRMSD -1
REMARK  2 active torsions:
REMARK  status: ('A' for Active; 'I' for Inactive)
REMARK    1  A    between atoms: C2'_3  and  C1'_4 
REMARK    2  A    between atoms: C1'_4  and  C1_5 
ROOT
ATOM      1  C1  I4B d   1      -0.051  -0.528   0.106  0.00  0.00    -0.075 A 
ATOM      2  C2  I4B d   1       0.566   0.323  -0.777  0.00  0.00     0.003 A 
ATOM      3  C3  I4B d   1       1.683  -0.117  -1.529  0.00  0.00     0.002 A 
ATOM      4  C4  I4B d   1       2.177  -1.390  -1.330  0.00  0.00    -0.004 A 
ATOM      5  C5  I4B d   1       1.535  -2.259  -0.451  0.00  0.00     0.002 A 
ATOM      6  C6  I4B d   1       0.407  -1.829   0.262  0.00  0.00     0.003 A 
ENDROOT
BRANCH   1   7
ATOM      7  C1' I4B d   1      -1.208  -0.020   0.907  0.00  0.00     0.060 C 
BRANCH   7   8
ATOM      8  C2' I4B d   1      -0.776   0.050   2.357  0.00  0.00    -0.013 C 
ATOM      9  C4' I4B d   1      -1.236   1.331   3.003  0.00  0.00     0.013 C 
ATOM     10  C3' I4B d   1      -1.339  -1.146   3.066  0.00  0.00     0.013 C 
ENDBRANCH   7   8
ENDBRANCH   1   7
TORSDOF 2
ENDMDL
