MODEL 1
REMARK minimizedAffinity 7.30182028
REMARK minimizedRMSD -1
REMARK  2 active torsions:
REMARK  status: ('A' for Active; 'I' for Inactive)
REMARK    1  A    between atoms: C2'_3  and  C1'_4 
REMARK    2  A    between atoms: C1'_4  and  C1_5 
ROOT
ATOM      1  C1  I4B d   1      -2.917  -1.568   3.317  0.00  0.00    -0.075 A 
ATOM      2  C2  I4B d   1      -2.009  -0.918   4.114  0.00  0.00     0.003 A 
ATOM      3  C3  I4B d   1      -1.144   0.057   3.561  0.00  0.00     0.002 A 
ATOM      4  C4  I4B d   1      -1.187   0.314   2.206  0.00  0.00    -0.004 A 
ATOM      5  C5  I4B d   1      -2.125  -0.330   1.403  0.00  0.00     0.002 A 
ATOM      6  C6  I4B d   1      -3.004  -1.267   1.964  0.00  0.00     0.003 A 
ENDROOT
BRANCH   1   7
ATOM      7  C1' I4B d   1      -3.793  -2.616   3.928  0.00  0.00     0.060 C 
BRANCH   7   8
ATOM      8  C2' I4B d   1      -4.829  -3.017   2.898  0.00  0.00    -0.013 C 
ATOM      9  C4' I4B d   1      -5.249  -4.452   3.077  0.00  0.00     0.013 C 
ATOM     10  C3' I4B d   1      -6.000  -2.089   3.034  0.00  0.00     0.013 C 
ENDBRANCH   7   8
ENDBRANCH   1   7
TORSDOF 2
ENDMDL
