MODEL 1
REMARK minimizedAffinity -5.77890968
REMARK minimizedRMSD -1
REMARK  2 active torsions:
REMARK  status: ('A' for Active; 'I' for Inactive)
REMARK    1  A    between atoms: C2'_3  and  C1'_4 
REMARK    2  A    between atoms: C1'_4  and  C1_5 
ROOT
ATOM      1  C1  I4B d   1      -2.807   0.024   2.867  0.00  0.00    -0.075 A 
ATOM      2  C2  I4B d   1      -4.045   0.410   3.319  0.00  0.00     0.003 A 
ATOM      3  C3  I4B d   1      -4.865  -0.506   4.021  0.00  0.00     0.002 A 
ATOM      4  C4  I4B d   1      -4.433  -1.803   4.204  0.00  0.00    -0.004 A 
ATOM      5  C5  I4B d   1      -3.169  -2.187   3.765  0.00  0.00     0.002 A 
ATOM      6  C6  I4B d   1      -2.345  -1.264   3.104  0.00  0.00     0.003 A 
ENDROOT
BRANCH   1   7
ATOM      7  C1' I4B d   1      -1.981   1.008   2.101  0.00  0.00     0.060 C 
BRANCH   7   8
ATOM      8  C2' I4B d   1      -2.057   0.638   0.634  0.00  0.00    -0.013 C 
ATOM      9  C4' I4B d   1      -2.504   1.809  -0.201  0.00  0.00     0.013 C 
ATOM     10  C3' I4B d   1      -0.703   0.154   0.207  0.00  0.00     0.013 C 
ENDBRANCH   7   8
ENDBRANCH   1   7
TORSDOF 2
ENDMDL
