MODEL 1
REMARK minimizedAffinity 3.00178528
REMARK minimizedRMSD -1
REMARK  2 active torsions:
REMARK  status: ('A' for Active; 'I' for Inactive)
REMARK    1  A    between atoms: C2'_3  and  C1'_4 
REMARK    2  A    between atoms: C1'_4  and  C1_5 
ROOT
ATOM      1  C1  I4B d   1      -0.561  -0.654  -0.814  0.00  0.00    -0.075 A 
ATOM      2  C2  I4B d   1       0.324  -1.685  -0.622  0.00  0.00     0.003 A 
ATOM      3  C3  I4B d   1       1.492  -1.780  -1.417  0.00  0.00     0.002 A 
ATOM      4  C4  I4B d   1       1.707  -0.857  -2.421  0.00  0.00    -0.004 A 
ATOM      5  C5  I4B d   1       0.820   0.200  -2.599  0.00  0.00     0.002 A 
ATOM      6  C6  I4B d   1      -0.315   0.310  -1.783  0.00  0.00     0.003 A 
ENDROOT
BRANCH   1   7
ATOM      7  C1' I4B d   1      -1.801  -0.603   0.022  0.00  0.00     0.060 C 
BRANCH   7   8
ATOM      8  C2' I4B d   1      -1.390  -0.743   1.474  0.00  0.00    -0.013 C 
ATOM      9  C4' I4B d   1      -0.477   0.378   1.893  0.00  0.00     0.013 C 
ATOM     10  C3' I4B d   1      -2.637  -0.766   2.307  0.00  0.00     0.013 C 
ENDBRANCH   7   8
ENDBRANCH   1   7
TORSDOF 2
ENDMDL
