MODEL 1
REMARK minimizedAffinity -4.18551445
REMARK minimizedRMSD -1
REMARK  0 active torsions:
REMARK  status: ('A' for Active; 'I' for Inactive)
ROOT
ATOM      1  C   UNL d   1       2.769  -1.148  -0.003  0.00  0.00     0.077 C 
ATOM      2  C1  UNL d   1       1.449  -0.553  -0.391  0.00  0.00    -0.074 A 
ATOM      3  C2  UNL d   1       1.078  -0.439  -1.735  0.00  0.00    -0.005 A 
ATOM      4  C3  UNL d   1      -0.158   0.108  -2.080  0.00  0.00     0.006 A 
ATOM      5  C4  UNL d   1      -1.034   0.546  -1.086  0.00  0.00    -0.005 A 
ATOM      6  C5  UNL d   1      -0.681   0.440   0.263  0.00  0.00    -0.074 A 
ATOM      7  C6  UNL d   1      -1.616   0.897   1.343  0.00  0.00     0.077 C 
ATOM      8  C7  UNL d   1       0.559  -0.118   0.602  0.00  0.00    -0.001 A 
ENDROOT
TORSDOF 0
ENDMDL
