MODEL 1
REMARK minimizedAffinity -3.04906249
REMARK minimizedRMSD -1
REMARK  0 active torsions:
REMARK  status: ('A' for Active; 'I' for Inactive)
ROOT
ATOM      1  C   UNL d   1      -1.446   1.000  -0.933  0.00  0.00     0.077 C 
ATOM      2  C1  UNL d   1      -0.398   0.140  -0.291  0.00  0.00    -0.074 A 
ATOM      3  C2  UNL d   1      -0.660  -0.544   0.900  0.00  0.00    -0.005 A 
ATOM      4  C3  UNL d   1       0.321  -1.348   1.480  0.00  0.00     0.006 A 
ATOM      5  C4  UNL d   1       1.572  -1.476   0.876  0.00  0.00    -0.005 A 
ATOM      6  C5  UNL d   1       1.852  -0.801  -0.316  0.00  0.00    -0.074 A 
ATOM      7  C6  UNL d   1       3.189  -0.935  -0.984  0.00  0.00     0.077 C 
ATOM      8  C7  UNL d   1       0.859  -0.000  -0.897  0.00  0.00    -0.001 A 
ENDROOT
TORSDOF 0
ENDMDL
