MODEL 1
REMARK minimizedAffinity -4.1141448
REMARK minimizedRMSD -1
REMARK  0 active torsions:
REMARK  status: ('A' for Active; 'I' for Inactive)
ROOT
ATOM      1  C   UNL d   1       2.792  -1.078  -0.561  0.00  0.00     0.077 C 
ATOM      2  C1  UNL d   1       1.601  -0.718   0.276  0.00  0.00    -0.074 A 
ATOM      3  C2  UNL d   1       0.680   0.241  -0.159  0.00  0.00    -0.005 A 
ATOM      4  C3  UNL d   1      -0.428   0.558   0.626  0.00  0.00     0.006 A 
ATOM      5  C4  UNL d   1      -0.627  -0.078   1.852  0.00  0.00    -0.005 A 
ATOM      6  C5  UNL d   1       0.283  -1.040   2.303  0.00  0.00    -0.074 A 
ATOM      7  C6  UNL d   1       0.080  -1.741   3.614  0.00  0.00     0.077 C 
ATOM      8  C7  UNL d   1       1.391  -1.358   1.505  0.00  0.00    -0.001 A 
ENDROOT
TORSDOF 0
ENDMDL
