MODEL 1
REMARK minimizedAffinity -1.02521181
REMARK minimizedRMSD -1
REMARK  0 active torsions:
REMARK  status: ('A' for Active; 'I' for Inactive)
ROOT
ATOM      1  C   UNL d   1      -1.452  -0.153   1.578  0.00  0.00     0.077 C 
ATOM      2  C1  UNL d   1      -0.981  -0.121   0.154  0.00  0.00    -0.074 A 
ATOM      3  C2  UNL d   1       0.194  -0.774  -0.230  0.00  0.00    -0.005 A 
ATOM      4  C3  UNL d   1       0.614  -0.743  -1.560  0.00  0.00     0.006 A 
ATOM      5  C4  UNL d   1      -0.135  -0.059  -2.517  0.00  0.00    -0.005 A 
ATOM      6  C5  UNL d   1      -1.314   0.600  -2.152  0.00  0.00    -0.074 A 
ATOM      7  C6  UNL d   1      -2.136   1.331  -3.171  0.00  0.00     0.077 C 
ATOM      8  C7  UNL d   1      -1.733   0.558  -0.816  0.00  0.00    -0.001 A 
ENDROOT
TORSDOF 0
ENDMDL
