MODEL 1
REMARK minimizedAffinity -1.01471901
REMARK minimizedRMSD -1
REMARK  0 active torsions:
REMARK  status: ('A' for Active; 'I' for Inactive)
ROOT
ATOM      1  C   UNL d   1       1.981  -1.045  -0.045  0.00  0.00     0.077 C 
ATOM      2  C1  UNL d   1       0.737  -0.239  -0.276  0.00  0.00    -0.074 A 
ATOM      3  C2  UNL d   1       0.116   0.443   0.775  0.00  0.00    -0.005 A 
ATOM      4  C3  UNL d   1      -1.034   1.196   0.542  0.00  0.00     0.006 A 
ATOM      5  C4  UNL d   1      -1.575   1.275  -0.742  0.00  0.00    -0.005 A 
ATOM      6  C5  UNL d   1      -0.967   0.601  -1.805  0.00  0.00    -0.074 A 
ATOM      7  C6  UNL d   1      -1.529   0.683  -3.193  0.00  0.00     0.077 C 
ATOM      8  C7  UNL d   1       0.193  -0.149  -1.565  0.00  0.00    -0.001 A 
ENDROOT
TORSDOF 0
ENDMDL
