MODEL 1
REMARK minimizedAffinity -4.89045763
REMARK minimizedRMSD -1
REMARK  0 active torsions:
REMARK  status: ('A' for Active; 'I' for Inactive)
ROOT
ATOM      1  C   UNL d   1      -1.724   0.490  -3.574  0.00  0.00     0.077 C 
ATOM      2  C1  UNL d   1      -1.137   0.505  -2.194  0.00  0.00    -0.074 A 
ATOM      3  C2  UNL d   1      -1.732   1.244  -1.167  0.00  0.00    -0.005 A 
ATOM      4  C3  UNL d   1      -1.180   1.240   0.114  0.00  0.00     0.006 A 
ATOM      5  C4  UNL d   1      -0.028   0.498   0.380  0.00  0.00    -0.005 A 
ATOM      6  C5  UNL d   1       0.581  -0.248  -0.634  0.00  0.00    -0.074 A 
ATOM      7  C6  UNL d   1       1.813  -1.058  -0.363  0.00  0.00     0.077 C 
ATOM      8  C7  UNL d   1       0.016  -0.244  -1.917  0.00  0.00    -0.001 A 
ENDROOT
TORSDOF 0
ENDMDL
