MODEL 1
REMARK minimizedAffinity -2.78216314
REMARK minimizedRMSD -1
REMARK  0 active torsions:
REMARK  status: ('A' for Active; 'I' for Inactive)
ROOT
ATOM      1  C   UNL d   1      -1.612   1.458  -1.494  0.00  0.00     0.077 C 
ATOM      2  C1  UNL d   1      -0.837   0.617  -0.525  0.00  0.00    -0.074 A 
ATOM      3  C2  UNL d   1      -1.339   0.345   0.752  0.00  0.00    -0.005 A 
ATOM      4  C3  UNL d   1      -0.610  -0.447   1.640  0.00  0.00     0.006 A 
ATOM      5  C4  UNL d   1       0.625  -0.974   1.261  0.00  0.00    -0.005 A 
ATOM      6  C5  UNL d   1       1.142  -0.713  -0.012  0.00  0.00    -0.074 A 
ATOM      7  C6  UNL d   1       2.464  -1.279  -0.439  0.00  0.00     0.077 C 
ATOM      8  C7  UNL d   1       0.401   0.078  -0.901  0.00  0.00    -0.001 A 
ENDROOT
TORSDOF 0
ENDMDL
