MODEL 1
REMARK minimizedAffinity 3.69190311
REMARK minimizedRMSD -1
REMARK  0 active torsions:
REMARK  status: ('A' for Active; 'I' for Inactive)
ROOT
ATOM      1  C   UNL d   1      -1.302   2.756  -3.690  0.00  0.00     0.077 C 
ATOM      2  C1  UNL d   1      -2.244   1.874  -2.925  0.00  0.00    -0.074 A 
ATOM      3  C2  UNL d   1      -3.561   2.273  -2.678  0.00  0.00    -0.005 A 
ATOM      4  C3  UNL d   1      -4.429   1.438  -1.974  0.00  0.00     0.006 A 
ATOM      5  C4  UNL d   1      -3.988   0.198  -1.509  0.00  0.00    -0.005 A 
ATOM      6  C5  UNL d   1      -2.674  -0.218  -1.747  0.00  0.00    -0.074 A 
ATOM      7  C6  UNL d   1      -2.187  -1.551  -1.264  0.00  0.00     0.077 C 
ATOM      8  C7  UNL d   1      -1.811   0.624  -2.462  0.00  0.00    -0.001 A 
ENDROOT
TORSDOF 0
ENDMDL
