MODEL 1
REMARK minimizedAffinity 7.41680098
REMARK minimizedRMSD -1
REMARK  0 active torsions:
REMARK  status: ('A' for Active; 'I' for Inactive)
ROOT
ATOM      1  C   UNL d   1      -1.358   3.632  -3.364  0.00  0.00     0.077 C 
ATOM      2  C1  UNL d   1      -2.625   3.440  -2.584  0.00  0.00    -0.074 A 
ATOM      3  C2  UNL d   1      -3.281   4.528  -1.999  0.00  0.00    -0.005 A 
ATOM      4  C3  UNL d   1      -4.464   4.336  -1.285  0.00  0.00     0.006 A 
ATOM      5  C4  UNL d   1      -5.001   3.055  -1.148  0.00  0.00    -0.005 A 
ATOM      6  C5  UNL d   1      -4.359   1.955  -1.726  0.00  0.00    -0.074 A 
ATOM      7  C6  UNL d   1      -4.928   0.573  -1.596  0.00  0.00     0.077 C 
ATOM      8  C7  UNL d   1      -3.175   2.158  -2.448  0.00  0.00    -0.001 A 
ENDROOT
TORSDOF 0
ENDMDL
