MODEL 1
REMARK minimizedAffinity -2.02037573
REMARK minimizedRMSD -1
REMARK  0 active torsions:
REMARK  status: ('A' for Active; 'I' for Inactive)
ROOT
ATOM      1  C   UNL d   1      -1.607   0.689  -3.545  0.00  0.00     0.077 C 
ATOM      2  C1  UNL d   1      -1.108   0.629  -2.131  0.00  0.00    -0.074 A 
ATOM      3  C2  UNL d   1      -1.575   1.528  -1.167  0.00  0.00    -0.005 A 
ATOM      4  C3  UNL d   1      -1.109   1.455   0.146  0.00  0.00     0.006 A 
ATOM      5  C4  UNL d   1      -0.174   0.484   0.507  0.00  0.00    -0.005 A 
ATOM      6  C5  UNL d   1       0.303  -0.424  -0.444  0.00  0.00    -0.074 A 
ATOM      7  C6  UNL d   1       1.301  -1.480  -0.071  0.00  0.00     0.077 C 
ATOM      8  C7  UNL d   1      -0.175  -0.348  -1.760  0.00  0.00    -0.001 A 
ENDROOT
TORSDOF 0
ENDMDL
