MODEL 1
REMARK minimizedAffinity 5.62316656
REMARK minimizedRMSD -1
REMARK  0 active torsions:
REMARK  status: ('A' for Active; 'I' for Inactive)
ROOT
ATOM      1  C   UNL d   1       3.402   1.456  -0.351  0.00  0.00     0.077 C 
ATOM      2  C1  UNL d   1       2.096   0.724  -0.439  0.00  0.00    -0.074 A 
ATOM      3  C2  UNL d   1       1.704   0.095  -1.625  0.00  0.00    -0.005 A 
ATOM      4  C3  UNL d   1       0.490  -0.590  -1.690  0.00  0.00     0.006 A 
ATOM      5  C4  UNL d   1      -0.341  -0.653  -0.571  0.00  0.00    -0.005 A 
ATOM      6  C5  UNL d   1       0.034  -0.031   0.623  0.00  0.00    -0.074 A 
ATOM      7  C6  UNL d   1      -0.843  -0.098   1.838  0.00  0.00     0.077 C 
ATOM      8  C7  UNL d   1       1.258   0.650   0.682  0.00  0.00    -0.001 A 
ENDROOT
TORSDOF 0
ENDMDL
