MODEL 1
REMARK minimizedAffinity -2.93495369
REMARK minimizedRMSD -1
REMARK  0 active torsions:
REMARK  status: ('A' for Active; 'I' for Inactive)
ROOT
ATOM      1  C   UNL d   1      -2.255  -5.972  -2.291  0.00  0.00     0.077 C 
ATOM      2  C1  UNL d   1      -3.351  -5.965  -1.267  0.00  0.00    -0.074 A 
ATOM      3  C2  UNL d   1      -4.695  -5.996  -1.652  0.00  0.00    -0.005 A 
ATOM      4  C3  UNL d   1      -5.703  -6.000  -0.688  0.00  0.00     0.006 A 
ATOM      5  C4  UNL d   1      -5.378  -5.972   0.669  0.00  0.00    -0.005 A 
ATOM      6  C5  UNL d   1      -4.040  -5.941   1.073  0.00  0.00    -0.074 A 
ATOM      7  C6  UNL d   1      -3.673  -5.921   2.527  0.00  0.00     0.077 C 
ATOM      8  C7  UNL d   1      -3.032  -5.945   0.098  0.00  0.00    -0.001 A 
ENDROOT
TORSDOF 0
ENDMDL
