MODEL 1
REMARK minimizedAffinity -1.15442598
REMARK minimizedRMSD -1
REMARK  0 active torsions:
REMARK  status: ('A' for Active; 'I' for Inactive)
ROOT
ATOM      1  C   UNL d   1      -1.871   2.409  -1.909  0.00  0.00     0.077 C 
ATOM      2  C1  UNL d   1      -0.862   1.301  -1.837  0.00  0.00    -0.074 A 
ATOM      3  C2  UNL d   1      -0.589   0.503  -2.952  0.00  0.00    -0.005 A 
ATOM      4  C3  UNL d   1       0.359  -0.517  -2.872  0.00  0.00     0.006 A 
ATOM      5  C4  UNL d   1       1.043  -0.749  -1.678  0.00  0.00    -0.005 A 
ATOM      6  C5  UNL d   1       0.784   0.040  -0.553  0.00  0.00    -0.074 A 
ATOM      7  C6  UNL d   1       1.517  -0.189   0.736  0.00  0.00     0.077 C 
ATOM      8  C7  UNL d   1      -0.165   1.067  -0.643  0.00  0.00    -0.001 A 
ENDROOT
TORSDOF 0
ENDMDL
