MODEL 1
REMARK minimizedAffinity -4.76198435
REMARK minimizedRMSD -1
REMARK  0 active torsions:
REMARK  status: ('A' for Active; 'I' for Inactive)
ROOT
ATOM      1  C   UNL d   1      -2.503   1.689  -2.461  0.00  0.00     0.077 C 
ATOM      2  C1  UNL d   1      -1.295   0.809  -2.330  0.00  0.00    -0.074 A 
ATOM      3  C2  UNL d   1      -0.792   0.111  -3.433  0.00  0.00    -0.005 A 
ATOM      4  C3  UNL d   1       0.338  -0.695  -3.298  0.00  0.00     0.006 A 
ATOM      5  C4  UNL d   1       0.976  -0.812  -2.062  0.00  0.00    -0.005 A 
ATOM      6  C5  UNL d   1       0.487  -0.121  -0.949  0.00  0.00    -0.074 A 
ATOM      7  C6  UNL d   1       1.166  -0.227   0.384  0.00  0.00     0.077 C 
ATOM      8  C7  UNL d   1      -0.645   0.693  -1.094  0.00  0.00    -0.001 A 
ENDROOT
TORSDOF 0
ENDMDL
