MODEL 1
REMARK minimizedAffinity -3.74013352
REMARK minimizedRMSD -1
REMARK  0 active torsions:
REMARK  status: ('A' for Active; 'I' for Inactive)
ROOT
ATOM      1  C   UNL d   1       1.019  -2.448   2.131  0.00  0.00     0.077 C 
ATOM      2  C1  UNL d   1       1.184  -1.351   1.121  0.00  0.00    -0.074 A 
ATOM      3  C2  UNL d   1       2.426  -1.100   0.528  0.00  0.00    -0.005 A 
ATOM      4  C3  UNL d   1       2.562  -0.083  -0.416  0.00  0.00     0.006 A 
ATOM      5  C4  UNL d   1       1.459   0.692  -0.778  0.00  0.00    -0.005 A 
ATOM      6  C5  UNL d   1       0.210   0.455  -0.197  0.00  0.00    -0.074 A 
ATOM      7  C6  UNL d   1      -0.988   1.273  -0.581  0.00  0.00     0.077 C 
ATOM      8  C7  UNL d   1       0.079  -0.573   0.747  0.00  0.00    -0.001 A 
ENDROOT
TORSDOF 0
ENDMDL
