MODEL 1
REMARK minimizedAffinity -2.8527174
REMARK minimizedRMSD -1
REMARK  0 active torsions:
REMARK  status: ('A' for Active; 'I' for Inactive)
ROOT
ATOM      1  C   UNL d   1      -2.808   1.715  -2.802  0.00  0.00     0.077 C 
ATOM      2  C1  UNL d   1      -1.625   1.324  -1.966  0.00  0.00    -0.074 A 
ATOM      3  C2  UNL d   1      -1.317   2.013  -0.789  0.00  0.00    -0.005 A 
ATOM      4  C3  UNL d   1      -0.219   1.632  -0.018  0.00  0.00     0.006 A 
ATOM      5  C4  UNL d   1       0.580   0.559  -0.415  0.00  0.00    -0.005 A 
ATOM      6  C5  UNL d   1       0.286  -0.143  -1.588  0.00  0.00    -0.074 A 
ATOM      7  C6  UNL d   1       1.129  -1.305  -2.024  0.00  0.00     0.077 C 
ATOM      8  C7  UNL d   1      -0.822   0.242  -2.355  0.00  0.00    -0.001 A 
ENDROOT
TORSDOF 0
ENDMDL
