MODEL 1
REMARK minimizedAffinity -0.282380909
REMARK minimizedRMSD -1
REMARK  0 active torsions:
REMARK  status: ('A' for Active; 'I' for Inactive)
ROOT
ATOM      1  C   UNL d   1       1.358  -1.149  -0.747  0.00  0.00     0.077 C 
ATOM      2  C1  UNL d   1       0.369  -0.031  -0.886  0.00  0.00    -0.074 A 
ATOM      3  C2  UNL d   1       0.251   0.952   0.102  0.00  0.00    -0.005 A 
ATOM      4  C3  UNL d   1      -0.667   1.991  -0.045  0.00  0.00     0.006 A 
ATOM      5  C4  UNL d   1      -1.476   2.059  -1.181  0.00  0.00    -0.005 A 
ATOM      6  C5  UNL d   1      -1.372   1.085  -2.179  0.00  0.00    -0.074 A 
ATOM      7  C6  UNL d   1      -2.226   1.148  -3.410  0.00  0.00     0.077 C 
ATOM      8  C7  UNL d   1      -0.442   0.048  -2.027  0.00  0.00    -0.001 A 
ENDROOT
TORSDOF 0
ENDMDL
