MODEL 1
REMARK minimizedAffinity -2.57100248
REMARK minimizedRMSD -1
REMARK  0 active torsions:
REMARK  status: ('A' for Active; 'I' for Inactive)
ROOT
ATOM      1  C   UNL d   1      -1.102   1.318   0.230  0.00  0.00     0.077 C 
ATOM      2  C1  UNL d   1       0.034   0.358   0.032  0.00  0.00    -0.074 A 
ATOM      3  C2  UNL d   1       0.489   0.038  -1.252  0.00  0.00    -0.005 A 
ATOM      4  C3  UNL d   1       1.552  -0.849  -1.420  0.00  0.00     0.006 A 
ATOM      5  C4  UNL d   1       2.171  -1.423  -0.309  0.00  0.00    -0.005 A 
ATOM      6  C5  UNL d   1       1.731  -1.114   0.982  0.00  0.00    -0.074 A 
ATOM      7  C6  UNL d   1       2.391  -1.714   2.187  0.00  0.00     0.077 C 
ATOM      8  C7  UNL d   1       0.666  -0.216   1.143  0.00  0.00    -0.001 A 
ENDROOT
TORSDOF 0
ENDMDL
