MODEL 1
REMARK minimizedAffinity 7.13270283
REMARK minimizedRMSD -1
REMARK  0 active torsions:
REMARK  status: ('A' for Active; 'I' for Inactive)
ROOT
ATOM      1  C   UNL d   1      -2.203  -2.834  -0.906  0.00  0.00     0.077 C 
ATOM      2  C1  UNL d   1      -2.099  -1.472  -0.286  0.00  0.00    -0.074 A 
ATOM      3  C2  UNL d   1      -1.590  -1.308   1.006  0.00  0.00    -0.005 A 
ATOM      4  C3  UNL d   1      -1.490  -0.034   1.565  0.00  0.00     0.006 A 
ATOM      5  C4  UNL d   1      -1.898   1.086   0.840  0.00  0.00    -0.005 A 
ATOM      6  C5  UNL d   1      -2.408   0.941  -0.454  0.00  0.00    -0.074 A 
ATOM      7  C6  UNL d   1      -2.842   2.135  -1.251  0.00  0.00     0.077 C 
ATOM      8  C7  UNL d   1      -2.499  -0.341  -1.012  0.00  0.00    -0.001 A 
ENDROOT
TORSDOF 0
ENDMDL
