MODEL 1
REMARK minimizedAffinity 16.7386799
REMARK minimizedRMSD -1
REMARK  0 active torsions:
REMARK  status: ('A' for Active; 'I' for Inactive)
ROOT
ATOM      1  C   UNL d   1       1.483  -3.025  -0.726  0.00  0.00     0.078 C 
ATOM      2  C1  UNL d   1       2.159  -2.283   0.389  0.00  0.00    -0.077 A 
ATOM      3  C2  UNL d   1       3.532  -2.426   0.621  0.00  0.00    -0.001 A 
ATOM      4  C3  UNL d   1       4.147  -1.737   1.668  0.00  0.00     0.003 A 
ATOM      5  C4  UNL d   1       3.395  -0.901   2.491  0.00  0.00    -0.005 A 
ATOM      6  C5  UNL d   1       2.027  -0.754   2.269  0.00  0.00     0.003 A 
ATOM      7  C6  UNL d   1       1.411  -1.443   1.223  0.00  0.00    -0.001 A 
ENDROOT
TORSDOF 0
ENDMDL
