MODEL 1
REMARK minimizedAffinity 7.63133669
REMARK minimizedRMSD -1
REMARK  0 active torsions:
REMARK  status: ('A' for Active; 'I' for Inactive)
ROOT
ATOM      1  C   UNL d   1       2.375  -1.498   0.392  0.00  0.00     0.078 C 
ATOM      2  C1  UNL d   1       3.641  -2.261   0.647  0.00  0.00    -0.077 A 
ATOM      3  C2  UNL d   1       4.819  -1.601   1.015  0.00  0.00    -0.001 A 
ATOM      4  C3  UNL d   1       5.992  -2.323   1.240  0.00  0.00     0.003 A 
ATOM      5  C4  UNL d   1       5.999  -3.709   1.097  0.00  0.00    -0.005 A 
ATOM      6  C5  UNL d   1       4.832  -4.374   0.729  0.00  0.00     0.003 A 
ATOM      7  C6  UNL d   1       3.658  -3.654   0.504  0.00  0.00    -0.001 A 
ENDROOT
TORSDOF 0
ENDMDL
