MODEL 1
REMARK minimizedAffinity 11.2402992
REMARK minimizedRMSD -1
REMARK  0 active torsions:
REMARK  status: ('A' for Active; 'I' for Inactive)
ROOT
ATOM      1  C   UNL d   1       1.453  -4.105  -1.525  0.00  0.00     0.078 C 
ATOM      2  C1  UNL d   1       2.193  -3.264  -0.528  0.00  0.00    -0.077 A 
ATOM      3  C2  UNL d   1       1.709  -2.007  -0.145  0.00  0.00    -0.001 A 
ATOM      4  C3  UNL d   1       2.414  -1.231   0.777  0.00  0.00     0.003 A 
ATOM      5  C4  UNL d   1       3.606  -1.702   1.322  0.00  0.00    -0.005 A 
ATOM      6  C5  UNL d   1       4.096  -2.951   0.946  0.00  0.00     0.003 A 
ATOM      7  C6  UNL d   1       3.393  -3.728   0.024  0.00  0.00    -0.001 A 
ENDROOT
TORSDOF 0
ENDMDL
