MODEL 1
REMARK minimizedAffinity 9.51451302
REMARK minimizedRMSD -1
REMARK  0 active torsions:
REMARK  status: ('A' for Active; 'I' for Inactive)
ROOT
ATOM      1  C   UNL d   1      -0.615   6.000  -6.000  0.00  0.00     0.078 C 
ATOM      2  C1  UNL d   1      -1.631   5.402  -5.073  0.00  0.00    -0.077 A 
ATOM      3  C2  UNL d   1      -1.313   4.302  -4.267  0.00  0.00    -0.001 A 
ATOM      4  C3  UNL d   1      -2.272   3.750  -3.416  0.00  0.00     0.003 A 
ATOM      5  C4  UNL d   1      -3.555   4.291  -3.363  0.00  0.00    -0.005 A 
ATOM      6  C5  UNL d   1      -3.881   5.385  -4.162  0.00  0.00     0.003 A 
ATOM      7  C6  UNL d   1      -2.924   5.938  -5.014  0.00  0.00    -0.001 A 
ENDROOT
TORSDOF 0
ENDMDL
