MODEL 1
REMARK minimizedAffinity 14.41465
REMARK minimizedRMSD -1
REMARK  0 active torsions:
REMARK  status: ('A' for Active; 'I' for Inactive)
ROOT
ATOM      1  C   UNL d   1       5.364  -5.468  -1.428  0.00  0.00     0.078 C 
ATOM      2  C1  UNL d   1       4.379  -4.811  -2.348  0.00  0.00    -0.077 A 
ATOM      3  C2  UNL d   1       4.796  -4.216  -3.545  0.00  0.00    -0.001 A 
ATOM      4  C3  UNL d   1       3.870  -3.599  -4.387  0.00  0.00     0.003 A 
ATOM      5  C4  UNL d   1       2.520  -3.571  -4.042  0.00  0.00    -0.005 A 
ATOM      6  C5  UNL d   1       2.095  -4.159  -2.852  0.00  0.00     0.003 A 
ATOM      7  C6  UNL d   1       3.020  -4.776  -2.008  0.00  0.00    -0.001 A 
ENDROOT
TORSDOF 0
ENDMDL
