MODEL 1
REMARK minimizedAffinity 10.6909065
REMARK minimizedRMSD -1
REMARK  0 active torsions:
REMARK  status: ('A' for Active; 'I' for Inactive)
ROOT
ATOM      1  C   UNL d   1      -4.191   5.439  -2.219  0.00  0.00     0.078 C 
ATOM      2  C1  UNL d   1      -4.438   5.630  -0.753  0.00  0.00    -0.077 A 
ATOM      3  C2  UNL d   1      -3.373   5.752   0.148  0.00  0.00    -0.001 A 
ATOM      4  C3  UNL d   1      -3.618   5.920   1.512  0.00  0.00     0.003 A 
ATOM      5  C4  UNL d   1      -4.927   5.967   1.987  0.00  0.00    -0.005 A 
ATOM      6  C5  UNL d   1      -5.993   5.845   1.099  0.00  0.00     0.003 A 
ATOM      7  C6  UNL d   1      -5.750   5.677  -0.266  0.00  0.00    -0.001 A 
ENDROOT
TORSDOF 0
ENDMDL
