MODEL 1
REMARK minimizedAffinity 0.161841631
REMARK minimizedRMSD -1
REMARK  0 active torsions:
REMARK  status: ('A' for Active; 'I' for Inactive)
ROOT
ATOM      1  C   UNL d   1      -5.020   1.982  -4.667  0.00  0.00     0.078 C 
ATOM      2  C1  UNL d   1      -4.020   3.097  -4.601  0.00  0.00    -0.077 A 
ATOM      3  C2  UNL d   1      -2.703   2.862  -4.189  0.00  0.00    -0.001 A 
ATOM      4  C3  UNL d   1      -1.785   3.912  -4.122  0.00  0.00     0.003 A 
ATOM      5  C4  UNL d   1      -2.176   5.204  -4.466  0.00  0.00    -0.005 A 
ATOM      6  C5  UNL d   1      -3.485   5.449  -4.875  0.00  0.00     0.003 A 
ATOM      7  C6  UNL d   1      -4.404   4.400  -4.942  0.00  0.00    -0.001 A 
ENDROOT
TORSDOF 0
ENDMDL
