MODEL 1
REMARK minimizedAffinity 16.0982647
REMARK minimizedRMSD -1
REMARK  0 active torsions:
REMARK  status: ('A' for Active; 'I' for Inactive)
ROOT
ATOM      1  C   UNL d   1       1.734   4.439   0.696  0.00  0.00     0.078 C 
ATOM      2  C1  UNL d   1       1.213   3.255   1.455  0.00  0.00    -0.077 A 
ATOM      3  C2  UNL d   1       0.291   2.375   0.876  0.00  0.00    -0.001 A 
ATOM      4  C3  UNL d   1      -0.192   1.283   1.598  0.00  0.00     0.003 A 
ATOM      5  C4  UNL d   1       0.239   1.062   2.905  0.00  0.00    -0.005 A 
ATOM      6  C5  UNL d   1       1.154   1.934   3.491  0.00  0.00     0.003 A 
ATOM      7  C6  UNL d   1       1.639   3.026   2.770  0.00  0.00    -0.001 A 
ENDROOT
TORSDOF 0
ENDMDL
