MODEL 1
REMARK minimizedAffinity 4.48192167
REMARK minimizedRMSD -1
REMARK  0 active torsions:
REMARK  status: ('A' for Active; 'I' for Inactive)
ROOT
ATOM      1  C   UNL d   1       5.301  -5.985   0.757  0.00  0.00     0.078 C 
ATOM      2  C1  UNL d   1       4.980  -4.520   0.746  0.00  0.00    -0.077 A 
ATOM      3  C2  UNL d   1       5.999  -3.558   0.751  0.00  0.00    -0.001 A 
ATOM      4  C3  UNL d   1       5.685  -2.198   0.751  0.00  0.00     0.003 A 
ATOM      5  C4  UNL d   1       4.354  -1.787   0.747  0.00  0.00    -0.005 A 
ATOM      6  C5  UNL d   1       3.334  -2.736   0.744  0.00  0.00     0.003 A 
ATOM      7  C6  UNL d   1       3.645  -4.097   0.745  0.00  0.00    -0.001 A 
ENDROOT
TORSDOF 0
ENDMDL
