MODEL 1
REMARK minimizedAffinity 9.76115608
REMARK minimizedRMSD -1
REMARK  0 active torsions:
REMARK  status: ('A' for Active; 'I' for Inactive)
ROOT
ATOM      1  C   UNL d   1       5.910  -4.169   1.248  0.00  0.00     0.078 C 
ATOM      2  C1  UNL d   1       4.694  -3.328   1.002  0.00  0.00    -0.077 A 
ATOM      3  C2  UNL d   1       3.473  -3.912   0.645  0.00  0.00    -0.001 A 
ATOM      4  C3  UNL d   1       2.351  -3.116   0.409  0.00  0.00     0.003 A 
ATOM      5  C4  UNL d   1       2.439  -1.730   0.528  0.00  0.00    -0.005 A 
ATOM      6  C5  UNL d   1       3.650  -1.139   0.882  0.00  0.00     0.003 A 
ATOM      7  C6  UNL d   1       4.773  -1.934   1.117  0.00  0.00    -0.001 A 
ENDROOT
TORSDOF 0
ENDMDL
