MODEL 1
REMARK minimizedAffinity 8.38306522
REMARK minimizedRMSD -1
REMARK  0 active torsions:
REMARK  status: ('A' for Active; 'I' for Inactive)
ROOT
ATOM      1  C   UNL d   1      -3.705  -2.712   5.953  0.00  0.00     0.078 C 
ATOM      2  C1  UNL d   1      -4.496  -3.764   5.234  0.00  0.00    -0.077 A 
ATOM      3  C2  UNL d   1      -4.506  -3.828   3.835  0.00  0.00    -0.001 A 
ATOM      4  C3  UNL d   1      -5.255  -4.806   3.179  0.00  0.00     0.003 A 
ATOM      5  C4  UNL d   1      -6.000  -5.727   3.913  0.00  0.00    -0.005 A 
ATOM      6  C5  UNL d   1      -5.998  -5.670   5.305  0.00  0.00     0.003 A 
ATOM      7  C6  UNL d   1      -5.250  -4.692   5.963  0.00  0.00    -0.001 A 
ENDROOT
TORSDOF 0
ENDMDL
