MODEL 1
REMARK minimizedAffinity 6.96235132
REMARK minimizedRMSD -1
REMARK  0 active torsions:
REMARK  status: ('A' for Active; 'I' for Inactive)
ROOT
ATOM      1  C   UNL d   1       3.245  -2.507   0.745  0.00  0.00     0.078 C 
ATOM      2  C1  UNL d   1       4.059  -3.727   0.434  0.00  0.00    -0.077 A 
ATOM      3  C2  UNL d   1       4.985  -4.230   1.355  0.00  0.00    -0.001 A 
ATOM      4  C3  UNL d   1       5.743  -5.362   1.048  0.00  0.00     0.003 A 
ATOM      5  C4  UNL d   1       5.583  -5.999  -0.181  0.00  0.00    -0.005 A 
ATOM      6  C5  UNL d   1       4.665  -5.504  -1.105  0.00  0.00     0.003 A 
ATOM      7  C6  UNL d   1       3.907  -4.373  -0.800  0.00  0.00    -0.001 A 
ENDROOT
TORSDOF 0
ENDMDL
