MODEL 1
REMARK minimizedAffinity 8.40726089
REMARK minimizedRMSD -1
REMARK  0 active torsions:
REMARK  status: ('A' for Active; 'I' for Inactive)
ROOT
ATOM      1  C   UNL d   1      -5.040   5.998   3.570  0.00  0.00     0.078 C 
ATOM      2  C1  UNL d   1      -4.873   5.948   2.080  0.00  0.00    -0.077 A 
ATOM      3  C2  UNL d   1      -3.602   5.865   1.499  0.00  0.00    -0.001 A 
ATOM      4  C3  UNL d   1      -3.461   5.829   0.111  0.00  0.00     0.003 A 
ATOM      5  C4  UNL d   1      -4.588   5.877  -0.708  0.00  0.00    -0.005 A 
ATOM      6  C5  UNL d   1      -5.857   5.962  -0.139  0.00  0.00     0.003 A 
ATOM      7  C6  UNL d   1      -6.000   5.998   1.249  0.00  0.00    -0.001 A 
ENDROOT
TORSDOF 0
ENDMDL
