MODEL 1
REMARK minimizedAffinity 0.410072565
REMARK minimizedRMSD -1
REMARK  0 active torsions:
REMARK  status: ('A' for Active; 'I' for Inactive)
ROOT
ATOM      1  C   UNL d   1      -0.013  -5.950   5.995  0.00  0.00     0.078 C 
ATOM      2  C1  UNL d   1      -0.906  -4.766   5.768  0.00  0.00    -0.077 A 
ATOM      3  C2  UNL d   1      -2.285  -4.848   6.000  0.00  0.00    -0.001 A 
ATOM      4  C3  UNL d   1      -3.105  -3.742   5.775  0.00  0.00     0.003 A 
ATOM      5  C4  UNL d   1      -2.557  -2.546   5.316  0.00  0.00    -0.005 A 
ATOM      6  C5  UNL d   1      -1.187  -2.455   5.080  0.00  0.00     0.003 A 
ATOM      7  C6  UNL d   1      -0.365  -3.561   5.304  0.00  0.00    -0.001 A 
ENDROOT
TORSDOF 0
ENDMDL
