MODEL 1
REMARK minimizedAffinity 2.79778862
REMARK minimizedRMSD -1
REMARK  0 active torsions:
REMARK  status: ('A' for Active; 'I' for Inactive)
ROOT
ATOM      1  C   UNL d   1      -0.987   1.954   1.416  0.00  0.00     0.078 C 
ATOM      2  C1  UNL d   1      -0.567   2.951   0.377  0.00  0.00    -0.077 A 
ATOM      3  C2  UNL d   1      -1.062   4.260   0.393  0.00  0.00    -0.001 A 
ATOM      4  C3  UNL d   1      -0.671   5.175  -0.587  0.00  0.00     0.003 A 
ATOM      5  C4  UNL d   1       0.217   4.789  -1.589  0.00  0.00    -0.005 A 
ATOM      6  C5  UNL d   1       0.713   3.487  -1.614  0.00  0.00     0.003 A 
ATOM      7  C6  UNL d   1       0.323   2.571  -0.636  0.00  0.00    -0.001 A 
ENDROOT
TORSDOF 0
ENDMDL
