MODEL 1
REMARK minimizedAffinity 13.0210838
REMARK minimizedRMSD -1
REMARK  0 active torsions:
REMARK  status: ('A' for Active; 'I' for Inactive)
ROOT
ATOM      1  C   UNL d   1       5.871  -4.923  -2.438  0.00  0.00     0.078 C 
ATOM      2  C1  UNL d   1       5.741  -4.852  -0.946  0.00  0.00    -0.077 A 
ATOM      3  C2  UNL d   1       5.997  -3.661  -0.256  0.00  0.00    -0.001 A 
ATOM      4  C3  UNL d   1       5.881  -3.611   1.134  0.00  0.00     0.003 A 
ATOM      5  C4  UNL d   1       5.511  -4.750   1.847  0.00  0.00    -0.005 A 
ATOM      6  C5  UNL d   1       5.256  -5.940   1.169  0.00  0.00     0.003 A 
ATOM      7  C6  UNL d   1       5.371  -5.992  -0.221  0.00  0.00    -0.001 A 
ENDROOT
TORSDOF 0
ENDMDL
