MODEL 1
REMARK minimizedAffinity 12.7118254
REMARK minimizedRMSD -1
REMARK  0 active torsions:
REMARK  status: ('A' for Active; 'I' for Inactive)
ROOT
ATOM      1  C   UNL d   1      -3.409   3.845   1.058  0.00  0.00     0.078 C 
ATOM      2  C1  UNL d   1      -2.123   3.082   0.956  0.00  0.00    -0.077 A 
ATOM      3  C2  UNL d   1      -1.601   2.398   2.060  0.00  0.00    -0.001 A 
ATOM      4  C3  UNL d   1      -0.397   1.699   1.954  0.00  0.00     0.003 A 
ATOM      5  C4  UNL d   1       0.295   1.679   0.744  0.00  0.00    -0.005 A 
ATOM      6  C5  UNL d   1      -0.216   2.358  -0.360  0.00  0.00     0.003 A 
ATOM      7  C6  UNL d   1      -1.419   3.057  -0.255  0.00  0.00    -0.001 A 
ENDROOT
TORSDOF 0
ENDMDL
