MODEL 1
REMARK minimizedAffinity 17.5539799
REMARK minimizedRMSD -1
REMARK  0 active torsions:
REMARK  status: ('A' for Active; 'I' for Inactive)
ROOT
ATOM      1  C   UNL d   1       5.754  -4.828  -2.135  0.00  0.00     0.078 C 
ATOM      2  C1  UNL d   1       5.767  -4.809  -0.636  0.00  0.00    -0.077 A 
ATOM      3  C2  UNL d   1       5.976  -3.617   0.069  0.00  0.00    -0.001 A 
ATOM      4  C3  UNL d   1       5.995  -3.616   1.464  0.00  0.00     0.003 A 
ATOM      5  C4  UNL d   1       5.807  -4.805   2.167  0.00  0.00    -0.005 A 
ATOM      6  C5  UNL d   1       5.601  -5.996   1.475  0.00  0.00     0.003 A 
ATOM      7  C6  UNL d   1       5.581  -5.999   0.079  0.00  0.00    -0.001 A 
ENDROOT
TORSDOF 0
ENDMDL
