MODEL 1
REMARK minimizedAffinity 8.11012173
REMARK minimizedRMSD -1
REMARK  0 active torsions:
REMARK  status: ('A' for Active; 'I' for Inactive)
ROOT
ATOM      1  C   UNL d   1      -0.288   1.356   1.034  0.00  0.00     0.078 C 
ATOM      2  C1  UNL d   1      -0.271   2.528   0.100  0.00  0.00    -0.077 A 
ATOM      3  C2  UNL d   1       0.161   3.788   0.531  0.00  0.00    -0.001 A 
ATOM      4  C3  UNL d   1       0.162   4.873  -0.347  0.00  0.00     0.003 A 
ATOM      5  C4  UNL d   1      -0.269   4.709  -1.662  0.00  0.00    -0.005 A 
ATOM      6  C5  UNL d   1      -0.703   3.459  -2.100  0.00  0.00     0.003 A 
ATOM      7  C6  UNL d   1      -0.705   2.374  -1.223  0.00  0.00    -0.001 A 
ENDROOT
TORSDOF 0
ENDMDL
