MODEL 1
REMARK minimizedAffinity -3.84233379
REMARK minimizedRMSD -1
REMARK  1 active torsions:
REMARK  status: ('A' for Active; 'I' for Inactive)
REMARK    1  A    between atoms: C1_2  and  C2_3 
ROOT
ATOM      1  C2  UNL d   1      -0.023   0.061   0.274  0.00  0.00    -0.076 A 
ATOM      2  C3  UNL d   1      -0.910   0.840  -0.489  0.00  0.00     0.004 A 
ATOM      3  C4  UNL d   1      -1.843   1.674   0.126  0.00  0.00    -0.003 A 
ATOM      4  C5  UNL d   1      -1.902   1.743   1.514  0.00  0.00     0.000 A 
ATOM      5  C6  UNL d   1      -1.018   0.991   2.286  0.00  0.00     0.000 A 
ATOM      6  C7  UNL d   1      -0.060   0.158   1.682  0.00  0.00    -0.073 A 
ATOM      7  C8  UNL d   1       0.865  -0.636   2.563  0.00  0.00     0.078 C 
ENDROOT
BRANCH   1   8
ATOM      8  C1  UNL d   1       0.949  -0.845  -0.447  0.00  0.00     0.053 C 
ATOM      9  C   UNL d   1       1.999  -0.070  -1.229  0.00  0.00     0.018 C 
ENDBRANCH   1   8
TORSDOF 1
ENDMDL
