MODEL 1
REMARK minimizedAffinity -3.49141812
REMARK minimizedRMSD -1
REMARK  1 active torsions:
REMARK  status: ('A' for Active; 'I' for Inactive)
REMARK    1  A    between atoms: C1_2  and  C2_3 
ROOT
ATOM      1  C2  UNL d   1      -0.990   0.956   0.375  0.00  0.00    -0.076 A 
ATOM      2  C3  UNL d   1      -0.761  -0.207   1.131  0.00  0.00     0.004 A 
ATOM      3  C4  UNL d   1       0.227  -1.118   0.763  0.00  0.00    -0.003 A 
ATOM      4  C5  UNL d   1       1.003  -0.881  -0.365  0.00  0.00     0.000 A 
ATOM      5  C6  UNL d   1       0.802   0.276  -1.117  0.00  0.00     0.000 A 
ATOM      6  C7  UNL d   1      -0.179   1.213  -0.751  0.00  0.00    -0.073 A 
ATOM      7  C8  UNL d   1      -0.357   2.442  -1.601  0.00  0.00     0.078 C 
ENDROOT
BRANCH   1   8
ATOM      8  C1  UNL d   1      -2.094   1.895   0.807  0.00  0.00     0.053 C 
ATOM      9  C   UNL d   1      -1.767   2.623   2.102  0.00  0.00     0.018 C 
ENDBRANCH   1   8
TORSDOF 1
ENDMDL
