MODEL 1
REMARK minimizedAffinity -5.27542734
REMARK minimizedRMSD -1
REMARK  1 active torsions:
REMARK  status: ('A' for Active; 'I' for Inactive)
REMARK    1  A    between atoms: C1_2  and  C2_3 
ROOT
ATOM      1  C2  UNL d   1      -0.148   0.412   0.102  0.00  0.00    -0.076 A 
ATOM      2  C3  UNL d   1      -0.689   1.442  -0.688  0.00  0.00     0.004 A 
ATOM      3  C4  UNL d   1      -1.628   2.329  -0.165  0.00  0.00    -0.003 A 
ATOM      4  C5  UNL d   1      -2.042   2.201   1.156  0.00  0.00     0.000 A 
ATOM      5  C6  UNL d   1      -1.503   1.197   1.960  0.00  0.00     0.000 A 
ATOM      6  C7  UNL d   1      -0.542   0.305   1.453  0.00  0.00    -0.073 A 
ATOM      7  C8  UNL d   1       0.001  -0.763   2.362  0.00  0.00     0.078 C 
ENDROOT
BRANCH   1   8
ATOM      8  C1  UNL d   1       0.847  -0.537  -0.526  0.00  0.00     0.053 C 
ATOM      9  C   UNL d   1       0.173  -1.682  -1.266  0.00  0.00     0.018 C 
ENDBRANCH   1   8
TORSDOF 1
ENDMDL
