MODEL 1
REMARK minimizedAffinity -2.20585823
REMARK minimizedRMSD -1
REMARK  1 active torsions:
REMARK  status: ('A' for Active; 'I' for Inactive)
REMARK    1  A    between atoms: C1_2  and  C2_3 
ROOT
ATOM      1  C2  UNL d   1      -0.292   0.815   0.965  0.00  0.00    -0.076 A 
ATOM      2  C3  UNL d   1      -0.347   1.224  -0.379  0.00  0.00     0.004 A 
ATOM      3  C4  UNL d   1       0.311   0.506  -1.375  0.00  0.00    -0.003 A 
ATOM      4  C5  UNL d   1       1.036  -0.634  -1.044  0.00  0.00     0.000 A 
ATOM      5  C6  UNL d   1       1.088  -1.065   0.281  0.00  0.00     0.000 A 
ATOM      6  C7  UNL d   1       0.416  -0.361   1.296  0.00  0.00    -0.073 A 
ATOM      7  C8  UNL d   1       0.510  -0.867   2.709  0.00  0.00     0.078 C 
ENDROOT
BRANCH   1   8
ATOM      8  C1  UNL d   1      -1.003   1.648   2.006  0.00  0.00     0.053 C 
ATOM      9  C   UNL d   1      -2.217   2.371   1.443  0.00  0.00     0.018 C 
ENDBRANCH   1   8
TORSDOF 1
ENDMDL
