MODEL 1
REMARK minimizedAffinity -3.2922051
REMARK minimizedRMSD -1
REMARK  1 active torsions:
REMARK  status: ('A' for Active; 'I' for Inactive)
REMARK    1  A    between atoms: C1_2  and  C2_3 
ROOT
ATOM      1  C2  UNL d   1       0.329  -0.079   0.407  0.00  0.00    -0.076 A 
ATOM      2  C3  UNL d   1      -0.134  -0.871   1.473  0.00  0.00     0.004 A 
ATOM      3  C4  UNL d   1      -1.050  -0.367   2.396  0.00  0.00    -0.003 A 
ATOM      4  C5  UNL d   1      -1.518   0.936   2.267  0.00  0.00     0.000 A 
ATOM      5  C6  UNL d   1      -1.083   1.729   1.206  0.00  0.00     0.000 A 
ATOM      6  C7  UNL d   1      -0.173   1.231   0.258  0.00  0.00    -0.073 A 
ATOM      7  C8  UNL d   1       0.267   2.133  -0.863  0.00  0.00     0.078 C 
ENDROOT
BRANCH   1   8
ATOM      8  C1  UNL d   1       1.342  -0.670  -0.547  0.00  0.00     0.053 C 
ATOM      9  C   UNL d   1       0.857  -1.962  -1.185  0.00  0.00     0.018 C 
ENDBRANCH   1   8
TORSDOF 1
ENDMDL
