MODEL 1
REMARK minimizedAffinity -3.99609542
REMARK minimizedRMSD -1
REMARK  1 active torsions:
REMARK  status: ('A' for Active; 'I' for Inactive)
REMARK    1  A    between atoms: C1_2  and  C2_3 
ROOT
ATOM      1  C2  UNL d   1      -0.332   0.782  -0.221  0.00  0.00    -0.076 A 
ATOM      2  C3  UNL d   1       0.096  -0.520   0.091  0.00  0.00     0.004 A 
ATOM      3  C4  UNL d   1       1.250  -1.053  -0.482  0.00  0.00    -0.003 A 
ATOM      4  C5  UNL d   1       1.995  -0.291  -1.376  0.00  0.00     0.000 A 
ATOM      5  C6  UNL d   1       1.594   1.009  -1.683  0.00  0.00     0.000 A 
ATOM      6  C7  UNL d   1       0.443   1.566  -1.102  0.00  0.00    -0.073 A 
ATOM      7  C8  UNL d   1       0.054   2.971  -1.474  0.00  0.00     0.078 C 
ENDROOT
BRANCH   1   8
ATOM      8  C1  UNL d   1      -1.606   1.296   0.410  0.00  0.00     0.053 C 
ATOM      9  C   UNL d   1      -1.385   1.832   1.816  0.00  0.00     0.018 C 
ENDBRANCH   1   8
TORSDOF 1
ENDMDL
