MODEL 1
REMARK minimizedAffinity -2.87369704
REMARK minimizedRMSD -1
REMARK  1 active torsions:
REMARK  status: ('A' for Active; 'I' for Inactive)
REMARK    1  A    between atoms: C1_2  and  C2_3 
ROOT
ATOM      1  C2  UNL d   1       0.175  -0.073   0.471  0.00  0.00    -0.076 A 
ATOM      2  C3  UNL d   1      -0.220  -0.674   1.678  0.00  0.00     0.004 A 
ATOM      3  C4  UNL d   1      -0.762   0.085   2.714  0.00  0.00    -0.003 A 
ATOM      4  C5  UNL d   1      -0.918   1.458   2.559  0.00  0.00     0.000 A 
ATOM      5  C6  UNL d   1      -0.548   2.068   1.361  0.00  0.00     0.000 A 
ATOM      6  C7  UNL d   1      -0.015   1.315   0.301  0.00  0.00    -0.073 A 
ATOM      7  C8  UNL d   1       0.373   2.026  -0.967  0.00  0.00     0.078 C 
ENDROOT
BRANCH   1   8
ATOM      8  C1  UNL d   1       0.782  -0.943  -0.607  0.00  0.00     0.053 C 
ATOM      9  C   UNL d   1      -0.191  -1.989  -1.128  0.00  0.00     0.018 C 
ENDBRANCH   1   8
TORSDOF 1
ENDMDL
