MODEL 1
REMARK minimizedAffinity -1.32178092
REMARK minimizedRMSD -1
REMARK  1 active torsions:
REMARK  status: ('A' for Active; 'I' for Inactive)
REMARK    1  A    between atoms: C1_2  and  C2_3 
ROOT
ATOM      1  C2  UNL d   1      -0.588   1.074   1.205  0.00  0.00    -0.076 A 
ATOM      2  C3  UNL d   1      -0.380   1.673  -0.050  0.00  0.00     0.004 A 
ATOM      3  C4  UNL d   1       0.291   0.994  -1.066  0.00  0.00    -0.003 A 
ATOM      4  C5  UNL d   1       0.766  -0.294  -0.844  0.00  0.00     0.000 A 
ATOM      5  C6  UNL d   1       0.553  -0.909   0.390  0.00  0.00     0.000 A 
ATOM      6  C7  UNL d   1      -0.136  -0.246   1.419  0.00  0.00    -0.073 A 
ATOM      7  C8  UNL d   1      -0.332  -0.955   2.731  0.00  0.00     0.078 C 
ENDROOT
BRANCH   1   8
ATOM      8  C1  UNL d   1      -1.299   1.869   2.277  0.00  0.00     0.053 C 
ATOM      9  C   UNL d   1      -2.577   2.519   1.770  0.00  0.00     0.018 C 
ENDBRANCH   1   8
TORSDOF 1
ENDMDL
