MODEL 1
REMARK minimizedAffinity -2.15248203
REMARK minimizedRMSD -1
REMARK  1 active torsions:
REMARK  status: ('A' for Active; 'I' for Inactive)
REMARK    1  A    between atoms: C1_2  and  C2_3 
ROOT
ATOM      1  C2  UNL d   1      -0.359   0.490   2.079  0.00  0.00    -0.076 A 
ATOM      2  C3  UNL d   1       0.591  -0.482   1.719  0.00  0.00     0.004 A 
ATOM      3  C4  UNL d   1       0.855  -0.766   0.380  0.00  0.00    -0.003 A 
ATOM      4  C5  UNL d   1       0.173  -0.083  -0.621  0.00  0.00     0.000 A 
ATOM      5  C6  UNL d   1      -0.760   0.896  -0.282  0.00  0.00     0.000 A 
ATOM      6  C7  UNL d   1      -1.026   1.207   1.063  0.00  0.00    -0.073 A 
ATOM      7  C8  UNL d   1      -2.046   2.268   1.371  0.00  0.00     0.078 C 
ENDROOT
BRANCH   1   8
ATOM      8  C1  UNL d   1      -0.622   0.736   3.547  0.00  0.00     0.053 C 
ATOM      9  C   UNL d   1       0.143   1.937   4.083  0.00  0.00     0.018 C 
ENDBRANCH   1   8
TORSDOF 1
ENDMDL
