MODEL 1
REMARK minimizedAffinity 10.974082
REMARK minimizedRMSD -1
REMARK  0 active torsions:
REMARK  status: ('A' for Active; 'I' for Inactive)
ROOT
ATOM      1  O1  BZF d   1       3.217   1.696   0.231  0.00  0.00    -0.204 OA
ATOM      2  C2  BZF d   1       3.400   0.452   0.804  0.00  0.00     0.174 A 
ATOM      3  C3  BZF d   1       2.488   0.233   1.773  0.00  0.00    -0.012 A 
ATOM      4  C3A BZF d   1       1.627   1.375   1.745  0.00  0.00    -0.107 A 
ATOM      5  C4  BZF d   1       0.521   1.735   2.460  0.00  0.00     0.055 A 
ATOM      6  C5  BZF d   1      -0.044   2.951   2.237  0.00  0.00    -0.016 A 
ATOM      7  C6  BZF d   1       0.473   3.832   1.310  0.00  0.00     0.022 A 
ATOM      8  C7  BZF d   1       1.566   3.518   0.573  0.00  0.00     0.029 A 
ATOM      9  C7A BZF d   1       2.120   2.277   0.773  0.00  0.00     0.058 A 
ENDROOT
TORSDOF 0
ENDMDL
