MODEL 1
REMARK minimizedAffinity 12.7177944
REMARK minimizedRMSD -1
REMARK  0 active torsions:
REMARK  status: ('A' for Active; 'I' for Inactive)
ROOT
ATOM      1  O1  BZF d   1      -2.722  -2.622  -3.754  0.00  0.00    -0.204 OA
ATOM      2  C2  BZF d   1      -3.021  -3.363  -2.627  0.00  0.00     0.174 A 
ATOM      3  C3  BZF d   1      -2.245  -4.463  -2.557  0.00  0.00    -0.012 A 
ATOM      4  C3A BZF d   1      -1.344  -4.359  -3.664  0.00  0.00    -0.107 A 
ATOM      5  C4  BZF d   1      -0.322  -5.142  -4.120  0.00  0.00     0.055 A 
ATOM      6  C5  BZF d   1       0.312  -4.797  -5.271  0.00  0.00    -0.016 A 
ATOM      7  C6  BZF d   1      -0.054  -3.680  -5.994  0.00  0.00     0.022 A 
ATOM      8  C7  BZF d   1      -1.058  -2.870  -5.580  0.00  0.00     0.029 A 
ATOM      9  C7A BZF d   1      -1.678  -3.198  -4.399  0.00  0.00     0.058 A 
ENDROOT
TORSDOF 0
ENDMDL
