MODEL 1
REMARK minimizedAffinity 13.1276274
REMARK minimizedRMSD -1
REMARK  0 active torsions:
REMARK  status: ('A' for Active; 'I' for Inactive)
ROOT
ATOM      1  O1  BZF d   1       3.900   0.092  -2.341  0.00  0.00    -0.204 OA
ATOM      2  C2  BZF d   1       3.907   1.169  -3.205  0.00  0.00     0.174 A 
ATOM      3  C3  BZF d   1       3.236   2.212  -2.675  0.00  0.00    -0.012 A 
ATOM      4  C3A BZF d   1       2.860   1.789  -1.361  0.00  0.00    -0.107 A 
ATOM      5  C4  BZF d   1       2.185   2.391  -0.337  0.00  0.00     0.055 A 
ATOM      6  C5  BZF d   1       1.920   1.678   0.789  0.00  0.00    -0.016 A 
ATOM      7  C6  BZF d   1       2.309   0.362   0.923  0.00  0.00     0.022 A 
ATOM      8  C7  BZF d   1       2.985  -0.277  -0.063  0.00  0.00     0.029 A 
ATOM      9  C7A BZF d   1       3.283   0.451  -1.189  0.00  0.00     0.058 A 
ENDROOT
TORSDOF 0
ENDMDL
