MODEL 1
REMARK minimizedAffinity 16.9373264
REMARK minimizedRMSD -1
REMARK  0 active torsions:
REMARK  status: ('A' for Active; 'I' for Inactive)
ROOT
ATOM      1  O1  BZF d   1      -0.147   2.249   2.986  0.00  0.00    -0.204 OA
ATOM      2  C2  BZF d   1      -0.391   3.365   2.208  0.00  0.00     0.174 A 
ATOM      3  C3  BZF d   1       0.546   3.492   1.247  0.00  0.00    -0.012 A 
ATOM      4  C3A BZF d   1       1.379   2.335   1.378  0.00  0.00    -0.107 A 
ATOM      5  C4  BZF d   1       2.473   1.885   0.697  0.00  0.00     0.055 A 
ATOM      6  C5  BZF d   1       3.098   0.755   1.123  0.00  0.00    -0.016 A 
ATOM      7  C6  BZF d   1       2.658   0.055   2.227  0.00  0.00     0.022 A 
ATOM      8  C7  BZF d   1       1.574   0.461   2.932  0.00  0.00     0.029 A 
ATOM      9  C7A BZF d   1       0.921   1.583   2.484  0.00  0.00     0.058 A 
ENDROOT
TORSDOF 0
ENDMDL
