MODEL 1
REMARK minimizedAffinity 8.4188118
REMARK minimizedRMSD -1
REMARK  0 active torsions:
REMARK  status: ('A' for Active; 'I' for Inactive)
ROOT
ATOM      1  O1  BZF d   1      -3.580  -2.269  -2.535  0.00  0.00    -0.204 OA
ATOM      2  C2  BZF d   1      -2.250  -2.462  -2.216  0.00  0.00     0.174 A 
ATOM      3  C3  BZF d   1      -2.029  -3.737  -1.836  0.00  0.00    -0.012 A 
ATOM      4  C3A BZF d   1      -3.283  -4.404  -2.012  0.00  0.00    -0.107 A 
ATOM      5  C4  BZF d   1      -3.697  -5.691  -1.819  0.00  0.00     0.055 A 
ATOM      6  C5  BZF d   1      -5.006  -6.000  -2.014  0.00  0.00    -0.016 A 
ATOM      7  C6  BZF d   1      -5.928  -5.048  -2.398  0.00  0.00     0.022 A 
ATOM      8  C7  BZF d   1      -5.563  -3.759  -2.607  0.00  0.00     0.029 A 
ATOM      9  C7A BZF d   1      -4.235  -3.451  -2.442  0.00  0.00     0.058 A 
ENDROOT
TORSDOF 0
ENDMDL
