MODEL 1
REMARK minimizedAffinity 6.5954299
REMARK minimizedRMSD -1
REMARK  0 active torsions:
REMARK  status: ('A' for Active; 'I' for Inactive)
ROOT
ATOM      1  O1  BZF d   1      -2.549  -3.325   1.256  0.00  0.00    -0.204 OA
ATOM      2  C2  BZF d   1      -1.280  -2.822   1.466  0.00  0.00     0.174 A 
ATOM      3  C3  BZF d   1      -0.764  -2.332   0.320  0.00  0.00    -0.012 A 
ATOM      4  C3A BZF d   1      -1.810  -2.458  -0.648  0.00  0.00    -0.107 A 
ATOM      5  C4  BZF d   1      -1.911  -2.130  -1.970  0.00  0.00     0.055 A 
ATOM      6  C5  BZF d   1      -3.045  -2.452  -2.645  0.00  0.00    -0.016 A 
ATOM      7  C6  BZF d   1      -4.094  -3.105  -2.033  0.00  0.00     0.022 A 
ATOM      8  C7  BZF d   1      -4.042  -3.447  -0.723  0.00  0.00     0.029 A 
ATOM      9  C7A BZF d   1      -2.911  -3.093  -0.029  0.00  0.00     0.058 A 
ENDROOT
TORSDOF 0
ENDMDL
