MODEL 1
REMARK minimizedAffinity 18.1365128
REMARK minimizedRMSD -1
REMARK  0 active torsions:
REMARK  status: ('A' for Active; 'I' for Inactive)
ROOT
ATOM      1  O1  BZF d   1       2.385  -0.486  -5.949  0.00  0.00    -0.204 OA
ATOM      2  C2  BZF d   1       2.760   0.843  -5.998  0.00  0.00     0.174 A 
ATOM      3  C3  BZF d   1       4.100   0.966  -5.908  0.00  0.00    -0.012 A 
ATOM      4  C3A BZF d   1       4.600  -0.375  -5.889  0.00  0.00    -0.107 A 
ATOM      5  C4  BZF d   1       5.856  -0.907  -5.826  0.00  0.00     0.055 A 
ATOM      6  C5  BZF d   1       5.998  -2.257  -5.751  0.00  0.00    -0.016 A 
ATOM      7  C6  BZF d   1       4.908  -3.102  -5.731  0.00  0.00     0.022 A 
ATOM      8  C7  BZF d   1       3.643  -2.620  -5.797  0.00  0.00     0.029 A 
ATOM      9  C7A BZF d   1       3.497  -1.259  -5.906  0.00  0.00     0.058 A 
ENDROOT
TORSDOF 0
ENDMDL
