MODEL 1
REMARK minimizedAffinity -0.659688473
REMARK minimizedRMSD -1
REMARK  0 active torsions:
REMARK  status: ('A' for Active; 'I' for Inactive)
ROOT
ATOM      1  O1  BZF d   1       5.946   1.233   0.104  0.00  0.00    -0.204 OA
ATOM      2  C2  BZF d   1       5.999   2.473  -0.504  0.00  0.00     0.174 A 
ATOM      3  C3  BZF d   1       4.784   3.059  -0.503  0.00  0.00    -0.012 A 
ATOM      4  C3A BZF d   1       3.937   2.167   0.228  0.00  0.00    -0.107 A 
ATOM      5  C4  BZF d   1       2.618   2.204   0.582  0.00  0.00     0.055 A 
ATOM      6  C5  BZF d   1       2.079   1.139   1.232  0.00  0.00    -0.016 A 
ATOM      7  C6  BZF d   1       2.827   0.020   1.538  0.00  0.00     0.022 A 
ATOM      8  C7  BZF d   1       4.140  -0.060   1.211  0.00  0.00     0.029 A 
ATOM      9  C7A BZF d   1       4.696   1.028   0.584  0.00  0.00     0.058 A 
ENDROOT
TORSDOF 0
ENDMDL
