MODEL 1
REMARK minimizedAffinity 4.43757868
REMARK minimizedRMSD -1
REMARK  0 active torsions:
REMARK  status: ('A' for Active; 'I' for Inactive)
ROOT
ATOM      1  O1  BZF d   1       1.228   4.916  -5.114  0.00  0.00    -0.204 OA
ATOM      2  C2  BZF d   1       1.863   6.000  -5.688  0.00  0.00     0.174 A 
ATOM      3  C3  BZF d   1       3.177   6.000  -5.385  0.00  0.00    -0.012 A 
ATOM      4  C3A BZF d   1       3.393   4.793  -4.648  0.00  0.00    -0.107 A 
ATOM      5  C4  BZF d   1       4.499   4.222  -4.085  0.00  0.00     0.055 A 
ATOM      6  C5  BZF d   1       4.358   3.075  -3.370  0.00  0.00    -0.016 A 
ATOM      7  C6  BZF d   1       3.128   2.475  -3.194  0.00  0.00     0.022 A 
ATOM      8  C7  BZF d   1       2.004   3.002  -3.737  0.00  0.00     0.029 A 
ATOM      9  C7A BZF d   1       2.148   4.143  -4.488  0.00  0.00     0.058 A 
ENDROOT
TORSDOF 0
ENDMDL
