MODEL 1
REMARK minimizedAffinity 3.1991241
REMARK minimizedRMSD -1
REMARK  0 active torsions:
REMARK  status: ('A' for Active; 'I' for Inactive)
ROOT
ATOM      1  O1  BZF d   1       5.962   3.966   5.067  0.00  0.00    -0.204 OA
ATOM      2  C2  BZF d   1       5.764   4.965   6.000  0.00  0.00     0.174 A 
ATOM      3  C3  BZF d   1       4.978   5.939   5.498  0.00  0.00    -0.012 A 
ATOM      4  C3A BZF d   1       4.591   5.479   4.200  0.00  0.00    -0.107 A 
ATOM      5  C4  BZF d   1       3.799   6.000   3.216  0.00  0.00     0.055 A 
ATOM      6  C5  BZF d   1       3.684   5.332   2.038  0.00  0.00    -0.016 A 
ATOM      7  C6  BZF d   1       4.349   4.146   1.808  0.00  0.00     0.022 A 
ATOM      8  C7  BZF d   1       5.142   3.587   2.755  0.00  0.00     0.029 A 
ATOM      9  C7A BZF d   1       5.234   4.243   3.959  0.00  0.00     0.058 A 
ENDROOT
TORSDOF 0
ENDMDL
