MODEL 1
REMARK minimizedAffinity 17.1350632
REMARK minimizedRMSD -1
REMARK  0 active torsions:
REMARK  status: ('A' for Active; 'I' for Inactive)
ROOT
ATOM      1  O1  BZF d   1       3.866  -1.182   1.674  0.00  0.00    -0.204 OA
ATOM      2  C2  BZF d   1       4.978  -0.877   0.913  0.00  0.00     0.174 A 
ATOM      3  C3  BZF d   1       4.764   0.232   0.177  0.00  0.00    -0.012 A 
ATOM      4  C3A BZF d   1       3.469   0.699   0.567  0.00  0.00    -0.107 A 
ATOM      5  C4  BZF d   1       2.707   1.771   0.199  0.00  0.00     0.055 A 
ATOM      6  C5  BZF d   1       1.457   1.901   0.714  0.00  0.00    -0.016 A 
ATOM      7  C6  BZF d   1       0.935   0.976   1.595  0.00  0.00     0.022 A 
ATOM      8  C7  BZF d   1       1.655  -0.101   1.993  0.00  0.00     0.029 A 
ATOM      9  C7A BZF d   1       2.931  -0.217   1.500  0.00  0.00     0.058 A 
ENDROOT
TORSDOF 0
ENDMDL
