MODEL 1
REMARK minimizedAffinity 15.7740946
REMARK minimizedRMSD -1
REMARK  0 active torsions:
REMARK  status: ('A' for Active; 'I' for Inactive)
ROOT
ATOM      1  O1  BZF d   1      -4.549   2.839   2.634  0.00  0.00    -0.204 OA
ATOM      2  C2  BZF d   1      -3.719   2.129   3.479  0.00  0.00     0.174 A 
ATOM      3  C3  BZF d   1      -3.534   2.793   4.638  0.00  0.00    -0.012 A 
ATOM      4  C3A BZF d   1      -4.370   3.950   4.546  0.00  0.00    -0.107 A 
ATOM      5  C4  BZF d   1      -4.631   4.990   5.392  0.00  0.00     0.055 A 
ATOM      6  C5  BZF d   1      -5.440   5.997   4.971  0.00  0.00    -0.016 A 
ATOM      7  C6  BZF d   1      -6.000   6.000   3.710  0.00  0.00     0.022 A 
ATOM      8  C7  BZF d   1      -5.774   4.988   2.837  0.00  0.00     0.029 A 
ATOM      9  C7A BZF d   1      -4.984   3.952   3.272  0.00  0.00     0.058 A 
ENDROOT
TORSDOF 0
ENDMDL
