MODEL 1
REMARK minimizedAffinity 19.3011475
REMARK minimizedRMSD -1
REMARK  0 active torsions:
REMARK  status: ('A' for Active; 'I' for Inactive)
ROOT
ATOM      1  O1  BZF d   1       3.727   3.618  -2.341  0.00  0.00    -0.204 OA
ATOM      2  C2  BZF d   1       3.771   2.273  -2.654  0.00  0.00     0.174 A 
ATOM      3  C3  BZF d   1       3.155   2.035  -3.830  0.00  0.00    -0.012 A 
ATOM      4  C3A BZF d   1       2.778   3.324  -4.325  0.00  0.00    -0.107 A 
ATOM      5  C4  BZF d   1       2.146   3.746  -5.459  0.00  0.00     0.055 A 
ATOM      6  C5  BZF d   1       1.865   5.068  -5.606  0.00  0.00    -0.016 A 
ATOM      7  C6  BZF d   1       2.196   5.992  -4.637  0.00  0.00     0.022 A 
ATOM      8  C7  BZF d   1       2.829   5.622  -3.497  0.00  0.00     0.029 A 
ATOM      9  C7A BZF d   1       3.144   4.292  -3.361  0.00  0.00     0.058 A 
ENDROOT
TORSDOF 0
ENDMDL
