MODEL 1
REMARK minimizedAffinity 13.36623
REMARK minimizedRMSD -1
REMARK  0 active torsions:
REMARK  status: ('A' for Active; 'I' for Inactive)
ROOT
ATOM      1  O1  BZF d   1       2.127  -4.149  -2.681  0.00  0.00    -0.204 OA
ATOM      2  C2  BZF d   1       1.184  -4.814  -1.922  0.00  0.00     0.174 A 
ATOM      3  C3  BZF d   1      -0.000  -4.863  -2.566  0.00  0.00    -0.012 A 
ATOM      4  C3A BZF d   1       0.242  -4.268  -3.845  0.00  0.00    -0.107 A 
ATOM      5  C4  BZF d   1      -0.544  -4.041  -4.938  0.00  0.00     0.055 A 
ATOM      6  C5  BZF d   1      -0.021  -3.373  -6.000  0.00  0.00    -0.016 A 
ATOM      7  C6  BZF d   1       1.280  -2.913  -5.999  0.00  0.00     0.022 A 
ATOM      8  C7  BZF d   1       2.099  -3.119  -4.939  0.00  0.00     0.029 A 
ATOM      9  C7A BZF d   1       1.583  -3.823  -3.879  0.00  0.00     0.058 A 
ENDROOT
TORSDOF 0
ENDMDL
