MODEL 1
REMARK minimizedAffinity 10.3225374
REMARK minimizedRMSD -1
REMARK  0 active torsions:
REMARK  status: ('A' for Active; 'I' for Inactive)
ROOT
ATOM      1  O1  BZF d   1      -4.334   2.055   3.556  0.00  0.00    -0.204 OA
ATOM      2  C2  BZF d   1      -4.870   0.828   3.893  0.00  0.00     0.174 A 
ATOM      3  C3  BZF d   1      -4.141  -0.175   3.362  0.00  0.00    -0.012 A 
ATOM      4  C3A BZF d   1      -3.030   0.464   2.726  0.00  0.00    -0.107 A 
ATOM      5  C4  BZF d   1      -1.948  -0.003   2.036  0.00  0.00     0.055 A 
ATOM      6  C5  BZF d   1      -1.085   0.888   1.480  0.00  0.00    -0.016 A 
ATOM      7  C6  BZF d   1      -1.277   2.249   1.588  0.00  0.00     0.022 A 
ATOM      8  C7  BZF d   1      -2.334   2.760   2.266  0.00  0.00     0.029 A 
ATOM      9  C7A BZF d   1      -3.189   1.863   2.858  0.00  0.00     0.058 A 
ENDROOT
TORSDOF 0
ENDMDL
