MODEL 1
REMARK minimizedAffinity 9.62571907
REMARK minimizedRMSD -1
REMARK  0 active torsions:
REMARK  status: ('A' for Active; 'I' for Inactive)
ROOT
ATOM      1  O1  BZF d   1      -1.508   2.708   2.050  0.00  0.00    -0.204 OA
ATOM      2  C2  BZF d   1      -2.646   2.170   2.619  0.00  0.00     0.174 A 
ATOM      3  C3  BZF d   1      -2.463   0.867   2.915  0.00  0.00    -0.012 A 
ATOM      4  C3A BZF d   1      -1.096   0.595   2.590  0.00  0.00    -0.107 A 
ATOM      5  C4  BZF d   1      -0.314  -0.521   2.677  0.00  0.00     0.055 A 
ATOM      6  C5  BZF d   1       0.960  -0.472   2.208  0.00  0.00    -0.016 A 
ATOM      7  C6  BZF d   1       1.483   0.672   1.642  0.00  0.00     0.022 A 
ATOM      8  C7  BZF d   1       0.747   1.805   1.538  0.00  0.00     0.029 A 
ATOM      9  C7A BZF d   1      -0.531   1.769   2.041  0.00  0.00     0.058 A 
ENDROOT
TORSDOF 0
ENDMDL
