MODEL 1
REMARK minimizedAffinity -0.141284317
REMARK minimizedRMSD -1
REMARK  0 active torsions:
REMARK  status: ('A' for Active; 'I' for Inactive)
ROOT
ATOM      1  O1  BZF d   1       0.039   2.475   2.419  0.00  0.00    -0.204 OA
ATOM      2  C2  BZF d   1       1.090   1.742   1.901  0.00  0.00     0.174 A 
ATOM      3  C3  BZF d   1       0.729   0.456   1.713  0.00  0.00    -0.012 A 
ATOM      4  C3A BZF d   1      -0.659   0.401   2.054  0.00  0.00    -0.107 A 
ATOM      5  C4  BZF d   1      -1.586  -0.602   2.056  0.00  0.00     0.055 A 
ATOM      6  C5  BZF d   1      -2.839  -0.342   2.514  0.00  0.00    -0.016 A 
ATOM      7  C6  BZF d   1      -3.197   0.905   2.981  0.00  0.00     0.022 A 
ATOM      8  C7  BZF d   1      -2.313   1.933   2.994  0.00  0.00     0.029 A 
ATOM      9  C7A BZF d   1      -1.056   1.682   2.501  0.00  0.00     0.058 A 
ENDROOT
TORSDOF 0
ENDMDL
