MODEL 1
REMARK minimizedAffinity 11.5400028
REMARK minimizedRMSD -1
REMARK  0 active torsions:
REMARK  status: ('A' for Active; 'I' for Inactive)
ROOT
ATOM      1  O1  BZF d   1      -3.972   0.708   3.400  0.00  0.00    -0.204 OA
ATOM      2  C2  BZF d   1      -2.897   1.372   2.841  0.00  0.00     0.174 A 
ATOM      3  C3  BZF d   1      -2.792   2.619   3.343  0.00  0.00    -0.012 A 
ATOM      4  C3A BZF d   1      -3.812   2.710   4.342  0.00  0.00    -0.107 A 
ATOM      5  C4  BZF d   1      -4.199   3.698   5.202  0.00  0.00     0.055 A 
ATOM      6  C5  BZF d   1      -5.280   3.494   6.000  0.00  0.00    -0.016 A 
ATOM      7  C6  BZF d   1      -5.999   2.317   5.960  0.00  0.00     0.022 A 
ATOM      8  C7  BZF d   1      -5.650   1.306   5.128  0.00  0.00     0.029 A 
ATOM      9  C7A BZF d   1      -4.539   1.497   4.344  0.00  0.00     0.058 A 
ENDROOT
TORSDOF 0
ENDMDL
