MODEL 1
REMARK minimizedAffinity 1.37713873
REMARK minimizedRMSD -1
REMARK  0 active torsions:
REMARK  status: ('A' for Active; 'I' for Inactive)
ROOT
ATOM      1  O1  BZF d   1      -5.599  -3.508  -5.203  0.00  0.00    -0.204 OA
ATOM      2  C2  BZF d   1      -4.508  -3.796  -6.000  0.00  0.00     0.174 A 
ATOM      3  C3  BZF d   1      -3.357  -3.530  -5.350  0.00  0.00    -0.012 A 
ATOM      4  C3A BZF d   1      -3.751  -3.132  -4.033  0.00  0.00    -0.107 A 
ATOM      5  C4  BZF d   1      -3.058  -2.758  -2.918  0.00  0.00     0.055 A 
ATOM      6  C5  BZF d   1      -3.745  -2.360  -1.815  0.00  0.00    -0.016 A 
ATOM      7  C6  BZF d   1      -5.124  -2.320  -1.794  0.00  0.00     0.022 A 
ATOM      8  C7  BZF d   1      -5.855  -2.686  -2.874  0.00  0.00     0.029 A 
ATOM      9  C7A BZF d   1      -5.164  -3.120  -3.979  0.00  0.00     0.058 A 
ENDROOT
TORSDOF 0
ENDMDL
