MODEL 1
REMARK minimizedAffinity 2.2552619
REMARK minimizedRMSD -1
REMARK  0 active torsions:
REMARK  status: ('A' for Active; 'I' for Inactive)
ROOT
ATOM      1  O1  BZF d   1      -1.402  -0.635   2.521  0.00  0.00    -0.204 OA
ATOM      2  C2  BZF d   1      -2.543   0.140   2.435  0.00  0.00     0.174 A 
ATOM      3  C3  BZF d   1      -2.227   1.445   2.318  0.00  0.00    -0.012 A 
ATOM      4  C3A BZF d   1      -0.798   1.481   2.238  0.00  0.00    -0.107 A 
ATOM      5  C4  BZF d   1       0.109   2.492   2.096  0.00  0.00     0.055 A 
ATOM      6  C5  BZF d   1       1.435   2.198   2.127  0.00  0.00    -0.016 A 
ATOM      7  C6  BZF d   1       1.889   0.907   2.303  0.00  0.00     0.022 A 
ATOM      8  C7  BZF d   1       1.027  -0.130   2.443  0.00  0.00     0.029 A 
ATOM      9  C7A BZF d   1      -0.314   0.160   2.379  0.00  0.00     0.058 A 
ENDROOT
TORSDOF 0
ENDMDL
