MODEL 1
REMARK minimizedAffinity -3.61628747
REMARK minimizedRMSD -1
REMARK  0 active torsions:
REMARK  status: ('A' for Active; 'I' for Inactive)
ROOT
ATOM      1  C2' OXE d   1       1.101  -0.344  -1.494  0.00  0.00     0.078 C 
ATOM      2  C1' OXE d   1       1.689   0.606   1.081  0.00  0.00     0.078 C 
ATOM      3  C1  OXE d   1       1.521   1.621  -0.022  0.00  0.00    -0.078 A 
ATOM      4  C2  OXE d   1       1.279   1.144  -1.288  0.00  0.00    -0.078 A 
ATOM      5  C3  OXE d   1       1.061   2.039  -2.332  0.00  0.00     0.003 A 
ATOM      6  C4  OXE d   1       1.238   3.414  -2.135  0.00  0.00    -0.002 A 
ATOM      7  C5  OXE d   1       1.524   3.918  -0.861  0.00  0.00    -0.002 A 
ATOM      8  C6  OXE d   1       1.626   3.040   0.212  0.00  0.00     0.003 A 
ENDROOT
TORSDOF 0
ENDMDL
