MODEL 1
REMARK minimizedAffinity -5.10653257
REMARK minimizedRMSD -1
REMARK  0 active torsions:
REMARK  status: ('A' for Active; 'I' for Inactive)
ROOT
ATOM      1  C2' OXE d   1       1.480   1.048   1.457  0.00  0.00     0.078 C 
ATOM      2  C1' OXE d   1       0.414   0.140  -0.976  0.00  0.00     0.078 C 
ATOM      3  C1  OXE d   1       1.010   1.525  -0.943  0.00  0.00    -0.078 A 
ATOM      4  C2  OXE d   1       1.487   1.979   0.263  0.00  0.00    -0.078 A 
ATOM      5  C3  OXE d   1       2.097   3.228   0.337  0.00  0.00     0.003 A 
ATOM      6  C4  OXE d   1       2.091   4.086  -0.768  0.00  0.00    -0.002 A 
ATOM      7  C5  OXE d   1       1.574   3.659  -1.996  0.00  0.00    -0.002 A 
ATOM      8  C6  OXE d   1       1.070   2.368  -2.111  0.00  0.00     0.003 A 
ENDROOT
TORSDOF 0
ENDMDL
