MODEL 1
REMARK minimizedAffinity -4.4162221
REMARK minimizedRMSD -1
REMARK  0 active torsions:
REMARK  status: ('A' for Active; 'I' for Inactive)
ROOT
ATOM      1  C2' OXE d   1       1.409   4.890  -0.911  0.00  0.00     0.078 C 
ATOM      2  C1' OXE d   1       0.978   3.923   1.689  0.00  0.00     0.078 C 
ATOM      3  C1  OXE d   1       1.075   2.916   0.570  0.00  0.00    -0.078 A 
ATOM      4  C2  OXE d   1       1.240   3.401  -0.705  0.00  0.00    -0.078 A 
ATOM      5  C3  OXE d   1       1.391   2.512  -1.766  0.00  0.00     0.003 A 
ATOM      6  C4  OXE d   1       1.223   1.137  -1.568  0.00  0.00    -0.002 A 
ATOM      7  C5  OXE d   1       1.015   0.624  -0.283  0.00  0.00    -0.002 A 
ATOM      8  C6  OXE d   1       0.981   1.495   0.801  0.00  0.00     0.003 A 
ENDROOT
TORSDOF 0
ENDMDL
