MODEL 1
REMARK minimizedAffinity -3.88230562
REMARK minimizedRMSD -1
REMARK  0 active torsions:
REMARK  status: ('A' for Active; 'I' for Inactive)
ROOT
ATOM      1  C2' OXE d   1       1.515  -2.313  -0.764  0.00  0.00     0.078 C 
ATOM      2  C1' OXE d   1       1.381  -1.085  -3.285  0.00  0.00     0.078 C 
ATOM      3  C1  OXE d   1       1.263  -0.205  -2.066  0.00  0.00    -0.078 A 
ATOM      4  C2  OXE d   1       1.283  -0.820  -0.838  0.00  0.00    -0.078 A 
ATOM      5  C3  OXE d   1       1.232  -0.048   0.320  0.00  0.00     0.003 A 
ATOM      6  C4  OXE d   1       1.007   1.331   0.243  0.00  0.00    -0.002 A 
ATOM      7  C5  OXE d   1       0.943   1.972  -0.998  0.00  0.00    -0.002 A 
ATOM      8  C6  OXE d   1       1.112   1.227  -2.160  0.00  0.00     0.003 A 
ENDROOT
TORSDOF 0
ENDMDL
