MODEL 1
REMARK minimizedAffinity -4.58219767
REMARK minimizedRMSD -1
REMARK  0 active torsions:
REMARK  status: ('A' for Active; 'I' for Inactive)
ROOT
ATOM      1  C2' OXE d   1       1.342   4.558  -0.473  0.00  0.00     0.078 C 
ATOM      2  C1' OXE d   1       0.994   2.866  -2.685  0.00  0.00     0.078 C 
ATOM      3  C1  OXE d   1       1.148   2.227  -1.328  0.00  0.00    -0.078 A 
ATOM      4  C2  OXE d   1       1.365   3.060  -0.257  0.00  0.00    -0.078 A 
ATOM      5  C3  OXE d   1       1.459   2.526   1.024  0.00  0.00     0.003 A 
ATOM      6  C4  OXE d   1       1.489   1.139   1.213  0.00  0.00    -0.002 A 
ATOM      7  C5  OXE d   1       1.310   0.271   0.131  0.00  0.00    -0.002 A 
ATOM      8  C6  OXE d   1       1.096   0.798  -1.138  0.00  0.00     0.003 A 
ENDROOT
TORSDOF 0
ENDMDL
