MODEL 1
REMARK minimizedAffinity 5.3737607
REMARK minimizedRMSD -1
REMARK  0 active torsions:
REMARK  status: ('A' for Active; 'I' for Inactive)
ROOT
ATOM      1  C2' OXE d   1       1.059  -0.445  -1.979  0.00  0.00     0.078 C 
ATOM      2  C1' OXE d   1       1.023   2.361  -2.054  0.00  0.00     0.078 C 
ATOM      3  C1  OXE d   1       1.130   1.695  -0.705  0.00  0.00    -0.078 A 
ATOM      4  C2  OXE d   1       1.100   0.321  -0.674  0.00  0.00    -0.078 A 
ATOM      5  C3  OXE d   1       1.250  -0.344   0.539  0.00  0.00     0.003 A 
ATOM      6  C4  OXE d   1       1.277   0.372   1.742  0.00  0.00    -0.002 A 
ATOM      7  C5  OXE d   1       1.269   1.771   1.736  0.00  0.00    -0.002 A 
ATOM      8  C6  OXE d   1       1.239   2.446   0.521  0.00  0.00     0.003 A 
ENDROOT
TORSDOF 0
ENDMDL
