MODEL 1
REMARK minimizedAffinity -1.29301298
REMARK minimizedRMSD -1
REMARK  0 active torsions:
REMARK  status: ('A' for Active; 'I' for Inactive)
ROOT
ATOM      1  C2' OXE d   1       1.650   5.004  -0.711  0.00  0.00     0.078 C 
ATOM      2  C1' OXE d   1       0.973   3.602   1.625  0.00  0.00     0.078 C 
ATOM      3  C1  OXE d   1       0.914   2.856   0.315  0.00  0.00    -0.078 A 
ATOM      4  C2  OXE d   1       1.202   3.563  -0.828  0.00  0.00    -0.078 A 
ATOM      5  C3  OXE d   1       1.217   2.909  -2.057  0.00  0.00     0.003 A 
ATOM      6  C4  OXE d   1       0.792   1.579  -2.157  0.00  0.00    -0.002 A 
ATOM      7  C5  OXE d   1       0.456   0.852  -1.010  0.00  0.00    -0.002 A 
ATOM      8  C6  OXE d   1       0.553   1.463   0.236  0.00  0.00     0.003 A 
ENDROOT
TORSDOF 0
ENDMDL
