MODEL 1
REMARK minimizedAffinity 3.59863567
REMARK minimizedRMSD -1
REMARK  0 active torsions:
REMARK  status: ('A' for Active; 'I' for Inactive)
ROOT
ATOM      1  C2' OXE d   1       1.527   4.090  -1.507  0.00  0.00     0.078 C 
ATOM      2  C1' OXE d   1       1.299   3.663   1.258  0.00  0.00     0.078 C 
ATOM      3  C1  OXE d   1       1.211   2.461   0.351  0.00  0.00    -0.078 A 
ATOM      4  C2  OXE d   1       1.277   2.685  -1.003  0.00  0.00    -0.078 A 
ATOM      5  C3  OXE d   1       1.256   1.605  -1.882  0.00  0.00     0.003 A 
ATOM      6  C4  OXE d   1       1.015   0.310  -1.408  0.00  0.00    -0.002 A 
ATOM      7  C5  OXE d   1       0.905   0.065  -0.035  0.00  0.00    -0.002 A 
ATOM      8  C6  OXE d   1       1.043   1.122   0.859  0.00  0.00     0.003 A 
ENDROOT
TORSDOF 0
ENDMDL
