MODEL 1
REMARK minimizedAffinity -1.6325525
REMARK minimizedRMSD -1
REMARK  0 active torsions:
REMARK  status: ('A' for Active; 'I' for Inactive)
ROOT
ATOM      1  C2' OXE d   1       0.970   3.914  -1.208  0.00  0.00     0.078 C 
ATOM      2  C1' OXE d   1       0.496   2.900   1.367  0.00  0.00     0.078 C 
ATOM      3  C1  OXE d   1       1.002   1.943   0.317  0.00  0.00    -0.078 A 
ATOM      4  C2  OXE d   1       1.187   2.438  -0.952  0.00  0.00    -0.078 A 
ATOM      5  C3  OXE d   1       1.704   1.611  -1.945  0.00  0.00     0.003 A 
ATOM      6  C4  OXE d   1       1.892   0.245  -1.704  0.00  0.00    -0.002 A 
ATOM      7  C5  OXE d   1       1.672  -0.288  -0.429  0.00  0.00    -0.002 A 
ATOM      8  C6  OXE d   1       1.269   0.555   0.601  0.00  0.00     0.003 A 
ENDROOT
TORSDOF 0
ENDMDL
