MODEL 1
REMARK minimizedAffinity -1.3312372
REMARK minimizedRMSD -1
REMARK  0 active torsions:
REMARK  status: ('A' for Active; 'I' for Inactive)
ROOT
ATOM      1  C2' OXE d   1       1.747   5.108  -1.068  0.00  0.00     0.078 C 
ATOM      2  C1' OXE d   1       1.185   4.120   1.499  0.00  0.00     0.078 C 
ATOM      3  C1  OXE d   1       1.152   3.147   0.348  0.00  0.00    -0.078 A 
ATOM      4  C2  OXE d   1       1.382   3.648  -0.911  0.00  0.00    -0.078 A 
ATOM      5  C3  OXE d   1       1.417   2.783  -2.001  0.00  0.00     0.003 A 
ATOM      6  C4  OXE d   1       1.068   1.436  -1.849  0.00  0.00    -0.002 A 
ATOM      7  C5  OXE d   1       0.791   0.913  -0.581  0.00  0.00    -0.002 A 
ATOM      8  C6  OXE d   1       0.870   1.744   0.531  0.00  0.00     0.003 A 
ENDROOT
TORSDOF 0
ENDMDL
