MODEL 1
REMARK minimizedAffinity -0.624560833
REMARK minimizedRMSD -1
REMARK  0 active torsions:
REMARK  status: ('A' for Active; 'I' for Inactive)
ROOT
ATOM      1  C2' OXE d   1       1.310  -0.604  -0.544  0.00  0.00     0.078 C 
ATOM      2  C1' OXE d   1       1.756   1.326  -2.533  0.00  0.00     0.078 C 
ATOM      3  C1  OXE d   1       1.472   1.811  -1.133  0.00  0.00    -0.078 A 
ATOM      4  C2  OXE d   1       1.209   0.861  -0.176  0.00  0.00    -0.078 A 
ATOM      5  C3  OXE d   1       0.995   1.252   1.142  0.00  0.00     0.003 A 
ATOM      6  C4  OXE d   1       0.893   2.609   1.472  0.00  0.00    -0.002 A 
ATOM      7  C5  OXE d   1       1.118   3.593   0.504  0.00  0.00    -0.002 A 
ATOM      8  C6  OXE d   1       1.450   3.212  -0.791  0.00  0.00     0.003 A 
ENDROOT
TORSDOF 0
ENDMDL
