MODEL 1
REMARK minimizedAffinity 4.14648676
REMARK minimizedRMSD -1
REMARK  0 active torsions:
REMARK  status: ('A' for Active; 'I' for Inactive)
ROOT
ATOM      1  C2' OXE d   1       2.429  -1.099   0.218  0.00  0.00     0.078 C 
ATOM      2  C1' OXE d   1       1.197   0.006  -2.050  0.00  0.00     0.078 C 
ATOM      3  C1  OXE d   1       0.781  -1.381  -1.629  0.00  0.00    -0.078 A 
ATOM      4  C2  OXE d   1       1.422  -1.932  -0.546  0.00  0.00    -0.078 A 
ATOM      5  C3  OXE d   1       1.037  -3.187  -0.082  0.00  0.00     0.003 A 
ATOM      6  C4  OXE d   1       0.113  -3.955  -0.800  0.00  0.00    -0.002 A 
ATOM      7  C5  OXE d   1      -0.523  -3.429  -1.929  0.00  0.00    -0.002 A 
ATOM      8  C6  OXE d   1      -0.232  -2.130  -2.331  0.00  0.00     0.003 A 
ENDROOT
TORSDOF 0
ENDMDL
