MODEL 1
REMARK minimizedAffinity -3.02117705
REMARK minimizedRMSD -1
REMARK  0 active torsions:
REMARK  status: ('A' for Active; 'I' for Inactive)
ROOT
ATOM      1  C2' OXE d   1       1.628   3.790  -1.451  0.00  0.00     0.078 C 
ATOM      2  C1' OXE d   1       1.365   1.751  -3.363  0.00  0.00     0.078 C 
ATOM      3  C1  OXE d   1       1.314   1.361  -1.907  0.00  0.00    -0.078 A 
ATOM      4  C2  OXE d   1       1.490   2.359  -0.979  0.00  0.00    -0.078 A 
ATOM      5  C3  OXE d   1       1.397   2.062   0.378  0.00  0.00     0.003 A 
ATOM      6  C4  OXE d   1       1.279   0.734   0.807  0.00  0.00    -0.002 A 
ATOM      7  C5  OXE d   1       1.138  -0.302  -0.122  0.00  0.00    -0.002 A 
ATOM      8  C6  OXE d   1       1.111  -0.001  -1.479  0.00  0.00     0.003 A 
ENDROOT
TORSDOF 0
ENDMDL
