MODEL 1
REMARK minimizedAffinity 1.24250746
REMARK minimizedRMSD -1
REMARK  0 active torsions:
REMARK  status: ('A' for Active; 'I' for Inactive)
ROOT
ATOM      1  C2' OXE d   1       2.018   5.662  -1.013  0.00  0.00     0.078 C 
ATOM      2  C1' OXE d   1       1.815   4.443   1.508  0.00  0.00     0.078 C 
ATOM      3  C1  OXE d   1       1.685   3.565   0.289  0.00  0.00    -0.078 A 
ATOM      4  C2  OXE d   1       1.739   4.177  -0.940  0.00  0.00    -0.078 A 
ATOM      5  C3  OXE d   1       1.680   3.405  -2.098  0.00  0.00     0.003 A 
ATOM      6  C4  OXE d   1       1.412   2.033  -2.022  0.00  0.00    -0.002 A 
ATOM      7  C5  OXE d   1       1.314   1.396  -0.780  0.00  0.00    -0.002 A 
ATOM      8  C6  OXE d   1       1.491   2.139   0.382  0.00  0.00     0.003 A 
ENDROOT
TORSDOF 0
ENDMDL
