MODEL 1
REMARK minimizedAffinity -0.519895971
REMARK minimizedRMSD -1
REMARK  0 active torsions:
REMARK  status: ('A' for Active; 'I' for Inactive)
ROOT
ATOM      1  C2' OXE d   1       1.620   4.149  -1.490  0.00  0.00     0.078 C 
ATOM      2  C1' OXE d   1       0.583   2.250  -3.279  0.00  0.00     0.078 C 
ATOM      3  C1  OXE d   1       0.870   1.804  -1.867  0.00  0.00    -0.078 A 
ATOM      4  C2  OXE d   1       1.421   2.727  -1.012  0.00  0.00    -0.078 A 
ATOM      5  C3  OXE d   1       1.655   2.383   0.317  0.00  0.00     0.003 A 
ATOM      6  C4  OXE d   1       1.478   1.063   0.749  0.00  0.00    -0.002 A 
ATOM      7  C5  OXE d   1       0.955   0.097  -0.117  0.00  0.00    -0.002 A 
ATOM      8  C6  OXE d   1       0.607   0.460  -1.413  0.00  0.00     0.003 A 
ENDROOT
TORSDOF 0
ENDMDL
