MODEL 1
REMARK minimizedAffinity -2.25209761
REMARK minimizedRMSD -1
REMARK  0 active torsions:
REMARK  status: ('A' for Active; 'I' for Inactive)
ROOT
ATOM      1  C2' OXE d   1       1.576   4.634  -0.988  0.00  0.00     0.078 C 
ATOM      2  C1' OXE d   1       1.104   2.871  -3.121  0.00  0.00     0.078 C 
ATOM      3  C1  OXE d   1       1.104   2.302  -1.724  0.00  0.00    -0.078 A 
ATOM      4  C2  OXE d   1       1.382   3.163  -0.690  0.00  0.00    -0.078 A 
ATOM      5  C3  OXE d   1       1.342   2.701   0.622  0.00  0.00     0.003 A 
ATOM      6  C4  OXE d   1       1.172   1.337   0.888  0.00  0.00    -0.002 A 
ATOM      7  C5  OXE d   1       0.926   0.436  -0.153  0.00  0.00    -0.002 A 
ATOM      8  C6  OXE d   1       0.847   0.908  -1.458  0.00  0.00     0.003 A 
ENDROOT
TORSDOF 0
ENDMDL
