MODEL 1
REMARK minimizedAffinity -0.231061548
REMARK minimizedRMSD -1
REMARK  0 active torsions:
REMARK  status: ('A' for Active; 'I' for Inactive)
ROOT
ATOM      1  C2' OXE d   1       2.055   3.366   1.311  0.00  0.00     0.078 C 
ATOM      2  C1' OXE d   1       2.409   3.733  -1.450  0.00  0.00     0.078 C 
ATOM      3  C1  OXE d   1       1.888   2.398  -0.979  0.00  0.00    -0.078 A 
ATOM      4  C2  OXE d   1       1.762   2.211   0.377  0.00  0.00    -0.078 A 
ATOM      5  C3  OXE d   1       1.234   1.018   0.862  0.00  0.00     0.003 A 
ATOM      6  C4  OXE d   1       0.975  -0.048  -0.008  0.00  0.00    -0.002 A 
ATOM      7  C5  OXE d   1       1.134   0.108  -1.389  0.00  0.00    -0.002 A 
ATOM      8  C6  OXE d   1       1.548   1.336  -1.893  0.00  0.00     0.003 A 
ENDROOT
TORSDOF 0
ENDMDL
