MODEL 1
REMARK minimizedAffinity -5.48283339
REMARK minimizedRMSD -1
REMARK  0 active torsions:
REMARK  status: ('A' for Active; 'I' for Inactive)
ROOT
ATOM      1  C2' OXE d   1       1.153  -0.129  -0.774  0.00  0.00     0.078 C 
ATOM      2  C1' OXE d   1       0.702   0.854   1.816  0.00  0.00     0.078 C 
ATOM      3  C1  OXE d   1       0.944   1.856   0.716  0.00  0.00    -0.078 A 
ATOM      4  C2  OXE d   1       1.211   1.365  -0.540  0.00  0.00    -0.078 A 
ATOM      5  C3  OXE d   1       1.388   2.247  -1.602  0.00  0.00     0.003 A 
ATOM      6  C4  OXE d   1       1.450   3.627  -1.375  0.00  0.00    -0.002 A 
ATOM      7  C5  OXE d   1       1.221   4.147  -0.096  0.00  0.00    -0.002 A 
ATOM      8  C6  OXE d   1       0.925   3.279   0.949  0.00  0.00     0.003 A 
ENDROOT
TORSDOF 0
ENDMDL
