MODEL 1
REMARK minimizedAffinity -4.32387829
REMARK minimizedRMSD -1
REMARK  0 active torsions:
REMARK  status: ('A' for Active; 'I' for Inactive)
ROOT
ATOM      1  C2' OXE d   1       0.996   3.929  -0.547  0.00  0.00     0.078 C 
ATOM      2  C1' OXE d   1       0.509   2.175   1.590  0.00  0.00     0.078 C 
ATOM      3  C1  OXE d   1       0.960   1.579   0.279  0.00  0.00    -0.078 A 
ATOM      4  C2  OXE d   1       1.150   2.441  -0.774  0.00  0.00    -0.078 A 
ATOM      5  C3  OXE d   1       1.618   1.950  -1.990  0.00  0.00     0.003 A 
ATOM      6  C4  OXE d   1       1.749   0.571  -2.195  0.00  0.00    -0.002 A 
ATOM      7  C5  OXE d   1       1.521  -0.327  -1.147  0.00  0.00    -0.002 A 
ATOM      8  C6  OXE d   1       1.168   0.163   0.106  0.00  0.00     0.003 A 
ENDROOT
TORSDOF 0
ENDMDL
