MODEL 1
REMARK minimizedAffinity 10.2145357
REMARK minimizedRMSD -1
REMARK  0 active torsions:
REMARK  status: ('A' for Active; 'I' for Inactive)
ROOT
ATOM      1  C   UNL d   1      -2.900   1.143  -5.641  0.00  0.00    -0.002 A 
ATOM      2  C1  UNL d   1      -1.942   0.518  -4.855  0.00  0.00     0.010 A 
ATOM      3  C2  UNL d   1      -2.267   0.044  -3.583  0.00  0.00     0.041 A 
ATOM      4  C3  UNL d   1      -3.584   0.206  -3.110  0.00  0.00    -0.075 A 
ATOM      5  S   UNL d   1      -4.211  -0.297  -1.585  0.00  0.00     0.015 SA
ATOM      6  C4  UNL d   1      -5.765   0.304  -1.942  0.00  0.00     0.022 A 
ATOM      7  C5  UNL d   1      -5.823   0.878  -3.190  0.00  0.00     0.026 A 
ATOM      8  C6  UNL d   1      -4.567   0.831  -3.884  0.00  0.00    -0.082 A 
ATOM      9  C7  UNL d   1      -4.206   1.302  -5.169  0.00  0.00     0.045 A 
ENDROOT
TORSDOF 0
ENDMDL
