MODEL 1
REMARK minimizedAffinity 12.993391
REMARK minimizedRMSD -1
REMARK  0 active torsions:
REMARK  status: ('A' for Active; 'I' for Inactive)
ROOT
ATOM      1  C   UNL d   1       4.686   1.127  -1.092  0.00  0.00    -0.002 A 
ATOM      2  C1  UNL d   1       4.849   1.119   0.286  0.00  0.00     0.010 A 
ATOM      3  C2  UNL d   1       5.253   2.274   0.959  0.00  0.00     0.041 A 
ATOM      4  C3  UNL d   1       5.491   3.448   0.217  0.00  0.00    -0.075 A 
ATOM      5  S   UNL d   1       5.992   4.980   0.828  0.00  0.00     0.015 SA
ATOM      6  C4  UNL d   1       6.000   5.681  -0.725  0.00  0.00     0.022 A 
ATOM      7  C5  UNL d   1       5.632   4.781  -1.698  0.00  0.00     0.026 A 
ATOM      8  C6  UNL d   1       5.332   3.480  -1.171  0.00  0.00    -0.082 A 
ATOM      9  C7  UNL d   1       4.922   2.293  -1.824  0.00  0.00     0.045 A 
ENDROOT
TORSDOF 0
ENDMDL
