MODEL 1
REMARK minimizedAffinity 12.5531931
REMARK minimizedRMSD -1
REMARK  0 active torsions:
REMARK  status: ('A' for Active; 'I' for Inactive)
ROOT
ATOM      1  C   UNL d   1       5.852  -1.504   1.704  0.00  0.00    -0.002 A 
ATOM      2  C1  UNL d   1       4.686  -2.256   1.670  0.00  0.00     0.010 A 
ATOM      3  C2  UNL d   1       3.646  -1.915   0.803  0.00  0.00     0.041 A 
ATOM      4  C3  UNL d   1       3.798  -0.794  -0.037  0.00  0.00    -0.075 A 
ATOM      5  S   UNL d   1       2.658  -0.188  -1.179  0.00  0.00     0.015 SA
ATOM      6  C4  UNL d   1       3.691   1.083  -1.648  0.00  0.00     0.022 A 
ATOM      7  C5  UNL d   1       4.881   1.061  -0.961  0.00  0.00     0.026 A 
ATOM      8  C6  UNL d   1       4.963  -0.021  -0.021  0.00  0.00    -0.082 A 
ATOM      9  C7  UNL d   1       5.999  -0.393   0.869  0.00  0.00     0.045 A 
ENDROOT
TORSDOF 0
ENDMDL
