MODEL 1
REMARK minimizedAffinity 12.3689823
REMARK minimizedRMSD -1
REMARK  0 active torsions:
REMARK  status: ('A' for Active; 'I' for Inactive)
ROOT
ATOM      1  C   UNL d   1       4.436   0.718  -0.280  0.00  0.00    -0.002 A 
ATOM      2  C1  UNL d   1       4.823   0.894  -1.602  0.00  0.00     0.010 A 
ATOM      3  C2  UNL d   1       4.474  -0.045  -2.575  0.00  0.00     0.041 A 
ATOM      4  C3  UNL d   1       3.721  -1.173  -2.194  0.00  0.00    -0.075 A 
ATOM      5  S   UNL d   1       3.179  -2.453  -3.215  0.00  0.00     0.015 SA
ATOM      6  C4  UNL d   1       2.421  -3.263  -1.921  0.00  0.00     0.022 A 
ATOM      7  C5  UNL d   1       2.568  -2.588  -0.732  0.00  0.00     0.026 A 
ATOM      8  C6  UNL d   1       3.320  -1.372  -0.870  0.00  0.00    -0.082 A 
ATOM      9  C7  UNL d   1       3.690  -0.403   0.093  0.00  0.00     0.045 A 
ENDROOT
TORSDOF 0
ENDMDL
