MODEL 1
REMARK minimizedAffinity 10.5207119
REMARK minimizedRMSD -1
REMARK  0 active torsions:
REMARK  status: ('A' for Active; 'I' for Inactive)
ROOT
ATOM      1  C   UNL d   1       5.399   1.653  -0.116  0.00  0.00    -0.002 A 
ATOM      2  C1  UNL d   1       5.658   1.703  -1.478  0.00  0.00     0.010 A 
ATOM      3  C2  UNL d   1       5.137   0.732  -2.337  0.00  0.00     0.041 A 
ATOM      4  C3  UNL d   1       4.343  -0.299  -1.797  0.00  0.00    -0.075 A 
ATOM      5  S   UNL d   1       3.600  -1.596  -2.656  0.00  0.00     0.015 SA
ATOM      6  C4  UNL d   1       2.920  -2.247  -1.235  0.00  0.00     0.022 A 
ATOM      7  C5  UNL d   1       3.243  -1.505  -0.123  0.00  0.00     0.026 A 
ATOM      8  C6  UNL d   1       4.068  -0.371  -0.429  0.00  0.00    -0.082 A 
ATOM      9  C7  UNL d   1       4.610   0.628   0.415  0.00  0.00     0.045 A 
ENDROOT
TORSDOF 0
ENDMDL
