MODEL 1
REMARK minimizedAffinity 8.64871597
REMARK minimizedRMSD -1
REMARK  0 active torsions:
REMARK  status: ('A' for Active; 'I' for Inactive)
ROOT
ATOM      1  C   UNL d   1       4.403   1.121  -0.349  0.00  0.00    -0.002 A 
ATOM      2  C1  UNL d   1       5.072   1.104  -1.565  0.00  0.00     0.010 A 
ATOM      3  C2  UNL d   1       4.899   0.044  -2.457  0.00  0.00     0.041 A 
ATOM      4  C3  UNL d   1       4.032  -1.009  -2.103  0.00  0.00    -0.075 A 
ATOM      5  S   UNL d   1       3.665  -2.412  -3.036  0.00  0.00     0.015 SA
ATOM      6  C4  UNL d   1       2.611  -3.021  -1.844  0.00  0.00     0.022 A 
ATOM      7  C5  UNL d   1       2.530  -2.188  -0.753  0.00  0.00     0.026 A 
ATOM      8  C6  UNL d   1       3.347  -1.015  -0.885  0.00  0.00    -0.082 A 
ATOM      9  C7  UNL d   1       3.544   0.075  -0.002  0.00  0.00     0.045 A 
ENDROOT
TORSDOF 0
ENDMDL
