MODEL 1
REMARK minimizedAffinity 5.83441544
REMARK minimizedRMSD -1
REMARK  0 active torsions:
REMARK  status: ('A' for Active; 'I' for Inactive)
ROOT
ATOM      1  C   UNL d   1       3.862  -0.688   0.114  0.00  0.00    -0.002 A 
ATOM      2  C1  UNL d   1       3.009   0.228  -0.487  0.00  0.00     0.010 A 
ATOM      3  C2  UNL d   1       1.770  -0.178  -0.986  0.00  0.00     0.041 A 
ATOM      4  C3  UNL d   1       1.397  -1.531  -0.868  0.00  0.00    -0.075 A 
ATOM      5  S   UNL d   1      -0.072  -2.256  -1.405  0.00  0.00     0.015 SA
ATOM      6  C4  UNL d   1       0.397  -3.797  -0.848  0.00  0.00     0.022 A 
ATOM      7  C5  UNL d   1       1.641  -3.777  -0.264  0.00  0.00     0.026 A 
ATOM      8  C6  UNL d   1       2.238  -2.471  -0.265  0.00  0.00    -0.082 A 
ATOM      9  C7  UNL d   1       3.489  -2.029   0.230  0.00  0.00     0.045 A 
ENDROOT
TORSDOF 0
ENDMDL
