MODEL 1
REMARK minimizedAffinity 17.4322777
REMARK minimizedRMSD -1
REMARK  0 active torsions:
REMARK  status: ('A' for Active; 'I' for Inactive)
ROOT
ATOM      1  C   UNL d   1       0.040   2.232   0.799  0.00  0.00    -0.002 A 
ATOM      2  C1  UNL d   1      -0.274   3.526   1.191  0.00  0.00     0.010 A 
ATOM      3  C2  UNL d   1      -1.547   3.832   1.676  0.00  0.00     0.041 A 
ATOM      4  C3  UNL d   1      -2.508   2.805   1.763  0.00  0.00    -0.075 A 
ATOM      5  S   UNL d   1      -4.131   2.946   2.327  0.00  0.00     0.015 SA
ATOM      6  C4  UNL d   1      -4.445   1.292   2.061  0.00  0.00     0.022 A 
ATOM      7  C5  UNL d   1      -3.350   0.633   1.555  0.00  0.00     0.026 A 
ATOM      8  C6  UNL d   1      -2.215   1.495   1.375  0.00  0.00    -0.082 A 
ATOM      9  C7  UNL d   1      -0.915   1.217   0.886  0.00  0.00     0.045 A 
ENDROOT
TORSDOF 0
ENDMDL
