MODEL 1
REMARK minimizedAffinity 4.43734217
REMARK minimizedRMSD -1
REMARK  0 active torsions:
REMARK  status: ('A' for Active; 'I' for Inactive)
ROOT
ATOM      1  N1  IND d   1      -2.065  -2.316  -2.931  0.00  0.00    -0.196 N 
ATOM      2  C2  IND d   1      -0.829  -2.800  -3.261  0.00  0.00     0.054 A 
ATOM      3  C3  IND d   1       0.038  -1.782  -3.455  0.00  0.00    -0.031 A 
ATOM      4  C4  IND d   1      -0.328   0.752  -3.186  0.00  0.00     0.051 A 
ATOM      5  C5  IND d   1      -1.300   1.680  -2.934  0.00  0.00    -0.031 A 
ATOM      6  C6  IND d   1      -2.602   1.315  -2.659  0.00  0.00     0.015 A 
ATOM      7  C7  IND d   1      -2.980   0.003  -2.616  0.00  0.00    -0.016 A 
ATOM      8  C8  IND d   1      -1.997  -0.941  -2.878  0.00  0.00    -0.047 A 
ATOM      9  C9  IND d   1      -0.684  -0.576  -3.199  0.00  0.00    -0.096 A 
ATOM     10  HN1 IND d   1      -2.766  -2.791  -2.781  0.00  0.00     0.298 HD
ENDROOT
TORSDOF 0
ENDMDL
