MODEL 1
REMARK minimizedAffinity 0.943740964
REMARK minimizedRMSD -1
REMARK  0 active torsions:
REMARK  status: ('A' for Active; 'I' for Inactive)
ROOT
ATOM      1  N1  IND d   1       1.208  -2.469  -5.166  0.00  0.00    -0.196 N 
ATOM      2  C2  IND d   1       0.732  -3.582  -5.800  0.00  0.00     0.054 A 
ATOM      3  C3  IND d   1      -0.605  -3.486  -5.980  0.00  0.00    -0.031 A 
ATOM      4  C4  IND d   1      -2.197  -1.548  -5.404  0.00  0.00     0.051 A 
ATOM      5  C5  IND d   1      -2.233  -0.332  -4.781  0.00  0.00    -0.031 A 
ATOM      6  C6  IND d   1      -1.100   0.247  -4.246  0.00  0.00     0.015 A 
ATOM      7  C7  IND d   1       0.118  -0.367  -4.324  0.00  0.00    -0.016 A 
ATOM      8  C8  IND d   1       0.157  -1.604  -4.950  0.00  0.00    -0.047 A 
ATOM      9  C9  IND d   1      -0.997  -2.216  -5.457  0.00  0.00    -0.096 A 
ATOM     10  HN1 IND d   1       2.026  -2.331  -4.939  0.00  0.00     0.298 HD
ENDROOT
TORSDOF 0
ENDMDL
