MODEL 1
REMARK minimizedAffinity 8.85183525
REMARK minimizedRMSD -1
REMARK  0 active torsions:
REMARK  status: ('A' for Active; 'I' for Inactive)
ROOT
ATOM      1  N1  IND d   1      -3.986   5.214  -4.858  0.00  0.00    -0.196 N 
ATOM      2  C2  IND d   1      -5.069   5.464  -5.654  0.00  0.00     0.054 A 
ATOM      3  C3  IND d   1      -6.000   4.496  -5.500  0.00  0.00    -0.031 A 
ATOM      4  C4  IND d   1      -6.000   2.464  -3.919  0.00  0.00     0.051 A 
ATOM      5  C5  IND d   1      -5.212   1.796  -3.024  0.00  0.00    -0.031 A 
ATOM      6  C6  IND d   1      -3.951   2.243  -2.686  0.00  0.00     0.015 A 
ATOM      7  C7  IND d   1      -3.433   3.387  -3.224  0.00  0.00    -0.016 A 
ATOM      8  C8  IND d   1      -4.227   4.065  -4.138  0.00  0.00    -0.047 A 
ATOM      9  C9  IND d   1      -5.491   3.592  -4.518  0.00  0.00    -0.096 A 
ATOM     10  HN1 IND d   1      -3.274   5.695  -4.814  0.00  0.00     0.298 HD
ENDROOT
TORSDOF 0
ENDMDL
