MODEL 1
REMARK minimizedAffinity 9.96975327
REMARK minimizedRMSD -1
REMARK  0 active torsions:
REMARK  status: ('A' for Active; 'I' for Inactive)
ROOT
ATOM      1  N1  IND d   1       1.876   2.683   0.749  0.00  0.00    -0.196 N 
ATOM      2  C2  IND d   1       0.727   1.953   0.879  0.00  0.00     0.054 A 
ATOM      3  C3  IND d   1      -0.324   2.635   0.372  0.00  0.00    -0.031 A 
ATOM      4  C4  IND d   1      -0.373   4.921  -0.811  0.00  0.00     0.051 A 
ATOM      5  C5  IND d   1       0.423   5.984  -1.135  0.00  0.00    -0.031 A 
ATOM      6  C6  IND d   1       1.772   6.000  -0.843  0.00  0.00     0.015 A 
ATOM      7  C7  IND d   1       2.380   4.944  -0.225  0.00  0.00    -0.016 A 
ATOM      8  C8  IND d   1       1.573   3.866   0.111  0.00  0.00    -0.047 A 
ATOM      9  C9  IND d   1       0.196   3.862  -0.144  0.00  0.00    -0.096 A 
ATOM     10  HN1 IND d   1       2.656   2.444   1.020  0.00  0.00     0.298 HD
ENDROOT
TORSDOF 0
ENDMDL
