MODEL 1
REMARK minimizedAffinity 5.63357162
REMARK minimizedRMSD -1
REMARK  0 active torsions:
REMARK  status: ('A' for Active; 'I' for Inactive)
ROOT
ATOM      1  N1  IND d   1       4.528  -4.778   0.006  0.00  0.00    -0.196 N 
ATOM      2  C2  IND d   1       4.035  -5.955  -0.485  0.00  0.00     0.054 A 
ATOM      3  C3  IND d   1       4.176  -6.000  -1.829  0.00  0.00    -0.031 A 
ATOM      4  C4  IND d   1       5.279  -4.298  -3.415  0.00  0.00     0.051 A 
ATOM      5  C5  IND d   1       5.841  -3.053  -3.437  0.00  0.00    -0.031 A 
ATOM      6  C6  IND d   1       6.000  -2.305  -2.288  0.00  0.00     0.015 A 
ATOM      7  C7  IND d   1       5.611  -2.781  -1.068  0.00  0.00    -0.016 A 
ATOM      8  C8  IND d   1       5.033  -4.043  -1.044  0.00  0.00    -0.047 A 
ATOM      9  C9  IND d   1       4.831  -4.789  -2.212  0.00  0.00    -0.096 A 
ATOM     10  HN1 IND d   1       4.523  -4.538   0.831  0.00  0.00     0.298 HD
ENDROOT
TORSDOF 0
ENDMDL
