MODEL 1
REMARK minimizedAffinity 9.91777992
REMARK minimizedRMSD -1
REMARK  0 active torsions:
REMARK  status: ('A' for Active; 'I' for Inactive)
ROOT
ATOM      1  N1  IND d   1       2.657   4.878  -0.898  0.00  0.00    -0.196 N 
ATOM      2  C2  IND d   1       2.216   5.940  -1.637  0.00  0.00     0.054 A 
ATOM      3  C3  IND d   1       0.865   5.999  -1.617  0.00  0.00    -0.031 A 
ATOM      4  C4  IND d   1      -0.818   4.516  -0.354  0.00  0.00     0.051 A 
ATOM      5  C5  IND d   1      -0.894   3.395   0.424  0.00  0.00    -0.031 A 
ATOM      6  C6  IND d   1       0.233   2.698   0.811  0.00  0.00     0.015 A 
ATOM      7  C7  IND d   1       1.484   3.105   0.442  0.00  0.00    -0.016 A 
ATOM      8  C8  IND d   1       1.564   4.239  -0.354  0.00  0.00    -0.047 A 
ATOM      9  C9  IND d   1       0.422   4.926  -0.785  0.00  0.00    -0.096 A 
ATOM     10  HN1 IND d   1       3.478   4.648  -0.791  0.00  0.00     0.298 HD
ENDROOT
TORSDOF 0
ENDMDL
