MODEL 1
REMARK minimizedAffinity 5.89447212
REMARK minimizedRMSD -1
REMARK  0 active torsions:
REMARK  status: ('A' for Active; 'I' for Inactive)
ROOT
ATOM      1  N1  IND d   1       3.059  -0.555  -1.013  0.00  0.00    -0.196 N 
ATOM      2  C2  IND d   1       2.535  -0.444   0.245  0.00  0.00     0.054 A 
ATOM      3  C3  IND d   1       3.061  -1.388   1.058  0.00  0.00    -0.031 A 
ATOM      4  C4  IND d   1       4.870  -3.151   0.562  0.00  0.00     0.051 A 
ATOM      5  C5  IND d   1       5.625  -3.663  -0.456  0.00  0.00    -0.031 A 
ATOM      6  C6  IND d   1       5.563  -3.153  -1.737  0.00  0.00     0.015 A 
ATOM      7  C7  IND d   1       4.750  -2.100  -2.046  0.00  0.00    -0.016 A 
ATOM      8  C8  IND d   1       3.977  -1.582  -1.017  0.00  0.00    -0.047 A 
ATOM      9  C9  IND d   1       4.004  -2.123   0.275  0.00  0.00    -0.096 A 
ATOM     10  HN1 IND d   1       2.851  -0.065  -1.688  0.00  0.00     0.298 HD
ENDROOT
TORSDOF 0
ENDMDL
