MODEL 1
REMARK minimizedAffinity 13.9039173
REMARK minimizedRMSD -1
REMARK  0 active torsions:
REMARK  status: ('A' for Active; 'I' for Inactive)
ROOT
ATOM      1  N1  IND d   1       3.414  -0.764  -0.729  0.00  0.00    -0.196 N 
ATOM      2  C2  IND d   1       2.253  -0.967  -0.036  0.00  0.00     0.054 A 
ATOM      3  C3  IND d   1       2.255  -2.192   0.536  0.00  0.00    -0.031 A 
ATOM      4  C4  IND d   1       4.100  -3.987   0.550  0.00  0.00     0.051 A 
ATOM      5  C5  IND d   1       5.329  -4.273   0.024  0.00  0.00    -0.031 A 
ATOM      6  C6  IND d   1       5.996  -3.385  -0.794  0.00  0.00     0.015 A 
ATOM      7  C7  IND d   1       5.463  -2.168  -1.109  0.00  0.00    -0.016 A 
ATOM      8  C8  IND d   1       4.212  -1.876  -0.582  0.00  0.00    -0.047 A 
ATOM      9  C9  IND d   1       3.511  -2.791   0.214  0.00  0.00    -0.096 A 
ATOM     10  HN1 IND d   1       3.612  -0.059  -1.181  0.00  0.00     0.298 HD
ENDROOT
TORSDOF 0
ENDMDL
