MODEL 1
REMARK minimizedAffinity 6.08066368
REMARK minimizedRMSD -1
REMARK  0 active torsions:
REMARK  status: ('A' for Active; 'I' for Inactive)
ROOT
ATOM      1  N1  IND d   1       4.498  -1.879  -1.234  0.00  0.00    -0.196 N 
ATOM      2  C2  IND d   1       3.441  -1.999  -0.375  0.00  0.00     0.054 A 
ATOM      3  C3  IND d   1       2.925  -3.247  -0.435  0.00  0.00    -0.031 A 
ATOM      4  C4  IND d   1       3.721  -5.282  -1.797  0.00  0.00     0.051 A 
ATOM      5  C5  IND d   1       4.625  -5.652  -2.752  0.00  0.00    -0.031 A 
ATOM      6  C6  IND d   1       5.554  -4.766  -3.259  0.00  0.00     0.015 A 
ATOM      7  C7  IND d   1       5.620  -3.474  -2.819  0.00  0.00    -0.016 A 
ATOM      8  C8  IND d   1       4.699  -3.093  -1.853  0.00  0.00    -0.047 A 
ATOM      9  C9  IND d   1       3.727  -3.976  -1.366  0.00  0.00    -0.096 A 
ATOM     10  HN1 IND d   1       4.960  -1.166  -1.366  0.00  0.00     0.298 HD
ENDROOT
TORSDOF 0
ENDMDL
