MODEL 1
REMARK minimizedAffinity 11.1113729
REMARK minimizedRMSD -1
REMARK  0 active torsions:
REMARK  status: ('A' for Active; 'I' for Inactive)
ROOT
ATOM      1  N1  IND d   1       0.692   1.397  -1.415  0.00  0.00    -0.196 N 
ATOM      2  C2  IND d   1      -0.321   2.055  -0.775  0.00  0.00     0.054 A 
ATOM      3  C3  IND d   1      -0.607   1.450   0.400  0.00  0.00    -0.031 A 
ATOM      4  C4  IND d   1       0.530  -0.571   1.518  0.00  0.00     0.051 A 
ATOM      5  C5  IND d   1       1.479  -1.530   1.300  0.00  0.00    -0.031 A 
ATOM      6  C6  IND d   1       2.232  -1.561   0.144  0.00  0.00     0.015 A 
ATOM      7  C7  IND d   1       2.070  -0.624  -0.837  0.00  0.00    -0.016 A 
ATOM      8  C8  IND d   1       1.102   0.347  -0.622  0.00  0.00    -0.047 A 
ATOM      9  C9  IND d   1       0.306   0.359   0.530  0.00  0.00    -0.096 A 
ATOM     10  HN1 IND d   1       1.018   1.603  -2.183  0.00  0.00     0.298 HD
ENDROOT
TORSDOF 0
ENDMDL
