MODEL 1
REMARK minimizedAffinity -1.99212682
REMARK minimizedRMSD -1
REMARK  0 active torsions:
REMARK  status: ('A' for Active; 'I' for Inactive)
ROOT
ATOM      1  C1  DEN d   1       0.039   5.999   5.999  0.00  0.00     0.130 A 
ATOM      2  C2  DEN d   1       1.028   5.525   5.035  0.00  0.00    -0.031 A 
ATOM      3  C3  DEN d   1       0.305   4.945   3.885  0.00  0.00     0.027 A 
ATOM      4  C4  DEN d   1      -2.238   4.743   3.504  0.00  0.00     0.027 A 
ATOM      5  C5  DEN d   1      -3.478   4.994   4.048  0.00  0.00    -0.003 A 
ATOM      6  C6  DEN d   1      -3.632   5.562   5.284  0.00  0.00     0.001 A 
ATOM      7  C7  DEN d   1      -2.526   5.940   6.000  0.00  0.00     0.017 A 
ATOM      8  C8  DEN d   1      -1.272   5.683   5.461  0.00  0.00    -0.094 A 
ATOM      9  C9  DEN d   1      -1.138   5.119   4.204  0.00  0.00    -0.072 A 
ENDROOT
TORSDOF 0
ENDMDL
