MODEL 1
REMARK minimizedAffinity 9.65522194
REMARK minimizedRMSD -1
REMARK  0 active torsions:
REMARK  status: ('A' for Active; 'I' for Inactive)
ROOT
ATOM      1  C1  DEN d   1      -2.839   3.823   3.791  0.00  0.00     0.130 A 
ATOM      2  C2  DEN d   1      -3.749   3.888   4.932  0.00  0.00    -0.031 A 
ATOM      3  C3  DEN d   1      -3.088   4.666   5.999  0.00  0.00     0.027 A 
ATOM      4  C4  DEN d   1      -0.759   5.774   5.995  0.00  0.00     0.027 A 
ATOM      5  C5  DEN d   1       0.385   5.980   5.255  0.00  0.00    -0.003 A 
ATOM      6  C6  DEN d   1       0.546   5.458   3.999  0.00  0.00     0.001 A 
ATOM      7  C7  DEN d   1      -0.470   4.740   3.427  0.00  0.00     0.017 A 
ATOM      8  C8  DEN d   1      -1.623   4.521   4.169  0.00  0.00    -0.094 A 
ATOM      9  C9  DEN d   1      -1.772   5.068   5.432  0.00  0.00    -0.072 A 
ENDROOT
TORSDOF 0
ENDMDL
