MODEL 1
REMARK minimizedAffinity 0.246235549
REMARK minimizedRMSD -1
REMARK  0 active torsions:
REMARK  status: ('A' for Active; 'I' for Inactive)
ROOT
ATOM      1  C1  DEN d   1      -1.825   5.218   3.735  0.00  0.00     0.130 A 
ATOM      2  C2  DEN d   1      -2.626   5.568   4.905  0.00  0.00    -0.031 A 
ATOM      3  C3  DEN d   1      -1.702   5.930   5.998  0.00  0.00     0.027 A 
ATOM      4  C4  DEN d   1       0.876   5.989   5.992  0.00  0.00     0.027 A 
ATOM      5  C5  DEN d   1       2.002   5.763   5.232  0.00  0.00    -0.003 A 
ATOM      6  C6  DEN d   1       1.933   5.311   3.941  0.00  0.00     0.001 A 
ATOM      7  C7  DEN d   1       0.710   5.113   3.355  0.00  0.00     0.017 A 
ATOM      8  C8  DEN d   1      -0.430   5.331   4.118  0.00  0.00    -0.094 A 
ATOM      9  C9  DEN d   1      -0.339   5.800   5.418  0.00  0.00    -0.072 A 
ENDROOT
TORSDOF 0
ENDMDL
