MODEL 1
REMARK minimizedAffinity 3.93286085
REMARK minimizedRMSD -1
REMARK  0 active torsions:
REMARK  status: ('A' for Active; 'I' for Inactive)
ROOT
ATOM      1  C1  DEN d   1      -1.831   4.897   3.809  0.00  0.00     0.130 A 
ATOM      2  C2  DEN d   1      -2.658   5.311   4.940  0.00  0.00    -0.031 A 
ATOM      3  C3  DEN d   1      -1.762   5.816   6.000  0.00  0.00     0.027 A 
ATOM      4  C4  DEN d   1       0.811   5.999   5.999  0.00  0.00     0.027 A 
ATOM      5  C5  DEN d   1       1.953   5.761   5.267  0.00  0.00    -0.003 A 
ATOM      6  C6  DEN d   1       1.917   5.192   4.022  0.00  0.00     0.001 A 
ATOM      7  C7  DEN d   1       0.710   4.883   3.452  0.00  0.00     0.017 A 
ATOM      8  C8  DEN d   1      -0.446   5.113   4.187  0.00  0.00    -0.094 A 
ATOM      9  C9  DEN d   1      -0.389   5.701   5.439  0.00  0.00    -0.072 A 
ENDROOT
TORSDOF 0
ENDMDL
