MODEL 1
REMARK minimizedAffinity 2.54231977
REMARK minimizedRMSD -1
REMARK  0 active torsions:
REMARK  status: ('A' for Active; 'I' for Inactive)
ROOT
ATOM      1  C1  DEN d   1      -2.865   5.238   3.717  0.00  0.00     0.130 A 
ATOM      2  C2  DEN d   1      -3.676   5.577   4.883  0.00  0.00    -0.031 A 
ATOM      3  C3  DEN d   1      -2.761   5.935   5.986  0.00  0.00     0.027 A 
ATOM      4  C4  DEN d   1      -0.183   6.000   6.000  0.00  0.00     0.027 A 
ATOM      5  C5  DEN d   1       0.949   5.782   5.247  0.00  0.00    -0.003 A 
ATOM      6  C6  DEN d   1       0.891   5.339   3.952  0.00  0.00     0.001 A 
ATOM      7  C7  DEN d   1      -0.327   5.142   3.356  0.00  0.00     0.017 A 
ATOM      8  C8  DEN d   1      -1.473   5.352   4.112  0.00  0.00    -0.094 A 
ATOM      9  C9  DEN d   1      -1.393   5.812   5.415  0.00  0.00    -0.072 A 
ENDROOT
TORSDOF 0
ENDMDL
