MODEL 1
REMARK minimizedAffinity 2.51567101
REMARK minimizedRMSD -1
REMARK  0 active torsions:
REMARK  status: ('A' for Active; 'I' for Inactive)
ROOT
ATOM      1  C1  DEN d   1       1.634   5.256   5.997  0.00  0.00     0.130 A 
ATOM      2  C2  DEN d   1       2.486   5.861   4.977  0.00  0.00    -0.031 A 
ATOM      3  C3  DEN d   1       1.697   5.979   3.734  0.00  0.00     0.027 A 
ATOM      4  C4  DEN d   1      -0.750   5.292   3.295  0.00  0.00     0.027 A 
ATOM      5  C5  DEN d   1      -1.874   4.725   3.853  0.00  0.00    -0.003 A 
ATOM      6  C6  DEN d   1      -1.897   4.268   5.144  0.00  0.00     0.001 A 
ATOM      7  C7  DEN d   1      -0.788   4.412   5.935  0.00  0.00     0.017 A 
ATOM      8  C8  DEN d   1       0.352   4.975   5.376  0.00  0.00    -0.094 A 
ATOM      9  C9  DEN d   1       0.352   5.442   4.073  0.00  0.00    -0.072 A 
ENDROOT
TORSDOF 0
ENDMDL
