MODEL 1
REMARK minimizedAffinity 2.24521112
REMARK minimizedRMSD -1
REMARK  3 active torsions:
REMARK  status: ('A' for Active; 'I' for Inactive)
REMARK    1  A    between atoms: C3'_2  and  C2'_3 
REMARK    2  A    between atoms: C2'_3  and  C1'_4 
REMARK    3  A    between atoms: C1'_4  and  C1_5 
ROOT
ATOM      1  C1  N4B d   1       3.103   4.689  -5.182  0.00  0.00    -0.075 A 
ATOM      2  C2  N4B d   1       2.538   5.664  -4.331  0.00  0.00     0.002 A 
ATOM      3  C3  N4B d   1       1.182   5.879  -4.339  0.00  0.00     0.002 A 
ATOM      4  C4  N4B d   1       0.376   5.149  -5.199  0.00  0.00    -0.004 A 
ATOM      5  C5  N4B d   1       0.927   4.191  -6.000  0.00  0.00     0.002 A 
ATOM      6  C6  N4B d   1       2.288   3.961  -5.999  0.00  0.00     0.002 A 
ENDROOT
BRANCH   1   7
ATOM      7  C1' N4B d   1       4.590   4.477  -5.271  0.00  0.00     0.057 C 
BRANCH   7   8
ATOM      8  C2' N4B d   1       4.865   3.119  -5.909  0.00  0.00     0.009 C 
BRANCH   8   9
ATOM      9  C3' N4B d   1       4.521   1.972  -4.975  0.00  0.00     0.004 C 
ATOM     10  C4' N4B d   1       3.612   0.960  -5.608  0.00  0.00     0.003 C 
ENDBRANCH   8   9
ENDBRANCH   7   8
ENDBRANCH   1   7
TORSDOF 3
ENDMDL
