MODEL 1
REMARK minimizedAffinity -0.439611614
REMARK minimizedRMSD -1
REMARK  3 active torsions:
REMARK  status: ('A' for Active; 'I' for Inactive)
REMARK    1  A    between atoms: C3'_2  and  C2'_3 
REMARK    2  A    between atoms: C2'_3  and  C1'_4 
REMARK    3  A    between atoms: C1'_4  and  C1_5 
ROOT
ATOM      1  C1  N4B d   1       3.366   3.358  -4.944  0.00  0.00    -0.075 A 
ATOM      2  C2  N4B d   1       3.933   4.557  -5.429  0.00  0.00     0.002 A 
ATOM      3  C3  N4B d   1       5.237   4.574  -5.860  0.00  0.00     0.002 A 
ATOM      4  C4  N4B d   1       5.995   3.414  -5.799  0.00  0.00    -0.004 A 
ATOM      5  C5  N4B d   1       5.432   2.254  -5.353  0.00  0.00     0.002 A 
ATOM      6  C6  N4B d   1       4.121   2.222  -4.920  0.00  0.00     0.002 A 
ENDROOT
BRANCH   1   7
ATOM      7  C1' N4B d   1       1.971   3.310  -4.381  0.00  0.00     0.057 C 
BRANCH   7   8
ATOM      8  C2' N4B d   1       1.301   4.665  -4.588  0.00  0.00     0.009 C 
BRANCH   8   9
ATOM      9  C3' N4B d   1       0.508   4.715  -5.883  0.00  0.00     0.004 C 
ATOM     10  C4' N4B d   1      -0.351   5.940  -5.990  0.00  0.00     0.003 C 
ENDBRANCH   8   9
ENDBRANCH   7   8
ENDBRANCH   1   7
TORSDOF 3
ENDMDL
