MODEL 1
REMARK minimizedAffinity 1.2901957
REMARK minimizedRMSD -1
REMARK  3 active torsions:
REMARK  status: ('A' for Active; 'I' for Inactive)
REMARK    1  A    between atoms: C3'_2  and  C2'_3 
REMARK    2  A    between atoms: C2'_3  and  C1'_4 
REMARK    3  A    between atoms: C1'_4  and  C1_5 
ROOT
ATOM      1  C1  N4B d   1       2.839   3.423  -5.979  0.00  0.00    -0.075 A 
ATOM      2  C2  N4B d   1       3.366   4.733  -5.990  0.00  0.00     0.002 A 
ATOM      3  C3  N4B d   1       4.725   4.927  -5.998  0.00  0.00     0.002 A 
ATOM      4  C4  N4B d   1       5.574   3.830  -5.977  0.00  0.00    -0.004 A 
ATOM      5  C5  N4B d   1       5.058   2.568  -5.993  0.00  0.00     0.002 A 
ATOM      6  C6  N4B d   1       3.693   2.358  -5.988  0.00  0.00     0.002 A 
ENDROOT
BRANCH   1   7
ATOM      7  C1' N4B d   1       1.361   3.162  -5.884  0.00  0.00     0.057 C 
BRANCH   7   8
ATOM      8  C2' N4B d   1       0.624   4.492  -5.760  0.00  0.00     0.009 C 
BRANCH   8   9
ATOM      9  C3' N4B d   1       0.651   5.026  -4.338  0.00  0.00     0.004 C 
ATOM     10  C4' N4B d   1       0.689   3.936  -3.309  0.00  0.00     0.003 C 
ENDBRANCH   8   9
ENDBRANCH   7   8
ENDBRANCH   1   7
TORSDOF 3
ENDMDL
