MODEL 1
REMARK minimizedAffinity -1.02862906
REMARK minimizedRMSD -1
REMARK  3 active torsions:
REMARK  status: ('A' for Active; 'I' for Inactive)
REMARK    1  A    between atoms: C3'_2  and  C2'_3 
REMARK    2  A    between atoms: C2'_3  and  C1'_4 
REMARK    3  A    between atoms: C1'_4  and  C1_5 
ROOT
ATOM      1  C1  N4B d   1       3.526   3.584  -4.722  0.00  0.00    -0.075 A 
ATOM      2  C2  N4B d   1       3.983   4.881  -5.045  0.00  0.00     0.002 A 
ATOM      3  C3  N4B d   1       5.204   5.046  -5.652  0.00  0.00     0.002 A 
ATOM      4  C4  N4B d   1       5.990   3.937  -5.927  0.00  0.00    -0.004 A 
ATOM      5  C5  N4B d   1       5.530   2.687  -5.634  0.00  0.00     0.002 A 
ATOM      6  C6  N4B d   1       4.303   2.505  -5.028  0.00  0.00     0.002 A 
ENDROOT
BRANCH   1   7
ATOM      7  C1' N4B d   1       2.236   3.359  -3.981  0.00  0.00     0.057 C 
BRANCH   7   8
ATOM      8  C2' N4B d   1       1.256   4.474  -4.332  0.00  0.00     0.009 C 
BRANCH   8   9
ATOM      9  C3' N4B d   1       0.623   4.265  -5.697  0.00  0.00     0.004 C 
ATOM     10  C4' N4B d   1      -0.460   5.259  -5.993  0.00  0.00     0.003 C 
ENDBRANCH   8   9
ENDBRANCH   7   8
ENDBRANCH   1   7
TORSDOF 3
ENDMDL
