MODEL 1
REMARK minimizedAffinity -0.167360947
REMARK minimizedRMSD -1
REMARK  3 active torsions:
REMARK  status: ('A' for Active; 'I' for Inactive)
REMARK    1  A    between atoms: C3'_2  and  C2'_3 
REMARK    2  A    between atoms: C2'_3  and  C1'_4 
REMARK    3  A    between atoms: C1'_4  and  C1_5 
ROOT
ATOM      1  C1  N4B d   1       2.560   3.466  -5.800  0.00  0.00    -0.075 A 
ATOM      2  C2  N4B d   1       1.154   3.335  -5.818  0.00  0.00     0.002 A 
ATOM      3  C3  N4B d   1       0.362   4.452  -5.917  0.00  0.00     0.002 A 
ATOM      4  C4  N4B d   1       0.950   5.707  -5.979  0.00  0.00    -0.004 A 
ATOM      5  C5  N4B d   1       2.309   5.823  -5.986  0.00  0.00     0.002 A 
ATOM      6  C6  N4B d   1       3.118   4.708  -5.891  0.00  0.00     0.002 A 
ENDROOT
BRANCH   1   7
ATOM      7  C1' N4B d   1       3.466   2.281  -5.607  0.00  0.00     0.057 C 
BRANCH   7   8
ATOM      8  C2' N4B d   1       4.542   2.633  -4.584  0.00  0.00     0.009 C 
BRANCH   8   9
ATOM      9  C3' N4B d   1       5.900   2.835  -5.233  0.00  0.00     0.004 C 
ATOM     10  C4' N4B d   1       5.994   4.122  -5.996  0.00  0.00     0.003 C 
ENDBRANCH   8   9
ENDBRANCH   7   8
ENDBRANCH   1   7
TORSDOF 3
ENDMDL
