MODEL 1
REMARK minimizedAffinity 1.25228703
REMARK minimizedRMSD -1
REMARK  3 active torsions:
REMARK  status: ('A' for Active; 'I' for Inactive)
REMARK    1  A    between atoms: C3'_2  and  C2'_3 
REMARK    2  A    between atoms: C2'_3  and  C1'_4 
REMARK    3  A    between atoms: C1'_4  and  C1_5 
ROOT
ATOM      1  C1  N4B d   1       3.753   4.139  -5.669  0.00  0.00    -0.075 A 
ATOM      2  C2  N4B d   1       3.616   5.424  -5.100  0.00  0.00     0.002 A 
ATOM      3  C3  N4B d   1       2.366   5.953  -4.891  0.00  0.00     0.002 A 
ATOM      4  C4  N4B d   1       1.243   5.226  -5.260  0.00  0.00    -0.004 A 
ATOM      5  C5  N4B d   1       1.384   3.975  -5.785  0.00  0.00     0.002 A 
ATOM      6  C6  N4B d   1       2.634   3.430  -5.997  0.00  0.00     0.002 A 
ENDROOT
BRANCH   1   7
ATOM      7  C1' N4B d   1       5.100   3.554  -5.995  0.00  0.00     0.057 C 
BRANCH   7   8
ATOM      8  C2' N4B d   1       5.112   2.078  -5.610  0.00  0.00     0.009 C 
BRANCH   8   9
ATOM      9  C3' N4B d   1       4.159   1.782  -4.464  0.00  0.00     0.004 C 
ATOM     10  C4' N4B d   1       4.529   0.541  -3.707  0.00  0.00     0.003 C 
ENDBRANCH   8   9
ENDBRANCH   7   8
ENDBRANCH   1   7
TORSDOF 3
ENDMDL
