MODEL 1
REMARK minimizedAffinity -2.27418637
REMARK minimizedRMSD -1
REMARK  3 active torsions:
REMARK  status: ('A' for Active; 'I' for Inactive)
REMARK    1  A    between atoms: C3'_2  and  C2'_3 
REMARK    2  A    between atoms: C2'_3  and  C1'_4 
REMARK    3  A    between atoms: C1'_4  and  C1_5 
ROOT
ATOM      1  C1  N4B d   1       2.887   4.814  -5.672  0.00  0.00    -0.075 A 
ATOM      2  C2  N4B d   1       2.172   5.999  -5.390  0.00  0.00     0.002 A 
ATOM      3  C3  N4B d   1       0.799   5.996  -5.423  0.00  0.00     0.002 A 
ATOM      4  C4  N4B d   1       0.123   4.831  -5.752  0.00  0.00    -0.004 A 
ATOM      5  C5  N4B d   1       0.820   3.685  -5.998  0.00  0.00     0.002 A 
ATOM      6  C6  N4B d   1       2.200   3.672  -5.965  0.00  0.00     0.002 A 
ENDROOT
BRANCH   1   7
ATOM      7  C1' N4B d   1       4.390   4.789  -5.733  0.00  0.00     0.057 C 
BRANCH   7   8
ATOM      8  C2' N4B d   1       4.882   3.388  -5.383  0.00  0.00     0.009 C 
BRANCH   8   9
ATOM      9  C3' N4B d   1       4.073   2.767  -4.257  0.00  0.00     0.004 C 
ATOM     10  C4' N4B d   1       4.148   1.269  -4.246  0.00  0.00     0.003 C 
ENDBRANCH   8   9
ENDBRANCH   7   8
ENDBRANCH   1   7
TORSDOF 3
ENDMDL
