MODEL 1
REMARK minimizedAffinity 3.79109669
REMARK minimizedRMSD -1
REMARK  3 active torsions:
REMARK  status: ('A' for Active; 'I' for Inactive)
REMARK    1  A    between atoms: C3'_2  and  C2'_3 
REMARK    2  A    between atoms: C2'_3  and  C1'_4 
REMARK    3  A    between atoms: C1'_4  and  C1_5 
ROOT
ATOM      1  C1  N4B d   1       2.933   4.217  -5.054  0.00  0.00    -0.075 A 
ATOM      2  C2  N4B d   1       2.994   2.815  -4.889  0.00  0.00     0.002 A 
ATOM      3  C3  N4B d   1       4.121   2.128  -5.267  0.00  0.00     0.002 A 
ATOM      4  C4  N4B d   1       5.188   2.815  -5.827  0.00  0.00    -0.004 A 
ATOM      5  C5  N4B d   1       5.131   4.172  -5.959  0.00  0.00     0.002 A 
ATOM      6  C6  N4B d   1       4.006   4.876  -5.580  0.00  0.00     0.002 A 
ENDROOT
BRANCH   1   7
ATOM      7  C1' N4B d   1       1.689   5.000  -4.735  0.00  0.00     0.057 C 
BRANCH   7   8
ATOM      8  C2' N4B d   1       0.483   4.067  -4.783  0.00  0.00     0.009 C 
BRANCH   8   9
ATOM      9  C3' N4B d   1      -0.390   4.329  -5.998  0.00  0.00     0.004 C 
ATOM     10  C4' N4B d   1      -0.986   5.705  -5.999  0.00  0.00     0.003 C 
ENDBRANCH   8   9
ENDBRANCH   7   8
ENDBRANCH   1   7
TORSDOF 3
ENDMDL
