MODEL 1
REMARK minimizedAffinity 0.14795889
REMARK minimizedRMSD -1
REMARK  3 active torsions:
REMARK  status: ('A' for Active; 'I' for Inactive)
REMARK    1  A    between atoms: C3'_2  and  C2'_3 
REMARK    2  A    between atoms: C2'_3  and  C1'_4 
REMARK    3  A    between atoms: C1'_4  and  C1_5 
ROOT
ATOM      1  C1  N4B d   1       3.370   4.219  -5.998  0.00  0.00    -0.075 A 
ATOM      2  C2  N4B d   1       2.303   3.296  -5.931  0.00  0.00     0.002 A 
ATOM      3  C3  N4B d   1       1.009   3.748  -5.851  0.00  0.00     0.002 A 
ATOM      4  C4  N4B d   1       0.759   5.111  -5.818  0.00  0.00    -0.004 A 
ATOM      5  C5  N4B d   1       1.793   5.996  -5.909  0.00  0.00     0.002 A 
ATOM      6  C6  N4B d   1       3.099   5.557  -5.994  0.00  0.00     0.002 A 
ENDROOT
BRANCH   1   7
ATOM      7  C1' N4B d   1       4.807   3.773  -6.000  0.00  0.00     0.057 C 
BRANCH   7   8
ATOM      8  C2' N4B d   1       4.858   2.248  -5.986  0.00  0.00     0.009 C 
BRANCH   8   9
ATOM      9  C3' N4B d   1       4.095   1.665  -4.809  0.00  0.00     0.004 C 
ATOM     10  C4' N4B d   1       3.341   0.419  -5.166  0.00  0.00     0.003 C 
ENDBRANCH   8   9
ENDBRANCH   7   8
ENDBRANCH   1   7
TORSDOF 3
ENDMDL
