MODEL 1
REMARK minimizedAffinity -0.777730048
REMARK minimizedRMSD -1
REMARK  3 active torsions:
REMARK  status: ('A' for Active; 'I' for Inactive)
REMARK    1  A    between atoms: C3'_2  and  C2'_3 
REMARK    2  A    between atoms: C2'_3  and  C1'_4 
REMARK    3  A    between atoms: C1'_4  and  C1_5 
ROOT
ATOM      1  C1  N4B d   1       3.254   4.240  -5.686  0.00  0.00    -0.075 A 
ATOM      2  C2  N4B d   1       2.927   5.592  -5.446  0.00  0.00     0.002 A 
ATOM      3  C3  N4B d   1       1.616   5.999  -5.492  0.00  0.00     0.002 A 
ATOM      4  C4  N4B d   1       0.622   5.080  -5.793  0.00  0.00    -0.004 A 
ATOM      5  C5  N4B d   1       0.944   3.771  -5.998  0.00  0.00     0.002 A 
ATOM      6  C6  N4B d   1       2.257   3.346  -5.952  0.00  0.00     0.002 A 
ENDROOT
BRANCH   1   7
ATOM      7  C1' N4B d   1       4.681   3.765  -5.732  0.00  0.00     0.057 C 
BRANCH   7   8
ATOM      8  C2' N4B d   1       4.699   2.256  -5.958  0.00  0.00     0.009 C 
BRANCH   8   9
ATOM      9  C3' N4B d   1       4.205   1.493  -4.741  0.00  0.00     0.004 C 
ATOM     10  C4' N4B d   1       3.345   0.318  -5.101  0.00  0.00     0.003 C 
ENDBRANCH   8   9
ENDBRANCH   7   8
ENDBRANCH   1   7
TORSDOF 3
ENDMDL
