MODEL 1
REMARK minimizedAffinity 1.99626541
REMARK minimizedRMSD -1
REMARK  3 active torsions:
REMARK  status: ('A' for Active; 'I' for Inactive)
REMARK    1  A    between atoms: C3'_2  and  C2'_3 
REMARK    2  A    between atoms: C2'_3  and  C1'_4 
REMARK    3  A    between atoms: C1'_4  and  C1_5 
ROOT
ATOM      1  C1  N4B d   1       3.644   3.747  -5.711  0.00  0.00    -0.075 A 
ATOM      2  C2  N4B d   1       4.963   3.284  -5.913  0.00  0.00     0.002 A 
ATOM      3  C3  N4B d   1       6.000   4.181  -5.999  0.00  0.00     0.002 A 
ATOM      4  C4  N4B d   1       5.741   5.540  -5.906  0.00  0.00    -0.004 A 
ATOM      5  C5  N4B d   1       4.467   5.977  -5.685  0.00  0.00     0.002 A 
ATOM      6  C6  N4B d   1       3.416   5.087  -5.593  0.00  0.00     0.002 A 
ENDROOT
BRANCH   1   7
ATOM      7  C1' N4B d   1       2.468   2.810  -5.696  0.00  0.00     0.057 C 
BRANCH   7   8
ATOM      8  C2' N4B d   1       2.911   1.458  -5.145  0.00  0.00     0.009 C 
BRANCH   8   9
ATOM      9  C3' N4B d   1       3.852   1.608  -3.962  0.00  0.00     0.004 C 
ATOM     10  C4' N4B d   1       4.630   0.358  -3.677  0.00  0.00     0.003 C 
ENDBRANCH   8   9
ENDBRANCH   7   8
ENDBRANCH   1   7
TORSDOF 3
ENDMDL
