MODEL 1
REMARK minimizedAffinity 1.54199195
REMARK minimizedRMSD -1
REMARK  3 active torsions:
REMARK  status: ('A' for Active; 'I' for Inactive)
REMARK    1  A    between atoms: C3'_2  and  C2'_3 
REMARK    2  A    between atoms: C2'_3  and  C1'_4 
REMARK    3  A    between atoms: C1'_4  and  C1_5 
ROOT
ATOM      1  C1  N4B d   1       3.643   4.497  -5.940  0.00  0.00    -0.075 A 
ATOM      2  C2  N4B d   1       5.054   4.447  -5.978  0.00  0.00     0.002 A 
ATOM      3  C3  N4B d   1       5.698   3.234  -5.969  0.00  0.00     0.002 A 
ATOM      4  C4  N4B d   1       4.957   2.064  -5.904  0.00  0.00    -0.004 A 
ATOM      5  C5  N4B d   1       3.594   2.120  -5.894  0.00  0.00     0.002 A 
ATOM      6  C6  N4B d   1       2.933   3.332  -5.906  0.00  0.00     0.002 A 
ENDROOT
BRANCH   1   7
ATOM      7  C1' N4B d   1       2.897   5.801  -5.862  0.00  0.00     0.057 C 
BRANCH   7   8
ATOM      8  C2' N4B d   1       2.134   5.862  -4.541  0.00  0.00     0.009 C 
BRANCH   8   9
ATOM      9  C3' N4B d   1       0.815   5.112  -4.612  0.00  0.00     0.004 C 
ATOM     10  C4' N4B d   1       0.488   4.642  -5.998  0.00  0.00     0.003 C 
ENDBRANCH   8   9
ENDBRANCH   7   8
ENDBRANCH   1   7
TORSDOF 3
ENDMDL
