MODEL 1
REMARK minimizedAffinity 2.85384274
REMARK minimizedRMSD -1
REMARK  3 active torsions:
REMARK  status: ('A' for Active; 'I' for Inactive)
REMARK    1  A    between atoms: C3'_2  and  C2'_3 
REMARK    2  A    between atoms: C2'_3  and  C1'_4 
REMARK    3  A    between atoms: C1'_4  and  C1_5 
ROOT
ATOM      1  C1  N4B d   1       3.151   4.438  -5.320  0.00  0.00    -0.075 A 
ATOM      2  C2  N4B d   1       2.941   5.295  -4.218  0.00  0.00     0.002 A 
ATOM      3  C3  N4B d   1       1.663   5.634  -3.845  0.00  0.00     0.002 A 
ATOM      4  C4  N4B d   1       0.586   5.146  -4.569  0.00  0.00    -0.004 A 
ATOM      5  C5  N4B d   1       0.797   4.298  -5.617  0.00  0.00     0.002 A 
ATOM      6  C6  N4B d   1       2.075   3.946  -6.000  0.00  0.00     0.002 A 
ENDROOT
BRANCH   1   7
ATOM      7  C1' N4B d   1       4.532   4.108  -5.817  0.00  0.00     0.057 C 
BRANCH   7   8
ATOM      8  C2' N4B d   1       4.651   2.598  -5.999  0.00  0.00     0.009 C 
BRANCH   8   9
ATOM      9  C3' N4B d   1       3.966   1.835  -4.879  0.00  0.00     0.004 C 
ATOM     10  C4' N4B d   1       3.355   0.546  -5.343  0.00  0.00     0.003 C 
ENDBRANCH   8   9
ENDBRANCH   7   8
ENDBRANCH   1   7
TORSDOF 3
ENDMDL
