MODEL 1
REMARK minimizedAffinity 6.6380372
REMARK minimizedRMSD -1
REMARK  0 active torsions:
REMARK  status: ('A' for Active; 'I' for Inactive)
ROOT
ATOM      1  C   UNL d   1       3.814  -5.079  -4.068  0.00  0.00     0.078 C 
ATOM      2  C1  UNL d   1       4.502  -4.898  -2.748  0.00  0.00    -0.077 A 
ATOM      3  C2  UNL d   1       4.815  -5.999  -1.941  0.00  0.00    -0.001 A 
ATOM      4  C3  UNL d   1       5.448  -5.815  -0.711  0.00  0.00     0.003 A 
ATOM      5  C4  UNL d   1       5.772  -4.531  -0.276  0.00  0.00    -0.005 A 
ATOM      6  C5  UNL d   1       5.462  -3.430  -1.071  0.00  0.00     0.003 A 
ATOM      7  C6  UNL d   1       4.830  -3.612  -2.302  0.00  0.00    -0.001 A 
ENDROOT
TORSDOF 0
ENDMDL
