MODEL 1
REMARK minimizedAffinity 2.1080246
REMARK minimizedRMSD -1
REMARK  0 active torsions:
REMARK  status: ('A' for Active; 'I' for Inactive)
ROOT
ATOM      1  C   UNL d   1      -2.685   3.752  -2.262  0.00  0.00     0.078 C 
ATOM      2  C1  UNL d   1      -3.847   2.969  -2.796  0.00  0.00    -0.077 A 
ATOM      3  C2  UNL d   1      -4.929   2.633  -1.974  0.00  0.00    -0.001 A 
ATOM      4  C3  UNL d   1      -6.000   1.896  -2.482  0.00  0.00     0.003 A 
ATOM      5  C4  UNL d   1      -5.998   1.488  -3.814  0.00  0.00    -0.005 A 
ATOM      6  C5  UNL d   1      -4.925   1.816  -4.640  0.00  0.00     0.003 A 
ATOM      7  C6  UNL d   1      -3.853   2.553  -4.133  0.00  0.00    -0.001 A 
ENDROOT
TORSDOF 0
ENDMDL
