MODEL 1
REMARK minimizedAffinity 4.14418459
REMARK minimizedRMSD -1
REMARK  0 active torsions:
REMARK  status: ('A' for Active; 'I' for Inactive)
ROOT
ATOM      1  C   UNL d   1       0.947  -0.171  -1.608  0.00  0.00     0.078 C 
ATOM      2  C1  UNL d   1       0.646  -1.640  -1.630  0.00  0.00    -0.077 A 
ATOM      3  C2  UNL d   1       1.142  -2.492  -0.636  0.00  0.00    -0.001 A 
ATOM      4  C3  UNL d   1       0.862  -3.859  -0.674  0.00  0.00     0.003 A 
ATOM      5  C4  UNL d   1       0.086  -4.386  -1.704  0.00  0.00    -0.005 A 
ATOM      6  C5  UNL d   1      -0.410  -3.546  -2.699  0.00  0.00     0.003 A 
ATOM      7  C6  UNL d   1      -0.131  -2.179  -2.663  0.00  0.00    -0.001 A 
ENDROOT
TORSDOF 0
ENDMDL
