MODEL 1
REMARK minimizedAffinity 1.93683147
REMARK minimizedRMSD -1
REMARK  0 active torsions:
REMARK  status: ('A' for Active; 'I' for Inactive)
ROOT
ATOM      1  C   UNL d   1      -0.016   2.368   0.214  0.00  0.00     0.078 C 
ATOM      2  C1  UNL d   1      -0.182   3.614  -0.604  0.00  0.00    -0.077 A 
ATOM      3  C2  UNL d   1      -1.428   3.965  -1.139  0.00  0.00    -0.001 A 
ATOM      4  C3  UNL d   1      -1.566   5.122  -1.906  0.00  0.00     0.003 A 
ATOM      5  C4  UNL d   1      -0.463   5.938  -2.148  0.00  0.00    -0.005 A 
ATOM      6  C5  UNL d   1       0.782   5.596  -1.622  0.00  0.00     0.003 A 
ATOM      7  C6  UNL d   1       0.922   4.439  -0.854  0.00  0.00    -0.001 A 
ENDROOT
TORSDOF 0
ENDMDL
