MODEL 1
REMARK minimizedAffinity -1.86353135
REMARK minimizedRMSD -1
REMARK  0 active torsions:
REMARK  status: ('A' for Active; 'I' for Inactive)
ROOT
ATOM      1  C   UNL d   1      -5.862   2.036  -2.503  0.00  0.00     0.078 C 
ATOM      2  C1  UNL d   1      -5.207   2.619  -3.720  0.00  0.00    -0.077 A 
ATOM      3  C2  UNL d   1      -3.821   2.810  -3.770  0.00  0.00    -0.001 A 
ATOM      4  C3  UNL d   1      -3.226   3.363  -4.906  0.00  0.00     0.003 A 
ATOM      5  C4  UNL d   1      -4.009   3.729  -5.998  0.00  0.00    -0.005 A 
ATOM      6  C5  UNL d   1      -5.390   3.544  -5.956  0.00  0.00     0.003 A 
ATOM      7  C6  UNL d   1      -5.987   2.992  -4.822  0.00  0.00    -0.001 A 
ENDROOT
TORSDOF 0
ENDMDL
