MODEL 1
REMARK minimizedAffinity -0.0386986844
REMARK minimizedRMSD -1
REMARK  0 active torsions:
REMARK  status: ('A' for Active; 'I' for Inactive)
ROOT
ATOM      1  C   UNL d   1      -5.998   2.257  -1.742  0.00  0.00     0.078 C 
ATOM      2  C1  UNL d   1      -5.298   2.653  -3.007  0.00  0.00    -0.077 A 
ATOM      3  C2  UNL d   1      -3.941   2.367  -3.200  0.00  0.00    -0.001 A 
ATOM      4  C3  UNL d   1      -3.299   2.750  -4.379  0.00  0.00     0.003 A 
ATOM      5  C4  UNL d   1      -4.006   3.423  -5.373  0.00  0.00    -0.005 A 
ATOM      6  C5  UNL d   1      -5.357   3.713  -5.190  0.00  0.00     0.003 A 
ATOM      7  C6  UNL d   1      -6.000   3.331  -4.012  0.00  0.00    -0.001 A 
ENDROOT
TORSDOF 0
ENDMDL
