MODEL 1
REMARK minimizedAffinity -1.17677486
REMARK minimizedRMSD -1
REMARK  0 active torsions:
REMARK  status: ('A' for Active; 'I' for Inactive)
ROOT
ATOM      1  C   UNL d   1       0.097   2.580   2.122  0.00  0.00     0.078 C 
ATOM      2  C1  UNL d   1      -0.102   3.779   1.242  0.00  0.00    -0.077 A 
ATOM      3  C2  UNL d   1      -0.870   4.868   1.671  0.00  0.00    -0.001 A 
ATOM      4  C3  UNL d   1      -1.054   5.973   0.838  0.00  0.00     0.003 A 
ATOM      5  C4  UNL d   1      -0.475   5.998  -0.429  0.00  0.00    -0.005 A 
ATOM      6  C5  UNL d   1       0.289   4.917  -0.865  0.00  0.00     0.003 A 
ATOM      7  C6  UNL d   1       0.474   3.812  -0.034  0.00  0.00    -0.001 A 
ENDROOT
TORSDOF 0
ENDMDL
