MODEL 1
REMARK minimizedAffinity 8.16344929
REMARK minimizedRMSD -1
REMARK  1 active torsions:
REMARK  status: ('A' for Active; 'I' for Inactive)
REMARK    1  A    between atoms: C1_2  and  C2_3 
ROOT
ATOM      1  C2  UNL d   1       2.257   2.346   0.151  0.00  0.00    -0.076 A 
ATOM      2  C3  UNL d   1       3.091   2.235  -0.974  0.00  0.00     0.004 A 
ATOM      3  C4  UNL d   1       3.453   0.987  -1.479  0.00  0.00    -0.003 A 
ATOM      4  C5  UNL d   1       2.986  -0.171  -0.866  0.00  0.00     0.000 A 
ATOM      5  C6  UNL d   1       2.143  -0.079   0.241  0.00  0.00     0.000 A 
ATOM      6  C7  UNL d   1       1.755   1.171   0.752  0.00  0.00    -0.073 A 
ATOM      7  C8  UNL d   1       0.849   1.211   1.952  0.00  0.00     0.078 C 
ENDROOT
BRANCH   1   8
ATOM      8  C1  UNL d   1       1.920   3.725   0.670  0.00  0.00     0.053 C 
ATOM      9  C   UNL d   1       3.140   4.628   0.759  0.00  0.00     0.018 C 
ENDBRANCH   1   8
TORSDOF 1
ENDMDL
