MODEL 1
REMARK minimizedAffinity 13.6602879
REMARK minimizedRMSD -1
REMARK  1 active torsions:
REMARK  status: ('A' for Active; 'I' for Inactive)
REMARK    1  A    between atoms: C1_2  and  C2_3 
ROOT
ATOM      1  C2  UNL d   1      -2.604  -3.845   0.006  0.00  0.00    -0.076 A 
ATOM      2  C3  UNL d   1      -3.394  -5.001   0.131  0.00  0.00     0.004 A 
ATOM      3  C4  UNL d   1      -3.068  -5.997   1.050  0.00  0.00    -0.003 A 
ATOM      4  C5  UNL d   1      -1.947  -5.853   1.859  0.00  0.00     0.000 A 
ATOM      5  C6  UNL d   1      -1.162  -4.705   1.761  0.00  0.00     0.000 A 
ATOM      6  C7  UNL d   1      -1.486  -3.684   0.852  0.00  0.00    -0.073 A 
ATOM      7  C8  UNL d   1      -0.600  -2.470   0.784  0.00  0.00     0.078 C 
ENDROOT
BRANCH   1   8
ATOM      8  C1  UNL d   1      -2.991  -2.812  -1.027  0.00  0.00     0.053 C 
ATOM      9  C   UNL d   1      -2.976  -3.368  -2.443  0.00  0.00     0.018 C 
ENDBRANCH   1   8
TORSDOF 1
ENDMDL
