MODEL 1
REMARK minimizedAffinity 22.9647541
REMARK minimizedRMSD -1
REMARK  1 active torsions:
REMARK  status: ('A' for Active; 'I' for Inactive)
REMARK    1  A    between atoms: C1_2  and  C2_3 
ROOT
ATOM      1  C2  UNL d   1      -1.931  -3.790   0.179  0.00  0.00    -0.076 A 
ATOM      2  C3  UNL d   1      -2.522  -4.356  -0.964  0.00  0.00     0.004 A 
ATOM      3  C4  UNL d   1      -3.165  -3.558  -1.909  0.00  0.00    -0.003 A 
ATOM      4  C5  UNL d   1      -3.228  -2.181  -1.726  0.00  0.00     0.000 A 
ATOM      5  C6  UNL d   1      -2.632  -1.601  -0.607  0.00  0.00     0.000 A 
ATOM      6  C7  UNL d   1      -1.965  -2.389   0.347  0.00  0.00    -0.073 A 
ATOM      7  C8  UNL d   1      -1.345  -1.711   1.538  0.00  0.00     0.078 C 
ENDROOT
BRANCH   1   8
ATOM      8  C1  UNL d   1      -1.270  -4.708   1.182  0.00  0.00     0.053 C 
ATOM      9  C   UNL d   1      -2.056  -5.991   1.404  0.00  0.00     0.018 C 
ENDBRANCH   1   8
TORSDOF 1
ENDMDL
