MODEL 1
REMARK minimizedAffinity 11.5247564
REMARK minimizedRMSD -1
REMARK  1 active torsions:
REMARK  status: ('A' for Active; 'I' for Inactive)
REMARK    1  A    between atoms: C1_2  and  C2_3 
ROOT
ATOM      1  C2  UNL d   1      -2.297  -2.447  -0.484  0.00  0.00    -0.076 A 
ATOM      2  C3  UNL d   1      -3.464  -2.121   0.229  0.00  0.00     0.004 A 
ATOM      3  C4  UNL d   1      -3.420  -1.867   1.599  0.00  0.00    -0.003 A 
ATOM      4  C5  UNL d   1      -2.208  -1.935   2.278  0.00  0.00     0.000 A 
ATOM      5  C6  UNL d   1      -1.038  -2.240   1.583  0.00  0.00     0.000 A 
ATOM      6  C7  UNL d   1      -1.063  -2.483   0.199  0.00  0.00    -0.073 A 
ATOM      7  C8  UNL d   1       0.228  -2.813  -0.499  0.00  0.00     0.078 C 
ENDROOT
BRANCH   1   8
ATOM      8  C1  UNL d   1      -2.411  -2.739  -1.963  0.00  0.00     0.053 C 
ATOM      9  C   UNL d   1      -3.660  -3.536  -2.306  0.00  0.00     0.018 C 
ENDBRANCH   1   8
TORSDOF 1
ENDMDL
