MODEL 1
REMARK minimizedAffinity 23.5431881
REMARK minimizedRMSD -1
REMARK  1 active torsions:
REMARK  status: ('A' for Active; 'I' for Inactive)
REMARK    1  A    between atoms: C1_2  and  C2_3 
ROOT
ATOM      1  C2  UNL d   1      -1.797  -4.179  -3.927  0.00  0.00    -0.076 A 
ATOM      2  C3  UNL d   1      -2.216  -4.647  -2.669  0.00  0.00     0.004 A 
ATOM      3  C4  UNL d   1      -3.134  -3.929  -1.906  0.00  0.00    -0.003 A 
ATOM      4  C5  UNL d   1      -3.649  -2.730  -2.388  0.00  0.00     0.000 A 
ATOM      5  C6  UNL d   1      -3.258  -2.260  -3.641  0.00  0.00     0.000 A 
ATOM      6  C7  UNL d   1      -2.346  -2.981  -4.431  0.00  0.00    -0.073 A 
ATOM      7  C8  UNL d   1      -1.955  -2.423  -5.772  0.00  0.00     0.078 C 
ENDROOT
BRANCH   1   8
ATOM      8  C1  UNL d   1      -0.778  -4.988  -4.698  0.00  0.00     0.053 C 
ATOM      9  C   UNL d   1      -1.338  -5.541  -6.000  0.00  0.00     0.018 C 
ENDBRANCH   1   8
TORSDOF 1
ENDMDL
