MODEL 1
REMARK minimizedAffinity 15.0583134
REMARK minimizedRMSD -1
REMARK  1 active torsions:
REMARK  status: ('A' for Active; 'I' for Inactive)
REMARK    1  A    between atoms: C1_2  and  C2_3 
ROOT
ATOM      1  C2  UNL d   1       3.083   1.187  -0.568  0.00  0.00    -0.076 A 
ATOM      2  C3  UNL d   1       1.860   1.874  -0.495  0.00  0.00     0.004 A 
ATOM      3  C4  UNL d   1       0.963   1.635   0.546  0.00  0.00    -0.003 A 
ATOM      4  C5  UNL d   1       1.277   0.705   1.531  0.00  0.00     0.000 A 
ATOM      5  C6  UNL d   1       2.495   0.027   1.484  0.00  0.00     0.000 A 
ATOM      6  C7  UNL d   1       3.416   0.268   0.451  0.00  0.00    -0.073 A 
ATOM      7  C8  UNL d   1       4.712  -0.496   0.446  0.00  0.00     0.078 C 
ENDROOT
BRANCH   1   8
ATOM      8  C1  UNL d   1       4.003   1.467  -1.735  0.00  0.00     0.053 C 
ATOM      9  C   UNL d   1       3.263   1.512  -3.062  0.00  0.00     0.018 C 
ENDBRANCH   1   8
TORSDOF 1
ENDMDL
