MODEL 1
REMARK minimizedAffinity 13.1324034
REMARK minimizedRMSD -1
REMARK  1 active torsions:
REMARK  status: ('A' for Active; 'I' for Inactive)
REMARK    1  A    between atoms: C1_2  and  C2_3 
ROOT
ATOM      1  C2  UNL d   1      -2.097  -2.828   0.224  0.00  0.00    -0.076 A 
ATOM      2  C3  UNL d   1      -1.087  -1.856   0.120  0.00  0.00     0.004 A 
ATOM      3  C4  UNL d   1      -0.341  -1.474   1.234  0.00  0.00    -0.003 A 
ATOM      4  C5  UNL d   1      -0.591  -2.060   2.470  0.00  0.00     0.000 A 
ATOM      5  C6  UNL d   1      -1.577  -3.040   2.588  0.00  0.00     0.000 A 
ATOM      6  C7  UNL d   1      -2.327  -3.447   1.472  0.00  0.00    -0.073 A 
ATOM      7  C8  UNL d   1      -3.382  -4.503   1.657  0.00  0.00     0.078 C 
ENDROOT
BRANCH   1   8
ATOM      8  C1  UNL d   1      -2.892  -3.182  -1.012  0.00  0.00     0.053 C 
ATOM      9  C   UNL d   1      -2.803  -2.111  -2.088  0.00  0.00     0.018 C 
ENDBRANCH   1   8
TORSDOF 1
ENDMDL
