MODEL 1
REMARK minimizedAffinity 19.3553715
REMARK minimizedRMSD -1
REMARK  1 active torsions:
REMARK  status: ('A' for Active; 'I' for Inactive)
REMARK    1  A    between atoms: C1_2  and  C2_3 
ROOT
ATOM      1  C2  UNL d   1      -3.242  -3.347  -2.739  0.00  0.00    -0.076 A 
ATOM      2  C3  UNL d   1      -3.240  -2.216  -3.573  0.00  0.00     0.004 A 
ATOM      3  C4  UNL d   1      -2.681  -2.265  -4.849  0.00  0.00    -0.003 A 
ATOM      4  C5  UNL d   1      -2.114  -3.447  -5.312  0.00  0.00     0.000 A 
ATOM      5  C6  UNL d   1      -2.122  -4.585  -4.505  0.00  0.00     0.000 A 
ATOM      6  C7  UNL d   1      -2.697  -4.556  -3.223  0.00  0.00    -0.073 A 
ATOM      7  C8  UNL d   1      -2.672  -5.811  -2.393  0.00  0.00     0.078 C 
ENDROOT
BRANCH   1   8
ATOM      8  C1  UNL d   1      -3.839  -3.227  -1.356  0.00  0.00     0.053 C 
ATOM      9  C   UNL d   1      -2.842  -2.700  -0.335  0.00  0.00     0.018 C 
ENDBRANCH   1   8
TORSDOF 1
ENDMDL
