MODEL 1
REMARK minimizedAffinity 21.1114216
REMARK minimizedRMSD -1
REMARK  1 active torsions:
REMARK  status: ('A' for Active; 'I' for Inactive)
REMARK    1  A    between atoms: C1_2  and  C2_3 
ROOT
ATOM      1  C2  UNL d   1       2.404   1.261  -1.712  0.00  0.00    -0.076 A 
ATOM      2  C3  UNL d   1       1.848   2.450  -1.208  0.00  0.00     0.004 A 
ATOM      3  C4  UNL d   1       1.274   2.493   0.061  0.00  0.00    -0.003 A 
ATOM      4  C5  UNL d   1       1.246   1.346   0.848  0.00  0.00     0.000 A 
ATOM      5  C6  UNL d   1       1.808   0.163   0.371  0.00  0.00     0.000 A 
ATOM      6  C7  UNL d   1       2.406   0.107  -0.900  0.00  0.00    -0.073 A 
ATOM      7  C8  UNL d   1       2.992  -1.198  -1.366  0.00  0.00     0.078 C 
ENDROOT
BRANCH   1   8
ATOM      8  C1  UNL d   1       2.989   1.269  -3.106  0.00  0.00     0.053 C 
ATOM      9  C   UNL d   1       4.287   2.057  -3.189  0.00  0.00     0.018 C 
ENDBRANCH   1   8
TORSDOF 1
ENDMDL
