MODEL 1
REMARK minimizedAffinity 14.4985037
REMARK minimizedRMSD -1
REMARK  1 active torsions:
REMARK  status: ('A' for Active; 'I' for Inactive)
REMARK    1  A    between atoms: C1_2  and  C2_3 
ROOT
ATOM      1  C2  UNL d   1       2.146   0.749   2.288  0.00  0.00    -0.076 A 
ATOM      2  C3  UNL d   1       1.165   1.361   1.490  0.00  0.00     0.004 A 
ATOM      3  C4  UNL d   1       1.387   1.598   0.134  0.00  0.00    -0.003 A 
ATOM      4  C5  UNL d   1       2.595   1.226  -0.445  0.00  0.00     0.000 A 
ATOM      5  C6  UNL d   1       3.574   0.602   0.328  0.00  0.00     0.000 A 
ATOM      6  C7  UNL d   1       3.359   0.341   1.692  0.00  0.00    -0.073 A 
ATOM      7  C8  UNL d   1       4.451  -0.330   2.480  0.00  0.00     0.078 C 
ENDROOT
BRANCH   1   8
ATOM      8  C1  UNL d   1       1.859   0.542   3.758  0.00  0.00     0.053 C 
ATOM      9  C   UNL d   1       0.375   0.369   4.043  0.00  0.00     0.018 C 
ENDBRANCH   1   8
TORSDOF 1
ENDMDL
