MODEL 1
REMARK minimizedAffinity 17.2436657
REMARK minimizedRMSD -1
REMARK  1 active torsions:
REMARK  status: ('A' for Active; 'I' for Inactive)
REMARK    1  A    between atoms: C1_2  and  C2_3 
ROOT
ATOM      1  C2  UNL d   1       0.399   1.838   2.345  0.00  0.00    -0.076 A 
ATOM      2  C3  UNL d   1       0.700   2.646   1.234  0.00  0.00     0.004 A 
ATOM      3  C4  UNL d   1       1.393   2.131   0.139  0.00  0.00    -0.003 A 
ATOM      4  C5  UNL d   1       1.795   0.800   0.137  0.00  0.00     0.000 A 
ATOM      5  C6  UNL d   1       1.490  -0.020   1.223  0.00  0.00     0.000 A 
ATOM      6  C7  UNL d   1       0.778   0.479   2.327  0.00  0.00    -0.073 A 
ATOM      7  C8  UNL d   1       0.482  -0.449   3.474  0.00  0.00     0.078 C 
ENDROOT
BRANCH   1   8
ATOM      8  C1  UNL d   1      -0.330   2.459   3.515  0.00  0.00     0.053 C 
ATOM      9  C   UNL d   1      -1.837   2.495   3.309  0.00  0.00     0.018 C 
ENDBRANCH   1   8
TORSDOF 1
ENDMDL
