MODEL 1
REMARK minimizedAffinity 17.4316597
REMARK minimizedRMSD -1
REMARK  1 active torsions:
REMARK  status: ('A' for Active; 'I' for Inactive)
REMARK    1  A    between atoms: C1_2  and  C2_3 
ROOT
ATOM      1  C2  UNL d   1      -0.280  -0.966   1.146  0.00  0.00    -0.076 A 
ATOM      2  C3  UNL d   1       0.237  -0.335   0.001  0.00  0.00     0.004 A 
ATOM      3  C4  UNL d   1       0.974   0.844   0.102  0.00  0.00    -0.003 A 
ATOM      4  C5  UNL d   1       1.206   1.411   1.351  0.00  0.00     0.000 A 
ATOM      5  C6  UNL d   1       0.715   0.789   2.498  0.00  0.00     0.000 A 
ATOM      6  C7  UNL d   1      -0.015  -0.409   2.415  0.00  0.00    -0.073 A 
ATOM      7  C8  UNL d   1      -0.526  -1.033   3.685  0.00  0.00     0.078 C 
ENDROOT
BRANCH   1   8
ATOM      8  C1  UNL d   1      -1.094  -2.228   0.972  0.00  0.00     0.053 C 
ATOM      9  C   UNL d   1      -1.839  -2.263  -0.354  0.00  0.00     0.018 C 
ENDBRANCH   1   8
TORSDOF 1
ENDMDL
