MODEL 1
REMARK minimizedAffinity 9.43831921
REMARK minimizedRMSD -1
REMARK  1 active torsions:
REMARK  status: ('A' for Active; 'I' for Inactive)
REMARK    1  A    between atoms: C1_2  and  C2_3 
ROOT
ATOM      1  C2  UNL d   1      -4.138   3.922   4.637  0.00  0.00    -0.076 A 
ATOM      2  C3  UNL d   1      -4.173   4.671   5.826  0.00  0.00     0.004 A 
ATOM      3  C4  UNL d   1      -5.095   5.702   5.999  0.00  0.00    -0.003 A 
ATOM      4  C5  UNL d   1      -5.999   6.000   4.985  0.00  0.00     0.000 A 
ATOM      5  C6  UNL d   1      -5.990   5.256   3.805  0.00  0.00     0.000 A 
ATOM      6  C7  UNL d   1      -5.078   4.203   3.622  0.00  0.00    -0.073 A 
ATOM      7  C8  UNL d   1      -5.109   3.437   2.328  0.00  0.00     0.078 C 
ENDROOT
BRANCH   1   8
ATOM      8  C1  UNL d   1      -3.097   2.834   4.496  0.00  0.00     0.053 C 
ATOM      9  C   UNL d   1      -1.854   3.309   3.760  0.00  0.00     0.018 C 
ENDBRANCH   1   8
TORSDOF 1
ENDMDL
