MODEL 1
REMARK minimizedAffinity 18.9515858
REMARK minimizedRMSD -1
REMARK  1 active torsions:
REMARK  status: ('A' for Active; 'I' for Inactive)
REMARK    1  A    between atoms: C1_2  and  C2_3 
ROOT
ATOM      1  C2  UNL d   1      -2.452  -3.614   0.701  0.00  0.00    -0.076 A 
ATOM      2  C3  UNL d   1      -3.075  -4.873   0.632  0.00  0.00     0.004 A 
ATOM      3  C4  UNL d   1      -2.642  -5.931   1.429  0.00  0.00    -0.003 A 
ATOM      4  C5  UNL d   1      -1.581  -5.748   2.309  0.00  0.00     0.000 A 
ATOM      5  C6  UNL d   1      -0.964  -4.501   2.403  0.00  0.00     0.000 A 
ATOM      6  C7  UNL d   1      -1.398  -3.419   1.618  0.00  0.00    -0.073 A 
ATOM      7  C8  UNL d   1      -0.692  -2.098   1.756  0.00  0.00     0.078 C 
ENDROOT
BRANCH   1   8
ATOM      8  C1  UNL d   1      -2.947  -2.511  -0.208  0.00  0.00     0.053 C 
ATOM      9  C   UNL d   1      -3.038  -2.951  -1.661  0.00  0.00     0.018 C 
ENDBRANCH   1   8
TORSDOF 1
ENDMDL
