MODEL 1
REMARK minimizedAffinity 16.3426208
REMARK minimizedRMSD -1
REMARK  1 active torsions:
REMARK  status: ('A' for Active; 'I' for Inactive)
REMARK    1  A    between atoms: C1_2  and  C2_3 
ROOT
ATOM      1  C2  UNL d   1      -4.076   3.975   4.190  0.00  0.00    -0.076 A 
ATOM      2  C3  UNL d   1      -3.886   4.482   5.487  0.00  0.00     0.004 A 
ATOM      3  C4  UNL d   1      -4.710   5.486   5.993  0.00  0.00    -0.003 A 
ATOM      4  C5  UNL d   1      -5.738   5.999   5.209  0.00  0.00     0.000 A 
ATOM      5  C6  UNL d   1      -5.952   5.496   3.927  0.00  0.00     0.000 A 
ATOM      6  C7  UNL d   1      -5.141   4.472   3.408  0.00  0.00    -0.073 A 
ATOM      7  C8  UNL d   1      -5.413   3.971   2.016  0.00  0.00     0.078 C 
ENDROOT
BRANCH   1   8
ATOM      8  C1  UNL d   1      -3.135   2.905   3.685  0.00  0.00     0.053 C 
ATOM      9  C   UNL d   1      -1.680   3.348   3.714  0.00  0.00     0.018 C 
ENDBRANCH   1   8
TORSDOF 1
ENDMDL
