MODEL 1
REMARK minimizedAffinity 5.16569614
REMARK minimizedRMSD -1
REMARK  0 active torsions:
REMARK  status: ('A' for Active; 'I' for Inactive)
ROOT
ATOM      1  C   UNL d   1      -0.489  -1.698   0.905  0.00  0.00     0.020 A 
ATOM      2  C1  UNL d   1      -0.508  -2.935   0.263  0.00  0.00     0.020 A 
ATOM      3  C2  UNL d   1       0.431  -3.911   0.600  0.00  0.00     0.034 A 
ATOM      4  C3  UNL d   1       1.394  -3.652   1.582  0.00  0.00     0.017 A 
ATOM      5  C4  UNL d   1       1.413  -2.410   2.226  0.00  0.00     0.017 A 
ATOM      6  C5  UNL d   1       0.469  -1.436   1.885  0.00  0.00     0.034 A 
ATOM      7 Cl   UNL d   1       2.570  -2.017   3.448  0.00  0.00    -0.070 Cl
ATOM      8 Cl1  UNL d   1       2.526  -4.906   1.948  0.00  0.00    -0.070 Cl
ENDROOT
TORSDOF 0
ENDMDL
