MODEL 1
REMARK minimizedAffinity 12.1938801
REMARK minimizedRMSD -1
REMARK  0 active torsions:
REMARK  status: ('A' for Active; 'I' for Inactive)
ROOT
ATOM      1  C   UNL d   1      -1.570  -1.048   0.564  0.00  0.00     0.020 A 
ATOM      2  C1  UNL d   1      -1.502  -1.749  -0.639  0.00  0.00     0.020 A 
ATOM      3  C2  UNL d   1      -0.275  -2.238  -1.094  0.00  0.00     0.034 A 
ATOM      4  C3  UNL d   1       0.888  -2.028  -0.344  0.00  0.00     0.017 A 
ATOM      5  C4  UNL d   1       0.818  -1.325   0.864  0.00  0.00     0.017 A 
ATOM      6  C5  UNL d   1      -0.413  -0.837   1.314  0.00  0.00     0.034 A 
ATOM      7 Cl   UNL d   1       2.210  -1.027   1.845  0.00  0.00    -0.070 Cl
ATOM      8 Cl1  UNL d   1       2.370  -2.662  -0.965  0.00  0.00    -0.070 Cl
ENDROOT
TORSDOF 0
ENDMDL
