MODEL 1
REMARK minimizedAffinity 1.64102447
REMARK minimizedRMSD -1
REMARK  0 active torsions:
REMARK  status: ('A' for Active; 'I' for Inactive)
ROOT
ATOM      1  C   UNL d   1       2.303  -2.931   4.307  0.00  0.00     0.020 A 
ATOM      2  C1  UNL d   1       1.542  -2.144   3.443  0.00  0.00     0.020 A 
ATOM      3  C2  UNL d   1       2.155  -1.138   2.693  0.00  0.00     0.034 A 
ATOM      4  C3  UNL d   1       3.532  -0.915   2.806  0.00  0.00     0.017 A 
ATOM      5  C4  UNL d   1       4.295  -1.705   3.674  0.00  0.00     0.017 A 
ATOM      6  C5  UNL d   1       3.676  -2.712   4.422  0.00  0.00     0.034 A 
ATOM      7 Cl   UNL d   1       5.999  -1.490   3.867  0.00  0.00    -0.070 Cl
ATOM      8 Cl1  UNL d   1       4.223   0.346   1.848  0.00  0.00    -0.070 Cl
ENDROOT
TORSDOF 0
ENDMDL
