MODEL 1
REMARK minimizedAffinity 13.3173075
REMARK minimizedRMSD -1
REMARK  0 active torsions:
REMARK  status: ('A' for Active; 'I' for Inactive)
ROOT
ATOM      1  C   UNL d   1      -5.437   2.680   2.529  0.00  0.00     0.020 A 
ATOM      2  C1  UNL d   1      -4.109   2.258   2.488  0.00  0.00     0.020 A 
ATOM      3  C2  UNL d   1      -3.274   2.680   1.451  0.00  0.00     0.034 A 
ATOM      4  C3  UNL d   1      -3.767   3.525   0.450  0.00  0.00     0.017 A 
ATOM      5  C4  UNL d   1      -5.101   3.948   0.492  0.00  0.00     0.017 A 
ATOM      6  C5  UNL d   1      -5.932   3.523   1.534  0.00  0.00     0.034 A 
ATOM      7 Cl   UNL d   1      -5.781   4.991  -0.706  0.00  0.00    -0.070 Cl
ATOM      8 Cl1  UNL d   1      -2.679   4.007  -0.803  0.00  0.00    -0.070 Cl
ENDROOT
TORSDOF 0
ENDMDL
