MODEL 1
REMARK minimizedAffinity 4.72988653
REMARK minimizedRMSD -1
REMARK  0 active torsions:
REMARK  status: ('A' for Active; 'I' for Inactive)
ROOT
ATOM      1  C   UNL d   1       5.999  -1.910   5.047  0.00  0.00     0.020 A 
ATOM      2  C1  UNL d   1       5.303  -2.889   5.754  0.00  0.00     0.020 A 
ATOM      3  C2  UNL d   1       3.956  -3.128   5.474  0.00  0.00     0.034 A 
ATOM      4  C3  UNL d   1       3.301  -2.386   4.484  0.00  0.00     0.017 A 
ATOM      5  C4  UNL d   1       4.001  -1.404   3.775  0.00  0.00     0.017 A 
ATOM      6  C5  UNL d   1       5.350  -1.169   4.059  0.00  0.00     0.034 A 
ATOM      7 Cl   UNL d   1       3.261  -0.449   2.539  0.00  0.00    -0.070 Cl
ATOM      8 Cl1  UNL d   1       1.635  -2.735   4.190  0.00  0.00    -0.070 Cl
ENDROOT
TORSDOF 0
ENDMDL
