MODEL 1
REMARK minimizedAffinity 5.28342485
REMARK minimizedRMSD -1
REMARK  0 active torsions:
REMARK  status: ('A' for Active; 'I' for Inactive)
ROOT
ATOM      1  C   UNL d   1       2.075  -2.644   4.900  0.00  0.00     0.020 A 
ATOM      2  C1  UNL d   1       2.115  -1.889   3.729  0.00  0.00     0.020 A 
ATOM      3  C2  UNL d   1       3.337  -1.421   3.241  0.00  0.00     0.034 A 
ATOM      4  C3  UNL d   1       4.524  -1.708   3.925  0.00  0.00     0.017 A 
ATOM      5  C4  UNL d   1       4.483  -2.466   5.100  0.00  0.00     0.017 A 
ATOM      6  C5  UNL d   1       3.257  -2.932   5.584  0.00  0.00     0.034 A 
ATOM      7 Cl   UNL d   1       5.906  -2.861   5.999  0.00  0.00    -0.070 Cl
ATOM      8 Cl1  UNL d   1       6.000  -1.098   3.264  0.00  0.00    -0.070 Cl
ENDROOT
TORSDOF 0
ENDMDL
