MODEL 1
REMARK minimizedAffinity -1.52793503
REMARK minimizedRMSD -1
REMARK  0 active torsions:
REMARK  status: ('A' for Active; 'I' for Inactive)
ROOT
ATOM      1  C   UNL d   1       2.247  -2.389   5.565  0.00  0.00     0.020 A 
ATOM      2  C1  UNL d   1       3.493  -2.850   5.989  0.00  0.00     0.020 A 
ATOM      3  C2  UNL d   1       4.638  -2.551   5.246  0.00  0.00     0.034 A 
ATOM      4  C3  UNL d   1       4.539  -1.789   4.077  0.00  0.00     0.017 A 
ATOM      5  C4  UNL d   1       3.288  -1.327   3.652  0.00  0.00     0.017 A 
ATOM      6  C5  UNL d   1       2.145  -1.629   4.399  0.00  0.00     0.034 A 
ATOM      7 Cl   UNL d   1       3.087  -0.381   2.219  0.00  0.00    -0.070 Cl
ATOM      8 Cl1  UNL d   1       5.995  -1.457   3.208  0.00  0.00    -0.070 Cl
ENDROOT
TORSDOF 0
ENDMDL
