MODEL 1
REMARK minimizedAffinity 7.94363928
REMARK minimizedRMSD -1
REMARK  0 active torsions:
REMARK  status: ('A' for Active; 'I' for Inactive)
ROOT
ATOM      1  C   UNL d   1       2.528  -2.649   4.811  0.00  0.00     0.020 A 
ATOM      2  C1  UNL d   1       1.605  -1.898   4.083  0.00  0.00     0.020 A 
ATOM      3  C2  UNL d   1       2.034  -1.122   3.004  0.00  0.00     0.034 A 
ATOM      4  C3  UNL d   1       3.388  -1.095   2.650  0.00  0.00     0.017 A 
ATOM      5  C4  UNL d   1       4.313  -1.848   3.382  0.00  0.00     0.017 A 
ATOM      6  C5  UNL d   1       3.878  -2.624   4.461  0.00  0.00     0.034 A 
ATOM      7 Cl   UNL d   1       6.000  -1.865   3.006  0.00  0.00    -0.070 Cl
ATOM      8 Cl1  UNL d   1       3.847  -0.113   1.304  0.00  0.00    -0.070 Cl
ENDROOT
TORSDOF 0
ENDMDL
