MODEL 1
REMARK minimizedAffinity 1.65547156
REMARK minimizedRMSD -1
REMARK  0 active torsions:
REMARK  status: ('A' for Active; 'I' for Inactive)
ROOT
ATOM      1  C   UNL d   1       2.378  -2.997   4.874  0.00  0.00     0.020 A 
ATOM      2  C1  UNL d   1       1.517  -2.250   4.071  0.00  0.00     0.020 A 
ATOM      3  C2  UNL d   1       2.035  -1.314   3.173  0.00  0.00     0.034 A 
ATOM      4  C3  UNL d   1       3.418  -1.122   3.077  0.00  0.00     0.017 A 
ATOM      5  C4  UNL d   1       4.282  -1.872   3.883  0.00  0.00     0.017 A 
ATOM      6  C5  UNL d   1       3.758  -2.808   4.780  0.00  0.00     0.034 A 
ATOM      7 Cl   UNL d   1       6.000  -1.691   3.820  0.00  0.00    -0.070 Cl
ATOM      8 Cl1  UNL d   1       3.989   0.052   1.945  0.00  0.00    -0.070 Cl
ENDROOT
TORSDOF 0
ENDMDL
