MODEL 1
REMARK minimizedAffinity 8.18765831
REMARK minimizedRMSD -1
REMARK  0 active torsions:
REMARK  status: ('A' for Active; 'I' for Inactive)
ROOT
ATOM      1  C   UNL d   1       3.492  -2.616   5.637  0.00  0.00     0.020 A 
ATOM      2  C1  UNL d   1       2.932  -1.342   5.557  0.00  0.00     0.020 A 
ATOM      3  C2  UNL d   1       2.210  -0.966   4.422  0.00  0.00     0.034 A 
ATOM      4  C3  UNL d   1       2.047  -1.866   3.362  0.00  0.00     0.017 A 
ATOM      5  C4  UNL d   1       2.610  -3.144   3.443  0.00  0.00     0.017 A 
ATOM      6  C5  UNL d   1       3.332  -3.515   4.582  0.00  0.00     0.034 A 
ATOM      7 Cl   UNL d   1       2.452  -4.309   2.175  0.00  0.00    -0.070 Cl
ATOM      8 Cl1  UNL d   1       1.142  -1.334   1.989  0.00  0.00    -0.070 Cl
ENDROOT
TORSDOF 0
ENDMDL
