MODEL 1
REMARK minimizedAffinity -4.39431381
REMARK minimizedRMSD -1
REMARK  1 active torsions:
REMARK  status: ('A' for Active; 'I' for Inactive)
REMARK    1  A    between atoms: C3_4  and  O_7 
ROOT
ATOM      1  C   UNL d   1      -0.665  -0.067  -0.155  0.00  0.00    -0.033 A 
ATOM      2  C1  UNL d   1      -1.318  -0.154   1.076  0.00  0.00     0.039 A 
ATOM      3  C2  UNL d   1      -0.582  -0.351   2.246  0.00  0.00    -0.080 A 
ATOM      4  C3  UNL d   1       0.804  -0.458   2.172  0.00  0.00     0.150 A 
ATOM      5  C4  UNL d   1       1.461  -0.368   0.949  0.00  0.00    -0.007 A 
ATOM      6  C5  UNL d   1       0.725  -0.173  -0.218  0.00  0.00     0.039 A 
ENDROOT
BRANCH   4   7
ATOM      7  O   UNL d   1       1.564  -0.655   3.286  0.00  0.00    -0.526 OA
ATOM      8  H5  UNL d   1       0.972  -0.725   4.054  0.00  0.00     0.418 HD
ENDBRANCH   4   7
TORSDOF 1
ENDMDL
