MODEL 1
REMARK minimizedAffinity -4.48732996
REMARK minimizedRMSD -1
REMARK  1 active torsions:
REMARK  status: ('A' for Active; 'I' for Inactive)
REMARK    1  A    between atoms: C3_4  and  O_7 
ROOT
ATOM      1  C   UNL d   1      -0.127   0.083  -0.589  0.00  0.00    -0.033 A 
ATOM      2  C1  UNL d   1      -1.118   0.154   0.393  0.00  0.00     0.039 A 
ATOM      3  C2  UNL d   1      -0.827  -0.213   1.708  0.00  0.00    -0.080 A 
ATOM      4  C3  UNL d   1       0.456  -0.647   2.029  0.00  0.00     0.150 A 
ATOM      5  C4  UNL d   1       1.449  -0.716   1.057  0.00  0.00    -0.007 A 
ATOM      6  C5  UNL d   1       1.157  -0.350  -0.256  0.00  0.00     0.039 A 
ENDROOT
BRANCH   4   7
ATOM      7  O   UNL d   1       0.786  -1.020   3.298  0.00  0.00    -0.526 OA
ATOM      8  H5  UNL d   1      -0.007  -0.947   3.856  0.00  0.00     0.418 HD
ENDBRANCH   4   7
TORSDOF 1
ENDMDL
