MODEL 1
REMARK minimizedAffinity -3.86404371
REMARK minimizedRMSD -1
REMARK  1 active torsions:
REMARK  status: ('A' for Active; 'I' for Inactive)
REMARK    1  A    between atoms: C3_4  and  O_7 
ROOT
ATOM      1  C   UNL d   1      -0.355  -0.295  -0.729  0.00  0.00    -0.033 A 
ATOM      2  C1  UNL d   1      -1.236  -0.115   0.339  0.00  0.00     0.039 A 
ATOM      3  C2  UNL d   1      -0.761  -0.145   1.652  0.00  0.00    -0.080 A 
ATOM      4  C3  UNL d   1       0.596  -0.355   1.882  0.00  0.00     0.150 A 
ATOM      5  C4  UNL d   1       1.480  -0.532   0.823  0.00  0.00    -0.007 A 
ATOM      6  C5  UNL d   1       1.003  -0.502  -0.487  0.00  0.00     0.039 A 
ENDROOT
BRANCH   4   7
ATOM      7  O   UNL d   1       1.106  -0.398   3.146  0.00  0.00    -0.526 OA
ATOM      8  H5  UNL d   1       0.375  -0.289   3.777  0.00  0.00     0.418 HD
ENDBRANCH   4   7
TORSDOF 1
ENDMDL
