MODEL 1
REMARK minimizedAffinity -3.32074428
REMARK minimizedRMSD -1
REMARK  1 active torsions:
REMARK  status: ('A' for Active; 'I' for Inactive)
REMARK    1  A    between atoms: C3_4  and  O_7 
ROOT
ATOM      1  C   UNL d   1      -0.363   0.555   0.589  0.00  0.00    -0.033 A 
ATOM      2  C1  UNL d   1      -0.889   0.632  -0.701  0.00  0.00     0.039 A 
ATOM      3  C2  UNL d   1      -0.323  -0.116  -1.735  0.00  0.00    -0.080 A 
ATOM      4  C3  UNL d   1       0.768  -0.938  -1.465  0.00  0.00     0.150 A 
ATOM      5  C4  UNL d   1       1.295  -1.023  -0.181  0.00  0.00    -0.007 A 
ATOM      6  C5  UNL d   1       0.729  -0.274   0.850  0.00  0.00     0.039 A 
ENDROOT
BRANCH   4   7
ATOM      7  O   UNL d   1       1.358  -1.683  -2.442  0.00  0.00    -0.526 OA
ATOM      8  H5  UNL d   1       0.906  -1.502  -3.283  0.00  0.00     0.418 HD
ENDBRANCH   4   7
TORSDOF 1
ENDMDL
