MODEL 1
REMARK minimizedAffinity -4.16415977
REMARK minimizedRMSD -1
REMARK  1 active torsions:
REMARK  status: ('A' for Active; 'I' for Inactive)
REMARK    1  A    between atoms: C3_4  and  O_7 
ROOT
ATOM      1  C   UNL d   1      -0.493  -0.769  -0.722  0.00  0.00    -0.033 A 
ATOM      2  C1  UNL d   1       0.897  -0.896  -0.682  0.00  0.00     0.039 A 
ATOM      3  C2  UNL d   1       1.569  -0.848   0.541  0.00  0.00    -0.080 A 
ATOM      4  C3  UNL d   1       0.841  -0.674   1.714  0.00  0.00     0.150 A 
ATOM      5  C4  UNL d   1      -0.544  -0.550   1.682  0.00  0.00    -0.007 A 
ATOM      6  C5  UNL d   1      -1.214  -0.597   0.460  0.00  0.00     0.039 A 
ENDROOT
BRANCH   4   7
ATOM      7  O   UNL d   1       1.453  -0.616   2.931  0.00  0.00    -0.526 OA
ATOM      8  H5  UNL d   1       2.413  -0.687   2.796  0.00  0.00     0.418 HD
ENDBRANCH   4   7
TORSDOF 1
ENDMDL
