MODEL 1
REMARK minimizedAffinity -4.95032072
REMARK minimizedRMSD -1
REMARK  1 active torsions:
REMARK  status: ('A' for Active; 'I' for Inactive)
REMARK    1  A    between atoms: C3_4  and  O_7 
ROOT
ATOM      1  C   UNL d   1       1.943  -1.790   2.445  0.00  0.00    -0.033 A 
ATOM      2  C1  UNL d   1       2.461  -1.844   1.150  0.00  0.00     0.039 A 
ATOM      3  C2  UNL d   1       1.719  -1.346   0.077  0.00  0.00    -0.080 A 
ATOM      4  C3  UNL d   1       0.462  -0.796   0.313  0.00  0.00     0.150 A 
ATOM      5  C4  UNL d   1      -0.059  -0.735   1.601  0.00  0.00    -0.007 A 
ATOM      6  C5  UNL d   1       0.683  -1.234   2.671  0.00  0.00     0.039 A 
ENDROOT
BRANCH   4   7
ATOM      7  O   UNL d   1      -0.301  -0.301  -0.702  0.00  0.00    -0.526 OA
ATOM      8  H5  UNL d   1       0.175  -0.437  -1.539  0.00  0.00     0.418 HD
ENDBRANCH   4   7
TORSDOF 1
ENDMDL
