MODEL 1
REMARK minimizedAffinity -5.20204639
REMARK minimizedRMSD -1
REMARK  1 active torsions:
REMARK  status: ('A' for Active; 'I' for Inactive)
REMARK    1  A    between atoms: C3_4  and  O_7 
ROOT
ATOM      1  C   UNL d   1      -0.734  -0.284   0.005  0.00  0.00    -0.033 A 
ATOM      2  C1  UNL d   1      -1.376  -0.447   1.235  0.00  0.00     0.039 A 
ATOM      3  C2  UNL d   1      -0.630  -0.472   2.415  0.00  0.00    -0.080 A 
ATOM      4  C3  UNL d   1       0.753  -0.333   2.352  0.00  0.00     0.150 A 
ATOM      5  C4  UNL d   1       1.399  -0.167   1.131  0.00  0.00    -0.007 A 
ATOM      6  C5  UNL d   1       0.653  -0.143  -0.046  0.00  0.00     0.039 A 
ENDROOT
BRANCH   4   7
ATOM      7  O   UNL d   1       1.524  -0.356   3.477  0.00  0.00    -0.526 OA
ATOM      8  H5  UNL d   1       0.945  -0.506   4.243  0.00  0.00     0.418 HD
ENDBRANCH   4   7
TORSDOF 1
ENDMDL
