MODEL 1
REMARK minimizedAffinity -2.33553648
REMARK minimizedRMSD -1
REMARK  0 active torsions:
REMARK  status: ('A' for Active; 'I' for Inactive)
ROOT
ATOM      1  C   UNL d   1      -1.725   1.496   2.281  0.00  0.00    -0.002 A 
ATOM      2  C1  UNL d   1      -2.147   2.169   1.143  0.00  0.00     0.010 A 
ATOM      3  C2  UNL d   1      -1.701   1.776  -0.120  0.00  0.00     0.041 A 
ATOM      4  C3  UNL d   1      -0.816   0.684  -0.222  0.00  0.00    -0.075 A 
ATOM      5  S   UNL d   1      -0.140   0.025  -1.664  0.00  0.00     0.015 SA
ATOM      6  C4  UNL d   1       0.725  -1.165  -0.803  0.00  0.00     0.022 A 
ATOM      7  C5  UNL d   1       0.514  -1.077   0.552  0.00  0.00     0.026 A 
ATOM      8  C6  UNL d   1      -0.378  -0.010   0.910  0.00  0.00    -0.082 A 
ATOM      9  C7  UNL d   1      -0.848   0.413   2.177  0.00  0.00     0.045 A 
ENDROOT
TORSDOF 0
ENDMDL
