MODEL 1
REMARK minimizedAffinity -4.99486589
REMARK minimizedRMSD -1
REMARK  0 active torsions:
REMARK  status: ('A' for Active; 'I' for Inactive)
ROOT
ATOM      1  C   UNL d   1      -1.662   0.686   1.881  0.00  0.00    -0.002 A 
ATOM      2  C1  UNL d   1      -1.058   1.590   1.019  0.00  0.00     0.010 A 
ATOM      3  C2  UNL d   1      -0.280   1.142  -0.050  0.00  0.00     0.041 A 
ATOM      4  C3  UNL d   1      -0.121  -0.245  -0.243  0.00  0.00    -0.075 A 
ATOM      5  S   UNL d   1       0.785  -1.024  -1.485  0.00  0.00     0.015 SA
ATOM      6  C4  UNL d   1       0.390  -2.577  -0.903  0.00  0.00     0.022 A 
ATOM      7  C5  UNL d   1      -0.412  -2.520   0.212  0.00  0.00     0.026 A 
ATOM      8  C6  UNL d   1      -0.720  -1.175   0.611  0.00  0.00    -0.082 A 
ATOM      9  C7  UNL d   1      -1.502  -0.689   1.687  0.00  0.00     0.045 A 
ENDROOT
TORSDOF 0
ENDMDL
