MODEL 1
REMARK minimizedAffinity -2.46939683
REMARK minimizedRMSD -1
REMARK  0 active torsions:
REMARK  status: ('A' for Active; 'I' for Inactive)
ROOT
ATOM      1  C   UNL d   1      -2.368   1.916   1.654  0.00  0.00    -0.002 A 
ATOM      2  C1  UNL d   1      -2.804   1.721   0.351  0.00  0.00     0.010 A 
ATOM      3  C2  UNL d   1      -2.038   0.978  -0.550  0.00  0.00     0.041 A 
ATOM      4  C3  UNL d   1      -0.817   0.427  -0.114  0.00  0.00    -0.075 A 
ATOM      5  S   UNL d   1       0.286  -0.520  -1.041  0.00  0.00     0.015 SA
ATOM      6  C4  UNL d   1       1.360  -0.689   0.271  0.00  0.00     0.022 A 
ATOM      7  C5  UNL d   1       0.905  -0.044   1.397  0.00  0.00     0.026 A 
ATOM      8  C6  UNL d   1      -0.358   0.608   1.194  0.00  0.00    -0.082 A 
ATOM      9  C7  UNL d   1      -1.156   1.368   2.083  0.00  0.00     0.045 A 
ENDROOT
TORSDOF 0
ENDMDL
