MODEL 1
REMARK minimizedAffinity -3.35986209
REMARK minimizedRMSD -1
REMARK  0 active torsions:
REMARK  status: ('A' for Active; 'I' for Inactive)
ROOT
ATOM      1  C   UNL d   1      -1.925   2.226   1.485  0.00  0.00    -0.002 A 
ATOM      2  C1  UNL d   1      -1.558   2.498   0.174  0.00  0.00     0.010 A 
ATOM      3  C2  UNL d   1      -0.838   1.561  -0.570  0.00  0.00     0.041 A 
ATOM      4  C3  UNL d   1      -0.493   0.334   0.029  0.00  0.00    -0.075 A 
ATOM      5  S   UNL d   1       0.384  -0.965  -0.691  0.00  0.00     0.015 SA
ATOM      6  C4  UNL d   1       0.291  -1.911   0.724  0.00  0.00     0.022 A 
ATOM      7  C5  UNL d   1      -0.389  -1.267   1.730  0.00  0.00     0.026 A 
ATOM      8  C6  UNL d   1      -0.852   0.036   1.347  0.00  0.00    -0.082 A 
ATOM      9  C7  UNL d   1      -1.580   1.007   2.076  0.00  0.00     0.045 A 
ENDROOT
TORSDOF 0
ENDMDL
