MODEL 1
REMARK minimizedAffinity -4.78656435
REMARK minimizedRMSD -1
REMARK  0 active torsions:
REMARK  status: ('A' for Active; 'I' for Inactive)
ROOT
ATOM      1  C   UNL d   1      -2.178   1.592   1.685  0.00  0.00    -0.002 A 
ATOM      2  C1  UNL d   1      -2.016   1.804   0.324  0.00  0.00     0.010 A 
ATOM      3  C2  UNL d   1      -1.065   1.081  -0.399  0.00  0.00     0.041 A 
ATOM      4  C3  UNL d   1      -0.273   0.131   0.276  0.00  0.00    -0.075 A 
ATOM      5  S   UNL d   1       0.953  -0.872  -0.404  0.00  0.00     0.015 SA
ATOM      6  C4  UNL d   1       1.290  -1.606   1.097  0.00  0.00     0.022 A 
ATOM      7  C5  UNL d   1       0.496  -1.110   2.103  0.00  0.00     0.026 A 
ATOM      8  C6  UNL d   1      -0.419  -0.101   1.646  0.00  0.00    -0.082 A 
ATOM      9  C7  UNL d   1      -1.391   0.649   2.351  0.00  0.00     0.045 A 
ENDROOT
TORSDOF 0
ENDMDL
