MODEL 1
REMARK minimizedAffinity -3.08381772
REMARK minimizedRMSD -1
REMARK  0 active torsions:
REMARK  status: ('A' for Active; 'I' for Inactive)
ROOT
ATOM      1  C   UNL d   1      -1.321   1.805   1.890  0.00  0.00    -0.002 A 
ATOM      2  C1  UNL d   1      -2.356   1.968   0.980  0.00  0.00     0.010 A 
ATOM      3  C2  UNL d   1      -2.377   1.237  -0.209  0.00  0.00     0.041 A 
ATOM      4  C3  UNL d   1      -1.332   0.329  -0.470  0.00  0.00    -0.075 A 
ATOM      5  S   UNL d   1      -1.150  -0.675  -1.860  0.00  0.00     0.015 SA
ATOM      6  C4  UNL d   1       0.305  -1.344  -1.279  0.00  0.00     0.022 A 
ATOM      7  C5  UNL d   1       0.659  -0.826  -0.055  0.00  0.00     0.026 A 
ATOM      8  C6  UNL d   1      -0.280   0.147   0.431  0.00  0.00    -0.082 A 
ATOM      9  C7  UNL d   1      -0.286   0.904   1.627  0.00  0.00     0.045 A 
ENDROOT
TORSDOF 0
ENDMDL
