MODEL 1
REMARK minimizedAffinity -3.37530589
REMARK minimizedRMSD -1
REMARK  0 active torsions:
REMARK  status: ('A' for Active; 'I' for Inactive)
ROOT
ATOM      1  C   UNL d   1      -1.881   0.784   1.907  0.00  0.00    -0.002 A 
ATOM      2  C1  UNL d   1      -1.125  -0.380   1.946  0.00  0.00     0.010 A 
ATOM      3  C2  UNL d   1      -0.105  -0.595   1.018  0.00  0.00     0.041 A 
ATOM      4  C3  UNL d   1       0.148   0.389   0.042  0.00  0.00    -0.075 A 
ATOM      5  S   UNL d   1       1.347   0.343  -1.196  0.00  0.00     0.015 SA
ATOM      6  C4  UNL d   1       0.885   1.866  -1.804  0.00  0.00     0.022 A 
ATOM      7  C5  UNL d   1      -0.157   2.411  -1.093  0.00  0.00     0.026 A 
ATOM      8  C6  UNL d   1      -0.599   1.569  -0.017  0.00  0.00    -0.082 A 
ATOM      9  C7  UNL d   1      -1.628   1.758   0.937  0.00  0.00     0.045 A 
ENDROOT
TORSDOF 0
ENDMDL
