MODEL 1
REMARK minimizedAffinity -0.265059292
REMARK minimizedRMSD -1
REMARK  0 active torsions:
REMARK  status: ('A' for Active; 'I' for Inactive)
ROOT
ATOM      1  C   UNL d   1      -2.133   1.905   0.105  0.00  0.00    -0.002 A 
ATOM      2  C1  UNL d   1      -1.919   1.684   1.458  0.00  0.00     0.010 A 
ATOM      3  C2  UNL d   1      -0.979   0.744   1.883  0.00  0.00     0.041 A 
ATOM      4  C3  UNL d   1      -0.250   0.023   0.917  0.00  0.00    -0.075 A 
ATOM      5  S   UNL d   1       0.953  -1.178   1.204  0.00  0.00     0.015 SA
ATOM      6  C4  UNL d   1       1.211  -1.425  -0.462  0.00  0.00     0.022 A 
ATOM      7  C5  UNL d   1       0.407  -0.620  -1.234  0.00  0.00     0.026 A 
ATOM      8  C6  UNL d   1      -0.448   0.229  -0.451  0.00  0.00    -0.082 A 
ATOM      9  C7  UNL d   1      -1.409   1.189  -0.851  0.00  0.00     0.045 A 
ENDROOT
TORSDOF 0
ENDMDL
