MODEL 1
REMARK minimizedAffinity -3.5941031
REMARK minimizedRMSD -1
REMARK  0 active torsions:
REMARK  status: ('A' for Active; 'I' for Inactive)
ROOT
ATOM      1  C   UNL d   1      -1.952   1.538   1.595  0.00  0.00    -0.002 A 
ATOM      2  C1  UNL d   1      -1.691   0.250   2.041  0.00  0.00     0.010 A 
ATOM      3  C2  UNL d   1      -0.742  -0.546   1.396  0.00  0.00     0.041 A 
ATOM      4  C3  UNL d   1      -0.052  -0.020   0.287  0.00  0.00    -0.075 A 
ATOM      5  S   UNL d   1       1.154  -0.811  -0.657  0.00  0.00     0.015 SA
ATOM      6  C4  UNL d   1       1.352   0.542  -1.674  0.00  0.00     0.022 A 
ATOM      7  C5  UNL d   1       0.526   1.581  -1.317  0.00  0.00     0.026 A 
ATOM      8  C6  UNL d   1      -0.296   1.275  -0.180  0.00  0.00    -0.082 A 
ATOM      9  C7  UNL d   1      -1.265   2.057   0.494  0.00  0.00     0.045 A 
ENDROOT
TORSDOF 0
ENDMDL
