MODEL 1
REMARK minimizedAffinity -2.83948183
REMARK minimizedRMSD -1
REMARK  0 active torsions:
REMARK  status: ('A' for Active; 'I' for Inactive)
ROOT
ATOM      1  C   UNL d   1       1.164  -0.498  -1.437  0.00  0.00    -0.002 A 
ATOM      2  C1  UNL d   1       1.395   0.868  -1.511  0.00  0.00     0.010 A 
ATOM      3  C2  UNL d   1       0.775   1.742  -0.616  0.00  0.00     0.041 A 
ATOM      4  C3  UNL d   1      -0.088   1.215   0.365  0.00  0.00    -0.075 A 
ATOM      5  S   UNL d   1      -0.956   2.095   1.567  0.00  0.00     0.015 SA
ATOM      6  C4  UNL d   1      -1.653   0.677   2.208  0.00  0.00     0.022 A 
ATOM      7  C5  UNL d   1      -1.244  -0.449   1.533  0.00  0.00     0.026 A 
ATOM      8  C6  UNL d   1      -0.335  -0.157   0.460  0.00  0.00    -0.082 A 
ATOM      9  C7  UNL d   1       0.308  -1.018  -0.462  0.00  0.00     0.045 A 
ENDROOT
TORSDOF 0
ENDMDL
