MODEL 1
REMARK minimizedAffinity -2.45972085
REMARK minimizedRMSD -1
REMARK  0 active torsions:
REMARK  status: ('A' for Active; 'I' for Inactive)
ROOT
ATOM      1  C1  BNZ d   1      -1.296   0.278   1.018  0.00  0.00     0.000 A 
ATOM      2  C2  BNZ d   1      -0.747   0.417  -0.229  0.00  0.00     0.000 A 
ATOM      3  C3  BNZ d   1       0.385  -0.265  -0.575  0.00  0.00     0.000 A 
ATOM      4  C4  BNZ d   1       0.989  -1.054   0.337  0.00  0.00     0.000 A 
ATOM      5  C5  BNZ d   1       0.454  -1.197   1.601  0.00  0.00     0.000 A 
ATOM      6  C6  BNZ d   1      -0.708  -0.539   1.934  0.00  0.00     0.000 A 
ENDROOT
TORSDOF 0
ENDMDL
