MODEL 1
REMARK minimizedAffinity -3.13522625
REMARK minimizedRMSD -1
REMARK  0 active torsions:
REMARK  status: ('A' for Active; 'I' for Inactive)
ROOT
ATOM      1  C1  BNZ d   1       2.160  -1.695  -0.446  0.00  0.00     0.000 A 
ATOM      2  C2  BNZ d   1       1.390  -1.489   0.668  0.00  0.00     0.000 A 
ATOM      3  C3  BNZ d   1       0.323  -0.636   0.634  0.00  0.00     0.000 A 
ATOM      4  C4  BNZ d   1       0.051   0.041  -0.501  0.00  0.00     0.000 A 
ATOM      5  C5  BNZ d   1       0.824  -0.148  -1.629  0.00  0.00     0.000 A 
ATOM      6  C6  BNZ d   1       1.873  -1.037  -1.603  0.00  0.00     0.000 A 
ENDROOT
TORSDOF 0
ENDMDL
