MODEL 1
REMARK minimizedAffinity -3.05629826
REMARK minimizedRMSD -1
REMARK  0 active torsions:
REMARK  status: ('A' for Active; 'I' for Inactive)
ROOT
ATOM      1  C1  BNZ d   1      -0.012  -0.885   0.908  0.00  0.00     0.000 A 
ATOM      2  C2  BNZ d   1       1.016  -1.775   0.744  0.00  0.00     0.000 A 
ATOM      3  C3  BNZ d   1       1.851  -1.688  -0.335  0.00  0.00     0.000 A 
ATOM      4  C4  BNZ d   1       1.634  -0.738  -1.267  0.00  0.00     0.000 A 
ATOM      5  C5  BNZ d   1       0.597   0.162  -1.120  0.00  0.00     0.000 A 
ATOM      6  C6  BNZ d   1      -0.218   0.095  -0.013  0.00  0.00     0.000 A 
ENDROOT
TORSDOF 0
ENDMDL
