MODEL 1
REMARK minimizedAffinity -3.70101357
REMARK minimizedRMSD -1
REMARK  0 active torsions:
REMARK  status: ('A' for Active; 'I' for Inactive)
ROOT
ATOM      1  C1  BNZ d   1       0.032  -0.797   0.797  0.00  0.00     0.000 A 
ATOM      2  C2  BNZ d   1       0.698   0.321   0.370  0.00  0.00     0.000 A 
ATOM      3  C3  BNZ d   1       1.547   0.264  -0.700  0.00  0.00     0.000 A 
ATOM      4  C4  BNZ d   1       1.760  -0.917  -1.315  0.00  0.00     0.000 A 
ATOM      5  C5  BNZ d   1       1.103  -2.055  -0.890  0.00  0.00     0.000 A 
ATOM      6  C6  BNZ d   1       0.220  -1.986   0.163  0.00  0.00     0.000 A 
ENDROOT
TORSDOF 0
ENDMDL
