MODEL 1
REMARK minimizedAffinity -2.2021575
REMARK minimizedRMSD -1
REMARK  0 active torsions:
REMARK  status: ('A' for Active; 'I' for Inactive)
ROOT
ATOM      1  C1  BNZ d   1      -2.566   0.189   2.461  0.00  0.00     0.000 A 
ATOM      2  C2  BNZ d   1      -2.212   0.033   1.148  0.00  0.00     0.000 A 
ATOM      3  C3  BNZ d   1      -1.049   0.567   0.668  0.00  0.00     0.000 A 
ATOM      4  C4  BNZ d   1      -0.262   1.289   1.491  0.00  0.00     0.000 A 
ATOM      5  C5  BNZ d   1      -0.609   1.463   2.816  0.00  0.00     0.000 A 
ATOM      6  C6  BNZ d   1      -1.762   0.892   3.305  0.00  0.00     0.000 A 
ENDROOT
TORSDOF 0
ENDMDL
