MODEL 1
REMARK minimizedAffinity -1.44842672
REMARK minimizedRMSD -1
REMARK  0 active torsions:
REMARK  status: ('A' for Active; 'I' for Inactive)
ROOT
ATOM      1  C1  BNZ d   1      -2.799   0.168   3.374  0.00  0.00     0.000 A 
ATOM      2  C2  BNZ d   1      -2.710  -0.188   2.055  0.00  0.00     0.000 A 
ATOM      3  C3  BNZ d   1      -2.090   0.627   1.150  0.00  0.00     0.000 A 
ATOM      4  C4  BNZ d   1      -1.597   1.815   1.557  0.00  0.00     0.000 A 
ATOM      5  C5  BNZ d   1      -1.687   2.192   2.882  0.00  0.00     0.000 A 
ATOM      6  C6  BNZ d   1      -2.277   1.351   3.797  0.00  0.00     0.000 A 
ENDROOT
TORSDOF 0
ENDMDL
