MODEL 1
REMARK minimizedAffinity -3.39429593
REMARK minimizedRMSD -1
REMARK  0 active torsions:
REMARK  status: ('A' for Active; 'I' for Inactive)
ROOT
ATOM      1  C1  BNZ d   1       0.885  -1.966  -0.882  0.00  0.00     0.000 A 
ATOM      2  C2  BNZ d   1      -0.148  -1.068  -0.840  0.00  0.00     0.000 A 
ATOM      3  C3  BNZ d   1      -0.183  -0.085   0.109  0.00  0.00     0.000 A 
ATOM      4  C4  BNZ d   1       0.793  -0.024   1.037  0.00  0.00     0.000 A 
ATOM      5  C5  BNZ d   1       1.837  -0.928   1.014  0.00  0.00     0.000 A 
ATOM      6  C6  BNZ d   1       1.889  -1.893   0.035  0.00  0.00     0.000 A 
ENDROOT
TORSDOF 0
ENDMDL
