MODEL 1
REMARK minimizedAffinity -2.82203841
REMARK minimizedRMSD -1
REMARK  0 active torsions:
REMARK  status: ('A' for Active; 'I' for Inactive)
ROOT
ATOM      1  C1  BNZ d   1       0.493   0.362  -0.536  0.00  0.00     0.000 A 
ATOM      2  C2  BNZ d   1       1.134  -0.838  -0.376  0.00  0.00     0.000 A 
ATOM      3  C3  BNZ d   1       2.092  -1.244  -1.262  0.00  0.00     0.000 A 
ATOM      4  C4  BNZ d   1       2.379  -0.469  -2.328  0.00  0.00     0.000 A 
ATOM      5  C5  BNZ d   1       1.735   0.739  -2.508  0.00  0.00     0.000 A 
ATOM      6  C6  BNZ d   1       0.799   1.162  -1.593  0.00  0.00     0.000 A 
ENDROOT
TORSDOF 0
ENDMDL
