MODEL 1
REMARK minimizedAffinity -1.08814132
REMARK minimizedRMSD -1
REMARK  0 active torsions:
REMARK  status: ('A' for Active; 'I' for Inactive)
ROOT
ATOM      1  C1  BNZ d   1       0.269   0.157   0.664  0.00  0.00     0.000 A 
ATOM      2  C2  BNZ d   1       1.375  -0.640   0.536  0.00  0.00     0.000 A 
ATOM      3  C3  BNZ d   1       1.342  -1.763  -0.243  0.00  0.00     0.000 A 
ATOM      4  C4  BNZ d   1       0.194  -2.107  -0.861  0.00  0.00     0.000 A 
ATOM      5  C5  BNZ d   1      -0.932  -1.318  -0.735  0.00  0.00     0.000 A 
ATOM      6  C6  BNZ d   1      -0.884  -0.169   0.019  0.00  0.00     0.000 A 
ENDROOT
TORSDOF 0
ENDMDL
