MODEL 1
REMARK minimizedAffinity -3.56335545
REMARK minimizedRMSD -1
REMARK  0 active torsions:
REMARK  status: ('A' for Active; 'I' for Inactive)
ROOT
ATOM      1  C1  BNZ d   1      -1.326   0.325  -0.138  0.00  0.00     0.000 A 
ATOM      2  C2  BNZ d   1      -0.451  -0.676  -0.462  0.00  0.00     0.000 A 
ATOM      3  C3  BNZ d   1       0.424  -1.169   0.466  0.00  0.00     0.000 A 
ATOM      4  C4  BNZ d   1       0.450  -0.632   1.703  0.00  0.00     0.000 A 
ATOM      5  C5  BNZ d   1      -0.420   0.385   2.042  0.00  0.00     0.000 A 
ATOM      6  C6  BNZ d   1      -1.326   0.851   1.117  0.00  0.00     0.000 A 
ENDROOT
TORSDOF 0
ENDMDL
