MODEL 1
REMARK minimizedAffinity -3.56737995
REMARK minimizedRMSD -1
REMARK  0 active torsions:
REMARK  status: ('A' for Active; 'I' for Inactive)
ROOT
ATOM      1  C1  BNZ d   1       0.896  -1.138  -0.060  0.00  0.00     0.000 A 
ATOM      2  C2  BNZ d   1       1.645  -1.567  -1.123  0.00  0.00     0.000 A 
ATOM      3  C3  BNZ d   1       2.068  -0.688  -2.081  0.00  0.00     0.000 A 
ATOM      4  C4  BNZ d   1       1.708   0.609  -1.997  0.00  0.00     0.000 A 
ATOM      5  C5  BNZ d   1       0.945   1.055  -0.936  0.00  0.00     0.000 A 
ATOM      6  C6  BNZ d   1       0.554   0.175   0.047  0.00  0.00     0.000 A 
ENDROOT
TORSDOF 0
ENDMDL
