MODEL 1
REMARK minimizedAffinity -3.08661819
REMARK minimizedRMSD -1
REMARK  0 active torsions:
REMARK  status: ('A' for Active; 'I' for Inactive)
ROOT
ATOM      1  C1  BNZ d   1       1.584   0.145  -2.141  0.00  0.00     0.000 A 
ATOM      2  C2  BNZ d   1       1.546  -0.977  -1.358  0.00  0.00     0.000 A 
ATOM      3  C3  BNZ d   1       0.676  -1.069  -0.307  0.00  0.00     0.000 A 
ATOM      4  C4  BNZ d   1      -0.125  -0.023  -0.017  0.00  0.00     0.000 A 
ATOM      5  C5  BNZ d   1      -0.091   1.119  -0.792  0.00  0.00     0.000 A 
ATOM      6  C6  BNZ d   1       0.758   1.192  -1.872  0.00  0.00     0.000 A 
ENDROOT
TORSDOF 0
ENDMDL
