MODEL 1
REMARK minimizedAffinity -1.85158122
REMARK minimizedRMSD -1
REMARK  0 active torsions:
REMARK  status: ('A' for Active; 'I' for Inactive)
ROOT
ATOM      1  C1  BNZ d   1      -2.195   0.578   1.597  0.00  0.00     0.000 A 
ATOM      2  C2  BNZ d   1      -2.192   0.387   0.241  0.00  0.00     0.000 A 
ATOM      3  C3  BNZ d   1      -1.045   0.033  -0.414  0.00  0.00     0.000 A 
ATOM      4  C4  BNZ d   1       0.104  -0.089   0.281  0.00  0.00     0.000 A 
ATOM      5  C5  BNZ d   1       0.119   0.109   1.647  0.00  0.00     0.000 A 
ATOM      6  C6  BNZ d   1      -1.045   0.426   2.308  0.00  0.00     0.000 A 
ENDROOT
TORSDOF 0
ENDMDL
