MODEL 1
REMARK minimizedAffinity -3.65718412
REMARK minimizedRMSD -1
REMARK  0 active torsions:
REMARK  status: ('A' for Active; 'I' for Inactive)
ROOT
ATOM      1  C1  BNZ d   1      -0.166   0.016  -0.787  0.00  0.00     0.000 A 
ATOM      2  C2  BNZ d   1       0.072   1.018  -1.690  0.00  0.00     0.000 A 
ATOM      3  C3  BNZ d   1       1.116   0.935  -2.569  0.00  0.00     0.000 A 
ATOM      4  C4  BNZ d   1       1.942  -0.130  -2.517  0.00  0.00     0.000 A 
ATOM      5  C5  BNZ d   1       1.721  -1.144  -1.607  0.00  0.00     0.000 A 
ATOM      6  C6  BNZ d   1       0.646  -1.075  -0.750  0.00  0.00     0.000 A 
ENDROOT
TORSDOF 0
ENDMDL
