MODEL 1
REMARK minimizedAffinity -2.60994506
REMARK minimizedRMSD -1
REMARK  0 active torsions:
REMARK  status: ('A' for Active; 'I' for Inactive)
ROOT
ATOM      1  C1  BNZ d   1       0.097   0.387  -0.679  0.00  0.00     0.000 A 
ATOM      2  C2  BNZ d   1       0.980   0.131  -1.694  0.00  0.00     0.000 A 
ATOM      3  C3  BNZ d   1       1.985  -0.782  -1.533  0.00  0.00     0.000 A 
ATOM      4  C4  BNZ d   1       2.129  -1.408  -0.348  0.00  0.00     0.000 A 
ATOM      5  C5  BNZ d   1       1.252  -1.154   0.688  0.00  0.00     0.000 A 
ATOM      6  C6  BNZ d   1       0.218  -0.263   0.510  0.00  0.00     0.000 A 
ENDROOT
TORSDOF 0
ENDMDL
