MODEL 1
REMARK minimizedAffinity -2.73511887
REMARK minimizedRMSD -1
REMARK  0 active torsions:
REMARK  status: ('A' for Active; 'I' for Inactive)
ROOT
ATOM      1  C1  BNZ d   1      -0.024  -1.233   0.652  0.00  0.00     0.000 A 
ATOM      2  C2  BNZ d   1       0.770  -2.146   0.011  0.00  0.00     0.000 A 
ATOM      3  C3  BNZ d   1       1.323  -1.861  -1.206  0.00  0.00     0.000 A 
ATOM      4  C4  BNZ d   1       1.051  -0.680  -1.797  0.00  0.00     0.000 A 
ATOM      5  C5  BNZ d   1       0.245   0.248  -1.168  0.00  0.00     0.000 A 
ATOM      6  C6  BNZ d   1      -0.279  -0.027   0.074  0.00  0.00     0.000 A 
ENDROOT
TORSDOF 0
ENDMDL
