MODEL 1
REMARK minimizedAffinity -0.12108089
REMARK minimizedRMSD -1
REMARK  0 active torsions:
REMARK  status: ('A' for Active; 'I' for Inactive)
ROOT
ATOM      1  C1  BNZ d   1       0.883  -3.605   0.704  0.00  0.00     0.000 A 
ATOM      2  C2  BNZ d   1       2.196  -3.219   0.674  0.00  0.00     0.000 A 
ATOM      3  C3  BNZ d   1       2.635  -2.297  -0.235  0.00  0.00     0.000 A 
ATOM      4  C4  BNZ d   1       1.769  -1.794  -1.138  0.00  0.00     0.000 A 
ATOM      5  C5  BNZ d   1       0.443  -2.180  -1.127  0.00  0.00     0.000 A 
ATOM      6  C6  BNZ d   1      -0.003  -3.078  -0.185  0.00  0.00     0.000 A 
ENDROOT
TORSDOF 0
ENDMDL
