MODEL 1
REMARK minimizedAffinity 10.1803961
REMARK minimizedRMSD -1
REMARK  2 active torsions:
REMARK  status: ('A' for Active; 'I' for Inactive)
REMARK    1  A    between atoms: C2'_3  and  C1'_4 
REMARK    2  A    between atoms: C1'_4  and  C1_5 
ROOT
ATOM      1  C1  I4B d   1       0.559   2.427   2.503  0.00  0.00    -0.075 A 
ATOM      2  C2  I4B d   1       1.063   3.644   2.118  0.00  0.00     0.003 A 
ATOM      3  C3  I4B d   1       2.237   4.154   2.725  0.00  0.00     0.002 A 
ATOM      4  C4  I4B d   1       2.842   3.440   3.740  0.00  0.00    -0.004 A 
ATOM      5  C5  I4B d   1       2.343   2.196   4.112  0.00  0.00     0.002 A 
ATOM      6  C6  I4B d   1       1.202   1.679   3.481  0.00  0.00     0.003 A 
ENDROOT
BRANCH   1   7
ATOM      7  C1' I4B d   1      -0.701   1.934   1.864  0.00  0.00     0.060 C 
BRANCH   7   8
ATOM      8  C2' I4B d   1      -0.323   0.906   0.817  0.00  0.00    -0.013 C 
ATOM      9  C4' I4B d   1      -0.253  -0.476   1.411  0.00  0.00     0.013 C 
ATOM     10  C3' I4B d   1      -1.338   0.972  -0.284  0.00  0.00     0.013 C 
ENDBRANCH   7   8
ENDBRANCH   1   7
TORSDOF 2
ENDMDL
