MODEL 1
REMARK minimizedAffinity -2.71438193
REMARK minimizedRMSD -1
REMARK  2 active torsions:
REMARK  status: ('A' for Active; 'I' for Inactive)
REMARK    1  A    between atoms: C2'_3  and  C1'_4 
REMARK    2  A    between atoms: C1'_4  and  C1_5 
ROOT
ATOM      1  C1  I4B d   1      -1.058   1.180  -0.085  0.00  0.00    -0.075 A 
ATOM      2  C2  I4B d   1      -1.400   1.855   1.060  0.00  0.00     0.003 A 
ATOM      3  C3  I4B d   1      -1.406   3.271   1.078  0.00  0.00     0.002 A 
ATOM      4  C4  I4B d   1      -1.017   3.966  -0.049  0.00  0.00    -0.004 A 
ATOM      5  C5  I4B d   1      -0.694   3.280  -1.216  0.00  0.00     0.002 A 
ATOM      6  C6  I4B d   1      -0.726   1.879  -1.238  0.00  0.00     0.003 A 
ENDROOT
BRANCH   1   7
ATOM      7  C1' I4B d   1      -1.030  -0.315  -0.059  0.00  0.00     0.060 C 
BRANCH   7   8
ATOM      8  C2' I4B d   1       0.405  -0.759  -0.255  0.00  0.00    -0.013 C 
ATOM      9  C4' I4B d   1       1.186  -0.662   1.029  0.00  0.00     0.013 C 
ATOM     10  C3' I4B d   1       0.388  -2.166  -0.773  0.00  0.00     0.013 C 
ENDBRANCH   7   8
ENDBRANCH   1   7
TORSDOF 2
ENDMDL
