MODEL 1
REMARK minimizedAffinity -4.45378923
REMARK minimizedRMSD -1
REMARK  2 active torsions:
REMARK  status: ('A' for Active; 'I' for Inactive)
REMARK    1  A    between atoms: C2'_3  and  C1'_4 
REMARK    2  A    between atoms: C1'_4  and  C1_5 
ROOT
ATOM      1  C1  I4B d   1      -0.966   1.096   0.116  0.00  0.00    -0.075 A 
ATOM      2  C2  I4B d   1      -0.750   1.755  -1.068  0.00  0.00     0.003 A 
ATOM      3  C3  I4B d   1      -0.963   3.152  -1.156  0.00  0.00     0.002 A 
ATOM      4  C4  I4B d   1      -1.437   3.838  -0.056  0.00  0.00    -0.004 A 
ATOM      5  C5  I4B d   1      -1.633   3.173   1.150  0.00  0.00     0.002 A 
ATOM      6  C6  I4B d   1      -1.384   1.795   1.241  0.00  0.00     0.003 A 
ENDROOT
BRANCH   1   7
ATOM      7  C1' I4B d   1      -0.763  -0.385   0.165  0.00  0.00     0.060 C 
BRANCH   7   8
ATOM      8  C2' I4B d   1       0.648  -0.678  -0.303  0.00  0.00    -0.013 C 
ATOM      9  C4' I4B d   1       1.641  -0.499   0.815  0.00  0.00     0.013 C 
ATOM     10  C3' I4B d   1       0.678  -2.080  -0.834  0.00  0.00     0.013 C 
ENDBRANCH   7   8
ENDBRANCH   1   7
TORSDOF 2
ENDMDL
