MODEL 1
REMARK minimizedAffinity -3.00209022
REMARK minimizedRMSD -1
REMARK  2 active torsions:
REMARK  status: ('A' for Active; 'I' for Inactive)
REMARK    1  A    between atoms: C2'_3  and  C1'_4 
REMARK    2  A    between atoms: C1'_4  and  C1_5 
ROOT
ATOM      1  C1  I4B d   1      -0.495   2.825   1.121  0.00  0.00    -0.075 A 
ATOM      2  C2  I4B d   1      -0.799   3.278  -0.138  0.00  0.00     0.003 A 
ATOM      3  C3  I4B d   1      -0.997   2.360  -1.198  0.00  0.00     0.002 A 
ATOM      4  C4  I4B d   1      -0.833   1.010  -0.967  0.00  0.00    -0.004 A 
ATOM      5  C5  I4B d   1      -0.548   0.551   0.316  0.00  0.00     0.002 A 
ATOM      6  C6  I4B d   1      -0.390   1.463   1.369  0.00  0.00     0.003 A 
ENDROOT
BRANCH   1   7
ATOM      7  C1' I4B d   1      -0.260   3.824   2.209  0.00  0.00     0.060 C 
BRANCH   7   8
ATOM      8  C2' I4B d   1       1.236   3.949   2.413  0.00  0.00    -0.013 C 
ATOM      9  C4' I4B d   1       1.821   2.673   2.959  0.00  0.00     0.013 C 
ATOM     10  C3' I4B d   1       1.854   4.307   1.094  0.00  0.00     0.013 C 
ENDBRANCH   7   8
ENDBRANCH   1   7
TORSDOF 2
ENDMDL
