MODEL 1
REMARK minimizedAffinity 2.35944724
REMARK minimizedRMSD -1
REMARK  2 active torsions:
REMARK  status: ('A' for Active; 'I' for Inactive)
REMARK    1  A    between atoms: C2'_3  and  C1'_4 
REMARK    2  A    between atoms: C1'_4  and  C1_5 
ROOT
ATOM      1  C1  I4B d   1      -0.261  -0.621  -0.489  0.00  0.00    -0.075 A 
ATOM      2  C2  I4B d   1       0.635   0.396  -0.707  0.00  0.00     0.003 A 
ATOM      3  C3  I4B d   1       0.230   1.569  -1.389  0.00  0.00     0.002 A 
ATOM      4  C4  I4B d   1      -1.058   1.661  -1.877  0.00  0.00    -0.004 A 
ATOM      5  C5  I4B d   1      -1.971   0.639  -1.634  0.00  0.00     0.002 A 
ATOM      6  C6  I4B d   1      -1.575  -0.504  -0.925  0.00  0.00     0.003 A 
ENDROOT
BRANCH   1   7
ATOM      7  C1' I4B d   1       0.209  -1.859   0.206  0.00  0.00     0.060 C 
BRANCH   7   8
ATOM      8  C2' I4B d   1       0.344  -2.954  -0.832  0.00  0.00    -0.013 C 
ATOM      9  C4' I4B d   1       1.391  -3.959  -0.432  0.00  0.00     0.013 C 
ATOM     10  C3' I4B d   1      -0.997  -3.606  -0.995  0.00  0.00     0.013 C 
ENDBRANCH   7   8
ENDBRANCH   1   7
TORSDOF 2
ENDMDL
