MODEL 1
REMARK minimizedAffinity 10.067421
REMARK minimizedRMSD -1
REMARK  0 active torsions:
REMARK  status: ('A' for Active; 'I' for Inactive)
ROOT
ATOM      1  C   UNL d   1      -3.982   1.061  -1.072  0.00  0.00     0.078 C 
ATOM      2  C1  UNL d   1      -4.242   0.001  -2.101  0.00  0.00    -0.077 A 
ATOM      3  C2  UNL d   1      -5.244   0.162  -3.066  0.00  0.00    -0.001 A 
ATOM      4  C3  UNL d   1      -5.480  -0.837  -4.011  0.00  0.00     0.003 A 
ATOM      5  C4  UNL d   1      -4.720  -2.005  -4.001  0.00  0.00    -0.005 A 
ATOM      6  C5  UNL d   1      -3.722  -2.175  -3.043  0.00  0.00     0.003 A 
ATOM      7  C6  UNL d   1      -3.484  -1.177  -2.097  0.00  0.00    -0.001 A 
ENDROOT
TORSDOF 0
ENDMDL
