MODEL 1
REMARK minimizedAffinity 5.65253115
REMARK minimizedRMSD -1
REMARK  0 active torsions:
REMARK  status: ('A' for Active; 'I' for Inactive)
ROOT
ATOM      1  C   UNL d   1       2.422  -2.738   2.220  0.00  0.00     0.078 C 
ATOM      2  C1  UNL d   1       1.142  -2.057   2.600  0.00  0.00    -0.077 A 
ATOM      3  C2  UNL d   1       1.116  -1.073   3.596  0.00  0.00    -0.001 A 
ATOM      4  C3  UNL d   1      -0.085  -0.454   3.946  0.00  0.00     0.003 A 
ATOM      5  C4  UNL d   1      -1.270  -0.813   3.307  0.00  0.00    -0.005 A 
ATOM      6  C5  UNL d   1      -1.254  -1.793   2.316  0.00  0.00     0.003 A 
ATOM      7  C6  UNL d   1      -0.054  -2.412   1.964  0.00  0.00    -0.001 A 
ENDROOT
TORSDOF 0
ENDMDL
