MODEL 1
REMARK minimizedAffinity 7.19325829
REMARK minimizedRMSD -1
REMARK  0 active torsions:
REMARK  status: ('A' for Active; 'I' for Inactive)
ROOT
ATOM      1  C   UNL d   1       1.978  -3.561   2.002  0.00  0.00     0.078 C 
ATOM      2  C1  UNL d   1       3.307  -3.949   1.425  0.00  0.00    -0.077 A 
ATOM      3  C2  UNL d   1       4.501  -3.612   2.074  0.00  0.00    -0.001 A 
ATOM      4  C3  UNL d   1       5.731  -3.972   1.520  0.00  0.00     0.003 A 
ATOM      5  C4  UNL d   1       5.779  -4.669   0.314  0.00  0.00    -0.005 A 
ATOM      6  C5  UNL d   1       4.595  -5.006  -0.340  0.00  0.00     0.003 A 
ATOM      7  C6  UNL d   1       3.365  -4.648   0.212  0.00  0.00    -0.001 A 
ENDROOT
TORSDOF 0
ENDMDL
