MODEL 1
REMARK minimizedAffinity 4.24163246
REMARK minimizedRMSD -1
REMARK  0 active torsions:
REMARK  status: ('A' for Active; 'I' for Inactive)
ROOT
ATOM      1  C   UNL d   1       1.139  -2.309   1.909  0.00  0.00     0.078 C 
ATOM      2  C1  UNL d   1       1.219  -1.154   0.955  0.00  0.00    -0.077 A 
ATOM      3  C2  UNL d   1       0.482  -1.150  -0.236  0.00  0.00    -0.001 A 
ATOM      4  C3  UNL d   1       0.573  -0.073  -1.119  0.00  0.00     0.003 A 
ATOM      5  C4  UNL d   1       1.402   1.007  -0.821  0.00  0.00    -0.005 A 
ATOM      6  C5  UNL d   1       2.141   1.011   0.360  0.00  0.00     0.003 A 
ATOM      7  C6  UNL d   1       2.051  -0.065   1.244  0.00  0.00    -0.001 A 
ENDROOT
TORSDOF 0
ENDMDL
