MODEL 1
REMARK minimizedAffinity 4.87280941
REMARK minimizedRMSD -1
REMARK  0 active torsions:
REMARK  status: ('A' for Active; 'I' for Inactive)
ROOT
ATOM      1  C   UNL d   1       6.000  -5.678  -1.410  0.00  0.00     0.078 C 
ATOM      2  C1  UNL d   1       5.278  -5.015  -0.276  0.00  0.00    -0.077 A 
ATOM      3  C2  UNL d   1       3.884  -4.878  -0.290  0.00  0.00    -0.001 A 
ATOM      4  C3  UNL d   1       3.226  -4.249   0.768  0.00  0.00     0.003 A 
ATOM      5  C4  UNL d   1       3.953  -3.751   1.848  0.00  0.00    -0.005 A 
ATOM      6  C5  UNL d   1       5.340  -3.880   1.869  0.00  0.00     0.003 A 
ATOM      7  C6  UNL d   1       6.000  -4.509   0.812  0.00  0.00    -0.001 A 
ENDROOT
TORSDOF 0
ENDMDL
