MODEL 1
REMARK minimizedAffinity -0.831346095
REMARK minimizedRMSD -1
REMARK  0 active torsions:
REMARK  status: ('A' for Active; 'I' for Inactive)
ROOT
ATOM      1  C   UNL d   1       1.584  -2.968   1.632  0.00  0.00     0.078 C 
ATOM      2  C1  UNL d   1       2.416  -3.892   2.470  0.00  0.00    -0.077 A 
ATOM      3  C2  UNL d   1       2.821  -5.141   1.982  0.00  0.00    -0.001 A 
ATOM      4  C3  UNL d   1       3.587  -5.995   2.777  0.00  0.00     0.003 A 
ATOM      5  C4  UNL d   1       3.953  -5.610   4.066  0.00  0.00    -0.005 A 
ATOM      6  C5  UNL d   1       3.553  -4.371   4.561  0.00  0.00     0.003 A 
ATOM      7  C6  UNL d   1       2.787  -3.516   3.767  0.00  0.00    -0.001 A 
ENDROOT
TORSDOF 0
ENDMDL
