MODEL 1
REMARK minimizedAffinity 8.75618553
REMARK minimizedRMSD -1
REMARK  0 active torsions:
REMARK  status: ('A' for Active; 'I' for Inactive)
ROOT
ATOM      1  C   UNL d   1      -0.272  -1.514   2.919  0.00  0.00     0.078 C 
ATOM      2  C1  UNL d   1       0.879  -2.392   2.528  0.00  0.00    -0.077 A 
ATOM      3  C2  UNL d   1       0.705  -3.448   1.624  0.00  0.00    -0.001 A 
ATOM      4  C3  UNL d   1       1.783  -4.263   1.276  0.00  0.00     0.003 A 
ATOM      5  C4  UNL d   1       3.042  -4.032   1.828  0.00  0.00    -0.005 A 
ATOM      6  C5  UNL d   1       3.223  -2.986   2.730  0.00  0.00     0.003 A 
ATOM      7  C6  UNL d   1       2.147  -2.169   3.079  0.00  0.00    -0.001 A 
ENDROOT
TORSDOF 0
ENDMDL
