MODEL 1
REMARK minimizedAffinity -0.482532501
REMARK minimizedRMSD -1
REMARK  0 active torsions:
REMARK  status: ('A' for Active; 'I' for Inactive)
ROOT
ATOM      1  C   UNL d   1       2.519  -3.620   2.771  0.00  0.00     0.078 C 
ATOM      2  C1  UNL d   1       3.363  -4.158   3.888  0.00  0.00    -0.077 A 
ATOM      3  C2  UNL d   1       3.720  -5.511   3.936  0.00  0.00    -0.001 A 
ATOM      4  C3  UNL d   1       4.498  -5.999   4.987  0.00  0.00     0.003 A 
ATOM      5  C4  UNL d   1       4.923  -5.142   6.000  0.00  0.00    -0.005 A 
ATOM      6  C5  UNL d   1       4.570  -3.794   5.962  0.00  0.00     0.003 A 
ATOM      7  C6  UNL d   1       3.793  -3.304   4.912  0.00  0.00    -0.001 A 
ENDROOT
TORSDOF 0
ENDMDL
