MODEL 1
REMARK minimizedAffinity 9.1602993
REMARK minimizedRMSD -1
REMARK  0 active torsions:
REMARK  status: ('A' for Active; 'I' for Inactive)
ROOT
ATOM      1  C   UNL d   1      -0.698  -1.698   2.707  0.00  0.00     0.078 C 
ATOM      2  C1  UNL d   1      -1.890  -0.800   2.847  0.00  0.00    -0.077 A 
ATOM      3  C2  UNL d   1      -3.046  -1.013   2.085  0.00  0.00    -0.001 A 
ATOM      4  C3  UNL d   1      -4.145  -0.163   2.218  0.00  0.00     0.003 A 
ATOM      5  C4  UNL d   1      -4.100   0.906   3.111  0.00  0.00    -0.005 A 
ATOM      6  C5  UNL d   1      -2.953   1.127   3.871  0.00  0.00     0.003 A 
ATOM      7  C6  UNL d   1      -1.853   0.278   3.740  0.00  0.00    -0.001 A 
ENDROOT
TORSDOF 0
ENDMDL
