MODEL 1
REMARK minimizedAffinity -5.26310587
REMARK minimizedRMSD -1
REMARK  1 active torsions:
REMARK  status: ('A' for Active; 'I' for Inactive)
REMARK    1  A    between atoms: C1_2  and  C2_3 
ROOT
ATOM      1  C2  UNL d   1       0.401  -0.090   0.027  0.00  0.00    -0.077 A 
ATOM      2  C3  UNL d   1       1.743  -0.020  -0.374  0.00  0.00     0.002 A 
ATOM      3  C4  UNL d   1       2.686  -0.902   0.160  0.00  0.00     0.002 A 
ATOM      4  C5  UNL d   1       2.297  -1.860   1.093  0.00  0.00    -0.004 A 
ATOM      5  C6  UNL d   1       0.965  -1.936   1.499  0.00  0.00     0.002 A 
ATOM      6  C7  UNL d   1       0.022  -1.055   0.968  0.00  0.00     0.002 A 
ENDROOT
BRANCH   1   7
ATOM      7  C1  UNL d   1      -0.626   0.827  -0.583  0.00  0.00     0.055 C 
ATOM      8  C   UNL d   1      -1.323   0.168  -1.765  0.00  0.00     0.019 C 
ENDBRANCH   1   7
TORSDOF 1
ENDMDL
