MODEL 1
REMARK minimizedAffinity -5.75859833
REMARK minimizedRMSD -1
REMARK  1 active torsions:
REMARK  status: ('A' for Active; 'I' for Inactive)
REMARK    1  A    between atoms: C1_2  and  C2_3 
ROOT
ATOM      1  C2  UNL d   1       0.043  -0.586   0.045  0.00  0.00    -0.077 A 
ATOM      2  C3  UNL d   1      -0.465  -1.892   0.055  0.00  0.00     0.002 A 
ATOM      3  C4  UNL d   1       0.368  -2.972   0.355  0.00  0.00     0.002 A 
ATOM      4  C5  UNL d   1       1.712  -2.756   0.650  0.00  0.00    -0.004 A 
ATOM      5  C6  UNL d   1       2.228  -1.461   0.641  0.00  0.00     0.002 A 
ATOM      6  C7  UNL d   1       1.397  -0.380   0.340  0.00  0.00     0.002 A 
ENDROOT
BRANCH   1   7
ATOM      7  C1  UNL d   1      -0.864   0.585  -0.230  0.00  0.00     0.055 C 
ATOM      8  C   UNL d   1      -1.591   1.029   1.031  0.00  0.00     0.019 C 
ENDBRANCH   1   7
TORSDOF 1
ENDMDL
