MODEL 1
REMARK minimizedAffinity -2.01581621
REMARK minimizedRMSD -1
REMARK  1 active torsions:
REMARK  status: ('A' for Active; 'I' for Inactive)
REMARK    1  A    between atoms: C1_2  and  C2_3 
ROOT
ATOM      1  C2  UNL d   1       0.354  -0.761   0.080  0.00  0.00    -0.077 A 
ATOM      2  C3  UNL d   1       0.349  -1.840   0.975  0.00  0.00     0.002 A 
ATOM      3  C4  UNL d   1       1.548  -2.337   1.488  0.00  0.00     0.002 A 
ATOM      4  C5  UNL d   1       2.760  -1.760   1.116  0.00  0.00    -0.004 A 
ATOM      5  C6  UNL d   1       2.776  -0.688   0.225  0.00  0.00     0.002 A 
ATOM      6  C7  UNL d   1       1.578  -0.190  -0.291  0.00  0.00     0.002 A 
ENDROOT
BRANCH   1   7
ATOM      7  C1  UNL d   1      -0.941  -0.192  -0.437  0.00  0.00     0.055 C 
ATOM      8  C   UNL d   1      -0.785   0.342  -1.854  0.00  0.00     0.019 C 
ENDBRANCH   1   7
TORSDOF 1
ENDMDL
