MODEL 1
REMARK minimizedAffinity -4.29635906
REMARK minimizedRMSD -1
REMARK  1 active torsions:
REMARK  status: ('A' for Active; 'I' for Inactive)
REMARK    1  A    between atoms: C1_2  and  C2_3 
ROOT
ATOM      1  C2  UNL d   1       0.310   0.231   0.061  0.00  0.00    -0.077 A 
ATOM      2  C3  UNL d   1       1.677   0.391  -0.207  0.00  0.00     0.002 A 
ATOM      3  C4  UNL d   1       2.575  -0.643   0.062  0.00  0.00     0.002 A 
ATOM      4  C5  UNL d   1       2.116  -1.845   0.598  0.00  0.00    -0.004 A 
ATOM      5  C6  UNL d   1       0.759  -2.013   0.870  0.00  0.00     0.002 A 
ATOM      6  C7  UNL d   1      -0.140  -0.980   0.602  0.00  0.00     0.002 A 
ENDROOT
BRANCH   1   7
ATOM      7  C1  UNL d   1      -0.667   1.328  -0.275  0.00  0.00     0.055 C 
ATOM      8  C   UNL d   1      -1.444   1.007  -1.543  0.00  0.00     0.019 C 
ENDBRANCH   1   7
TORSDOF 1
ENDMDL
