MODEL 1
REMARK minimizedAffinity -5.53209257
REMARK minimizedRMSD -1
REMARK  1 active torsions:
REMARK  status: ('A' for Active; 'I' for Inactive)
REMARK    1  A    between atoms: C1_2  and  C2_3 
ROOT
ATOM      1  C2  UNL d   1      -0.160  -0.255  -0.128  0.00  0.00    -0.077 A 
ATOM      2  C3  UNL d   1      -0.489  -1.480   0.469  0.00  0.00     0.002 A 
ATOM      3  C4  UNL d   1       0.499  -2.439   0.704  0.00  0.00     0.002 A 
ATOM      4  C5  UNL d   1       1.821  -2.182   0.349  0.00  0.00    -0.004 A 
ATOM      5  C6  UNL d   1       2.158  -0.967  -0.247  0.00  0.00     0.002 A 
ATOM      6  C7  UNL d   1       1.172  -0.008  -0.484  0.00  0.00     0.002 A 
ENDROOT
BRANCH   1   7
ATOM      7  C1  UNL d   1      -1.214   0.799  -0.337  0.00  0.00     0.055 C 
ATOM      8  C   UNL d   1      -1.445   1.065  -1.818  0.00  0.00     0.019 C 
ENDBRANCH   1   7
TORSDOF 1
ENDMDL
