MODEL 1
REMARK minimizedAffinity -3.06264162
REMARK minimizedRMSD -1
REMARK  1 active torsions:
REMARK  status: ('A' for Active; 'I' for Inactive)
REMARK    1  A    between atoms: C1_2  and  C2_3 
ROOT
ATOM      1  C2  UNL d   1       0.062   0.469  -0.902  0.00  0.00    -0.077 A 
ATOM      2  C3  UNL d   1       0.388   0.392   0.459  0.00  0.00     0.002 A 
ATOM      3  C4  UNL d   1       1.343  -0.524   0.905  0.00  0.00     0.002 A 
ATOM      4  C5  UNL d   1       1.981  -1.366  -0.003  0.00  0.00    -0.004 A 
ATOM      5  C6  UNL d   1       1.661  -1.299  -1.358  0.00  0.00     0.002 A 
ATOM      6  C7  UNL d   1       0.707  -0.385  -1.806  0.00  0.00     0.002 A 
ENDROOT
BRANCH   1   7
ATOM      7  C1  UNL d   1      -0.931   1.490  -1.393  0.00  0.00     0.055 C 
ATOM      8  C   UNL d   1      -0.427   2.197  -2.643  0.00  0.00     0.019 C 
ENDBRANCH   1   7
TORSDOF 1
ENDMDL
