MODEL 1
REMARK minimizedAffinity -4.21431971
REMARK minimizedRMSD -1
REMARK  1 active torsions:
REMARK  status: ('A' for Active; 'I' for Inactive)
REMARK    1  A    between atoms: C1_2  and  C2_3 
ROOT
ATOM      1  C2  UNL d   1       2.240  -0.838   0.571  0.00  0.00    -0.077 A 
ATOM      2  C3  UNL d   1       1.919   0.271  -0.225  0.00  0.00     0.002 A 
ATOM      3  C4  UNL d   1       0.588   0.551  -0.541  0.00  0.00     0.002 A 
ATOM      4  C5  UNL d   1      -0.431  -0.269  -0.062  0.00  0.00    -0.004 A 
ATOM      5  C6  UNL d   1      -0.122  -1.374   0.729  0.00  0.00     0.002 A 
ATOM      6  C7  UNL d   1       1.208  -1.657   1.045  0.00  0.00     0.002 A 
ENDROOT
BRANCH   1   7
ATOM      7  C1  UNL d   1       3.671  -1.114   0.954  0.00  0.00     0.055 C 
ATOM      8  C   UNL d   1       4.173  -0.108   1.979  0.00  0.00     0.019 C 
ENDBRANCH   1   7
TORSDOF 1
ENDMDL
