MODEL 1
REMARK minimizedAffinity -3.57791948
REMARK minimizedRMSD -1
REMARK  1 active torsions:
REMARK  status: ('A' for Active; 'I' for Inactive)
REMARK    1  A    between atoms: C1_2  and  C2_3 
ROOT
ATOM      1  C2  UNL d   1      -0.658   1.164  -0.477  0.00  0.00    -0.077 A 
ATOM      2  C3  UNL d   1       0.486   0.442  -0.845  0.00  0.00     0.002 A 
ATOM      3  C4  UNL d   1       0.978  -0.571  -0.020  0.00  0.00     0.002 A 
ATOM      4  C5  UNL d   1       0.329  -0.874   1.176  0.00  0.00    -0.004 A 
ATOM      5  C6  UNL d   1      -0.808  -0.160   1.552  0.00  0.00     0.002 A 
ATOM      6  C7  UNL d   1      -1.300   0.854   0.729  0.00  0.00     0.002 A 
ENDROOT
BRANCH   1   7
ATOM      7  C1  UNL d   1      -1.218   2.224  -1.389  0.00  0.00     0.055 C 
ATOM      8  C   UNL d   1      -2.456   1.727  -2.121  0.00  0.00     0.019 C 
ENDBRANCH   1   7
TORSDOF 1
ENDMDL
