MODEL 1
REMARK minimizedAffinity -5.39232731
REMARK minimizedRMSD -1
REMARK  1 active torsions:
REMARK  status: ('A' for Active; 'I' for Inactive)
REMARK    1  A    between atoms: C1_2  and  C2_3 
ROOT
ATOM      1  C2  UNL d   1       2.106  -0.131  -0.214  0.00  0.00    -0.077 A 
ATOM      2  C3  UNL d   1       0.734   0.089  -0.024  0.00  0.00     0.002 A 
ATOM      3  C4  UNL d   1      -0.024  -0.800   0.741  0.00  0.00     0.002 A 
ATOM      4  C5  UNL d   1       0.581  -1.911   1.325  0.00  0.00    -0.004 A 
ATOM      5  C6  UNL d   1       1.944  -2.139   1.141  0.00  0.00     0.002 A 
ATOM      6  C7  UNL d   1       2.703  -1.253   0.375  0.00  0.00     0.002 A 
ENDROOT
BRANCH   1   7
ATOM      7  C1  UNL d   1       2.935   0.853  -0.997  0.00  0.00     0.055 C 
ATOM      8  C   UNL d   1       4.128   0.172  -1.653  0.00  0.00     0.019 C 
ENDBRANCH   1   7
TORSDOF 1
ENDMDL
