MODEL 1
REMARK minimizedAffinity -0.356830359
REMARK minimizedRMSD -1
REMARK  1 active torsions:
REMARK  status: ('A' for Active; 'I' for Inactive)
REMARK    1  A    between atoms: C1_2  and  C2_3 
ROOT
ATOM      1  C2  UNL d   1       0.557  -0.446   1.029  0.00  0.00    -0.077 A 
ATOM      2  C3  UNL d   1      -0.525  -0.042   1.824  0.00  0.00     0.002 A 
ATOM      3  C4  UNL d   1      -1.770   0.213   1.246  0.00  0.00     0.002 A 
ATOM      4  C5  UNL d   1      -1.946   0.065  -0.128  0.00  0.00    -0.004 A 
ATOM      5  C6  UNL d   1      -0.875  -0.334  -0.928  0.00  0.00     0.002 A 
ATOM      6  C7  UNL d   1       0.370  -0.589  -0.352  0.00  0.00     0.002 A 
ENDROOT
BRANCH   1   7
ATOM      7  C1  UNL d   1       1.887  -0.770   1.657  0.00  0.00     0.055 C 
ATOM      8  C   UNL d   1       2.007  -2.255   1.965  0.00  0.00     0.019 C 
ENDBRANCH   1   7
TORSDOF 1
ENDMDL
