MODEL 1
REMARK minimizedAffinity -2.97125363
REMARK minimizedRMSD -1
REMARK  1 active torsions:
REMARK  status: ('A' for Active; 'I' for Inactive)
REMARK    1  A    between atoms: C1_2  and  C2_3 
ROOT
ATOM      1  C2  UNL d   1      -0.096   0.412  -0.342  0.00  0.00    -0.077 A 
ATOM      2  C3  UNL d   1      -0.370  -0.957  -0.466  0.00  0.00     0.002 A 
ATOM      3  C4  UNL d   1       0.655  -1.896  -0.339  0.00  0.00     0.002 A 
ATOM      4  C5  UNL d   1       1.959  -1.477  -0.084  0.00  0.00    -0.004 A 
ATOM      5  C6  UNL d   1       2.241  -0.118   0.039  0.00  0.00     0.002 A 
ATOM      6  C7  UNL d   1       1.219   0.823  -0.088  0.00  0.00     0.002 A 
ENDROOT
BRANCH   1   7
ATOM      7  C1  UNL d   1      -1.209   1.424  -0.429  0.00  0.00     0.055 C 
ATOM      8  C   UNL d   1      -1.587   1.708  -1.876  0.00  0.00     0.019 C 
ENDBRANCH   1   7
TORSDOF 1
ENDMDL
