MODEL 1
REMARK minimizedAffinity -4.03789473
REMARK minimizedRMSD -1
REMARK  1 active torsions:
REMARK  status: ('A' for Active; 'I' for Inactive)
REMARK    1  A    between atoms: C1_2  and  C2_3 
ROOT
ATOM      1  C2  UNL d   1       0.277  -0.308  -0.745  0.00  0.00    -0.077 A 
ATOM      2  C3  UNL d   1      -0.367   0.687   0.004  0.00  0.00     0.002 A 
ATOM      3  C4  UNL d   1      -1.217   1.602  -0.620  0.00  0.00     0.002 A 
ATOM      4  C5  UNL d   1      -1.433   1.530  -1.995  0.00  0.00    -0.004 A 
ATOM      5  C6  UNL d   1      -0.795   0.546  -2.749  0.00  0.00     0.002 A 
ATOM      6  C7  UNL d   1       0.055  -0.370  -2.127  0.00  0.00     0.002 A 
ENDROOT
BRANCH   1   7
ATOM      7  C1  UNL d   1       1.155  -1.327  -0.067  0.00  0.00     0.055 C 
ATOM      8  C   UNL d   1       2.516  -0.742   0.279  0.00  0.00     0.019 C 
ENDBRANCH   1   7
TORSDOF 1
ENDMDL
