MODEL 1
REMARK minimizedAffinity -3.195153
REMARK minimizedRMSD -1
REMARK  1 active torsions:
REMARK  status: ('A' for Active; 'I' for Inactive)
REMARK    1  A    between atoms: C1_2  and  C2_3 
ROOT
ATOM      1  C2  UNL d   1      -0.158   0.516  -0.381  0.00  0.00    -0.077 A 
ATOM      2  C3  UNL d   1      -0.483  -0.638   0.346  0.00  0.00     0.002 A 
ATOM      3  C4  UNL d   1       0.461  -1.651   0.523  0.00  0.00     0.002 A 
ATOM      4  C5  UNL d   1       1.737  -1.519  -0.021  0.00  0.00    -0.004 A 
ATOM      5  C6  UNL d   1       2.069  -0.376  -0.748  0.00  0.00     0.002 A 
ATOM      6  C7  UNL d   1       1.126   0.637  -0.926  0.00  0.00     0.002 A 
ENDROOT
BRANCH   1   7
ATOM      7  C1  UNL d   1      -1.159   1.632  -0.530  0.00  0.00     0.055 C 
ATOM      8  C   UNL d   1      -1.565   1.820  -1.984  0.00  0.00     0.019 C 
ENDBRANCH   1   7
TORSDOF 1
ENDMDL
