MODEL 1
REMARK minimizedAffinity 4.4025178
REMARK minimizedRMSD -1
REMARK  1 active torsions:
REMARK  status: ('A' for Active; 'I' for Inactive)
REMARK    1  A    between atoms: N_2  and  C1_3 
ROOT
ATOM      1  C1  UNL d   1      -0.675  -0.424   1.246  0.00  0.00     0.143 A 
ATOM      2  C2  UNL d   1       0.398  -0.735   0.404  0.00  0.00    -0.057 A 
ATOM      3  C3  UNL d   1       0.275  -0.654  -0.988  0.00  0.00     0.033 A 
ATOM      4  C4  UNL d   1      -0.936  -0.287  -1.566  0.00  0.00    -0.042 A 
ATOM      5  C5  UNL d   1      -2.023   0.003  -0.749  0.00  0.00     0.033 A 
ATOM      6  C6  UNL d   1      -1.893  -0.074   0.641  0.00  0.00    -0.057 A 
ENDROOT
BRANCH   1   7
ATOM      7  N   UNL d   1      -0.646  -0.580   2.634  0.00  0.00    -0.732 N 
ATOM      8  C   UNL d   1      -0.991  -1.848   3.241  0.00  0.00     0.284 C 
ATOM      9  H3  UNL d   1       0.156  -0.120   3.060  0.00  0.00     0.395 HD
ENDBRANCH   1   7
TORSDOF 1
ENDMDL
