MODEL 1
REMARK minimizedAffinity -0.191059619
REMARK minimizedRMSD -1
REMARK  1 active torsions:
REMARK  status: ('A' for Active; 'I' for Inactive)
REMARK    1  A    between atoms: N_2  and  C1_3 
ROOT
ATOM      1  C1  UNL d   1       0.463  -1.472   1.038  0.00  0.00     0.143 A 
ATOM      2  C2  UNL d   1      -0.459  -0.737   0.285  0.00  0.00    -0.057 A 
ATOM      3  C3  UNL d   1      -1.580  -0.148   0.882  0.00  0.00     0.033 A 
ATOM      4  C4  UNL d   1      -1.815  -0.309   2.244  0.00  0.00    -0.042 A 
ATOM      5  C5  UNL d   1      -0.925  -1.056   3.008  0.00  0.00     0.033 A 
ATOM      6  C6  UNL d   1       0.196  -1.636   2.407  0.00  0.00    -0.057 A 
ENDROOT
BRANCH   1   7
ATOM      7  N   UNL d   1       1.543  -2.164   0.486  0.00  0.00    -0.732 N 
ATOM      8  C   UNL d   1       1.912  -3.473   0.982  0.00  0.00     0.284 C 
ATOM      9  H3  UNL d   1       1.583  -2.077  -0.527  0.00  0.00     0.395 HD
ENDBRANCH   1   7
TORSDOF 1
ENDMDL
