MODEL 1
REMARK minimizedAffinity 1.81047356
REMARK minimizedRMSD -1
REMARK  1 active torsions:
REMARK  status: ('A' for Active; 'I' for Inactive)
REMARK    1  A    between atoms: N_2  and  C1_3 
ROOT
ATOM      1  C1  UNL d   1       0.729  -1.899   1.467  0.00  0.00     0.143 A 
ATOM      2  C2  UNL d   1      -0.137  -2.401   2.443  0.00  0.00    -0.057 A 
ATOM      3  C3  UNL d   1       0.098  -3.638   3.056  0.00  0.00     0.033 A 
ATOM      4  C4  UNL d   1       1.192  -4.410   2.681  0.00  0.00    -0.042 A 
ATOM      5  C5  UNL d   1       2.053  -3.943   1.694  0.00  0.00     0.033 A 
ATOM      6  C6  UNL d   1       1.817  -2.704   1.091  0.00  0.00    -0.057 A 
ENDROOT
BRANCH   1   7
ATOM      7  N   UNL d   1       0.496  -0.723   0.750  0.00  0.00    -0.732 N 
ATOM      8  C   UNL d   1      -0.825  -0.134   0.710  0.00  0.00     0.284 C 
ATOM      9  H3  UNL d   1       1.250  -0.047   0.858  0.00  0.00     0.395 HD
ENDBRANCH   1   7
TORSDOF 1
ENDMDL
