MODEL 1
REMARK minimizedAffinity -0.169971347
REMARK minimizedRMSD -1
REMARK  2 active torsions:
REMARK  status: ('A' for Active; 'I' for Inactive)
REMARK    1  A    between atoms: C1_2  and  C2_3 
REMARK    2  A    between atoms: C2_3  and  C3_4 
ROOT
ATOM      1  C3  UNL d   1      -1.833  -5.973  -4.000  0.00  0.00    -0.075 A 
ATOM      2  C4  UNL d   1      -0.861  -5.993  -2.988  0.00  0.00     0.002 A 
ATOM      3  C5  UNL d   1       0.496  -5.950  -3.309  0.00  0.00     0.002 A 
ATOM      4  C6  UNL d   1       0.899  -5.896  -4.641  0.00  0.00    -0.004 A 
ATOM      5  C7  UNL d   1      -0.058  -5.892  -5.655  0.00  0.00     0.002 A 
ATOM      6  C8  UNL d   1      -1.416  -5.931  -5.337  0.00  0.00     0.002 A 
ENDROOT
BRANCH   1   7
ATOM      7  C2  UNL d   1      -3.304  -5.991  -3.658  0.00  0.00     0.056 C 
BRANCH   7   8
ATOM      8  C1  UNL d   1      -3.668  -5.154  -2.427  0.00  0.00     0.007 C 
ATOM      9  C   UNL d   1      -4.089  -5.998  -1.231  0.00  0.00     0.009 C 
ENDBRANCH   7   8
ENDBRANCH   1   7
TORSDOF 2
ENDMDL
