MODEL 1
REMARK minimizedAffinity -1.37975025
REMARK minimizedRMSD -1
REMARK  2 active torsions:
REMARK  status: ('A' for Active; 'I' for Inactive)
REMARK    1  A    between atoms: C1_2  and  C2_3 
REMARK    2  A    between atoms: C2_3  and  C3_4 
ROOT
ATOM      1  C3  UNL d   1      -1.807  -5.916  -4.222  0.00  0.00    -0.075 A 
ATOM      2  C4  UNL d   1      -1.463  -5.900  -5.582  0.00  0.00     0.002 A 
ATOM      3  C5  UNL d   1      -0.125  -5.946  -5.974  0.00  0.00     0.002 A 
ATOM      4  C6  UNL d   1       0.884  -6.000  -5.014  0.00  0.00    -0.004 A 
ATOM      5  C7  UNL d   1       0.554  -6.000  -3.661  0.00  0.00     0.002 A 
ATOM      6  C8  UNL d   1      -0.784  -5.958  -3.266  0.00  0.00     0.002 A 
ENDROOT
BRANCH   1   7
ATOM      7  C2  UNL d   1      -3.255  -5.896  -3.792  0.00  0.00     0.056 C 
BRANCH   7   8
ATOM      8  C1  UNL d   1      -3.454  -5.899  -2.273  0.00  0.00     0.007 C 
ATOM      9  C   UNL d   1      -4.893  -5.628  -1.855  0.00  0.00     0.009 C 
ENDBRANCH   7   8
ENDBRANCH   1   7
TORSDOF 2
ENDMDL
