MODEL 1
REMARK minimizedAffinity 7.91564703
REMARK minimizedRMSD -1
REMARK  2 active torsions:
REMARK  status: ('A' for Active; 'I' for Inactive)
REMARK    1  A    between atoms: C1_2  and  C2_3 
REMARK    2  A    between atoms: C2_3  and  C3_4 
ROOT
ATOM      1  C3  UNL d   1      -0.203  -5.639  -3.574  0.00  0.00    -0.075 A 
ATOM      2  C4  UNL d   1       1.074  -5.059  -3.587  0.00  0.00     0.002 A 
ATOM      3  C5  UNL d   1       1.678  -4.704  -4.793  0.00  0.00     0.002 A 
ATOM      4  C6  UNL d   1       1.020  -4.932  -6.000  0.00  0.00    -0.004 A 
ATOM      5  C7  UNL d   1      -0.242  -5.523  -6.000  0.00  0.00     0.002 A 
ATOM      6  C8  UNL d   1      -0.851  -5.876  -4.794  0.00  0.00     0.002 A 
ENDROOT
BRANCH   1   7
ATOM      7  C2  UNL d   1      -0.875  -6.000  -2.271  0.00  0.00     0.056 C 
BRANCH   7   8
ATOM      8  C1  UNL d   1      -2.116  -5.158  -1.955  0.00  0.00     0.007 C 
ATOM      9  C   UNL d   1      -3.347  -5.998  -1.643  0.00  0.00     0.009 C 
ENDBRANCH   7   8
ENDBRANCH   1   7
TORSDOF 2
ENDMDL
