MODEL 1
REMARK minimizedAffinity 1.15138376
REMARK minimizedRMSD -1
REMARK  2 active torsions:
REMARK  status: ('A' for Active; 'I' for Inactive)
REMARK    1  A    between atoms: C1_2  and  C2_3 
REMARK    2  A    between atoms: C2_3  and  C3_4 
ROOT
ATOM      1  C3  UNL d   1       1.366  -0.744   1.006  0.00  0.00    -0.075 A 
ATOM      2  C4  UNL d   1       0.530   0.263   0.501  0.00  0.00     0.002 A 
ATOM      3  C5  UNL d   1       1.046   1.265  -0.322  0.00  0.00     0.002 A 
ATOM      4  C6  UNL d   1       2.402   1.279  -0.641  0.00  0.00    -0.004 A 
ATOM      5  C7  UNL d   1       3.244   0.293  -0.132  0.00  0.00     0.002 A 
ATOM      6  C8  UNL d   1       2.730  -0.713   0.688  0.00  0.00     0.002 A 
ENDROOT
BRANCH   1   7
ATOM      7  C2  UNL d   1       0.809  -1.848   1.872  0.00  0.00     0.056 C 
BRANCH   7   8
ATOM      8  C1  UNL d   1       1.032  -3.256   1.309  0.00  0.00     0.007 C 
ATOM      9  C   UNL d   1      -0.005  -3.658   0.269  0.00  0.00     0.009 C 
ENDBRANCH   7   8
ENDBRANCH   1   7
TORSDOF 2
ENDMDL
