MODEL 1
REMARK minimizedAffinity 6.43997669
REMARK minimizedRMSD -1
REMARK  2 active torsions:
REMARK  status: ('A' for Active; 'I' for Inactive)
REMARK    1  A    between atoms: C1_2  and  C2_3 
REMARK    2  A    between atoms: C2_3  and  C3_4 
ROOT
ATOM      1  C3  UNL d   1       2.431  -1.044   0.581  0.00  0.00    -0.075 A 
ATOM      2  C4  UNL d   1       1.365  -0.139   0.482  0.00  0.00     0.002 A 
ATOM      3  C5  UNL d   1       0.046  -0.586   0.564  0.00  0.00     0.002 A 
ATOM      4  C6  UNL d   1      -0.224  -1.942   0.736  0.00  0.00    -0.004 A 
ATOM      5  C7  UNL d   1       0.828  -2.852   0.819  0.00  0.00     0.002 A 
ATOM      6  C8  UNL d   1       2.148  -2.407   0.742  0.00  0.00     0.002 A 
ENDROOT
BRANCH   1   7
ATOM      7  C2  UNL d   1       3.861  -0.563   0.523  0.00  0.00     0.056 C 
BRANCH   7   8
ATOM      8  C1  UNL d   1       4.125   0.476  -0.573  0.00  0.00     0.007 C 
ATOM      9  C   UNL d   1       5.221   0.058  -1.544  0.00  0.00     0.009 C 
ENDBRANCH   7   8
ENDBRANCH   1   7
TORSDOF 2
ENDMDL
