MODEL 1
REMARK minimizedAffinity 0.98874712
REMARK minimizedRMSD -1
REMARK  2 active torsions:
REMARK  status: ('A' for Active; 'I' for Inactive)
REMARK    1  A    between atoms: C1_2  and  C2_3 
REMARK    2  A    between atoms: C2_3  and  C3_4 
ROOT
ATOM      1  C3  UNL d   1      -1.838  -5.981  -2.733  0.00  0.00    -0.075 A 
ATOM      2  C4  UNL d   1      -1.918  -5.990  -4.133  0.00  0.00     0.002 A 
ATOM      3  C5  UNL d   1      -0.759  -6.000  -4.910  0.00  0.00     0.002 A 
ATOM      4  C6  UNL d   1       0.492  -5.991  -4.298  0.00  0.00    -0.004 A 
ATOM      5  C7  UNL d   1       0.585  -5.966  -2.908  0.00  0.00     0.002 A 
ATOM      6  C8  UNL d   1      -0.574  -5.960  -2.129  0.00  0.00     0.002 A 
ENDROOT
BRANCH   1   7
ATOM      7  C2  UNL d   1      -3.088  -6.000  -1.887  0.00  0.00     0.056 C 
BRANCH   7   8
ATOM      8  C1  UNL d   1      -4.389  -5.962  -2.696  0.00  0.00     0.007 C 
ATOM      9  C   UNL d   1      -5.638  -5.993  -1.825  0.00  0.00     0.009 C 
ENDBRANCH   7   8
ENDBRANCH   1   7
TORSDOF 2
ENDMDL
