MODEL 1
REMARK minimizedAffinity 6.57471848
REMARK minimizedRMSD -1
REMARK  2 active torsions:
REMARK  status: ('A' for Active; 'I' for Inactive)
REMARK    1  A    between atoms: C1_2  and  C2_3 
REMARK    2  A    between atoms: C2_3  and  C3_4 
ROOT
ATOM      1  C3  UNL d   1       3.825   1.277  -0.720  0.00  0.00    -0.075 A 
ATOM      2  C4  UNL d   1       4.558   1.187  -1.912  0.00  0.00     0.002 A 
ATOM      3  C5  UNL d   1       5.235   2.299  -2.413  0.00  0.00     0.002 A 
ATOM      4  C6  UNL d   1       5.180   3.515  -1.736  0.00  0.00    -0.004 A 
ATOM      5  C7  UNL d   1       4.440   3.620  -0.560  0.00  0.00     0.002 A 
ATOM      6  C8  UNL d   1       3.766   2.508  -0.054  0.00  0.00     0.002 A 
ENDROOT
BRANCH   1   7
ATOM      7  C2  UNL d   1       3.114   0.069  -0.157  0.00  0.00     0.056 C 
BRANCH   7   8
ATOM      8  C1  UNL d   1       1.602   0.255   0.004  0.00  0.00     0.007 C 
ATOM      9  C   UNL d   1       0.939  -0.870   0.788  0.00  0.00     0.009 C 
ENDBRANCH   7   8
ENDBRANCH   1   7
TORSDOF 2
ENDMDL
