MODEL 1
REMARK minimizedAffinity -1.04988468
REMARK minimizedRMSD -1
REMARK  2 active torsions:
REMARK  status: ('A' for Active; 'I' for Inactive)
REMARK    1  A    between atoms: C1_2  and  C2_3 
REMARK    2  A    between atoms: C2_3  and  C3_4 
ROOT
ATOM      1  C3  UNL d   1      -1.831  -5.991  -3.566  0.00  0.00    -0.075 A 
ATOM      2  C4  UNL d   1      -0.442  -5.987  -3.373  0.00  0.00     0.002 A 
ATOM      3  C5  UNL d   1       0.424  -5.969  -4.467  0.00  0.00     0.002 A 
ATOM      4  C6  UNL d   1      -0.085  -5.967  -5.763  0.00  0.00    -0.004 A 
ATOM      5  C7  UNL d   1      -1.463  -5.987  -5.966  0.00  0.00     0.002 A 
ATOM      6  C8  UNL d   1      -2.333  -6.000  -4.874  0.00  0.00     0.002 A 
ENDROOT
BRANCH   1   7
ATOM      7  C2  UNL d   1      -2.774  -5.979  -2.386  0.00  0.00     0.056 C 
BRANCH   7   8
ATOM      8  C1  UNL d   1      -4.257  -5.976  -2.774  0.00  0.00     0.007 C 
ATOM      9  C   UNL d   1      -5.192  -5.986  -1.571  0.00  0.00     0.009 C 
ENDBRANCH   7   8
ENDBRANCH   1   7
TORSDOF 2
ENDMDL
