MODEL 1
REMARK minimizedAffinity -0.424664944
REMARK minimizedRMSD -1
REMARK  2 active torsions:
REMARK  status: ('A' for Active; 'I' for Inactive)
REMARK    1  A    between atoms: C1_2  and  C2_3 
REMARK    2  A    between atoms: C2_3  and  C3_4 
ROOT
ATOM      1  C3  UNL d   1       1.638  -1.101   0.970  0.00  0.00    -0.075 A 
ATOM      2  C4  UNL d   1       0.474  -0.410   1.337  0.00  0.00     0.002 A 
ATOM      3  C5  UNL d   1       0.233   0.877   0.857  0.00  0.00     0.002 A 
ATOM      4  C6  UNL d   1       1.155   1.493   0.014  0.00  0.00    -0.004 A 
ATOM      5  C7  UNL d   1       2.323   0.823  -0.344  0.00  0.00     0.002 A 
ATOM      6  C8  UNL d   1       2.564  -0.467   0.131  0.00  0.00     0.002 A 
ENDROOT
BRANCH   1   7
ATOM      7  C2  UNL d   1       1.890  -2.506   1.463  0.00  0.00     0.056 C 
BRANCH   7   8
ATOM      8  C1  UNL d   1       0.628  -3.370   1.559  0.00  0.00     0.007 C 
ATOM      9  C   UNL d   1      -0.074  -3.557   0.221  0.00  0.00     0.009 C 
ENDBRANCH   7   8
ENDBRANCH   1   7
TORSDOF 2
ENDMDL
