MODEL 1
REMARK minimizedAffinity -0.622098207
REMARK minimizedRMSD -1
REMARK  2 active torsions:
REMARK  status: ('A' for Active; 'I' for Inactive)
REMARK    1  A    between atoms: C1_2  and  C2_3 
REMARK    2  A    between atoms: C2_3  and  C3_4 
ROOT
ATOM      1  C3  UNL d   1       0.070  -0.876   0.594  0.00  0.00    -0.075 A 
ATOM      2  C4  UNL d   1       0.989  -1.430   1.498  0.00  0.00     0.002 A 
ATOM      3  C5  UNL d   1       1.012  -2.805   1.731  0.00  0.00     0.002 A 
ATOM      4  C6  UNL d   1       0.112  -3.641   1.074  0.00  0.00    -0.004 A 
ATOM      5  C7  UNL d   1      -0.816  -3.100   0.187  0.00  0.00     0.002 A 
ATOM      6  C8  UNL d   1      -0.838  -1.725  -0.052  0.00  0.00     0.002 A 
ENDROOT
BRANCH   1   7
ATOM      7  C2  UNL d   1       0.059   0.608   0.314  0.00  0.00     0.056 C 
BRANCH   7   8
ATOM      8  C1  UNL d   1       1.286   1.106  -0.457  0.00  0.00     0.007 C 
ATOM      9  C   UNL d   1       1.584   0.286  -1.705  0.00  0.00     0.009 C 
ENDBRANCH   7   8
ENDBRANCH   1   7
TORSDOF 2
ENDMDL
