MODEL 1
REMARK minimizedAffinity 4.68747091
REMARK minimizedRMSD -1
REMARK  2 active torsions:
REMARK  status: ('A' for Active; 'I' for Inactive)
REMARK    1  A    between atoms: C1_2  and  C2_3 
REMARK    2  A    between atoms: C2_3  and  C3_4 
ROOT
ATOM      1  C3  UNL d   1      -1.788  -5.981  -3.236  0.00  0.00    -0.075 A 
ATOM      2  C4  UNL d   1      -2.755  -5.996  -4.251  0.00  0.00     0.002 A 
ATOM      3  C5  UNL d   1      -4.114  -5.999  -3.935  0.00  0.00     0.002 A 
ATOM      4  C6  UNL d   1      -4.522  -5.997  -2.603  0.00  0.00    -0.004 A 
ATOM      5  C7  UNL d   1      -3.569  -6.000  -1.586  0.00  0.00     0.002 A 
ATOM      6  C8  UNL d   1      -2.209  -5.993  -1.900  0.00  0.00     0.002 A 
ENDROOT
BRANCH   1   7
ATOM      7  C2  UNL d   1      -0.316  -5.949  -3.572  0.00  0.00     0.056 C 
BRANCH   7   8
ATOM      8  C1  UNL d   1      -0.015  -5.530  -5.015  0.00  0.00     0.007 C 
ATOM      9  C   UNL d   1       1.457  -5.224  -5.257  0.00  0.00     0.009 C 
ENDBRANCH   7   8
ENDBRANCH   1   7
TORSDOF 2
ENDMDL
