MODEL 1
REMARK minimizedAffinity -1.35768032
REMARK minimizedRMSD -1
REMARK  2 active torsions:
REMARK  status: ('A' for Active; 'I' for Inactive)
REMARK    1  A    between atoms: C1_2  and  C2_3 
REMARK    2  A    between atoms: C2_3  and  C3_4 
ROOT
ATOM      1  C3  UNL d   1      -0.952  -5.694  -3.503  0.00  0.00    -0.075 A 
ATOM      2  C4  UNL d   1       0.394  -5.305  -3.564  0.00  0.00     0.002 A 
ATOM      3  C5  UNL d   1       0.989  -5.003  -4.789  0.00  0.00     0.002 A 
ATOM      4  C6  UNL d   1       0.252  -5.098  -5.967  0.00  0.00    -0.004 A 
ATOM      5  C7  UNL d   1      -1.081  -5.500  -5.921  0.00  0.00     0.002 A 
ATOM      6  C8  UNL d   1      -1.681  -5.798  -4.696  0.00  0.00     0.002 A 
ENDROOT
BRANCH   1   7
ATOM      7  C2  UNL d   1      -1.611  -5.993  -2.178  0.00  0.00     0.056 C 
BRANCH   7   8
ATOM      8  C1  UNL d   1      -3.143  -5.981  -2.226  0.00  0.00     0.007 C 
ATOM      9  C   UNL d   1      -3.787  -5.998  -0.846  0.00  0.00     0.009 C 
ENDBRANCH   7   8
ENDBRANCH   1   7
TORSDOF 2
ENDMDL
