MODEL 1
REMARK minimizedAffinity 0.794238508
REMARK minimizedRMSD -1
REMARK  2 active torsions:
REMARK  status: ('A' for Active; 'I' for Inactive)
REMARK    1  A    between atoms: C1_2  and  C2_3 
REMARK    2  A    between atoms: C2_3  and  C3_4 
ROOT
ATOM      1  C3  UNL d   1      -1.448  -5.929  -3.633  0.00  0.00    -0.075 A 
ATOM      2  C4  UNL d   1      -0.713  -5.867  -2.440  0.00  0.00     0.002 A 
ATOM      3  C5  UNL d   1       0.679  -5.776  -2.469  0.00  0.00     0.002 A 
ATOM      4  C6  UNL d   1       1.353  -5.755  -3.688  0.00  0.00    -0.004 A 
ATOM      5  C7  UNL d   1       0.634  -5.833  -4.879  0.00  0.00     0.002 A 
ATOM      6  C8  UNL d   1      -0.759  -5.920  -4.853  0.00  0.00     0.002 A 
ENDROOT
BRANCH   1   7
ATOM      7  C2  UNL d   1      -2.956  -5.999  -3.608  0.00  0.00     0.056 C 
BRANCH   7   8
ATOM      8  C1  UNL d   1      -3.600  -5.176  -2.488  0.00  0.00     0.007 C 
ATOM      9  C   UNL d   1      -4.539  -5.991  -1.608  0.00  0.00     0.009 C 
ENDBRANCH   7   8
ENDBRANCH   1   7
TORSDOF 2
ENDMDL
