MODEL 1
REMARK minimizedAffinity 4.45329666
REMARK minimizedRMSD -1
REMARK  2 active torsions:
REMARK  status: ('A' for Active; 'I' for Inactive)
REMARK    1  A    between atoms: C1_2  and  C2_3 
REMARK    2  A    between atoms: C2_3  and  C3_4 
ROOT
ATOM      1  C3  UNL d   1      -0.840  -5.982  -3.049  0.00  0.00    -0.075 A 
ATOM      2  C4  UNL d   1      -1.239  -5.968  -4.394  0.00  0.00     0.002 A 
ATOM      3  C5  UNL d   1      -0.288  -5.982  -5.415  0.00  0.00     0.002 A 
ATOM      4  C6  UNL d   1       1.070  -6.000  -5.106  0.00  0.00    -0.004 A 
ATOM      5  C7  UNL d   1       1.478  -5.997  -3.774  0.00  0.00     0.002 A 
ATOM      6  C8  UNL d   1       0.529  -5.987  -2.750  0.00  0.00     0.002 A 
ENDROOT
BRANCH   1   7
ATOM      7  C2  UNL d   1      -1.864  -5.997  -1.939  0.00  0.00     0.056 C 
BRANCH   7   8
ATOM      8  C1  UNL d   1      -3.206  -5.363  -2.321  0.00  0.00     0.007 C 
ATOM      9  C   UNL d   1      -4.365  -5.848  -1.460  0.00  0.00     0.009 C 
ENDBRANCH   7   8
ENDBRANCH   1   7
TORSDOF 2
ENDMDL
