MODEL 1
REMARK minimizedAffinity -2.12945795
REMARK minimizedRMSD -1
REMARK  2 active torsions:
REMARK  status: ('A' for Active; 'I' for Inactive)
REMARK    1  A    between atoms: C1_2  and  C2_3 
REMARK    2  A    between atoms: C2_3  and  C3_4 
ROOT
ATOM      1  C3  UNL d   1      -0.999  -5.821  -3.342  0.00  0.00    -0.075 A 
ATOM      2  C4  UNL d   1       0.006  -5.995  -4.304  0.00  0.00     0.002 A 
ATOM      3  C5  UNL d   1       1.350  -5.856  -3.958  0.00  0.00     0.002 A 
ATOM      4  C6  UNL d   1       1.706  -5.532  -2.651  0.00  0.00    -0.004 A 
ATOM      5  C7  UNL d   1       0.715  -5.340  -1.690  0.00  0.00     0.002 A 
ATOM      6  C8  UNL d   1      -0.630  -5.483  -2.033  0.00  0.00     0.002 A 
ENDROOT
BRANCH   1   7
ATOM      7  C2  UNL d   1      -2.454  -6.000  -3.703  0.00  0.00     0.056 C 
BRANCH   7   8
ATOM      8  C1  UNL d   1      -3.402  -5.988  -2.499  0.00  0.00     0.007 C 
ATOM      9  C   UNL d   1      -4.873  -5.964  -2.893  0.00  0.00     0.009 C 
ENDBRANCH   7   8
ENDBRANCH   1   7
TORSDOF 2
ENDMDL
