MODEL 1
REMARK minimizedAffinity 2.19978142
REMARK minimizedRMSD -1
REMARK  0 active torsions:
REMARK  status: ('A' for Active; 'I' for Inactive)
ROOT
ATOM      1  C4' PXY d   1       2.631   1.077   0.336  0.00  0.00     0.077 C 
ATOM      2  C1' PXY d   1       1.916  -3.998   3.011  0.00  0.00     0.077 C 
ATOM      3  C1  PXY d   1       2.096  -2.671   2.300  0.00  0.00    -0.082 A 
ATOM      4  C2  PXY d   1       3.190  -1.958   2.512  0.00  0.00     0.003 A 
ATOM      5  C3  PXY d   1       3.354  -0.741   1.902  0.00  0.00     0.003 A 
ATOM      6  C4  PXY d   1       2.412  -0.273   1.025  0.00  0.00    -0.082 A 
ATOM      7  C5  PXY d   1       1.297  -1.000   0.796  0.00  0.00     0.003 A 
ATOM      8  C6  PXY d   1       1.131  -2.213   1.457  0.00  0.00     0.003 A 
ENDROOT
TORSDOF 0
ENDMDL
