MODEL 1
REMARK minimizedAffinity 2.15142846
REMARK minimizedRMSD -1
REMARK  0 active torsions:
REMARK  status: ('A' for Active; 'I' for Inactive)
ROOT
ATOM      1  C4' PXY d   1       1.134  -3.299   2.330  0.00  0.00     0.077 C 
ATOM      2  C1' PXY d   1       1.572   2.184   0.552  0.00  0.00     0.077 C 
ATOM      3  C1  PXY d   1       1.445   0.748   1.020  0.00  0.00    -0.082 A 
ATOM      4  C2  PXY d   1       2.510   0.114   1.483  0.00  0.00     0.003 A 
ATOM      5  C3  PXY d   1       2.419  -1.195   1.881  0.00  0.00     0.003 A 
ATOM      6  C4  PXY d   1       1.215  -1.846   1.855  0.00  0.00    -0.082 A 
ATOM      7  C5  PXY d   1       0.121  -1.202   1.394  0.00  0.00     0.003 A 
ATOM      8  C6  PXY d   1       0.243   0.113   0.956  0.00  0.00     0.003 A 
ENDROOT
TORSDOF 0
ENDMDL
