MODEL 1
REMARK minimizedAffinity 8.55210972
REMARK minimizedRMSD -1
REMARK  0 active torsions:
REMARK  status: ('A' for Active; 'I' for Inactive)
ROOT
ATOM      1  C4' PXY d   1       3.688   1.994   3.940  0.00  0.00     0.077 C 
ATOM      2  C1' PXY d   1       0.856  -1.497   0.306  0.00  0.00     0.077 C 
ATOM      3  C1  PXY d   1       1.605  -0.592   1.264  0.00  0.00    -0.082 A 
ATOM      4  C2  PXY d   1       1.116   0.604   1.551  0.00  0.00     0.003 A 
ATOM      5  C3  PXY d   1       1.797   1.448   2.391  0.00  0.00     0.003 A 
ATOM      6  C4  PXY d   1       2.962   1.043   2.985  0.00  0.00    -0.082 A 
ATOM      7  C5  PXY d   1       3.461  -0.180   2.706  0.00  0.00     0.003 A 
ATOM      8  C6  PXY d   1       2.776  -1.006   1.819  0.00  0.00     0.003 A 
ENDROOT
TORSDOF 0
ENDMDL
