MODEL 1
REMARK minimizedAffinity 4.04687071
REMARK minimizedRMSD -1
REMARK  0 active torsions:
REMARK  status: ('A' for Active; 'I' for Inactive)
ROOT
ATOM      1  C4' PXY d   1      -3.001   2.673  -2.392  0.00  0.00     0.077 C 
ATOM      2  C1' PXY d   1      -5.601   2.617   2.771  0.00  0.00     0.077 C 
ATOM      3  C1  PXY d   1      -4.930   2.635   1.411  0.00  0.00    -0.082 A 
ATOM      4  C2  PXY d   1      -3.810   1.955   1.226  0.00  0.00     0.003 A 
ATOM      5  C3  PXY d   1      -3.174   1.986   0.011  0.00  0.00     0.003 A 
ATOM      6  C4  PXY d   1      -3.718   2.677  -1.038  0.00  0.00    -0.082 A 
ATOM      7  C5  PXY d   1      -4.866   3.363  -0.860  0.00  0.00     0.003 A 
ATOM      8  C6  PXY d   1      -5.475   3.353   0.392  0.00  0.00     0.003 A 
ENDROOT
TORSDOF 0
ENDMDL
