MODEL 1
REMARK minimizedAffinity 1.17522228
REMARK minimizedRMSD -1
REMARK  0 active torsions:
REMARK  status: ('A' for Active; 'I' for Inactive)
ROOT
ATOM      1  C4' PXY d   1       4.562  -1.695   0.943  0.00  0.00     0.077 C 
ATOM      2  C1' PXY d   1      -1.170  -1.014   1.260  0.00  0.00     0.077 C 
ATOM      3  C1  PXY d   1       0.335  -1.180   1.176  0.00  0.00    -0.082 A 
ATOM      4  C2  PXY d   1       0.844  -2.328   0.759  0.00  0.00     0.003 A 
ATOM      5  C3  PXY d   1       2.203  -2.505   0.707  0.00  0.00     0.003 A 
ATOM      6  C4  PXY d   1       3.049  -1.480   1.035  0.00  0.00    -0.082 A 
ATOM      7  C5  PXY d   1       2.537  -0.302   1.450  0.00  0.00     0.003 A 
ATOM      8  C6  PXY d   1       1.155  -0.156   1.535  0.00  0.00     0.003 A 
ENDROOT
TORSDOF 0
ENDMDL
