MODEL 1
REMARK minimizedAffinity 10.4776115
REMARK minimizedRMSD -1
REMARK  0 active torsions:
REMARK  status: ('A' for Active; 'I' for Inactive)
ROOT
ATOM      1  C4' PXY d   1      -0.383  -2.038  -1.985  0.00  0.00     0.077 C 
ATOM      2  C1' PXY d   1       2.435  -0.175   2.705  0.00  0.00     0.077 C 
ATOM      3  C1  PXY d   1       1.686  -0.666   1.482  0.00  0.00    -0.082 A 
ATOM      4  C2  PXY d   1       2.360  -1.144   0.450  0.00  0.00     0.003 A 
ATOM      5  C3  PXY d   1       1.700  -1.563  -0.677  0.00  0.00     0.003 A 
ATOM      6  C4  PXY d   1       0.332  -1.541  -0.726  0.00  0.00    -0.082 A 
ATOM      7  C5  PXY d   1      -0.364  -1.064   0.328  0.00  0.00     0.003 A 
ATOM      8  C6  PXY d   1       0.327  -0.605   1.446  0.00  0.00     0.003 A 
ENDROOT
TORSDOF 0
ENDMDL
