MODEL 1
REMARK minimizedAffinity 16.6584282
REMARK minimizedRMSD -1
REMARK  0 active torsions:
REMARK  status: ('A' for Active; 'I' for Inactive)
ROOT
ATOM      1  C4' PXY d   1       0.672   2.575   2.031  0.00  0.00     0.077 C 
ATOM      2  C1' PXY d   1       4.784  -1.326   0.897  0.00  0.00     0.077 C 
ATOM      3  C1  PXY d   1       3.713  -0.294   1.190  0.00  0.00    -0.082 A 
ATOM      4  C2  PXY d   1       2.804  -0.540   2.119  0.00  0.00     0.003 A 
ATOM      5  C3  PXY d   1       1.810   0.369   2.374  0.00  0.00     0.003 A 
ATOM      6  C4  PXY d   1       1.777   1.566   1.709  0.00  0.00    -0.082 A 
ATOM      7  C5  PXY d   1       2.707   1.829   0.767  0.00  0.00     0.003 A 
ATOM      8  C6  PXY d   1       3.684   0.875   0.494  0.00  0.00     0.003 A 
ENDROOT
TORSDOF 0
ENDMDL
