MODEL 1
REMARK minimizedAffinity 11.8770876
REMARK minimizedRMSD -1
REMARK  2 active torsions:
REMARK  status: ('A' for Active; 'I' for Inactive)
REMARK    1  A    between atoms: C1_2  and  C2_3 
REMARK    2  A    between atoms: C2_3  and  C3_4 
ROOT
ATOM      1  C3  UNL d   1      -5.856   3.910   3.589  0.00  0.00    -0.075 A 
ATOM      2  C4  UNL d   1      -5.999   5.236   3.157  0.00  0.00     0.002 A 
ATOM      3  C5  UNL d   1      -5.983   5.544   1.797  0.00  0.00     0.002 A 
ATOM      4  C6  UNL d   1      -5.814   4.533   0.853  0.00  0.00    -0.004 A 
ATOM      5  C7  UNL d   1      -5.655   3.214   1.271  0.00  0.00     0.002 A 
ATOM      6  C8  UNL d   1      -5.675   2.903   2.632  0.00  0.00     0.002 A 
ENDROOT
BRANCH   1   7
ATOM      7  C2  UNL d   1      -5.902   3.567   5.059  0.00  0.00     0.056 C 
BRANCH   7   8
ATOM      8  C1  UNL d   1      -5.954   4.788   5.983  0.00  0.00     0.007 C 
ATOM      9  C   UNL d   1      -4.870   5.814   5.683  0.00  0.00     0.009 C 
ENDBRANCH   7   8
ENDBRANCH   1   7
TORSDOF 2
ENDMDL
