MODEL 1
REMARK minimizedAffinity 15.1658669
REMARK minimizedRMSD -1
REMARK  2 active torsions:
REMARK  status: ('A' for Active; 'I' for Inactive)
REMARK    1  A    between atoms: C1_2  and  C2_3 
REMARK    2  A    between atoms: C2_3  and  C3_4 
ROOT
ATOM      1  C3  UNL d   1       1.773   2.055   1.907  0.00  0.00    -0.075 A 
ATOM      2  C4  UNL d   1       3.070   2.439   1.535  0.00  0.00     0.002 A 
ATOM      3  C5  UNL d   1       3.674   1.889   0.404  0.00  0.00     0.002 A 
ATOM      4  C6  UNL d   1       2.996   0.943  -0.362  0.00  0.00    -0.004 A 
ATOM      5  C7  UNL d   1       1.714   0.542   0.008  0.00  0.00     0.002 A 
ATOM      6  C8  UNL d   1       1.105   1.094   1.136  0.00  0.00     0.002 A 
ENDROOT
BRANCH   1   7
ATOM      7  C2  UNL d   1       1.102   2.668   3.113  0.00  0.00     0.056 C 
BRANCH   7   8
ATOM      8  C1  UNL d   1       1.545   4.105   3.410  0.00  0.00     0.007 C 
ATOM      9  C   UNL d   1       0.399   5.107   3.368  0.00  0.00     0.009 C 
ENDBRANCH   7   8
ENDBRANCH   1   7
TORSDOF 2
ENDMDL
