MODEL 1
REMARK minimizedAffinity 8.58163071
REMARK minimizedRMSD -1
REMARK  2 active torsions:
REMARK  status: ('A' for Active; 'I' for Inactive)
REMARK    1  A    between atoms: C1_2  and  C2_3 
REMARK    2  A    between atoms: C2_3  and  C3_4 
ROOT
ATOM      1  C3  UNL d   1       5.320   2.662  -1.015  0.00  0.00    -0.075 A 
ATOM      2  C4  UNL d   1       4.030   2.205  -1.321  0.00  0.00     0.002 A 
ATOM      3  C5  UNL d   1       3.423   1.221  -0.540  0.00  0.00     0.002 A 
ATOM      4  C6  UNL d   1       4.101   0.675   0.548  0.00  0.00    -0.004 A 
ATOM      5  C7  UNL d   1       5.389   1.110   0.851  0.00  0.00     0.002 A 
ATOM      6  C8  UNL d   1       5.997   2.097   0.074  0.00  0.00     0.002 A 
ENDROOT
BRANCH   1   7
ATOM      7  C2  UNL d   1       5.971   3.747  -1.839  0.00  0.00     0.056 C 
BRANCH   7   8
ATOM      8  C1  UNL d   1       5.222   5.084  -1.812  0.00  0.00     0.007 C 
ATOM      9  C   UNL d   1       5.660   5.995  -0.673  0.00  0.00     0.009 C 
ENDBRANCH   7   8
ENDBRANCH   1   7
TORSDOF 2
ENDMDL
