MODEL 1
REMARK minimizedAffinity 3.43671417
REMARK minimizedRMSD -1
REMARK  2 active torsions:
REMARK  status: ('A' for Active; 'I' for Inactive)
REMARK    1  A    between atoms: C1_2  and  C2_3 
REMARK    2  A    between atoms: C2_3  and  C3_4 
ROOT
ATOM      1  C3  UNL d   1       3.090   4.833   4.357  0.00  0.00    -0.075 A 
ATOM      2  C4  UNL d   1       3.504   3.660   5.006  0.00  0.00     0.002 A 
ATOM      3  C5  UNL d   1       4.644   3.662   5.811  0.00  0.00     0.002 A 
ATOM      4  C6  UNL d   1       5.387   4.829   5.970  0.00  0.00    -0.004 A 
ATOM      5  C7  UNL d   1       4.994   5.995   5.317  0.00  0.00     0.002 A 
ATOM      6  C8  UNL d   1       3.852   5.998   4.514  0.00  0.00     0.002 A 
ENDROOT
BRANCH   1   7
ATOM      7  C2  UNL d   1       1.841   4.845   3.508  0.00  0.00     0.056 C 
BRANCH   7   8
ATOM      8  C1  UNL d   1       0.883   5.998   3.825  0.00  0.00     0.007 C 
ATOM      9  C   UNL d   1       0.389   5.989   5.265  0.00  0.00     0.009 C 
ENDBRANCH   7   8
ENDBRANCH   1   7
TORSDOF 2
ENDMDL
