MODEL 1
REMARK minimizedAffinity -5.72960281
REMARK minimizedRMSD -1
REMARK  2 active torsions:
REMARK  status: ('A' for Active; 'I' for Inactive)
REMARK    1  A    between atoms: C1_2  and  C2_3 
REMARK    2  A    between atoms: C2_3  and  C3_4 
ROOT
ATOM      1  C3  UNL d   1       3.622   0.296   0.704  0.00  0.00    -0.075 A 
ATOM      2  C4  UNL d   1       4.956  -0.126   0.792  0.00  0.00     0.002 A 
ATOM      3  C5  UNL d   1       5.992   0.703   0.359  0.00  0.00     0.002 A 
ATOM      4  C6  UNL d   1       5.707   1.958  -0.175  0.00  0.00    -0.004 A 
ATOM      5  C7  UNL d   1       4.384   2.381  -0.283  0.00  0.00     0.002 A 
ATOM      6  C8  UNL d   1       3.346   1.555   0.153  0.00  0.00     0.002 A 
ENDROOT
BRANCH   1   7
ATOM      7  C2  UNL d   1       2.499  -0.584   1.197  0.00  0.00     0.056 C 
BRANCH   7   8
ATOM      8  C1  UNL d   1       2.590  -2.037   0.721  0.00  0.00     0.007 C 
ATOM      9  C   UNL d   1       1.903  -2.275  -0.617  0.00  0.00     0.009 C 
ENDBRANCH   7   8
ENDBRANCH   1   7
TORSDOF 2
ENDMDL
