MODEL 1
REMARK minimizedAffinity 8.45986843
REMARK minimizedRMSD -1
REMARK  2 active torsions:
REMARK  status: ('A' for Active; 'I' for Inactive)
REMARK    1  A    between atoms: C1_2  and  C2_3 
REMARK    2  A    between atoms: C2_3  and  C3_4 
ROOT
ATOM      1  C3  UNL d   1       3.532   1.268   0.059  0.00  0.00    -0.075 A 
ATOM      2  C4  UNL d   1       4.658   0.487   0.356  0.00  0.00     0.002 A 
ATOM      3  C5  UNL d   1       5.881   1.090   0.652  0.00  0.00     0.002 A 
ATOM      4  C6  UNL d   1       5.996   2.479   0.645  0.00  0.00    -0.004 A 
ATOM      5  C7  UNL d   1       4.888   3.264   0.335  0.00  0.00     0.002 A 
ATOM      6  C8  UNL d   1       3.662   2.663   0.043  0.00  0.00     0.002 A 
ENDROOT
BRANCH   1   7
ATOM      7  C2  UNL d   1       2.199   0.622  -0.233  0.00  0.00     0.056 C 
BRANCH   7   8
ATOM      8  C1  UNL d   1       2.191  -0.900  -0.054  0.00  0.00     0.007 C 
ATOM      9  C   UNL d   1       2.058  -1.658  -1.369  0.00  0.00     0.009 C 
ENDBRANCH   7   8
ENDBRANCH   1   7
TORSDOF 2
ENDMDL
