MODEL 1
REMARK minimizedAffinity 2.63601303
REMARK minimizedRMSD -1
REMARK  2 active torsions:
REMARK  status: ('A' for Active; 'I' for Inactive)
REMARK    1  A    between atoms: C1_2  and  C2_3 
REMARK    2  A    between atoms: C2_3  and  C3_4 
ROOT
ATOM      1  C3  UNL d   1       5.117   2.399  -0.238  0.00  0.00    -0.075 A 
ATOM      2  C4  UNL d   1       3.921   2.331  -0.967  0.00  0.00     0.002 A 
ATOM      3  C5  UNL d   1       3.100   1.207  -0.876  0.00  0.00     0.002 A 
ATOM      4  C6  UNL d   1       3.468   0.135  -0.066  0.00  0.00    -0.004 A 
ATOM      5  C7  UNL d   1       4.662   0.185   0.650  0.00  0.00     0.002 A 
ATOM      6  C8  UNL d   1       5.484   1.311   0.564  0.00  0.00     0.002 A 
ENDROOT
BRANCH   1   7
ATOM      7  C2  UNL d   1       5.996   3.625  -0.309  0.00  0.00     0.056 C 
BRANCH   7   8
ATOM      8  C1  UNL d   1       5.710   4.529  -1.513  0.00  0.00     0.007 C 
ATOM      9  C   UNL d   1       5.999   5.999  -1.242  0.00  0.00     0.009 C 
ENDBRANCH   7   8
ENDBRANCH   1   7
TORSDOF 2
ENDMDL
