MODEL 1
REMARK minimizedAffinity 0.561003625
REMARK minimizedRMSD -1
REMARK  2 active torsions:
REMARK  status: ('A' for Active; 'I' for Inactive)
REMARK    1  A    between atoms: C1_2  and  C2_3 
REMARK    2  A    between atoms: C2_3  and  C3_4 
ROOT
ATOM      1  C3  UNL d   1      -1.153  -5.238   3.539  0.00  0.00    -0.075 A 
ATOM      2  C4  UNL d   1      -0.713  -3.908   3.614  0.00  0.00     0.002 A 
ATOM      3  C5  UNL d   1      -0.312  -3.362   4.833  0.00  0.00     0.002 A 
ATOM      4  C6  UNL d   1      -0.354  -4.132   5.993  0.00  0.00    -0.004 A 
ATOM      5  C7  UNL d   1      -0.805  -5.449   5.933  0.00  0.00     0.002 A 
ATOM      6  C8  UNL d   1      -1.203  -6.000   4.714  0.00  0.00     0.002 A 
ENDROOT
BRANCH   1   7
ATOM      7  C2  UNL d   1      -1.560  -5.844   2.218  0.00  0.00     0.056 C 
BRANCH   7   8
ATOM      8  C1  UNL d   1      -1.250  -4.961   1.004  0.00  0.00     0.007 C 
ATOM      9  C   UNL d   1      -0.418  -5.670  -0.057  0.00  0.00     0.009 C 
ENDBRANCH   7   8
ENDBRANCH   1   7
TORSDOF 2
ENDMDL
