MODEL 1
REMARK minimizedAffinity 11.0376711
REMARK minimizedRMSD -1
REMARK  2 active torsions:
REMARK  status: ('A' for Active; 'I' for Inactive)
REMARK    1  A    between atoms: C1_2  and  C2_3 
REMARK    2  A    between atoms: C2_3  and  C3_4 
ROOT
ATOM      1  C3  UNL d   1       4.864   2.278   0.199  0.00  0.00    -0.075 A 
ATOM      2  C4  UNL d   1       4.962   2.022  -1.176  0.00  0.00     0.002 A 
ATOM      3  C5  UNL d   1       3.900   1.435  -1.865  0.00  0.00     0.002 A 
ATOM      4  C6  UNL d   1       2.733   1.088  -1.187  0.00  0.00    -0.004 A 
ATOM      5  C7  UNL d   1       2.631   1.323   0.182  0.00  0.00     0.002 A 
ATOM      6  C8  UNL d   1       3.691   1.914   0.873  0.00  0.00     0.002 A 
ENDROOT
BRANCH   1   7
ATOM      7  C2  UNL d   1       5.999   2.939   0.944  0.00  0.00     0.056 C 
BRANCH   7   8
ATOM      8  C1  UNL d   1       5.978   4.470   0.881  0.00  0.00     0.007 C 
ATOM      9  C   UNL d   1       5.998   5.013  -0.542  0.00  0.00     0.009 C 
ENDBRANCH   7   8
ENDBRANCH   1   7
TORSDOF 2
ENDMDL
