MODEL 1
REMARK minimizedAffinity 7.12463522
REMARK minimizedRMSD -1
REMARK  2 active torsions:
REMARK  status: ('A' for Active; 'I' for Inactive)
REMARK    1  A    between atoms: C1_2  and  C2_3 
REMARK    2  A    between atoms: C2_3  and  C3_4 
ROOT
ATOM      1  C3  UNL d   1       4.049   1.657   0.848  0.00  0.00    -0.075 A 
ATOM      2  C4  UNL d   1       4.170   1.917  -0.525  0.00  0.00     0.002 A 
ATOM      3  C5  UNL d   1       3.305   1.316  -1.439  0.00  0.00     0.002 A 
ATOM      4  C6  UNL d   1       2.315   0.442  -0.995  0.00  0.00    -0.004 A 
ATOM      5  C7  UNL d   1       2.196   0.164   0.365  0.00  0.00     0.002 A 
ATOM      6  C8  UNL d   1       3.058   0.767   1.282  0.00  0.00     0.002 A 
ENDROOT
BRANCH   1   7
ATOM      7  C2  UNL d   1       4.964   2.328   1.845  0.00  0.00     0.056 C 
BRANCH   7   8
ATOM      8  C1  UNL d   1       4.999   3.855   1.730  0.00  0.00     0.007 C 
ATOM      9  C   UNL d   1       5.993   4.356   0.691  0.00  0.00     0.009 C 
ENDBRANCH   7   8
ENDBRANCH   1   7
TORSDOF 2
ENDMDL
