MODEL 1
REMARK minimizedAffinity 9.99396324
REMARK minimizedRMSD -1
REMARK  0 active torsions:
REMARK  status: ('A' for Active; 'I' for Inactive)
ROOT
ATOM      1  O1  BZF d   1       2.787  -0.945   4.123  0.00  0.00    -0.204 OA
ATOM      2  C2  BZF d   1       2.120  -1.230   5.298  0.00  0.00     0.174 A 
ATOM      3  C3  BZF d   1       2.772  -2.179   6.000  0.00  0.00    -0.012 A 
ATOM      4  C3A BZF d   1       3.967  -2.442   5.258  0.00  0.00    -0.107 A 
ATOM      5  C4  BZF d   1       5.029  -3.277   5.453  0.00  0.00     0.055 A 
ATOM      6  C5  BZF d   1       5.998  -3.348   4.502  0.00  0.00    -0.016 A 
ATOM      7  C6  BZF d   1       5.933  -2.602   3.343  0.00  0.00     0.022 A 
ATOM      8  C7  BZF d   1       4.902  -1.756   3.107  0.00  0.00     0.029 A 
ATOM      9  C7A BZF d   1       3.938  -1.658   4.081  0.00  0.00     0.058 A 
ENDROOT
TORSDOF 0
ENDMDL
