MODEL 1
REMARK minimizedAffinity 4.72556686
REMARK minimizedRMSD -1
REMARK  0 active torsions:
REMARK  status: ('A' for Active; 'I' for Inactive)
ROOT
ATOM      1  O1  BZF d   1      -3.746   4.590  -4.077  0.00  0.00    -0.204 OA
ATOM      2  C2  BZF d   1      -3.402   5.428  -5.120  0.00  0.00     0.174 A 
ATOM      3  C3  BZF d   1      -2.601   4.793  -6.000  0.00  0.00    -0.012 A 
ATOM      4  C3A BZF d   1      -2.508   3.448  -5.521  0.00  0.00    -0.107 A 
ATOM      5  C4  BZF d   1      -1.866   2.332  -5.976  0.00  0.00     0.055 A 
ATOM      6  C5  BZF d   1      -1.917   1.193  -5.236  0.00  0.00    -0.016 A 
ATOM      7  C6  BZF d   1      -2.596   1.136  -4.037  0.00  0.00     0.022 A 
ATOM      8  C7  BZF d   1      -3.253   2.216  -3.547  0.00  0.00     0.029 A 
ATOM      9  C7A BZF d   1      -3.230   3.359  -4.309  0.00  0.00     0.058 A 
ENDROOT
TORSDOF 0
ENDMDL
