MODEL 1
REMARK minimizedAffinity 12.5802708
REMARK minimizedRMSD -1
REMARK  0 active torsions:
REMARK  status: ('A' for Active; 'I' for Inactive)
ROOT
ATOM      1  O1  BZF d   1       2.603   4.960  -0.768  0.00  0.00    -0.204 OA
ATOM      2  C2  BZF d   1       2.245   5.999  -1.606  0.00  0.00     0.174 A 
ATOM      3  C3  BZF d   1       0.915   6.000  -1.826  0.00  0.00    -0.012 A 
ATOM      4  C3A BZF d   1       0.397   4.948  -1.005  0.00  0.00    -0.107 A 
ATOM      5  C4  BZF d   1      -0.861   4.467  -0.778  0.00  0.00     0.055 A 
ATOM      6  C5  BZF d   1      -1.018   3.382   0.025  0.00  0.00    -0.016 A 
ATOM      7  C6  BZF d   1       0.060   2.751   0.612  0.00  0.00     0.022 A 
ATOM      8  C7  BZF d   1       1.326   3.195   0.421  0.00  0.00     0.029 A 
ATOM      9  C7A BZF d   1       1.485   4.311  -0.364  0.00  0.00     0.058 A 
ENDROOT
TORSDOF 0
ENDMDL
