MODEL 1
REMARK minimizedAffinity 4.47215891
REMARK minimizedRMSD -1
REMARK  0 active torsions:
REMARK  status: ('A' for Active; 'I' for Inactive)
ROOT
ATOM      1  O1  BZF d   1      -2.374   4.202  -4.468  0.00  0.00    -0.204 OA
ATOM      2  C2  BZF d   1      -3.009   3.745  -5.607  0.00  0.00     0.174 A 
ATOM      3  C3  BZF d   1      -2.493   2.562  -6.000  0.00  0.00    -0.012 A 
ATOM      4  C3A BZF d   1      -1.535   2.217  -4.995  0.00  0.00    -0.107 A 
ATOM      5  C4  BZF d   1      -0.705   1.147  -4.817  0.00  0.00     0.055 A 
ATOM      6  C5  BZF d   1       0.160   1.150  -3.769  0.00  0.00    -0.016 A 
ATOM      7  C6  BZF d   1       0.226   2.206  -2.884  0.00  0.00     0.022 A 
ATOM      8  C7  BZF d   1      -0.581   3.287  -3.017  0.00  0.00     0.029 A 
ATOM      9  C7A BZF d   1      -1.480   3.272  -4.055  0.00  0.00     0.058 A 
ENDROOT
TORSDOF 0
ENDMDL
