MODEL 1
REMARK minimizedAffinity 11.8380089
REMARK minimizedRMSD -1
REMARK  0 active torsions:
REMARK  status: ('A' for Active; 'I' for Inactive)
ROOT
ATOM      1  O1  BZF d   1       0.921   1.669   1.081  0.00  0.00    -0.204 OA
ATOM      2  C2  BZF d   1       0.325   2.819   0.601  0.00  0.00     0.174 A 
ATOM      3  C3  BZF d   1       0.075   2.712  -0.720  0.00  0.00    -0.012 A 
ATOM      4  C3A BZF d   1       0.460   1.379  -1.070  0.00  0.00    -0.107 A 
ATOM      5  C4  BZF d   1       0.436   0.671  -2.237  0.00  0.00     0.055 A 
ATOM      6  C5  BZF d   1       0.952  -0.586  -2.257  0.00  0.00    -0.016 A 
ATOM      7  C6  BZF d   1       1.504  -1.163  -1.132  0.00  0.00     0.022 A 
ATOM      8  C7  BZF d   1       1.546  -0.501   0.050  0.00  0.00     0.029 A 
ATOM      9  C7A BZF d   1       0.996   0.757   0.082  0.00  0.00     0.058 A 
ENDROOT
TORSDOF 0
ENDMDL
