MODEL 1
REMARK minimizedAffinity 18.3809204
REMARK minimizedRMSD -1
REMARK  0 active torsions:
REMARK  status: ('A' for Active; 'I' for Inactive)
ROOT
ATOM      1  O1  BZF d   1      -4.691   5.932   2.506  0.00  0.00    -0.204 OA
ATOM      2  C2  BZF d   1      -5.980   5.546   2.195  0.00  0.00     0.174 A 
ATOM      3  C3  BZF d   1      -5.980   4.370   1.534  0.00  0.00    -0.012 A 
ATOM      4  C3A BZF d   1      -4.612   3.953   1.506  0.00  0.00    -0.107 A 
ATOM      5  C4  BZF d   1      -3.975   2.856   1.003  0.00  0.00     0.055 A 
ATOM      6  C5  BZF d   1      -2.619   2.787   1.076  0.00  0.00    -0.016 A 
ATOM      7  C6  BZF d   1      -1.871   3.798   1.642  0.00  0.00     0.022 A 
ATOM      8  C7  BZF d   1      -2.459   4.904   2.159  0.00  0.00     0.029 A 
ATOM      9  C7A BZF d   1      -3.830   4.962   2.116  0.00  0.00     0.058 A 
ENDROOT
TORSDOF 0
ENDMDL
