MODEL 1
REMARK minimizedAffinity 13.7807932
REMARK minimizedRMSD -1
REMARK  0 active torsions:
REMARK  status: ('A' for Active; 'I' for Inactive)
ROOT
ATOM      1  O1  BZF d   1       2.359   4.873  -0.547  0.00  0.00    -0.204 OA
ATOM      2  C2  BZF d   1       2.234   5.857  -1.509  0.00  0.00     0.174 A 
ATOM      3  C3  BZF d   1       0.946   6.000  -1.883  0.00  0.00    -0.012 A 
ATOM      4  C3A BZF d   1       0.208   5.110  -1.039  0.00  0.00    -0.107 A 
ATOM      5  C4  BZF d   1      -1.119   4.814  -0.920  0.00  0.00     0.055 A 
ATOM      6  C5  BZF d   1      -1.505   3.845  -0.049  0.00  0.00    -0.016 A 
ATOM      7  C6  BZF d   1      -0.590   3.149   0.714  0.00  0.00     0.022 A 
ATOM      8  C7  BZF d   1       0.737   3.411   0.634  0.00  0.00     0.029 A 
ATOM      9  C7A BZF d   1       1.127   4.412  -0.221  0.00  0.00     0.058 A 
ENDROOT
TORSDOF 0
ENDMDL
