MODEL 1
REMARK minimizedAffinity 1.61198163
REMARK minimizedRMSD -1
REMARK  0 active torsions:
REMARK  status: ('A' for Active; 'I' for Inactive)
ROOT
ATOM      1  O1  BZF d   1       3.330  -1.543   0.743  0.00  0.00    -0.204 OA
ATOM      2  C2  BZF d   1       2.345  -0.750   1.300  0.00  0.00     0.174 A 
ATOM      3  C3  BZF d   1       2.443  -0.738   2.645  0.00  0.00    -0.012 A 
ATOM      4  C3A BZF d   1       3.615  -1.503   2.943  0.00  0.00    -0.107 A 
ATOM      5  C4  BZF d   1       4.246  -1.839   4.107  0.00  0.00     0.055 A 
ATOM      6  C5  BZF d   1       5.328  -2.659   4.058  0.00  0.00    -0.016 A 
ATOM      7  C6  BZF d   1       5.803  -3.165   2.866  0.00  0.00     0.022 A 
ATOM      8  C7  BZF d   1       5.214  -2.856   1.685  0.00  0.00     0.029 A 
ATOM      9  C7A BZF d   1       4.140  -2.000   1.728  0.00  0.00     0.058 A 
ENDROOT
TORSDOF 0
ENDMDL
