MODEL 1
REMARK minimizedAffinity 10.0285034
REMARK minimizedRMSD -1
REMARK  0 active torsions:
REMARK  status: ('A' for Active; 'I' for Inactive)
ROOT
ATOM      1  O1  BZF d   1       0.113   0.583  -3.066  0.00  0.00    -0.204 OA
ATOM      2  C2  BZF d   1      -0.846   0.493  -4.055  0.00  0.00     0.174 A 
ATOM      3  C3  BZF d   1      -1.863   1.346  -3.814  0.00  0.00    -0.012 A 
ATOM      4  C3A BZF d   1      -1.474   2.075  -2.647  0.00  0.00    -0.107 A 
ATOM      5  C4  BZF d   1      -2.060   3.076  -1.926  0.00  0.00     0.055 A 
ATOM      6  C5  BZF d   1      -1.451   3.519  -0.795  0.00  0.00    -0.016 A 
ATOM      7  C6  BZF d   1      -0.260   2.982  -0.353  0.00  0.00     0.022 A 
ATOM      8  C7  BZF d   1       0.362   1.991  -1.037  0.00  0.00     0.029 A 
ATOM      9  C7A BZF d   1      -0.234   1.564  -2.198  0.00  0.00     0.058 A 
ENDROOT
TORSDOF 0
ENDMDL
