MODEL 1
REMARK minimizedAffinity 6.91651678
REMARK minimizedRMSD -1
REMARK  0 active torsions:
REMARK  status: ('A' for Active; 'I' for Inactive)
ROOT
ATOM      1  O1  BZF d   1      -0.917   2.287  -1.313  0.00  0.00    -0.204 OA
ATOM      2  C2  BZF d   1      -1.729   2.691  -0.271  0.00  0.00     0.174 A 
ATOM      3  C3  BZF d   1      -1.572   1.884   0.798  0.00  0.00    -0.012 A 
ATOM      4  C3A BZF d   1      -0.534   0.970   0.431  0.00  0.00    -0.107 A 
ATOM      5  C4  BZF d   1       0.081  -0.062   1.080  0.00  0.00     0.055 A 
ATOM      6  C5  BZF d   1       1.007  -0.802   0.415  0.00  0.00    -0.016 A 
ATOM      7  C6  BZF d   1       1.338  -0.541  -0.898  0.00  0.00     0.022 A 
ATOM      8  C7  BZF d   1       0.759   0.476  -1.582  0.00  0.00     0.029 A 
ATOM      9  C7A BZF d   1      -0.153   1.246  -0.902  0.00  0.00     0.058 A 
ENDROOT
TORSDOF 0
ENDMDL
