MODEL 1
REMARK minimizedAffinity -2.34529328
REMARK minimizedRMSD -1
REMARK  2 active torsions:
REMARK  status: ('A' for Active; 'I' for Inactive)
REMARK    1  A    between atoms: C1_2  and  C2_3 
REMARK    2  A    between atoms: C2_3  and  C3_4 
ROOT
ATOM      1  C3  UNL d   1       0.332   0.322   0.157  0.00  0.00    -0.075 A 
ATOM      2  C4  UNL d   1      -1.059   0.164   0.240  0.00  0.00     0.002 A 
ATOM      3  C5  UNL d   1      -1.751   0.568   1.382  0.00  0.00     0.002 A 
ATOM      4  C6  UNL d   1      -1.061   1.124   2.457  0.00  0.00    -0.004 A 
ATOM      5  C7  UNL d   1       0.323   1.270   2.392  0.00  0.00     0.002 A 
ATOM      6  C8  UNL d   1       1.017   0.871   1.249  0.00  0.00     0.002 A 
ENDROOT
BRANCH   1   7
ATOM      7  C2  UNL d   1       1.083  -0.087  -1.088  0.00  0.00     0.056 C 
BRANCH   7   8
ATOM      8  C1  UNL d   1       0.701   0.715  -2.337  0.00  0.00     0.007 C 
ATOM      9  C   UNL d   1       1.863   0.912  -3.302  0.00  0.00     0.009 C 
ENDBRANCH   7   8
ENDBRANCH   1   7
TORSDOF 2
ENDMDL
