MODEL 1
REMARK minimizedAffinity 0.281016529
REMARK minimizedRMSD -1
REMARK  2 active torsions:
REMARK  status: ('A' for Active; 'I' for Inactive)
REMARK    1  A    between atoms: C1_2  and  C2_3 
REMARK    2  A    between atoms: C2_3  and  C3_4 
ROOT
ATOM      1  C3  UNL d   1       1.244   0.349  -1.943  0.00  0.00    -0.075 A 
ATOM      2  C4  UNL d   1       1.142   1.198  -0.832  0.00  0.00     0.002 A 
ATOM      3  C5  UNL d   1       0.560   0.748   0.353  0.00  0.00     0.002 A 
ATOM      4  C6  UNL d   1       0.064  -0.551   0.439  0.00  0.00    -0.004 A 
ATOM      5  C7  UNL d   1       0.144  -1.398  -0.663  0.00  0.00     0.002 A 
ATOM      6  C8  UNL d   1       0.731  -0.952  -1.849  0.00  0.00     0.002 A 
ENDROOT
BRANCH   1   7
ATOM      7  C2  UNL d   1       1.900   0.820  -3.219  0.00  0.00     0.056 C 
BRANCH   7   8
ATOM      8  C1  UNL d   1       0.978   1.640  -4.128  0.00  0.00     0.007 C 
ATOM      9  C   UNL d   1      -0.073   0.795  -4.837  0.00  0.00     0.009 C 
ENDBRANCH   7   8
ENDBRANCH   1   7
TORSDOF 2
ENDMDL
