MODEL 1
REMARK minimizedAffinity -5.3638258
REMARK minimizedRMSD -1
REMARK  2 active torsions:
REMARK  status: ('A' for Active; 'I' for Inactive)
REMARK    1  A    between atoms: C1_2  and  C2_3 
REMARK    2  A    between atoms: C2_3  and  C3_4 
ROOT
ATOM      1  C3  UNL d   1      -0.624   0.409   0.164  0.00  0.00    -0.075 A 
ATOM      2  C4  UNL d   1       0.346   1.231   0.756  0.00  0.00     0.002 A 
ATOM      3  C5  UNL d   1       0.185   1.688   2.064  0.00  0.00     0.002 A 
ATOM      4  C6  UNL d   1      -0.951   1.339   2.792  0.00  0.00    -0.004 A 
ATOM      5  C7  UNL d   1      -1.929   0.537   2.209  0.00  0.00     0.002 A 
ATOM      6  C8  UNL d   1      -1.768   0.074   0.901  0.00  0.00     0.002 A 
ENDROOT
BRANCH   1   7
ATOM      7  C2  UNL d   1      -0.441  -0.113  -1.241  0.00  0.00     0.056 C 
BRANCH   7   8
ATOM      8  C1  UNL d   1       0.991  -0.552  -1.561  0.00  0.00     0.007 C 
ATOM      9  C   UNL d   1       1.442  -0.155  -2.961  0.00  0.00     0.009 C 
ENDBRANCH   7   8
ENDBRANCH   1   7
TORSDOF 2
ENDMDL
