MODEL 1
REMARK minimizedAffinity 13.3463612
REMARK minimizedRMSD -1
REMARK  1 active torsions:
REMARK  status: ('A' for Active; 'I' for Inactive)
REMARK    1  A    between atoms: C1_2  and  C2_3 
ROOT
ATOM      1  C2  UNL d   1      -3.758  -1.080  -2.347  0.00  0.00    -0.073 A 
ATOM      2  C3  UNL d   1      -4.681  -2.125  -2.467  0.00  0.00    -0.002 A 
ATOM      3  C4  UNL d   1      -5.419  -2.283  -3.641  0.00  0.00     0.004 A 
ATOM      4  C5  UNL d   1      -5.237  -1.403  -4.707  0.00  0.00    -0.004 A 
ATOM      5  C6  UNL d   1      -4.312  -0.359  -4.611  0.00  0.00    -0.075 A 
ATOM      6  C7  UNL d   1      -4.106   0.597  -5.749  0.00  0.00     0.076 C 
ATOM      7  C8  UNL d   1      -3.576  -0.206  -3.428  0.00  0.00     0.001 A 
ENDROOT
BRANCH   1   8
ATOM      8  C1  UNL d   1      -2.954  -0.909  -1.084  0.00  0.00     0.053 C 
ATOM      9  C   UNL d   1      -1.460  -1.023  -1.339  0.00  0.00     0.018 C 
ENDBRANCH   1   8
TORSDOF 1
ENDMDL
