MODEL 1
REMARK minimizedAffinity -0.851532161
REMARK minimizedRMSD -1
REMARK  1 active torsions:
REMARK  status: ('A' for Active; 'I' for Inactive)
REMARK    1  A    between atoms: C1_2  and  C2_3 
ROOT
ATOM      1  C2  UNL d   1       3.462  -4.746   4.083  0.00  0.00    -0.073 A 
ATOM      2  C3  UNL d   1       3.735  -5.870   3.295  0.00  0.00    -0.002 A 
ATOM      3  C4  UNL d   1       3.264  -5.943   1.983  0.00  0.00     0.004 A 
ATOM      4  C5  UNL d   1       2.523  -4.891   1.444  0.00  0.00    -0.004 A 
ATOM      5  C6  UNL d   1       2.250  -3.754   2.212  0.00  0.00    -0.075 A 
ATOM      6  C7  UNL d   1       1.452  -2.615   1.648  0.00  0.00     0.076 C 
ATOM      7  C8  UNL d   1       2.724  -3.690   3.529  0.00  0.00     0.001 A 
ENDROOT
BRANCH   1   8
ATOM      8  C1  UNL d   1       3.974  -4.661   5.497  0.00  0.00     0.053 C 
ATOM      9  C   UNL d   1       4.495  -5.999   5.997  0.00  0.00     0.018 C 
ENDBRANCH   1   8
TORSDOF 1
ENDMDL
