MODEL 1
REMARK minimizedAffinity 12.3225584
REMARK minimizedRMSD -1
REMARK  1 active torsions:
REMARK  status: ('A' for Active; 'I' for Inactive)
REMARK    1  A    between atoms: C1_2  and  C2_3 
ROOT
ATOM      1  C2  UNL d   1       0.813  -1.351   0.749  0.00  0.00    -0.073 A 
ATOM      2  C3  UNL d   1       0.113  -1.162  -0.448  0.00  0.00    -0.002 A 
ATOM      3  C4  UNL d   1       0.413  -0.081  -1.277  0.00  0.00     0.004 A 
ATOM      4  C5  UNL d   1       1.420   0.817  -0.923  0.00  0.00    -0.004 A 
ATOM      5  C6  UNL d   1       2.139   0.639   0.263  0.00  0.00    -0.075 A 
ATOM      6  C7  UNL d   1       3.224   1.597   0.660  0.00  0.00     0.076 C 
ATOM      7  C8  UNL d   1       1.830  -0.448   1.092  0.00  0.00     0.001 A 
ENDROOT
BRANCH   1   8
ATOM      8  C1  UNL d   1       0.497  -2.521   1.645  0.00  0.00     0.053 C 
ATOM      9  C   UNL d   1       1.715  -3.396   1.892  0.00  0.00     0.018 C 
ENDBRANCH   1   8
TORSDOF 1
ENDMDL
