MODEL 1
REMARK minimizedAffinity 1.58520734
REMARK minimizedRMSD -1
REMARK  1 active torsions:
REMARK  status: ('A' for Active; 'I' for Inactive)
REMARK    1  A    between atoms: C1_2  and  C2_3 
ROOT
ATOM      1  C2  UNL d   1       3.067  -4.436   3.376  0.00  0.00    -0.073 A 
ATOM      2  C3  UNL d   1       3.339  -5.751   3.772  0.00  0.00    -0.002 A 
ATOM      3  C4  UNL d   1       4.154  -5.999   4.877  0.00  0.00     0.004 A 
ATOM      4  C5  UNL d   1       4.699  -4.938   5.600  0.00  0.00    -0.004 A 
ATOM      5  C6  UNL d   1       4.429  -3.618   5.227  0.00  0.00    -0.075 A 
ATOM      6  C7  UNL d   1       5.009  -2.466   5.993  0.00  0.00     0.076 C 
ATOM      7  C8  UNL d   1       3.612  -3.376   4.114  0.00  0.00     0.001 A 
ENDROOT
BRANCH   1   8
ATOM      8  C1  UNL d   1       2.182  -4.163   2.187  0.00  0.00     0.053 C 
ATOM      9  C   UNL d   1       1.503  -2.805   2.282  0.00  0.00     0.018 C 
ENDBRANCH   1   8
TORSDOF 1
ENDMDL
