MODEL 1
REMARK minimizedAffinity 16.5974426
REMARK minimizedRMSD -1
REMARK  1 active torsions:
REMARK  status: ('A' for Active; 'I' for Inactive)
REMARK    1  A    between atoms: C1_2  and  C2_3 
ROOT
ATOM      1  C2  UNL d   1      -3.612  -1.423  -1.566  0.00  0.00    -0.073 A 
ATOM      2  C3  UNL d   1      -4.300  -0.227  -1.799  0.00  0.00    -0.002 A 
ATOM      3  C4  UNL d   1      -5.236  -0.141  -2.832  0.00  0.00     0.004 A 
ATOM      4  C5  UNL d   1      -5.497  -1.251  -3.635  0.00  0.00    -0.004 A 
ATOM      5  C6  UNL d   1      -4.829  -2.459  -3.410  0.00  0.00    -0.075 A 
ATOM      6  C7  UNL d   1      -5.098  -3.661  -4.266  0.00  0.00     0.076 C 
ATOM      7  C8  UNL d   1      -3.889  -2.535  -2.373  0.00  0.00     0.001 A 
ENDROOT
BRANCH   1   8
ATOM      8  C1  UNL d   1      -2.606  -1.521  -0.449  0.00  0.00     0.053 C 
ATOM      9  C   UNL d   1      -1.181  -1.344  -0.948  0.00  0.00     0.018 C 
ENDBRANCH   1   8
TORSDOF 1
ENDMDL
