MODEL 1
REMARK minimizedAffinity -1.0143714
REMARK minimizedRMSD -1
REMARK  1 active torsions:
REMARK  status: ('A' for Active; 'I' for Inactive)
REMARK    1  A    between atoms: C1_2  and  C2_3 
ROOT
ATOM      1  C2  UNL d   1       3.144  -4.093   3.430  0.00  0.00    -0.073 A 
ATOM      2  C3  UNL d   1       2.724  -3.144   4.369  0.00  0.00    -0.002 A 
ATOM      3  C4  UNL d   1       3.281  -3.126   5.649  0.00  0.00     0.004 A 
ATOM      4  C5  UNL d   1       4.265  -4.049   6.000  0.00  0.00    -0.004 A 
ATOM      5  C6  UNL d   1       4.706  -4.998   5.071  0.00  0.00    -0.075 A 
ATOM      6  C7  UNL d   1       5.763  -6.000   5.433  0.00  0.00     0.076 C 
ATOM      7  C8  UNL d   1       4.140  -5.012   3.789  0.00  0.00     0.001 A 
ENDROOT
BRANCH   1   8
ATOM      8  C1  UNL d   1       2.550  -4.113   2.045  0.00  0.00     0.053 C 
ATOM      9  C   UNL d   1       1.537  -2.997   1.843  0.00  0.00     0.018 C 
ENDBRANCH   1   8
TORSDOF 1
ENDMDL
