MODEL 1
REMARK minimizedAffinity -3.20375156
REMARK minimizedRMSD -1
REMARK  0 active torsions:
REMARK  status: ('A' for Active; 'I' for Inactive)
ROOT
ATOM      1  C   UNL d   1       0.056  -2.332  -3.077  0.00  0.00    -0.002 A 
ATOM      2  C1  UNL d   1       0.482  -1.015  -3.163  0.00  0.00     0.010 A 
ATOM      3  C2  UNL d   1       0.399  -0.168  -2.056  0.00  0.00     0.041 A 
ATOM      4  C3  UNL d   1      -0.124  -0.673  -0.849  0.00  0.00    -0.075 A 
ATOM      5  S   UNL d   1      -0.321   0.180   0.636  0.00  0.00     0.015 SA
ATOM      6  C4  UNL d   1      -0.976  -1.185   1.419  0.00  0.00     0.022 A 
ATOM      7  C5  UNL d   1      -1.050  -2.273   0.583  0.00  0.00     0.026 A 
ATOM      8  C6  UNL d   1      -0.560  -1.996  -0.738  0.00  0.00    -0.082 A 
ATOM      9  C7  UNL d   1      -0.463  -2.830  -1.879  0.00  0.00     0.045 A 
ENDROOT
TORSDOF 0
ENDMDL
