MODEL 1
REMARK minimizedAffinity -3.38830614
REMARK minimizedRMSD -1
REMARK  0 active torsions:
REMARK  status: ('A' for Active; 'I' for Inactive)
ROOT
ATOM      1  C   UNL d   1      -2.178  -1.329   2.081  0.00  0.00    -0.002 A 
ATOM      2  C1  UNL d   1      -1.812  -0.008   1.869  0.00  0.00     0.010 A 
ATOM      3  C2  UNL d   1      -0.868   0.320   0.894  0.00  0.00     0.041 A 
ATOM      4  C3  UNL d   1      -0.294  -0.712   0.126  0.00  0.00    -0.075 A 
ATOM      5  S   UNL d   1       0.881  -0.548  -1.124  0.00  0.00     0.015 SA
ATOM      6  C4  UNL d   1       0.924  -2.228  -1.408  0.00  0.00     0.022 A 
ATOM      7  C5  UNL d   1       0.069  -2.913  -0.577  0.00  0.00     0.026 A 
ATOM      8  C6  UNL d   1      -0.648  -2.051   0.320  0.00  0.00    -0.082 A 
ATOM      9  C7  UNL d   1      -1.607  -2.351   1.317  0.00  0.00     0.045 A 
ENDROOT
TORSDOF 0
ENDMDL
