MODEL 1
REMARK minimizedAffinity -2.54196072
REMARK minimizedRMSD -1
REMARK  0 active torsions:
REMARK  status: ('A' for Active; 'I' for Inactive)
ROOT
ATOM      1  C   UNL d   1      -1.383  -2.769   1.120  0.00  0.00    -0.002 A 
ATOM      2  C1  UNL d   1      -1.088  -3.179  -0.172  0.00  0.00     0.010 A 
ATOM      3  C2  UNL d   1      -0.601  -2.268  -1.112  0.00  0.00     0.041 A 
ATOM      4  C3  UNL d   1      -0.411  -0.927  -0.726  0.00  0.00    -0.075 A 
ATOM      5  S   UNL d   1       0.177   0.363  -1.707  0.00  0.00     0.015 SA
ATOM      6  C4  UNL d   1       0.051   1.489  -0.434  0.00  0.00     0.022 A 
ATOM      7  C5  UNL d   1      -0.426   0.911   0.719  0.00  0.00     0.026 A 
ATOM      8  C6  UNL d   1      -0.699  -0.491   0.570  0.00  0.00    -0.082 A 
ATOM      9  C7  UNL d   1      -1.194  -1.437   1.499  0.00  0.00     0.045 A 
ENDROOT
TORSDOF 0
ENDMDL
