MODEL 1
REMARK minimizedAffinity -3.6549058
REMARK minimizedRMSD -1
REMARK  0 active torsions:
REMARK  status: ('A' for Active; 'I' for Inactive)
ROOT
ATOM      1  C   UNL d   1      -1.052  -0.438   0.856  0.00  0.00    -0.002 A 
ATOM      2  C1  UNL d   1      -0.266  -0.947   1.880  0.00  0.00     0.010 A 
ATOM      3  C2  UNL d   1       0.955  -0.351   2.203  0.00  0.00     0.041 A 
ATOM      4  C3  UNL d   1       1.375   0.778   1.474  0.00  0.00    -0.075 A 
ATOM      5  S   UNL d   1       2.832   1.674   1.693  0.00  0.00     0.015 SA
ATOM      6  C4  UNL d   1       2.445   2.755   0.434  0.00  0.00     0.022 A 
ATOM      7  C5  UNL d   1       1.238   2.455  -0.151  0.00  0.00     0.026 A 
ATOM      8  C6  UNL d   1       0.601   1.311   0.439  0.00  0.00    -0.082 A 
ATOM      9  C7  UNL d   1      -0.631   0.683   0.135  0.00  0.00     0.045 A 
ENDROOT
TORSDOF 0
ENDMDL
