MODEL 1
REMARK minimizedAffinity -0.328074366
REMARK minimizedRMSD -1
REMARK  0 active torsions:
REMARK  status: ('A' for Active; 'I' for Inactive)
ROOT
ATOM      1  C   UNL d   1      -1.482  -1.556   2.368  0.00  0.00    -0.002 A 
ATOM      2  C1  UNL d   1      -1.247  -2.637   1.530  0.00  0.00     0.010 A 
ATOM      3  C2  UNL d   1      -0.784  -2.438   0.228  0.00  0.00     0.041 A 
ATOM      4  C3  UNL d   1      -0.558  -1.123  -0.222  0.00  0.00    -0.075 A 
ATOM      5  S   UNL d   1       0.008  -0.638  -1.776  0.00  0.00     0.015 SA
ATOM      6  C4  UNL d   1      -0.048   1.014  -1.364  0.00  0.00     0.022 A 
ATOM      7  C5  UNL d   1      -0.486   1.210  -0.076  0.00  0.00     0.026 A 
ATOM      8  C6  UNL d   1      -0.787  -0.018   0.604  0.00  0.00    -0.082 A 
ATOM      9  C7  UNL d   1      -1.257  -0.253   1.919  0.00  0.00     0.045 A 
ENDROOT
TORSDOF 0
ENDMDL
