MODEL 1
REMARK minimizedAffinity -4.81604528
REMARK minimizedRMSD -1
REMARK  0 active torsions:
REMARK  status: ('A' for Active; 'I' for Inactive)
ROOT
ATOM      1  C   UNL d   1       0.190  -3.498   0.342  0.00  0.00    -0.002 A 
ATOM      2  C1  UNL d   1      -0.352  -2.574   1.225  0.00  0.00     0.010 A 
ATOM      3  C2  UNL d   1      -0.616  -1.267   0.812  0.00  0.00     0.041 A 
ATOM      4  C3  UNL d   1      -0.326  -0.901  -0.517  0.00  0.00    -0.075 A 
ATOM      5  S   UNL d   1      -0.567   0.643  -1.245  0.00  0.00     0.015 SA
ATOM      6  C4  UNL d   1       0.041   0.113  -2.746  0.00  0.00     0.022 A 
ATOM      7  C5  UNL d   1       0.424  -1.207  -2.711  0.00  0.00     0.026 A 
ATOM      8  C6  UNL d   1       0.218  -1.813  -1.425  0.00  0.00    -0.082 A 
ATOM      9  C7  UNL d   1       0.475  -3.131  -0.976  0.00  0.00     0.045 A 
ENDROOT
TORSDOF 0
ENDMDL
