MODEL 1
REMARK minimizedAffinity 1.25536227
REMARK minimizedRMSD -1
REMARK  0 active torsions:
REMARK  status: ('A' for Active; 'I' for Inactive)
ROOT
ATOM      1  C   UNL d   1      -1.174  -2.289   1.575  0.00  0.00    -0.002 A 
ATOM      2  C1  UNL d   1      -1.187  -2.720   0.256  0.00  0.00     0.010 A 
ATOM      3  C2  UNL d   1      -0.728  -1.889  -0.768  0.00  0.00     0.041 A 
ATOM      4  C3  UNL d   1      -0.250  -0.605  -0.441  0.00  0.00    -0.075 A 
ATOM      5  S   UNL d   1       0.363   0.585  -1.528  0.00  0.00     0.015 SA
ATOM      6  C4  UNL d   1       0.657   1.693  -0.267  0.00  0.00     0.022 A 
ATOM      7  C5  UNL d   1       0.303   1.185   0.960  0.00  0.00     0.026 A 
ATOM      8  C6  UNL d   1      -0.225  -0.148   0.880  0.00  0.00    -0.082 A 
ATOM      9  C7  UNL d   1      -0.698  -1.014   1.895  0.00  0.00     0.045 A 
ENDROOT
TORSDOF 0
ENDMDL
