MODEL 1
REMARK minimizedAffinity -3.88382864
REMARK minimizedRMSD -1
REMARK  0 active torsions:
REMARK  status: ('A' for Active; 'I' for Inactive)
ROOT
ATOM      1  C1  DEN d   1      -1.701  -0.831   2.580  0.00  0.00     0.130 A 
ATOM      2  C2  DEN d   1      -1.008  -0.324   3.761  0.00  0.00    -0.031 A 
ATOM      3  C3  DEN d   1       0.148   0.474   3.305  0.00  0.00     0.027 A 
ATOM      4  C4  DEN d   1       0.926   0.974   0.898  0.00  0.00     0.027 A 
ATOM      5  C5  DEN d   1       0.664   0.751  -0.436  0.00  0.00    -0.003 A 
ATOM      6  C6  DEN d   1      -0.376  -0.036  -0.854  0.00  0.00     0.001 A 
ATOM      7  C7  DEN d   1      -1.220  -0.592   0.071  0.00  0.00     0.017 A 
ATOM      8  C8  DEN d   1      -0.958  -0.378   1.417  0.00  0.00    -0.094 A 
ATOM      9  C9  DEN d   1       0.091   0.431   1.819  0.00  0.00    -0.072 A 
ENDROOT
TORSDOF 0
ENDMDL
