MODEL 1
REMARK minimizedAffinity -4.07500505
REMARK minimizedRMSD -1
REMARK  0 active torsions:
REMARK  status: ('A' for Active; 'I' for Inactive)
ROOT
ATOM      1  C1  DEN d   1      -1.959  -0.351   2.528  0.00  0.00     0.130 A 
ATOM      2  C2  DEN d   1      -1.108  -0.322   3.714  0.00  0.00    -0.031 A 
ATOM      3  C3  DEN d   1       0.263   0.019   3.283  0.00  0.00     0.027 A 
ATOM      4  C4  DEN d   1       1.144   0.504   0.908  0.00  0.00     0.027 A 
ATOM      5  C5  DEN d   1       0.798   0.587  -0.423  0.00  0.00    -0.003 A 
ATOM      6  C6  DEN d   1      -0.473   0.331  -0.864  0.00  0.00     0.001 A 
ATOM      7  C7  DEN d   1      -1.456   0.025   0.040  0.00  0.00     0.017 A 
ATOM      8  C8  DEN d   1      -1.113  -0.068   1.382  0.00  0.00    -0.094 A 
ATOM      9  C9  DEN d   1       0.175   0.206   1.810  0.00  0.00    -0.072 A 
ENDROOT
TORSDOF 0
ENDMDL
