MODEL 1
REMARK minimizedAffinity -0.248078004
REMARK minimizedRMSD -1
REMARK  0 active torsions:
REMARK  status: ('A' for Active; 'I' for Inactive)
ROOT
ATOM      1  C1  DEN d   1       1.782   0.594   0.486  0.00  0.00     0.130 A 
ATOM      2  C2  DEN d   1       1.472   0.221   1.864  0.00  0.00    -0.031 A 
ATOM      3  C3  DEN d   1       0.004   0.136   1.995  0.00  0.00     0.027 A 
ATOM      4  C4  DEN d   1      -1.811   0.537   0.207  0.00  0.00     0.027 A 
ATOM      5  C5  DEN d   1      -2.034   0.886  -1.107  0.00  0.00    -0.003 A 
ATOM      6  C6  DEN d   1      -1.012   1.192  -1.966  0.00  0.00     0.001 A 
ATOM      7  C7  DEN d   1       0.285   1.112  -1.532  0.00  0.00     0.017 A 
ATOM      8  C8  DEN d   1       0.518   0.768  -0.207  0.00  0.00    -0.094 A 
ATOM      9  C9  DEN d   1      -0.528   0.450   0.642  0.00  0.00    -0.072 A 
ENDROOT
TORSDOF 0
ENDMDL
