MODEL 1
REMARK minimizedAffinity -3.78200889
REMARK minimizedRMSD -1
REMARK  0 active torsions:
REMARK  status: ('A' for Active; 'I' for Inactive)
ROOT
ATOM      1  C1  DEN d   1      -0.412  -0.086  -0.724  0.00  0.00     0.130 A 
ATOM      2  C2  DEN d   1       0.765   0.755  -0.924  0.00  0.00    -0.031 A 
ATOM      3  C3  DEN d   1       1.367   1.018   0.399  0.00  0.00     0.027 A 
ATOM      4  C4  DEN d   1       0.598   0.206   2.723  0.00  0.00     0.027 A 
ATOM      5  C5  DEN d   1      -0.356  -0.523   3.398  0.00  0.00    -0.003 A 
ATOM      6  C6  DEN d   1      -1.406  -1.124   2.756  0.00  0.00     0.001 A 
ATOM      7  C7  DEN d   1      -1.502  -1.045   1.391  0.00  0.00     0.017 A 
ATOM      8  C8  DEN d   1      -0.548  -0.305   0.704  0.00  0.00    -0.094 A 
ATOM      9  C9  DEN d   1       0.513   0.284   1.371  0.00  0.00    -0.072 A 
ENDROOT
TORSDOF 0
ENDMDL
