MODEL 1
REMARK minimizedAffinity -4.33887959
REMARK minimizedRMSD -1
REMARK  0 active torsions:
REMARK  status: ('A' for Active; 'I' for Inactive)
ROOT
ATOM      1  C1  DEN d   1       1.420  -0.510   1.794  0.00  0.00     0.130 A 
ATOM      2  C2  DEN d   1       0.536  -0.776   2.926  0.00  0.00    -0.031 A 
ATOM      3  C3  DEN d   1      -0.855  -0.568   2.477  0.00  0.00     0.027 A 
ATOM      4  C4  DEN d   1      -1.723   0.133   0.152  0.00  0.00     0.027 A 
ATOM      5  C5  DEN d   1      -1.350   0.483  -1.127  0.00  0.00    -0.003 A 
ATOM      6  C6  DEN d   1      -0.037   0.558  -1.510  0.00  0.00     0.001 A 
ATOM      7  C7  DEN d   1       0.950   0.236  -0.616  0.00  0.00     0.017 A 
ATOM      8  C8  DEN d   1       0.582  -0.110   0.678  0.00  0.00    -0.094 A 
ATOM      9  C9  DEN d   1      -0.752  -0.192   1.042  0.00  0.00    -0.072 A 
ENDROOT
TORSDOF 0
ENDMDL
