MODEL 1
REMARK minimizedAffinity -3.15387225
REMARK minimizedRMSD -1
REMARK  0 active torsions:
REMARK  status: ('A' for Active; 'I' for Inactive)
ROOT
ATOM      1  C1  DEN d   1      -1.882  -1.074   1.700  0.00  0.00     0.130 A 
ATOM      2  C2  DEN d   1      -1.618  -1.289   3.120  0.00  0.00    -0.031 A 
ATOM      3  C3  DEN d   1      -0.255  -0.799   3.410  0.00  0.00     0.027 A 
ATOM      4  C4  DEN d   1       1.460   0.270   1.808  0.00  0.00     0.027 A 
ATOM      5  C5  DEN d   1       1.694   0.650   0.505  0.00  0.00    -0.003 A 
ATOM      6  C6  DEN d   1       0.773   0.453  -0.490  0.00  0.00     0.001 A 
ATOM      7  C7  DEN d   1      -0.444  -0.100  -0.189  0.00  0.00     0.017 A 
ATOM      8  C8  DEN d   1      -0.684  -0.492   1.122  0.00  0.00    -0.094 A 
ATOM      9  C9  DEN d   1       0.255  -0.273   2.115  0.00  0.00    -0.072 A 
ENDROOT
TORSDOF 0
ENDMDL
