MODEL 1
REMARK minimizedAffinity -5.01377678
REMARK minimizedRMSD -1
REMARK  0 active torsions:
REMARK  status: ('A' for Active; 'I' for Inactive)
ROOT
ATOM      1  C1  DEN d   1       0.469  -0.582   2.722  0.00  0.00     0.130 A 
ATOM      2  C2  DEN d   1      -0.953  -0.827   2.943  0.00  0.00    -0.031 A 
ATOM      3  C3  DEN d   1      -1.672  -0.501   1.695  0.00  0.00     0.027 A 
ATOM      4  C4  DEN d   1      -0.725   0.351  -0.548  0.00  0.00     0.027 A 
ATOM      5  C5  DEN d   1       0.422   0.722  -1.213  0.00  0.00    -0.003 A 
ATOM      6  C6  DEN d   1       1.651   0.716  -0.609  0.00  0.00     0.001 A 
ATOM      7  C7  DEN d   1       1.768   0.289   0.688  0.00  0.00     0.017 A 
ATOM      8  C8  DEN d   1       0.614  -0.079   1.368  0.00  0.00    -0.094 A 
ATOM      9  C9  DEN d   1      -0.617  -0.079   0.735  0.00  0.00    -0.072 A 
ENDROOT
TORSDOF 0
ENDMDL
