MODEL 1
REMARK minimizedAffinity -4.63927698
REMARK minimizedRMSD -1
REMARK  0 active torsions:
REMARK  status: ('A' for Active; 'I' for Inactive)
ROOT
ATOM      1  C1  DEN d   1      -0.491  -0.302  -0.319  0.00  0.00     0.130 A 
ATOM      2  C2  DEN d   1       0.747   0.436  -0.556  0.00  0.00    -0.031 A 
ATOM      3  C3  DEN d   1       1.327   0.788   0.756  0.00  0.00     0.027 A 
ATOM      4  C4  DEN d   1       0.435   0.260   3.118  0.00  0.00     0.027 A 
ATOM      5  C5  DEN d   1      -0.586  -0.334   3.825  0.00  0.00    -0.003 A 
ATOM      6  C6  DEN d   1      -1.656  -0.925   3.206  0.00  0.00     0.001 A 
ATOM      7  C7  DEN d   1      -1.706  -0.974   1.838  0.00  0.00     0.017 A 
ATOM      8  C8  DEN d   1      -0.684  -0.370   1.118  0.00  0.00    -0.094 A 
ATOM      9  C9  DEN d   1       0.395   0.211   1.762  0.00  0.00    -0.072 A 
ENDROOT
TORSDOF 0
ENDMDL
