MODEL 1
REMARK minimizedAffinity -3.00864887
REMARK minimizedRMSD -1
REMARK  0 active torsions:
REMARK  status: ('A' for Active; 'I' for Inactive)
ROOT
ATOM      1  C1  DEN d   1       0.726  -0.437   1.980  0.00  0.00     0.130 A 
ATOM      2  C2  DEN d   1       0.019  -0.661   3.238  0.00  0.00    -0.031 A 
ATOM      3  C3  DEN d   1      -1.421  -0.435   3.000  0.00  0.00     0.027 A 
ATOM      4  C4  DEN d   1      -2.618   0.232   0.815  0.00  0.00     0.027 A 
ATOM      5  C5  DEN d   1      -2.437   0.546  -0.514  0.00  0.00    -0.003 A 
ATOM      6  C6  DEN d   1      -1.195   0.587  -1.091  0.00  0.00     0.001 A 
ATOM      7  C7  DEN d   1      -0.090   0.265  -0.349  0.00  0.00     0.017 A 
ATOM      8  C8  DEN d   1      -0.265  -0.045   0.994  0.00  0.00    -0.094 A 
ATOM      9  C9  DEN d   1      -1.529  -0.093   1.556  0.00  0.00    -0.072 A 
ENDROOT
TORSDOF 0
ENDMDL
