MODEL 1
REMARK minimizedAffinity -1.3194294
REMARK minimizedRMSD -1
REMARK  2 active torsions:
REMARK  status: ('A' for Active; 'I' for Inactive)
REMARK    1  A    between atoms: C1_2  and  C2_3 
REMARK    2  A    between atoms: C2_3  and  C3_4 
ROOT
ATOM      1  C3  UNL d   1       0.391   0.305   0.034  0.00  0.00    -0.075 A 
ATOM      2  C4  UNL d   1      -0.595  -0.431   0.707  0.00  0.00     0.002 A 
ATOM      3  C5  UNL d   1      -1.709  -0.916   0.020  0.00  0.00     0.002 A 
ATOM      4  C6  UNL d   1      -1.856  -0.663  -1.341  0.00  0.00    -0.004 A 
ATOM      5  C7  UNL d   1      -0.891   0.082  -2.016  0.00  0.00     0.002 A 
ATOM      6  C8  UNL d   1       0.227   0.564  -1.333  0.00  0.00     0.002 A 
ENDROOT
BRANCH   1   7
ATOM      7  C2  UNL d   1       1.614   0.807   0.764  0.00  0.00     0.056 C 
BRANCH   7   8
ATOM      8  C1  UNL d   1       1.968   2.266   0.459  0.00  0.00     0.007 C 
ATOM      9  C   UNL d   1       2.650   2.975   1.621  0.00  0.00     0.009 C 
ENDBRANCH   7   8
ENDBRANCH   1   7
TORSDOF 2
ENDMDL
