MODEL 1
REMARK minimizedAffinity -3.17589545
REMARK minimizedRMSD -1
REMARK  2 active torsions:
REMARK  status: ('A' for Active; 'I' for Inactive)
REMARK    1  A    between atoms: C1_2  and  C2_3 
REMARK    2  A    between atoms: C2_3  and  C3_4 
ROOT
ATOM      1  C3  UNL d   1       0.688   0.492   0.685  0.00  0.00    -0.075 A 
ATOM      2  C4  UNL d   1       0.691   1.416   1.740  0.00  0.00     0.002 A 
ATOM      3  C5  UNL d   1       1.824   2.187   2.004  0.00  0.00     0.002 A 
ATOM      4  C6  UNL d   1       2.969   2.037   1.225  0.00  0.00    -0.004 A 
ATOM      5  C7  UNL d   1       2.983   1.110   0.185  0.00  0.00     0.002 A 
ATOM      6  C8  UNL d   1       1.849   0.341  -0.084  0.00  0.00     0.002 A 
ENDROOT
BRANCH   1   7
ATOM      7  C2  UNL d   1      -0.545  -0.323   0.376  0.00  0.00     0.056 C 
BRANCH   7   8
ATOM      8  C1  UNL d   1      -1.376   0.221  -0.791  0.00  0.00     0.007 C 
ATOM      9  C   UNL d   1      -2.558  -0.669  -1.152  0.00  0.00     0.009 C 
ENDBRANCH   7   8
ENDBRANCH   1   7
TORSDOF 2
ENDMDL
