MODEL 1
REMARK minimizedAffinity -2.16606474
REMARK minimizedRMSD -1
REMARK  2 active torsions:
REMARK  status: ('A' for Active; 'I' for Inactive)
REMARK    1  A    between atoms: C1_2  and  C2_3 
REMARK    2  A    between atoms: C2_3  and  C3_4 
ROOT
ATOM      1  C3  UNL d   1       1.194   0.821   0.280  0.00  0.00    -0.075 A 
ATOM      2  C4  UNL d   1       0.074   1.321  -0.399  0.00  0.00     0.002 A 
ATOM      3  C5  UNL d   1      -1.122   0.603  -0.417  0.00  0.00     0.002 A 
ATOM      4  C6  UNL d   1      -1.210  -0.626   0.233  0.00  0.00    -0.004 A 
ATOM      5  C7  UNL d   1      -0.098  -1.141   0.897  0.00  0.00     0.002 A 
ATOM      6  C8  UNL d   1       1.099  -0.422   0.920  0.00  0.00     0.002 A 
ENDROOT
BRANCH   1   7
ATOM      7  C2  UNL d   1       2.483   1.607   0.329  0.00  0.00     0.056 C 
BRANCH   7   8
ATOM      8  C1  UNL d   1       2.310   3.061   0.782  0.00  0.00     0.007 C 
ATOM      9  C   UNL d   1       2.843   3.320   2.185  0.00  0.00     0.009 C 
ENDBRANCH   7   8
ENDBRANCH   1   7
TORSDOF 2
ENDMDL
