MODEL 1
REMARK minimizedAffinity 1.53424084
REMARK minimizedRMSD -1
REMARK  2 active torsions:
REMARK  status: ('A' for Active; 'I' for Inactive)
REMARK    1  A    between atoms: C1_2  and  C2_3 
REMARK    2  A    between atoms: C2_3  and  C3_4 
ROOT
ATOM      1  C3  UNL d   1       0.412   0.687   0.320  0.00  0.00    -0.075 A 
ATOM      2  C4  UNL d   1       0.733   0.344  -1.001  0.00  0.00     0.002 A 
ATOM      3  C5  UNL d   1       1.879   0.859  -1.608  0.00  0.00     0.002 A 
ATOM      4  C6  UNL d   1       2.711   1.729  -0.907  0.00  0.00    -0.004 A 
ATOM      5  C7  UNL d   1       2.393   2.089   0.401  0.00  0.00     0.002 A 
ATOM      6  C8  UNL d   1       1.250   1.572   1.012  0.00  0.00     0.002 A 
ENDROOT
BRANCH   1   7
ATOM      7  C2  UNL d   1      -0.811   0.110   0.993  0.00  0.00     0.056 C 
BRANCH   7   8
ATOM      8  C1  UNL d   1      -0.776  -1.414   1.149  0.00  0.00     0.007 C 
ATOM      9  C   UNL d   1       0.608  -1.952   1.488  0.00  0.00     0.009 C 
ENDBRANCH   7   8
ENDBRANCH   1   7
TORSDOF 2
ENDMDL
