MODEL 1
REMARK minimizedAffinity -4.91970253
REMARK minimizedRMSD -1
REMARK  2 active torsions:
REMARK  status: ('A' for Active; 'I' for Inactive)
REMARK    1  A    between atoms: C1_2  and  C2_3 
REMARK    2  A    between atoms: C2_3  and  C3_4 
ROOT
ATOM      1  C3  UNL d   1       0.243   0.434  -0.025  0.00  0.00    -0.075 A 
ATOM      2  C4  UNL d   1      -0.751   0.182   0.932  0.00  0.00     0.002 A 
ATOM      3  C5  UNL d   1      -1.999  -0.308   0.545  0.00  0.00     0.002 A 
ATOM      4  C6  UNL d   1      -2.271  -0.543  -0.801  0.00  0.00    -0.004 A 
ATOM      5  C7  UNL d   1      -1.297  -0.281  -1.762  0.00  0.00     0.002 A 
ATOM      6  C8  UNL d   1      -0.046   0.205  -1.377  0.00  0.00     0.002 A 
ENDROOT
BRANCH   1   7
ATOM      7  C2  UNL d   1       1.605   0.936   0.390  0.00  0.00     0.056 C 
BRANCH   7   8
ATOM      8  C1  UNL d   1       1.576   1.920   1.565  0.00  0.00     0.007 C 
ATOM      9  C   UNL d   1       2.271   3.240   1.260  0.00  0.00     0.009 C 
ENDBRANCH   7   8
ENDBRANCH   1   7
TORSDOF 2
ENDMDL
