MODEL 1
REMARK minimizedAffinity -4.22856092
REMARK minimizedRMSD -1
REMARK  2 active torsions:
REMARK  status: ('A' for Active; 'I' for Inactive)
REMARK    1  A    between atoms: C1_2  and  C2_3 
REMARK    2  A    between atoms: C2_3  and  C3_4 
ROOT
ATOM      1  C3  UNL d   1       0.751   0.046   0.125  0.00  0.00    -0.075 A 
ATOM      2  C4  UNL d   1       0.205   0.452  -1.101  0.00  0.00     0.002 A 
ATOM      3  C5  UNL d   1      -1.142   0.228  -1.386  0.00  0.00     0.002 A 
ATOM      4  C6  UNL d   1      -1.957  -0.413  -0.455  0.00  0.00    -0.004 A 
ATOM      5  C7  UNL d   1      -1.421  -0.836   0.759  0.00  0.00     0.002 A 
ATOM      6  C8  UNL d   1      -0.075  -0.609   1.049  0.00  0.00     0.002 A 
ENDROOT
BRANCH   1   7
ATOM      7  C2  UNL d   1       2.201   0.312   0.451  0.00  0.00     0.056 C 
BRANCH   7   8
ATOM      8  C1  UNL d   1       2.616   1.779   0.298  0.00  0.00     0.007 C 
ATOM      9  C   UNL d   1       2.381   2.604   1.556  0.00  0.00     0.009 C 
ENDBRANCH   7   8
ENDBRANCH   1   7
TORSDOF 2
ENDMDL
