MODEL 1
REMARK minimizedAffinity -5.39884663
REMARK minimizedRMSD -1
REMARK  2 active torsions:
REMARK  status: ('A' for Active; 'I' for Inactive)
REMARK    1  A    between atoms: C1_2  and  C2_3 
REMARK    2  A    between atoms: C2_3  and  C3_4 
ROOT
ATOM      1  C3  UNL d   1      -0.194   0.181   0.233  0.00  0.00    -0.075 A 
ATOM      2  C4  UNL d   1      -0.558   0.144  -1.121  0.00  0.00     0.002 A 
ATOM      3  C5  UNL d   1      -1.848  -0.234  -1.497  0.00  0.00     0.002 A 
ATOM      4  C6  UNL d   1      -2.784  -0.588  -0.528  0.00  0.00    -0.004 A 
ATOM      5  C7  UNL d   1      -2.428  -0.570   0.819  0.00  0.00     0.002 A 
ATOM      6  C8  UNL d   1      -1.140  -0.189   1.198  0.00  0.00     0.002 A 
ENDROOT
BRANCH   1   7
ATOM      7  C2  UNL d   1       1.191   0.617   0.649  0.00  0.00     0.056 C 
BRANCH   7   8
ATOM      8  C1  UNL d   1       1.214   1.888   1.504  0.00  0.00     0.007 C 
ATOM      9  C   UNL d   1       2.592   2.530   1.588  0.00  0.00     0.009 C 
ENDBRANCH   7   8
ENDBRANCH   1   7
TORSDOF 2
ENDMDL
