MODEL 1
REMARK minimizedAffinity -5.22448111
REMARK minimizedRMSD -1
REMARK  2 active torsions:
REMARK  status: ('A' for Active; 'I' for Inactive)
REMARK    1  A    between atoms: C1_2  and  C2_3 
REMARK    2  A    between atoms: C2_3  and  C3_4 
ROOT
ATOM      1  C3  UNL d   1      -0.756   0.150  -0.352  0.00  0.00    -0.075 A 
ATOM      2  C4  UNL d   1      -1.425  -0.123   0.850  0.00  0.00     0.002 A 
ATOM      3  C5  UNL d   1      -2.556  -0.940   0.861  0.00  0.00     0.002 A 
ATOM      4  C6  UNL d   1      -3.036  -1.486  -0.327  0.00  0.00    -0.004 A 
ATOM      5  C7  UNL d   1      -2.389  -1.207  -1.529  0.00  0.00     0.002 A 
ATOM      6  C8  UNL d   1      -1.255  -0.393  -1.543  0.00  0.00     0.002 A 
ENDROOT
BRANCH   1   7
ATOM      7  C2  UNL d   1       0.485   1.010  -0.367  0.00  0.00     0.056 C 
BRANCH   7   8
ATOM      8  C1  UNL d   1       1.575   0.549   0.606  0.00  0.00     0.007 C 
ATOM      9  C   UNL d   1       2.553   1.656   0.980  0.00  0.00     0.009 C 
ENDBRANCH   7   8
ENDBRANCH   1   7
TORSDOF 2
ENDMDL
