MODEL 1
REMARK minimizedAffinity -5.16367769
REMARK minimizedRMSD -1
REMARK  2 active torsions:
REMARK  status: ('A' for Active; 'I' for Inactive)
REMARK    1  A    between atoms: C1_2  and  C2_3 
REMARK    2  A    between atoms: C2_3  and  C3_4 
ROOT
ATOM      1  C3  UNL d   1      -0.106  -0.205  -0.221  0.00  0.00    -0.075 A 
ATOM      2  C4  UNL d   1      -0.893   0.294  -1.269  0.00  0.00     0.002 A 
ATOM      3  C5  UNL d   1      -2.268   0.061  -1.295  0.00  0.00     0.002 A 
ATOM      4  C6  UNL d   1      -2.872  -0.680  -0.281  0.00  0.00    -0.004 A 
ATOM      5  C7  UNL d   1      -2.097  -1.194   0.757  0.00  0.00     0.002 A 
ATOM      6  C8  UNL d   1      -0.721  -0.959   0.787  0.00  0.00     0.002 A 
ENDROOT
BRANCH   1   7
ATOM      7  C2  UNL d   1       1.379   0.068  -0.172  0.00  0.00     0.056 C 
BRANCH   7   8
ATOM      8  C1  UNL d   1       1.752   1.352   0.575  0.00  0.00     0.007 C 
ATOM      9  C   UNL d   1       2.722   2.236  -0.198  0.00  0.00     0.009 C 
ENDBRANCH   7   8
ENDBRANCH   1   7
TORSDOF 2
ENDMDL
