MODEL 1
REMARK minimizedAffinity -2.38770723
REMARK minimizedRMSD -1
REMARK  2 active torsions:
REMARK  status: ('A' for Active; 'I' for Inactive)
REMARK    1  A    between atoms: C1_2  and  C2_3 
REMARK    2  A    between atoms: C2_3  and  C3_4 
ROOT
ATOM      1  C3  UNL d   1       1.027   0.502   0.680  0.00  0.00    -0.075 A 
ATOM      2  C4  UNL d   1      -0.140   0.919   0.024  0.00  0.00     0.002 A 
ATOM      3  C5  UNL d   1      -1.249   0.076  -0.053  0.00  0.00     0.002 A 
ATOM      4  C6  UNL d   1      -1.202  -1.196   0.515  0.00  0.00    -0.004 A 
ATOM      5  C7  UNL d   1      -0.042  -1.626   1.155  0.00  0.00     0.002 A 
ATOM      6  C8  UNL d   1       1.068  -0.783   1.238  0.00  0.00     0.002 A 
ENDROOT
BRANCH   1   7
ATOM      7  C2  UNL d   1       2.221   1.420   0.793  0.00  0.00     0.056 C 
BRANCH   7   8
ATOM      8  C1  UNL d   1       2.345   2.118   2.151  0.00  0.00     0.007 C 
ATOM      9  C   UNL d   1       2.553   3.622   2.037  0.00  0.00     0.009 C 
ENDBRANCH   7   8
ENDBRANCH   1   7
TORSDOF 2
ENDMDL
