MODEL 1
REMARK minimizedAffinity -2.45369053
REMARK minimizedRMSD -1
REMARK  2 active torsions:
REMARK  status: ('A' for Active; 'I' for Inactive)
REMARK    1  A    between atoms: C1_2  and  C2_3 
REMARK    2  A    between atoms: C2_3  and  C3_4 
ROOT
ATOM      1  C3  UNL d   1       0.441  -0.053   0.889  0.00  0.00    -0.075 A 
ATOM      2  C4  UNL d   1      -0.883   0.128   0.463  0.00  0.00     0.002 A 
ATOM      3  C5  UNL d   1      -1.870  -0.798   0.805  0.00  0.00     0.002 A 
ATOM      4  C6  UNL d   1      -1.543  -1.919   1.566  0.00  0.00    -0.004 A 
ATOM      5  C7  UNL d   1      -0.228  -2.117   1.980  0.00  0.00     0.002 A 
ATOM      6  C8  UNL d   1       0.760  -1.189   1.643  0.00  0.00     0.002 A 
ENDROOT
BRANCH   1   7
ATOM      7  C2  UNL d   1       1.507   0.961   0.547  0.00  0.00     0.056 C 
BRANCH   7   8
ATOM      8  C1  UNL d   1       1.944   1.830   1.731  0.00  0.00     0.007 C 
ATOM      9  C   UNL d   1       2.187   3.284   1.352  0.00  0.00     0.009 C 
ENDBRANCH   7   8
ENDBRANCH   1   7
TORSDOF 2
ENDMDL
