MODEL 1
REMARK minimizedAffinity -5.88560867
REMARK minimizedRMSD -1
REMARK  2 active torsions:
REMARK  status: ('A' for Active; 'I' for Inactive)
REMARK    1  A    between atoms: C1_2  and  C2_3 
REMARK    2  A    between atoms: C2_3  and  C3_4 
ROOT
ATOM      1  C3  UNL d   1      -0.316  -0.198   0.210  0.00  0.00    -0.075 A 
ATOM      2  C4  UNL d   1      -0.807  -1.132   1.134  0.00  0.00     0.002 A 
ATOM      3  C5  UNL d   1      -2.136  -1.553   1.077  0.00  0.00     0.002 A 
ATOM      4  C6  UNL d   1      -2.992  -1.039   0.106  0.00  0.00    -0.004 A 
ATOM      5  C7  UNL d   1      -2.519  -0.098  -0.807  0.00  0.00     0.002 A 
ATOM      6  C8  UNL d   1      -1.189   0.322  -0.755  0.00  0.00     0.002 A 
ENDROOT
BRANCH   1   7
ATOM      7  C2  UNL d   1       1.129   0.239   0.248  0.00  0.00     0.056 C 
BRANCH   7   8
ATOM      8  C1  UNL d   1       1.353   1.594   0.927  0.00  0.00     0.007 C 
ATOM      9  C   UNL d   1       2.700   2.219   0.590  0.00  0.00     0.009 C 
ENDBRANCH   7   8
ENDBRANCH   1   7
TORSDOF 2
ENDMDL
