MODEL 1
REMARK minimizedAffinity -0.402449012
REMARK minimizedRMSD -1
REMARK  2 active torsions:
REMARK  status: ('A' for Active; 'I' for Inactive)
REMARK    1  A    between atoms: C1_2  and  C2_3 
REMARK    2  A    between atoms: C2_3  and  C3_4 
ROOT
ATOM      1  C3  UNL d   1      -1.442  -0.988  -0.302  0.00  0.00    -0.075 A 
ATOM      2  C4  UNL d   1      -0.575  -0.038  -0.862  0.00  0.00     0.002 A 
ATOM      3  C5  UNL d   1       0.530   0.421  -0.145  0.00  0.00     0.002 A 
ATOM      4  C6  UNL d   1       0.777  -0.054   1.141  0.00  0.00    -0.004 A 
ATOM      5  C7  UNL d   1      -0.087  -0.986   1.714  0.00  0.00     0.002 A 
ATOM      6  C8  UNL d   1      -1.191  -1.450   0.997  0.00  0.00     0.002 A 
ENDROOT
BRANCH   1   7
ATOM      7  C2  UNL d   1      -2.623  -1.511  -1.084  0.00  0.00     0.056 C 
BRANCH   7   8
ATOM      8  C1  UNL d   1      -2.285  -1.932  -2.518  0.00  0.00     0.007 C 
ATOM      9  C   UNL d   1      -2.622  -3.387  -2.812  0.00  0.00     0.009 C 
ENDBRANCH   7   8
ENDBRANCH   1   7
TORSDOF 2
ENDMDL
