MODEL 1
REMARK minimizedAffinity -5.00311232
REMARK minimizedRMSD -1
REMARK  2 active torsions:
REMARK  status: ('A' for Active; 'I' for Inactive)
REMARK    1  A    between atoms: C1_2  and  C2_3 
REMARK    2  A    between atoms: C2_3  and  C3_4 
ROOT
ATOM      1  C3  UNL d   1      -0.274  -0.523   0.107  0.00  0.00    -0.075 A 
ATOM      2  C4  UNL d   1      -0.487  -0.065  -1.201  0.00  0.00     0.002 A 
ATOM      3  C5  UNL d   1      -1.717  -0.261  -1.829  0.00  0.00     0.002 A 
ATOM      4  C6  UNL d   1      -2.745  -0.924  -1.162  0.00  0.00    -0.004 A 
ATOM      5  C7  UNL d   1      -2.539  -1.398   0.132  0.00  0.00     0.002 A 
ATOM      6  C8  UNL d   1      -1.310  -1.200   0.763  0.00  0.00     0.002 A 
ENDROOT
BRANCH   1   7
ATOM      7  C2  UNL d   1       1.046  -0.289   0.802  0.00  0.00     0.056 C 
BRANCH   7   8
ATOM      8  C1  UNL d   1       1.828   0.916   0.267  0.00  0.00     0.007 C 
ATOM      9  C   UNL d   1       2.151   1.946   1.341  0.00  0.00     0.009 C 
ENDBRANCH   7   8
ENDBRANCH   1   7
TORSDOF 2
ENDMDL
