MODEL 1
REMARK minimizedAffinity -3.53521585
REMARK minimizedRMSD -1
REMARK  2 active torsions:
REMARK  status: ('A' for Active; 'I' for Inactive)
REMARK    1  A    between atoms: C1_2  and  C2_3 
REMARK    2  A    between atoms: C2_3  and  C3_4 
ROOT
ATOM      1  C3  UNL d   1       0.336   0.243   0.202  0.00  0.00    -0.075 A 
ATOM      2  C4  UNL d   1      -0.137  -0.060  -1.083  0.00  0.00     0.002 A 
ATOM      3  C5  UNL d   1      -1.449  -0.493  -1.272  0.00  0.00     0.002 A 
ATOM      4  C6  UNL d   1      -2.302  -0.638  -0.180  0.00  0.00    -0.004 A 
ATOM      5  C7  UNL d   1      -1.839  -0.355   1.104  0.00  0.00     0.002 A 
ATOM      6  C8  UNL d   1      -0.527   0.082   1.295  0.00  0.00     0.002 A 
ENDROOT
BRANCH   1   7
ATOM      7  C2  UNL d   1       1.746   0.740   0.409  0.00  0.00     0.056 C 
BRANCH   7   8
ATOM      8  C1  UNL d   1       1.869   1.847   1.462  0.00  0.00     0.007 C 
ATOM      9  C   UNL d   1       3.018   2.809   1.191  0.00  0.00     0.009 C 
ENDBRANCH   7   8
ENDBRANCH   1   7
TORSDOF 2
ENDMDL
