MODEL 1
REMARK minimizedAffinity 1.9024123
REMARK minimizedRMSD -1
REMARK  2 active torsions:
REMARK  status: ('A' for Active; 'I' for Inactive)
REMARK    1  A    between atoms: C1_2  and  C2_3 
REMARK    2  A    between atoms: C2_3  and  C3_4 
ROOT
ATOM      1  C3  UNL d   1       0.267  -0.296   0.320  0.00  0.00    -0.075 A 
ATOM      2  C4  UNL d   1       0.703  -1.414   1.046  0.00  0.00     0.002 A 
ATOM      3  C5  UNL d   1      -0.178  -2.105   1.878  0.00  0.00     0.002 A 
ATOM      4  C6  UNL d   1      -1.500  -1.683   2.002  0.00  0.00    -0.004 A 
ATOM      5  C7  UNL d   1      -1.939  -0.564   1.299  0.00  0.00     0.002 A 
ATOM      6  C8  UNL d   1      -1.061   0.128   0.462  0.00  0.00     0.002 A 
ENDROOT
BRANCH   1   7
ATOM      7  C2  UNL d   1       1.208   0.439  -0.605  0.00  0.00     0.056 C 
BRANCH   7   8
ATOM      8  C1  UNL d   1       1.289  -0.156  -2.015  0.00  0.00     0.007 C 
ATOM      9  C   UNL d   1       0.269   0.438  -2.977  0.00  0.00     0.009 C 
ENDBRANCH   7   8
ENDBRANCH   1   7
TORSDOF 2
ENDMDL
