MODEL 1
REMARK minimizedAffinity 9.47284222
REMARK minimizedRMSD -1
REMARK  0 active torsions:
REMARK  status: ('A' for Active; 'I' for Inactive)
ROOT
ATOM      1  C   UNL d   1       5.012   4.095   4.100  0.00  0.00     0.077 C 
ATOM      2  C1  UNL d   1       3.555   4.098   3.744  0.00  0.00    -0.074 A 
ATOM      3  C2  UNL d   1       2.862   5.299   3.564  0.00  0.00    -0.005 A 
ATOM      4  C3  UNL d   1       1.509   5.286   3.223  0.00  0.00     0.006 A 
ATOM      5  C4  UNL d   1       0.838   4.074   3.058  0.00  0.00    -0.005 A 
ATOM      6  C5  UNL d   1       1.515   2.863   3.233  0.00  0.00    -0.074 A 
ATOM      7  C6  UNL d   1       0.810   1.552   3.051  0.00  0.00     0.077 C 
ATOM      8  C7  UNL d   1       2.875   2.885   3.569  0.00  0.00    -0.001 A 
ENDROOT
TORSDOF 0
ENDMDL
