MODEL 1
REMARK minimizedAffinity 14.4407511
REMARK minimizedRMSD -1
REMARK  0 active torsions:
REMARK  status: ('A' for Active; 'I' for Inactive)
ROOT
ATOM      1  C   UNL d   1      -5.981   1.127   0.452  0.00  0.00     0.077 C 
ATOM      2  C1  UNL d   1      -5.385   0.823  -0.890  0.00  0.00    -0.074 A 
ATOM      3  C2  UNL d   1      -4.293  -0.043  -1.012  0.00  0.00    -0.005 A 
ATOM      4  C3  UNL d   1      -3.755  -0.325  -2.267  0.00  0.00     0.006 A 
ATOM      5  C4  UNL d   1      -4.302   0.256  -3.412  0.00  0.00    -0.005 A 
ATOM      6  C5  UNL d   1      -5.394   1.123  -3.311  0.00  0.00    -0.074 A 
ATOM      7  C6  UNL d   1      -6.000   1.748  -4.532  0.00  0.00     0.077 C 
ATOM      8  C7  UNL d   1      -5.933   1.396  -2.046  0.00  0.00    -0.001 A 
ENDROOT
TORSDOF 0
ENDMDL
