MODEL 1
REMARK minimizedAffinity 11.6612434
REMARK minimizedRMSD -1
REMARK  0 active torsions:
REMARK  status: ('A' for Active; 'I' for Inactive)
ROOT
ATOM      1  C   UNL d   1       5.475   2.497  -1.724  0.00  0.00     0.077 C 
ATOM      2  C1  UNL d   1       4.547   1.492  -1.110  0.00  0.00    -0.074 A 
ATOM      3  C2  UNL d   1       5.038   0.449  -0.319  0.00  0.00    -0.005 A 
ATOM      4  C3  UNL d   1       4.162  -0.473   0.254  0.00  0.00     0.006 A 
ATOM      5  C4  UNL d   1       2.787  -0.360   0.042  0.00  0.00    -0.005 A 
ATOM      6  C5  UNL d   1       2.277   0.677  -0.745  0.00  0.00    -0.074 A 
ATOM      7  C6  UNL d   1       0.801   0.819  -0.974  0.00  0.00     0.077 C 
ATOM      8  C7  UNL d   1       3.164   1.603  -1.311  0.00  0.00    -0.001 A 
ENDROOT
TORSDOF 0
ENDMDL
