MODEL 1
REMARK minimizedAffinity 0.651081204
REMARK minimizedRMSD -1
REMARK  0 active torsions:
REMARK  status: ('A' for Active; 'I' for Inactive)
ROOT
ATOM      1  C   UNL d   1       0.949  -1.542   4.273  0.00  0.00     0.077 C 
ATOM      2  C1  UNL d   1       0.699  -2.896   4.868  0.00  0.00    -0.074 A 
ATOM      3  C2  UNL d   1       1.740  -3.633   5.442  0.00  0.00    -0.005 A 
ATOM      4  C3  UNL d   1       1.490  -4.886   6.000  0.00  0.00     0.006 A 
ATOM      5  C4  UNL d   1       0.199  -5.415   5.991  0.00  0.00    -0.005 A 
ATOM      6  C5  UNL d   1      -0.855  -4.692   5.423  0.00  0.00    -0.074 A 
ATOM      7  C6  UNL d   1      -2.251  -5.242   5.413  0.00  0.00     0.077 C 
ATOM      8  C7  UNL d   1      -0.597  -3.430   4.870  0.00  0.00    -0.001 A 
ENDROOT
TORSDOF 0
ENDMDL
