MODEL 1
REMARK minimizedAffinity 6.9136405
REMARK minimizedRMSD -1
REMARK  0 active torsions:
REMARK  status: ('A' for Active; 'I' for Inactive)
ROOT
ATOM      1  C   UNL d   1      -5.089   5.966  -0.307  0.00  0.00     0.077 C 
ATOM      2  C1  UNL d   1      -4.574   5.969   1.102  0.00  0.00    -0.074 A 
ATOM      3  C2  UNL d   1      -3.200   5.986   1.364  0.00  0.00    -0.005 A 
ATOM      4  C3  UNL d   1      -2.736   5.998   2.680  0.00  0.00     0.006 A 
ATOM      5  C4  UNL d   1      -3.639   5.993   3.744  0.00  0.00    -0.005 A 
ATOM      6  C5  UNL d   1      -5.016   5.977   3.500  0.00  0.00    -0.074 A 
ATOM      7  C6  UNL d   1      -6.000   5.981   4.632  0.00  0.00     0.077 C 
ATOM      8  C7  UNL d   1      -5.475   5.971   2.176  0.00  0.00    -0.001 A 
ENDROOT
TORSDOF 0
ENDMDL
