MODEL 1
REMARK minimizedAffinity 4.46727705
REMARK minimizedRMSD -1
REMARK  0 active torsions:
REMARK  status: ('A' for Active; 'I' for Inactive)
ROOT
ATOM      1  C   UNL d   1      -1.282  -4.544   6.000  0.00  0.00     0.077 C 
ATOM      2  C1  UNL d   1      -0.155  -3.590   5.733  0.00  0.00    -0.074 A 
ATOM      3  C2  UNL d   1       1.176  -3.982   5.913  0.00  0.00    -0.005 A 
ATOM      4  C3  UNL d   1       2.213  -3.087   5.652  0.00  0.00     0.006 A 
ATOM      5  C4  UNL d   1       1.931  -1.794   5.210  0.00  0.00    -0.005 A 
ATOM      6  C5  UNL d   1       0.607  -1.385   5.023  0.00  0.00    -0.074 A 
ATOM      7  C6  UNL d   1       0.287  -0.002   4.538  0.00  0.00     0.077 C 
ATOM      8  C7  UNL d   1      -0.430  -2.292   5.281  0.00  0.00    -0.001 A 
ENDROOT
TORSDOF 0
ENDMDL
