MODEL 1
REMARK minimizedAffinity 1.94360816
REMARK minimizedRMSD -1
REMARK  0 active torsions:
REMARK  status: ('A' for Active; 'I' for Inactive)
ROOT
ATOM      1  C   UNL d   1       1.135  -5.512   6.000  0.00  0.00     0.077 C 
ATOM      2  C1  UNL d   1       0.257  -4.332   5.705  0.00  0.00    -0.074 A 
ATOM      3  C2  UNL d   1      -1.094  -4.503   5.388  0.00  0.00    -0.005 A 
ATOM      4  C3  UNL d   1      -1.900  -3.396   5.126  0.00  0.00     0.006 A 
ATOM      5  C4  UNL d   1      -1.364  -2.109   5.178  0.00  0.00    -0.005 A 
ATOM      6  C5  UNL d   1      -0.016  -1.918   5.494  0.00  0.00    -0.074 A 
ATOM      7  C6  UNL d   1       0.574  -0.541   5.563  0.00  0.00     0.077 C 
ATOM      8  C7  UNL d   1       0.787  -3.036   5.763  0.00  0.00    -0.001 A 
ENDROOT
TORSDOF 0
ENDMDL
