MODEL 1
REMARK minimizedAffinity 0.575110555
REMARK minimizedRMSD -1
REMARK  0 active torsions:
REMARK  status: ('A' for Active; 'I' for Inactive)
ROOT
ATOM      1  C   UNL d   1      -1.602  -5.532   5.129  0.00  0.00     0.077 C 
ATOM      2  C1  UNL d   1      -0.415  -4.615   5.150  0.00  0.00    -0.074 A 
ATOM      3  C2  UNL d   1       0.669  -4.862   5.998  0.00  0.00    -0.005 A 
ATOM      4  C3  UNL d   1       1.770  -4.006   6.000  0.00  0.00     0.006 A 
ATOM      5  C4  UNL d   1       1.798  -2.895   5.156  0.00  0.00    -0.005 A 
ATOM      6  C5  UNL d   1       0.723  -2.632   4.301  0.00  0.00    -0.074 A 
ATOM      7  C6  UNL d   1       0.741  -1.448   3.380  0.00  0.00     0.077 C 
ATOM      8  C7  UNL d   1      -0.377  -3.501   4.300  0.00  0.00    -0.001 A 
ENDROOT
TORSDOF 0
ENDMDL
