MODEL 1
REMARK minimizedAffinity 1.53686333
REMARK minimizedRMSD -1
REMARK  0 active torsions:
REMARK  status: ('A' for Active; 'I' for Inactive)
ROOT
ATOM      1  C   UNL d   1      -5.968   5.996   4.943  0.00  0.00     0.077 C 
ATOM      2  C1  UNL d   1      -4.970   5.992   3.823  0.00  0.00    -0.074 A 
ATOM      3  C2  UNL d   1      -3.596   5.964   4.085  0.00  0.00    -0.005 A 
ATOM      4  C3  UNL d   1      -2.680   5.950   3.033  0.00  0.00     0.006 A 
ATOM      5  C4  UNL d   1      -3.128   5.964   1.711  0.00  0.00    -0.005 A 
ATOM      6  C5  UNL d   1      -4.497   5.991   1.430  0.00  0.00    -0.074 A 
ATOM      7  C6  UNL d   1      -4.995   5.996   0.016  0.00  0.00     0.077 C 
ATOM      8  C7  UNL d   1      -5.412   5.997   2.493  0.00  0.00    -0.001 A 
ENDROOT
TORSDOF 0
ENDMDL
