MODEL 1
REMARK minimizedAffinity -3.92763829
REMARK minimizedRMSD -1
REMARK  1 active torsions:
REMARK  status: ('A' for Active; 'I' for Inactive)
REMARK    1  A    between atoms: N_2  and  C1_3 
ROOT
ATOM      1  C1  UNL d   1       1.196  -0.456  -0.774  0.00  0.00     0.143 A 
ATOM      2  C2  UNL d   1       0.890   0.267   0.383  0.00  0.00    -0.057 A 
ATOM      3  C3  UNL d   1       0.998   1.663   0.416  0.00  0.00     0.033 A 
ATOM      4  C4  UNL d   1       1.444   2.359  -0.702  0.00  0.00    -0.042 A 
ATOM      5  C5  UNL d   1       1.778   1.658  -1.856  0.00  0.00     0.033 A 
ATOM      6  C6  UNL d   1       1.661   0.265  -1.885  0.00  0.00    -0.057 A 
ENDROOT
BRANCH   1   7
ATOM      7  N   UNL d   1       1.203  -1.852  -0.840  0.00  0.00    -0.732 N 
ATOM      8  C   UNL d   1      -0.011  -2.582  -1.132  0.00  0.00     0.284 C 
ATOM      9  H3  UNL d   1       2.030  -2.215  -1.310  0.00  0.00     0.395 HD
ENDBRANCH   1   7
TORSDOF 1
ENDMDL
