MODEL 1
REMARK minimizedAffinity -5.03603554
REMARK minimizedRMSD -1
REMARK  1 active torsions:
REMARK  status: ('A' for Active; 'I' for Inactive)
REMARK    1  A    between atoms: N_2  and  C1_3 
ROOT
ATOM      1  C1  UNL d   1       1.459   3.185  -1.192  0.00  0.00     0.143 A 
ATOM      2  C2  UNL d   1       1.784   1.961  -1.787  0.00  0.00    -0.057 A 
ATOM      3  C3  UNL d   1       1.623   0.753  -1.097  0.00  0.00     0.033 A 
ATOM      4  C4  UNL d   1       1.160   0.751   0.214  0.00  0.00    -0.042 A 
ATOM      5  C5  UNL d   1       0.854   1.957   0.834  0.00  0.00     0.033 A 
ATOM      6  C6  UNL d   1       1.011   3.159   0.138  0.00  0.00    -0.057 A 
ENDROOT
BRANCH   1   7
ATOM      7  N   UNL d   1       1.690   4.426  -1.791  0.00  0.00    -0.732 N 
ATOM      8  C   UNL d   1       2.184   5.540  -1.010  0.00  0.00     0.284 C 
ATOM      9  H3  UNL d   1       2.117   4.340  -2.710  0.00  0.00     0.395 HD
ENDBRANCH   1   7
TORSDOF 1
ENDMDL
