MODEL 1
REMARK minimizedAffinity 0.0851720572
REMARK minimizedRMSD -1
REMARK  1 active torsions:
REMARK  status: ('A' for Active; 'I' for Inactive)
REMARK    1  A    between atoms: N_2  and  C1_3 
ROOT
ATOM      1  C1  UNL d   1       1.242   2.734  -0.912  0.00  0.00     0.143 A 
ATOM      2  C2  UNL d   1       1.215   1.517  -1.600  0.00  0.00    -0.057 A 
ATOM      3  C3  UNL d   1       0.936   0.314  -0.939  0.00  0.00     0.033 A 
ATOM      4  C4  UNL d   1       0.707   0.305   0.433  0.00  0.00    -0.042 A 
ATOM      5  C5  UNL d   1       0.753   1.500   1.142  0.00  0.00     0.033 A 
ATOM      6  C6  UNL d   1       1.026   2.699   0.475  0.00  0.00    -0.057 A 
ENDROOT
BRANCH   1   7
ATOM      7  N   UNL d   1       1.610   3.949  -1.495  0.00  0.00    -0.732 N 
ATOM      8  C   UNL d   1       1.681   5.157  -0.700  0.00  0.00     0.284 C 
ATOM      9  H3  UNL d   1       2.372   3.845  -2.161  0.00  0.00     0.395 HD
ENDBRANCH   1   7
TORSDOF 1
ENDMDL
