MODEL 1
REMARK minimizedAffinity 2.10139108
REMARK minimizedRMSD -1
REMARK  1 active torsions:
REMARK  status: ('A' for Active; 'I' for Inactive)
REMARK    1  A    between atoms: N_2  and  C1_3 
ROOT
ATOM      1  C1  UNL d   1       1.609   0.199  -2.575  0.00  0.00     0.143 A 
ATOM      2  C2  UNL d   1       2.538  -0.453  -1.757  0.00  0.00    -0.057 A 
ATOM      3  C3  UNL d   1       2.699  -0.096  -0.412  0.00  0.00     0.033 A 
ATOM      4  C4  UNL d   1       1.951   0.944   0.131  0.00  0.00    -0.042 A 
ATOM      5  C5  UNL d   1       1.040   1.622  -0.670  0.00  0.00     0.033 A 
ATOM      6  C6  UNL d   1       0.879   1.256  -2.010  0.00  0.00    -0.057 A 
ENDROOT
BRANCH   1   7
ATOM      7  N   UNL d   1       1.473  -0.044  -3.944  0.00  0.00    -0.732 N 
ATOM      8  C   UNL d   1       1.929  -1.291  -4.520  0.00  0.00     0.284 C 
ATOM      9  H3  UNL d   1       0.581   0.281  -4.309  0.00  0.00     0.395 HD
ENDBRANCH   1   7
TORSDOF 1
ENDMDL
