MODEL 1
REMARK minimizedAffinity -3.97525501
REMARK minimizedRMSD -1
REMARK  1 active torsions:
REMARK  status: ('A' for Active; 'I' for Inactive)
REMARK    1  A    between atoms: N_2  and  C1_3 
ROOT
ATOM      1  C1  UNL d   1       1.527   3.080  -1.044  0.00  0.00     0.143 A 
ATOM      2  C2  UNL d   1       1.394   2.810   0.322  0.00  0.00    -0.057 A 
ATOM      3  C3  UNL d   1       1.209   1.503   0.790  0.00  0.00     0.033 A 
ATOM      4  C4  UNL d   1       1.125   0.443  -0.107  0.00  0.00    -0.042 A 
ATOM      5  C5  UNL d   1       1.230   0.691  -1.471  0.00  0.00     0.033 A 
ATOM      6  C6  UNL d   1       1.421   1.997  -1.931  0.00  0.00    -0.057 A 
ENDROOT
BRANCH   1   7
ATOM      7  N   UNL d   1       1.614   4.368  -1.578  0.00  0.00    -0.732 N 
ATOM      8  C   UNL d   1       1.895   5.502  -0.724  0.00  0.00     0.284 C 
ATOM      9  H3  UNL d   1       2.104   4.387  -2.469  0.00  0.00     0.395 HD
ENDBRANCH   1   7
TORSDOF 1
ENDMDL
