MODEL 1
REMARK minimizedAffinity 1.09190357
REMARK minimizedRMSD -1
REMARK  1 active torsions:
REMARK  status: ('A' for Active; 'I' for Inactive)
REMARK    1  A    between atoms: N_2  and  C1_3 
ROOT
ATOM      1  C1  UNL d   1       1.246   2.298  -0.923  0.00  0.00     0.143 A 
ATOM      2  C2  UNL d   1       2.003   1.475  -1.765  0.00  0.00    -0.057 A 
ATOM      3  C3  UNL d   1       2.044   0.088  -1.580  0.00  0.00     0.033 A 
ATOM      4  C4  UNL d   1       1.349  -0.500  -0.529  0.00  0.00    -0.042 A 
ATOM      5  C5  UNL d   1       0.610   0.300   0.336  0.00  0.00     0.033 A 
ATOM      6  C6  UNL d   1       0.568   1.684   0.142  0.00  0.00    -0.057 A 
ENDROOT
BRANCH   1   7
ATOM      7  N   UNL d   1       1.244   3.693  -0.995  0.00  0.00    -0.732 N 
ATOM      8  C   UNL d   1       1.567   4.491   0.167  0.00  0.00     0.284 C 
ATOM      9  H3  UNL d   1       1.650   4.038  -1.862  0.00  0.00     0.395 HD
ENDBRANCH   1   7
TORSDOF 1
ENDMDL
