MODEL 1
REMARK minimizedAffinity -2.24932671
REMARK minimizedRMSD -1
REMARK  1 active torsions:
REMARK  status: ('A' for Active; 'I' for Inactive)
REMARK    1  A    between atoms: N_2  and  C1_3 
ROOT
ATOM      1  C1  UNL d   1       1.563   3.204  -1.167  0.00  0.00     0.143 A 
ATOM      2  C2  UNL d   1       1.372   3.041   0.209  0.00  0.00    -0.057 A 
ATOM      3  C3  UNL d   1       1.008   1.802   0.749  0.00  0.00     0.033 A 
ATOM      4  C4  UNL d   1       0.799   0.707  -0.084  0.00  0.00    -0.042 A 
ATOM      5  C5  UNL d   1       0.959   0.853  -1.457  0.00  0.00     0.033 A 
ATOM      6  C6  UNL d   1       1.329   2.091  -1.990  0.00  0.00    -0.057 A 
ENDROOT
BRANCH   1   7
ATOM      7  N   UNL d   1       1.829   4.434  -1.775  0.00  0.00    -0.732 N 
ATOM      8  C   UNL d   1       1.743   5.664  -1.018  0.00  0.00     0.284 C 
ATOM      9  H3  UNL d   1       2.623   4.390  -2.409  0.00  0.00     0.395 HD
ENDBRANCH   1   7
TORSDOF 1
ENDMDL
