MODEL 1
REMARK minimizedAffinity -4.27301979
REMARK minimizedRMSD -1
REMARK  1 active torsions:
REMARK  status: ('A' for Active; 'I' for Inactive)
REMARK    1  A    between atoms: N_2  and  C1_3 
ROOT
ATOM      1  C1  UNL d   1       1.266   2.848  -1.414  0.00  0.00     0.143 A 
ATOM      2  C2  UNL d   1       1.529   2.536  -0.076  0.00  0.00    -0.057 A 
ATOM      3  C3  UNL d   1       1.195   1.285   0.457  0.00  0.00     0.033 A 
ATOM      4  C4  UNL d   1       0.563   0.331  -0.334  0.00  0.00    -0.042 A 
ATOM      5  C5  UNL d   1       0.268   0.629  -1.660  0.00  0.00     0.033 A 
ATOM      6  C6  UNL d   1       0.611   1.877  -2.189  0.00  0.00    -0.057 A 
ENDROOT
BRANCH   1   7
ATOM      7  N   UNL d   1       1.484   4.108  -1.977  0.00  0.00    -0.732 N 
ATOM      8  C   UNL d   1       2.108   5.161  -1.205  0.00  0.00     0.284 C 
ATOM      9  H3  UNL d   1       1.805   4.052  -2.941  0.00  0.00     0.395 HD
ENDBRANCH   1   7
TORSDOF 1
ENDMDL
