MODEL 1
REMARK minimizedAffinity 0.102445118
REMARK minimizedRMSD -1
REMARK  1 active torsions:
REMARK  status: ('A' for Active; 'I' for Inactive)
REMARK    1  A    between atoms: N_2  and  C1_3 
ROOT
ATOM      1  C1  UNL d   1       1.488   2.508  -1.470  0.00  0.00     0.143 A 
ATOM      2  C2  UNL d   1       1.576   2.332  -0.085  0.00  0.00    -0.057 A 
ATOM      3  C3  UNL d   1       1.351   1.082   0.504  0.00  0.00     0.033 A 
ATOM      4  C4  UNL d   1       1.003  -0.011  -0.283  0.00  0.00    -0.042 A 
ATOM      5  C5  UNL d   1       0.885   0.146  -1.659  0.00  0.00     0.033 A 
ATOM      6  C6  UNL d   1       1.118   1.395  -2.242  0.00  0.00    -0.057 A 
ENDROOT
BRANCH   1   7
ATOM      7  N   UNL d   1       1.604   3.747  -2.106  0.00  0.00    -0.732 N 
ATOM      8  C   UNL d   1       2.177   4.880  -1.413  0.00  0.00     0.284 C 
ATOM      9  H3  UNL d   1       1.900   3.659  -3.076  0.00  0.00     0.395 HD
ENDBRANCH   1   7
TORSDOF 1
ENDMDL
