MODEL 1
REMARK minimizedAffinity -3.07748938
REMARK minimizedRMSD -1
REMARK  0 active torsions:
REMARK  status: ('A' for Active; 'I' for Inactive)
ROOT
ATOM      1  C1  BNZ d   1      -1.060   0.492  -0.243  0.00  0.00     0.000 A 
ATOM      2  C2  BNZ d   1      -0.408   1.694  -0.157  0.00  0.00     0.000 A 
ATOM      3  C3  BNZ d   1       0.938   1.745   0.076  0.00  0.00     0.000 A 
ATOM      4  C4  BNZ d   1       1.622   0.599   0.264  0.00  0.00     0.000 A 
ATOM      5  C5  BNZ d   1       0.978  -0.620   0.190  0.00  0.00     0.000 A 
ATOM      6  C6  BNZ d   1      -0.369  -0.670  -0.084  0.00  0.00     0.000 A 
ENDROOT
TORSDOF 0
ENDMDL
