MODEL 1
REMARK minimizedAffinity -3.7544136
REMARK minimizedRMSD -1
REMARK  0 active torsions:
REMARK  status: ('A' for Active; 'I' for Inactive)
ROOT
ATOM      1  C1  BNZ d   1      -0.185   1.172  -0.386  0.00  0.00     0.000 A 
ATOM      2  C2  BNZ d   1       1.006   1.813  -0.172  0.00  0.00     0.000 A 
ATOM      3  C3  BNZ d   1       2.070   1.149   0.371  0.00  0.00     0.000 A 
ATOM      4  C4  BNZ d   1       1.930  -0.142   0.736  0.00  0.00     0.000 A 
ATOM      5  C5  BNZ d   1       0.732  -0.799   0.536  0.00  0.00     0.000 A 
ATOM      6  C6  BNZ d   1      -0.325  -0.139  -0.047  0.00  0.00     0.000 A 
ENDROOT
TORSDOF 0
ENDMDL
