MODEL 1
REMARK minimizedAffinity -2.5062511
REMARK minimizedRMSD -1
REMARK  0 active torsions:
REMARK  status: ('A' for Active; 'I' for Inactive)
ROOT
ATOM      1  C1  BNZ d   1       0.274  -0.125   0.896  0.00  0.00     0.000 A 
ATOM      2  C2  BNZ d   1       1.485  -0.468   1.435  0.00  0.00     0.000 A 
ATOM      3  C3  BNZ d   1       2.626   0.189   1.066  0.00  0.00     0.000 A 
ATOM      4  C4  BNZ d   1       2.560   1.158   0.130  0.00  0.00     0.000 A 
ATOM      5  C5  BNZ d   1       1.347   1.509  -0.429  0.00  0.00     0.000 A 
ATOM      6  C6  BNZ d   1       0.195   0.872  -0.026  0.00  0.00     0.000 A 
ENDROOT
TORSDOF 0
ENDMDL
