MODEL 1
REMARK minimizedAffinity -2.61290741
REMARK minimizedRMSD -1
REMARK  0 active torsions:
REMARK  status: ('A' for Active; 'I' for Inactive)
ROOT
ATOM      1  C1  BNZ d   1       0.759   0.513   0.097  0.00  0.00     0.000 A 
ATOM      2  C2  BNZ d   1       1.869   0.647   0.888  0.00  0.00     0.000 A 
ATOM      3  C3  BNZ d   1       2.185  -0.306   1.816  0.00  0.00     0.000 A 
ATOM      4  C4  BNZ d   1       1.371  -1.369   1.980  0.00  0.00     0.000 A 
ATOM      5  C5  BNZ d   1       0.244  -1.513   1.196  0.00  0.00     0.000 A 
ATOM      6  C6  BNZ d   1      -0.050  -0.572   0.236  0.00  0.00     0.000 A 
ENDROOT
TORSDOF 0
ENDMDL
