MODEL 1
REMARK minimizedAffinity -5.45825911
REMARK minimizedRMSD -1
REMARK  0 active torsions:
REMARK  status: ('A' for Active; 'I' for Inactive)
ROOT
ATOM      1  C1  BNZ d   1       1.048  -0.670   0.335  0.00  0.00     0.000 A 
ATOM      2  C2  BNZ d   1       1.392  -1.613   1.267  0.00  0.00     0.000 A 
ATOM      3  C3  BNZ d   1       2.593  -1.549   1.917  0.00  0.00     0.000 A 
ATOM      4  C4  BNZ d   1       3.463  -0.567   1.607  0.00  0.00     0.000 A 
ATOM      5  C5  BNZ d   1       3.135   0.386   0.664  0.00  0.00     0.000 A 
ATOM      6  C6  BNZ d   1       1.910   0.341   0.039  0.00  0.00     0.000 A 
ENDROOT
TORSDOF 0
ENDMDL
