MODEL 1
REMARK minimizedAffinity -2.49539089
REMARK minimizedRMSD -1
REMARK  0 active torsions:
REMARK  status: ('A' for Active; 'I' for Inactive)
ROOT
ATOM      1  C1  BNZ d   1       0.356  -0.500   0.713  0.00  0.00     0.000 A 
ATOM      2  C2  BNZ d   1       1.454  -0.512   1.531  0.00  0.00     0.000 A 
ATOM      3  C3  BNZ d   1       2.501   0.339   1.311  0.00  0.00     0.000 A 
ATOM      4  C4  BNZ d   1       2.466   1.173   0.252  0.00  0.00     0.000 A 
ATOM      5  C5  BNZ d   1       1.370   1.191  -0.588  0.00  0.00     0.000 A 
ATOM      6  C6  BNZ d   1       0.302   0.360  -0.341  0.00  0.00     0.000 A 
ENDROOT
TORSDOF 0
ENDMDL
