MODEL 1
REMARK minimizedAffinity 0.965110481
REMARK minimizedRMSD -1
REMARK  0 active torsions:
REMARK  status: ('A' for Active; 'I' for Inactive)
ROOT
ATOM      1  C1  DEN d   1      -4.680   0.755   2.230  0.00  0.00     0.130 A 
ATOM      2  C2  DEN d   1      -3.386   1.432   2.226  0.00  0.00    -0.031 A 
ATOM      3  C3  DEN d   1      -2.843   1.372   0.854  0.00  0.00     0.027 A 
ATOM      4  C4  DEN d   1      -3.876   0.304  -1.254  0.00  0.00     0.027 A 
ATOM      5  C5  DEN d   1      -4.955  -0.398  -1.743  0.00  0.00    -0.003 A 
ATOM      6  C6  DEN d   1      -5.994  -0.792  -0.941  0.00  0.00     0.001 A 
ATOM      7  C7  DEN d   1      -5.997  -0.446   0.384  0.00  0.00     0.017 A 
ATOM      8  C8  DEN d   1      -4.908   0.255   0.886  0.00  0.00    -0.094 A 
ATOM      9  C9  DEN d   1      -3.874   0.655   0.057  0.00  0.00    -0.072 A 
ENDROOT
TORSDOF 0
ENDMDL
