MODEL 1
REMARK minimizedAffinity 0.916513443
REMARK minimizedRMSD -1
REMARK  0 active torsions:
REMARK  status: ('A' for Active; 'I' for Inactive)
ROOT
ATOM      1  C1  DEN d   1      -0.071   1.043   1.019  0.00  0.00     0.130 A 
ATOM      2  C2  DEN d   1       0.321  -0.060   0.147  0.00  0.00    -0.031 A 
ATOM      3  C3  DEN d   1      -0.894  -0.829  -0.191  0.00  0.00     0.027 A 
ATOM      4  C4  DEN d   1      -3.332  -0.416   0.545  0.00  0.00     0.027 A 
ATOM      5  C5  DEN d   1      -4.156   0.393   1.295  0.00  0.00    -0.003 A 
ATOM      6  C6  DEN d   1      -3.676   1.446   2.028  0.00  0.00     0.001 A 
ATOM      7  C7  DEN d   1      -2.340   1.746   1.989  0.00  0.00     0.017 A 
ATOM      8  C8  DEN d   1      -1.501   0.931   1.241  0.00  0.00    -0.094 A 
ATOM      9  C9  DEN d   1      -2.008  -0.122   0.497  0.00  0.00    -0.072 A 
ENDROOT
TORSDOF 0
ENDMDL
