MODEL 1
REMARK minimizedAffinity 0.313465029
REMARK minimizedRMSD -1
REMARK  0 active torsions:
REMARK  status: ('A' for Active; 'I' for Inactive)
ROOT
ATOM      1  C1  DEN d   1       2.454  -0.530   1.451  0.00  0.00     0.130 A 
ATOM      2  C2  DEN d   1       3.225   0.691   1.666  0.00  0.00    -0.031 A 
ATOM      3  C3  DEN d   1       2.440   1.826   1.141  0.00  0.00     0.027 A 
ATOM      4  C4  DEN d   1       0.114   1.811   0.025  0.00  0.00     0.027 A 
ATOM      5  C5  DEN d   1      -0.928   1.010  -0.388  0.00  0.00    -0.003 A 
ATOM      6  C6  DEN d   1      -0.901  -0.353  -0.248  0.00  0.00     0.001 A 
ATOM      7  C7  DEN d   1       0.171  -0.952   0.359  0.00  0.00     0.017 A 
ATOM      8  C8  DEN d   1       1.228  -0.152   0.771  0.00  0.00    -0.094 A 
ATOM      9  C9  DEN d   1       1.177   1.225   0.632  0.00  0.00    -0.072 A 
ENDROOT
TORSDOF 0
ENDMDL
