MODEL 1
REMARK minimizedAffinity 16.6175003
REMARK minimizedRMSD -1
REMARK  0 active torsions:
REMARK  status: ('A' for Active; 'I' for Inactive)
ROOT
ATOM      1  O1  BZF d   1       0.232  -1.182   1.557  0.00  0.00    -0.204 OA
ATOM      2  C2  BZF d   1       0.768  -0.176   2.338  0.00  0.00     0.174 A 
ATOM      3  C3  BZF d   1      -0.102   0.847   2.464  0.00  0.00    -0.012 A 
ATOM      4  C3A BZF d   1      -1.289   0.417   1.791  0.00  0.00    -0.107 A 
ATOM      5  C4  BZF d   1      -2.512   0.989   1.585  0.00  0.00     0.055 A 
ATOM      6  C5  BZF d   1      -3.428   0.335   0.823  0.00  0.00    -0.016 A 
ATOM      7  C6  BZF d   1      -3.153  -0.889   0.249  0.00  0.00     0.022 A 
ATOM      8  C7  BZF d   1      -1.957  -1.499   0.430  0.00  0.00     0.029 A 
ATOM      9  C7A BZF d   1      -1.041  -0.856   1.226  0.00  0.00     0.058 A 
ENDROOT
TORSDOF 0
ENDMDL
