MODEL 1
REMARK minimizedAffinity 13.6995115
REMARK minimizedRMSD -1
REMARK  0 active torsions:
REMARK  status: ('A' for Active; 'I' for Inactive)
ROOT
ATOM      1  O1  BZF d   1      -0.670   2.408   3.391  0.00  0.00    -0.204 OA
ATOM      2  C2  BZF d   1      -0.443   2.685   4.725  0.00  0.00     0.174 A 
ATOM      3  C3  BZF d   1       0.212   1.667   5.320  0.00  0.00    -0.012 A 
ATOM      4  C3A BZF d   1       0.487   0.733   4.272  0.00  0.00    -0.107 A 
ATOM      5  C4  BZF d   1       1.127  -0.473   4.234  0.00  0.00     0.055 A 
ATOM      6  C5  BZF d   1       1.160  -1.166   3.065  0.00  0.00    -0.016 A 
ATOM      7  C6  BZF d   1       0.560  -0.687   1.919  0.00  0.00     0.022 A 
ATOM      8  C7  BZF d   1      -0.082   0.507   1.908  0.00  0.00     0.029 A 
ATOM      9  C7A BZF d   1      -0.089   1.225   3.078  0.00  0.00     0.058 A 
ENDROOT
TORSDOF 0
ENDMDL
