MODEL 1
REMARK minimizedAffinity 10.2395144
REMARK minimizedRMSD -1
REMARK  0 active torsions:
REMARK  status: ('A' for Active; 'I' for Inactive)
ROOT
ATOM      1  O1  BZF d   1       0.818   0.159  -3.979  0.00  0.00    -0.204 OA
ATOM      2  C2  BZF d   1       0.756   0.037  -5.354  0.00  0.00     0.174 A 
ATOM      3  C3  BZF d   1      -0.227  -0.812  -5.715  0.00  0.00    -0.012 A 
ATOM      4  C3A BZF d   1      -0.877  -1.177  -4.494  0.00  0.00    -0.107 A 
ATOM      5  C4  BZF d   1      -1.939  -1.984  -4.200  0.00  0.00     0.055 A 
ATOM      6  C5  BZF d   1      -2.275  -2.186  -2.899  0.00  0.00    -0.016 A 
ATOM      7  C6  BZF d   1      -1.568  -1.602  -1.867  0.00  0.00     0.022 A 
ATOM      8  C7  BZF d   1      -0.511  -0.790  -2.110  0.00  0.00     0.029 A 
ATOM      9  C7A BZF d   1      -0.189  -0.558  -3.425  0.00  0.00     0.058 A 
ENDROOT
TORSDOF 0
ENDMDL
