MODEL 1
REMARK minimizedAffinity 12.8808832
REMARK minimizedRMSD -1
REMARK  0 active torsions:
REMARK  status: ('A' for Active; 'I' for Inactive)
ROOT
ATOM      1  O1  BZF d   1      -5.943   4.904  -2.630  0.00  0.00    -0.204 OA
ATOM      2  C2  BZF d   1      -5.936   5.875  -1.647  0.00  0.00     0.174 A 
ATOM      3  C3  BZF d   1      -5.998   5.315  -0.421  0.00  0.00    -0.012 A 
ATOM      4  C3A BZF d   1      -5.954   3.903  -0.650  0.00  0.00    -0.107 A 
ATOM      5  C4  BZF d   1      -5.966   2.818   0.179  0.00  0.00     0.055 A 
ATOM      6  C5  BZF d   1      -5.986   1.572  -0.365  0.00  0.00    -0.016 A 
ATOM      7  C6  BZF d   1      -6.000   1.376  -1.731  0.00  0.00     0.022 A 
ATOM      8  C7  BZF d   1      -5.983   2.422  -2.592  0.00  0.00     0.029 A 
ATOM      9  C7A BZF d   1      -5.930   3.681  -2.046  0.00  0.00     0.058 A 
ENDROOT
TORSDOF 0
ENDMDL
