MODEL 1
REMARK minimizedAffinity 14.4922304
REMARK minimizedRMSD -1
REMARK  0 active torsions:
REMARK  status: ('A' for Active; 'I' for Inactive)
ROOT
ATOM      1  O1  BZF d   1       3.680   3.741  -5.819  0.00  0.00    -0.204 OA
ATOM      2  C2  BZF d   1       4.831   4.482  -6.000  0.00  0.00     0.174 A 
ATOM      3  C3  BZF d   1       5.919   3.685  -5.989  0.00  0.00    -0.012 A 
ATOM      4  C3A BZF d   1       5.409   2.353  -5.881  0.00  0.00    -0.107 A 
ATOM      5  C4  BZF d   1       5.999   1.122  -5.836  0.00  0.00     0.055 A 
ATOM      6  C5  BZF d   1       5.221   0.023  -5.653  0.00  0.00    -0.016 A 
ATOM      7  C6  BZF d   1       3.853   0.118  -5.506  0.00  0.00     0.022 A 
ATOM      8  C7  BZF d   1       3.222   1.317  -5.548  0.00  0.00     0.029 A 
ATOM      9  C7A BZF d   1       4.002   2.426  -5.766  0.00  0.00     0.058 A 
ENDROOT
TORSDOF 0
ENDMDL
