MODEL 1
REMARK minimizedAffinity 18.1785469
REMARK minimizedRMSD -1
REMARK  0 active torsions:
REMARK  status: ('A' for Active; 'I' for Inactive)
ROOT
ATOM      1  O1  BZF d   1       0.727  -0.694   0.739  0.00  0.00    -0.204 OA
ATOM      2  C2  BZF d   1       0.900  -0.026   1.935  0.00  0.00     0.174 A 
ATOM      3  C3  BZF d   1      -0.283   0.162   2.555  0.00  0.00    -0.012 A 
ATOM      4  C3A BZF d   1      -1.247  -0.508   1.736  0.00  0.00    -0.107 A 
ATOM      5  C4  BZF d   1      -2.596  -0.690   1.833  0.00  0.00     0.055 A 
ATOM      6  C5  BZF d   1      -3.251  -1.329   0.827  0.00  0.00    -0.016 A 
ATOM      7  C6  BZF d   1      -2.588  -1.793  -0.290  0.00  0.00     0.022 A 
ATOM      8  C7  BZF d   1      -1.249  -1.640  -0.429  0.00  0.00     0.029 A 
ATOM      9  C7A BZF d   1      -0.580  -1.024   0.601  0.00  0.00     0.058 A 
ENDROOT
TORSDOF 0
ENDMDL
