MODEL 1
REMARK minimizedAffinity 10.7998781
REMARK minimizedRMSD -1
REMARK  0 active torsions:
REMARK  status: ('A' for Active; 'I' for Inactive)
ROOT
ATOM      1  O1  BZF d   1      -0.811   2.953   4.285  0.00  0.00    -0.204 OA
ATOM      2  C2  BZF d   1      -0.096   3.182   5.445  0.00  0.00     0.174 A 
ATOM      3  C3  BZF d   1       0.742   2.156   5.700  0.00  0.00    -0.012 A 
ATOM      4  C3A BZF d   1       0.604   1.271   4.585  0.00  0.00    -0.107 A 
ATOM      5  C4  BZF d   1       1.190   0.083   4.251  0.00  0.00     0.055 A 
ATOM      6  C5  BZF d   1       0.781  -0.562   3.127  0.00  0.00    -0.016 A 
ATOM      7  C6  BZF d   1      -0.212  -0.051   2.317  0.00  0.00     0.022 A 
ATOM      8  C7  BZF d   1      -0.819   1.127   2.604  0.00  0.00     0.029 A 
ATOM      9  C7A BZF d   1      -0.385   1.797   3.722  0.00  0.00     0.058 A 
ENDROOT
TORSDOF 0
ENDMDL
