MODEL 1
REMARK minimizedAffinity 14.5788889
REMARK minimizedRMSD -1
REMARK  0 active torsions:
REMARK  status: ('A' for Active; 'I' for Inactive)
ROOT
ATOM      1  O1  BZF d   1      -0.337   1.270   2.544  0.00  0.00    -0.204 OA
ATOM      2  C2  BZF d   1      -1.121   0.471   1.735  0.00  0.00     0.174 A 
ATOM      3  C3  BZF d   1      -0.801  -0.830   1.893  0.00  0.00    -0.012 A 
ATOM      4  C3A BZF d   1       0.185  -0.852   2.929  0.00  0.00    -0.107 A 
ATOM      5  C4  BZF d   1       0.879  -1.855   3.543  0.00  0.00     0.055 A 
ATOM      6  C5  BZF d   1       1.823  -1.535   4.467  0.00  0.00    -0.016 A 
ATOM      7  C6  BZF d   1       2.103  -0.224   4.795  0.00  0.00     0.022 A 
ATOM      8  C7  BZF d   1       1.437   0.804   4.216  0.00  0.00     0.029 A 
ATOM      9  C7A BZF d   1       0.459   0.483   3.307  0.00  0.00     0.058 A 
ENDROOT
TORSDOF 0
ENDMDL
