MODEL 1
REMARK minimizedAffinity -4.20977736
REMARK minimizedRMSD -1
REMARK  2 active torsions:
REMARK  status: ('A' for Active; 'I' for Inactive)
REMARK    1  A    between atoms: C1_2  and  C2_3 
REMARK    2  A    between atoms: C2_3  and  C3_4 
ROOT
ATOM      1  C3  UNL d   1       0.010  -1.088   1.288  0.00  0.00    -0.075 A 
ATOM      2  C4  UNL d   1      -1.292  -0.582   1.169  0.00  0.00     0.002 A 
ATOM      3  C5  UNL d   1      -1.780  -0.167  -0.070  0.00  0.00     0.002 A 
ATOM      4  C6  UNL d   1      -0.971  -0.243  -1.202  0.00  0.00    -0.004 A 
ATOM      5  C7  UNL d   1       0.330  -0.728  -1.092  0.00  0.00     0.002 A 
ATOM      6  C8  UNL d   1       0.820  -1.148   0.146  0.00  0.00     0.002 A 
ENDROOT
BRANCH   1   7
ATOM      7  C2  UNL d   1       0.535  -1.567   2.621  0.00  0.00     0.056 C 
BRANCH   7   8
ATOM      8  C1  UNL d   1       0.297  -3.057   2.886  0.00  0.00     0.007 C 
ATOM      9  C   UNL d   1       1.389  -3.951   2.313  0.00  0.00     0.009 C 
ENDBRANCH   7   8
ENDBRANCH   1   7
TORSDOF 2
ENDMDL
