MODEL 1
REMARK minimizedAffinity 2.12611985
REMARK minimizedRMSD -1
REMARK  2 active torsions:
REMARK  status: ('A' for Active; 'I' for Inactive)
REMARK    1  A    between atoms: C1_2  and  C2_3 
REMARK    2  A    between atoms: C2_3  and  C3_4 
ROOT
ATOM      1  C3  UNL d   1       0.105  -1.460   0.848  0.00  0.00    -0.075 A 
ATOM      2  C4  UNL d   1      -0.907  -0.687   0.261  0.00  0.00     0.002 A 
ATOM      3  C5  UNL d   1      -1.970  -0.211   1.030  0.00  0.00     0.002 A 
ATOM      4  C6  UNL d   1      -2.039  -0.509   2.388  0.00  0.00    -0.004 A 
ATOM      5  C7  UNL d   1      -1.048  -1.291   2.978  0.00  0.00     0.002 A 
ATOM      6  C8  UNL d   1       0.019  -1.765   2.213  0.00  0.00     0.002 A 
ENDROOT
BRANCH   1   7
ATOM      7  C2  UNL d   1       1.273  -1.954   0.028  0.00  0.00     0.056 C 
BRANCH   7   8
ATOM      8  C1  UNL d   1       1.929  -3.224   0.578  0.00  0.00     0.007 C 
ATOM      9  C   UNL d   1       3.204  -3.611  -0.160  0.00  0.00     0.009 C 
ENDBRANCH   7   8
ENDBRANCH   1   7
TORSDOF 2
ENDMDL
