MODEL 1
REMARK minimizedAffinity 1.64828527
REMARK minimizedRMSD -1
REMARK  2 active torsions:
REMARK  status: ('A' for Active; 'I' for Inactive)
REMARK    1  A    between atoms: C1_2  and  C2_3 
REMARK    2  A    between atoms: C2_3  and  C3_4 
ROOT
ATOM      1  C3  UNL d   1       0.744  -1.529   0.965  0.00  0.00    -0.075 A 
ATOM      2  C4  UNL d   1      -0.144  -0.659   0.315  0.00  0.00     0.002 A 
ATOM      3  C5  UNL d   1      -1.180  -0.046   1.022  0.00  0.00     0.002 A 
ATOM      4  C6  UNL d   1      -1.346  -0.302   2.381  0.00  0.00    -0.004 A 
ATOM      5  C7  UNL d   1      -0.480  -1.177   3.033  0.00  0.00     0.002 A 
ATOM      6  C8  UNL d   1       0.559  -1.788   2.329  0.00  0.00     0.002 A 
ENDROOT
BRANCH   1   7
ATOM      7  C2  UNL d   1       1.884  -2.172   0.212  0.00  0.00     0.056 C 
BRANCH   7   8
ATOM      8  C1  UNL d   1       2.214  -3.594   0.677  0.00  0.00     0.007 C 
ATOM      9  C   UNL d   1       3.614  -4.045   0.282  0.00  0.00     0.009 C 
ENDBRANCH   7   8
ENDBRANCH   1   7
TORSDOF 2
ENDMDL
