MODEL 1
REMARK minimizedAffinity -5.53673744
REMARK minimizedRMSD -1
REMARK  2 active torsions:
REMARK  status: ('A' for Active; 'I' for Inactive)
REMARK    1  A    between atoms: C1_2  and  C2_3 
REMARK    2  A    between atoms: C2_3  and  C3_4 
ROOT
ATOM      1  C3  UNL d   1      -0.088   0.481   0.500  0.00  0.00    -0.075 A 
ATOM      2  C4  UNL d   1      -0.297   1.480  -0.461  0.00  0.00     0.002 A 
ATOM      3  C5  UNL d   1      -1.216   2.504  -0.229  0.00  0.00     0.002 A 
ATOM      4  C6  UNL d   1      -1.943   2.536   0.958  0.00  0.00    -0.004 A 
ATOM      5  C7  UNL d   1      -1.755   1.539   1.913  0.00  0.00     0.002 A 
ATOM      6  C8  UNL d   1      -0.833   0.516   1.686  0.00  0.00     0.002 A 
ENDROOT
BRANCH   1   7
ATOM      7  C2  UNL d   1       0.927  -0.614   0.268  0.00  0.00     0.056 C 
BRANCH   7   8
ATOM      8  C1  UNL d   1       1.430  -0.702  -1.177  0.00  0.00     0.007 C 
ATOM      9  C   UNL d   1       0.887  -1.910  -1.929  0.00  0.00     0.009 C 
ENDBRANCH   7   8
ENDBRANCH   1   7
TORSDOF 2
ENDMDL
