MODEL 1
REMARK minimizedAffinity -4.99465227
REMARK minimizedRMSD -1
REMARK  2 active torsions:
REMARK  status: ('A' for Active; 'I' for Inactive)
REMARK    1  A    between atoms: C1_2  and  C2_3 
REMARK    2  A    between atoms: C2_3  and  C3_4 
ROOT
ATOM      1  C3  UNL d   1       0.428  -1.087  -1.111  0.00  0.00    -0.075 A 
ATOM      2  C4  UNL d   1      -0.136  -1.019  -2.393  0.00  0.00     0.002 A 
ATOM      3  C5  UNL d   1      -0.212  -2.159  -3.195  0.00  0.00     0.002 A 
ATOM      4  C6  UNL d   1       0.283  -3.375  -2.730  0.00  0.00    -0.004 A 
ATOM      5  C7  UNL d   1       0.860  -3.451  -1.464  0.00  0.00     0.002 A 
ATOM      6  C8  UNL d   1       0.933  -2.313  -0.658  0.00  0.00     0.002 A 
ENDROOT
BRANCH   1   7
ATOM      7  C2  UNL d   1       0.486   0.136  -0.227  0.00  0.00     0.056 C 
BRANCH   7   8
ATOM      8  C1  UNL d   1       0.162  -0.143   1.245  0.00  0.00     0.007 C 
ATOM      9  C   UNL d   1      -1.247   0.277   1.639  0.00  0.00     0.009 C 
ENDBRANCH   7   8
ENDBRANCH   1   7
TORSDOF 2
ENDMDL
