MODEL 1
REMARK minimizedAffinity -4.43568134
REMARK minimizedRMSD -1
REMARK  2 active torsions:
REMARK  status: ('A' for Active; 'I' for Inactive)
REMARK    1  A    between atoms: C1_2  and  C2_3 
REMARK    2  A    between atoms: C2_3  and  C3_4 
ROOT
ATOM      1  C3  UNL d   1      -0.114   0.195   0.193  0.00  0.00    -0.075 A 
ATOM      2  C4  UNL d   1      -0.042   1.483  -0.360  0.00  0.00     0.002 A 
ATOM      3  C5  UNL d   1      -0.692   2.554   0.253  0.00  0.00     0.002 A 
ATOM      4  C6  UNL d   1      -1.430   2.351   1.417  0.00  0.00    -0.004 A 
ATOM      5  C7  UNL d   1      -1.523   1.074   1.965  0.00  0.00     0.002 A 
ATOM      6  C8  UNL d   1      -0.869   0.001   1.357  0.00  0.00     0.002 A 
ENDROOT
BRANCH   1   7
ATOM      7  C2  UNL d   1       0.612  -0.963  -0.449  0.00  0.00     0.056 C 
BRANCH   7   8
ATOM      8  C1  UNL d   1      -0.055  -1.486  -1.726  0.00  0.00     0.007 C 
ATOM      9  C   UNL d   1       0.284  -2.940  -2.027  0.00  0.00     0.009 C 
ENDBRANCH   7   8
ENDBRANCH   1   7
TORSDOF 2
ENDMDL
