MODEL 1
REMARK minimizedAffinity -5.5870471
REMARK minimizedRMSD -1
REMARK  2 active torsions:
REMARK  status: ('A' for Active; 'I' for Inactive)
REMARK    1  A    between atoms: C1_2  and  C2_3 
REMARK    2  A    between atoms: C2_3  and  C3_4 
ROOT
ATOM      1  C3  UNL d   1      -0.389   0.977   0.129  0.00  0.00    -0.075 A 
ATOM      2  C4  UNL d   1      -1.358   1.412   1.044  0.00  0.00     0.002 A 
ATOM      3  C5  UNL d   1      -1.784   2.740   1.047  0.00  0.00     0.002 A 
ATOM      4  C6  UNL d   1      -1.241   3.651   0.145  0.00  0.00    -0.004 A 
ATOM      5  C7  UNL d   1      -0.265   3.234  -0.759  0.00  0.00     0.002 A 
ATOM      6  C8  UNL d   1       0.159   1.904  -0.767  0.00  0.00     0.002 A 
ENDROOT
BRANCH   1   7
ATOM      7  C2  UNL d   1       0.055  -0.466   0.100  0.00  0.00     0.056 C 
BRANCH   7   8
ATOM      8  C1  UNL d   1       1.126  -0.769  -0.952  0.00  0.00     0.007 C 
ATOM      9  C   UNL d   1       1.233  -2.250  -1.292  0.00  0.00     0.009 C 
ENDBRANCH   7   8
ENDBRANCH   1   7
TORSDOF 2
ENDMDL
