MODEL 1
REMARK minimizedAffinity -5.65162086
REMARK minimizedRMSD -1
REMARK  2 active torsions:
REMARK  status: ('A' for Active; 'I' for Inactive)
REMARK    1  A    between atoms: C1_2  and  C2_3 
REMARK    2  A    between atoms: C2_3  and  C3_4 
ROOT
ATOM      1  C3  UNL d   1      -0.349   1.344  -0.613  0.00  0.00    -0.075 A 
ATOM      2  C4  UNL d   1      -0.213   2.650  -1.104  0.00  0.00     0.002 A 
ATOM      3  C5  UNL d   1      -1.043   3.671  -0.641  0.00  0.00     0.002 A 
ATOM      4  C6  UNL d   1      -2.025   3.398   0.309  0.00  0.00    -0.004 A 
ATOM      5  C7  UNL d   1      -2.180   2.100   0.792  0.00  0.00     0.002 A 
ATOM      6  C8  UNL d   1      -1.348   1.078   0.334  0.00  0.00     0.002 A 
ENDROOT
BRANCH   1   7
ATOM      7  C2  UNL d   1       0.565   0.240  -1.088  0.00  0.00     0.056 C 
BRANCH   7   8
ATOM      8  C1  UNL d   1       0.139  -1.161  -0.637  0.00  0.00     0.007 C 
ATOM      9  C   UNL d   1      -0.004  -2.145  -1.791  0.00  0.00     0.009 C 
ENDBRANCH   7   8
ENDBRANCH   1   7
TORSDOF 2
ENDMDL
