MODEL 1
REMARK minimizedAffinity -4.88722038
REMARK minimizedRMSD -1
REMARK  2 active torsions:
REMARK  status: ('A' for Active; 'I' for Inactive)
REMARK    1  A    between atoms: C1_2  and  C2_3 
REMARK    2  A    between atoms: C2_3  and  C3_4 
ROOT
ATOM      1  C3  UNL d   1       0.088  -0.200  -0.033  0.00  0.00    -0.075 A 
ATOM      2  C4  UNL d   1      -1.004   0.558  -0.479  0.00  0.00     0.002 A 
ATOM      3  C5  UNL d   1      -1.762   1.307   0.422  0.00  0.00     0.002 A 
ATOM      4  C6  UNL d   1      -1.445   1.299   1.778  0.00  0.00    -0.004 A 
ATOM      5  C7  UNL d   1      -0.372   0.537   2.235  0.00  0.00     0.002 A 
ATOM      6  C8  UNL d   1       0.391  -0.210   1.335  0.00  0.00     0.002 A 
ENDROOT
BRANCH   1   7
ATOM      7  C2  UNL d   1       0.931  -0.989  -1.007  0.00  0.00     0.056 C 
BRANCH   7   8
ATOM      8  C1  UNL d   1       0.118  -1.855  -1.975  0.00  0.00     0.007 C 
ATOM      9  C   UNL d   1       0.746  -3.218  -2.233  0.00  0.00     0.009 C 
ENDBRANCH   7   8
ENDBRANCH   1   7
TORSDOF 2
ENDMDL
