MODEL 1
REMARK minimizedAffinity -4.63282919
REMARK minimizedRMSD -1
REMARK  2 active torsions:
REMARK  status: ('A' for Active; 'I' for Inactive)
REMARK    1  A    between atoms: C1_2  and  C2_3 
REMARK    2  A    between atoms: C2_3  and  C3_4 
ROOT
ATOM      1  C3  UNL d   1      -0.326   0.052   0.864  0.00  0.00    -0.075 A 
ATOM      2  C4  UNL d   1      -1.559   0.069   0.195  0.00  0.00     0.002 A 
ATOM      3  C5  UNL d   1      -2.532   1.012   0.527  0.00  0.00     0.002 A 
ATOM      4  C6  UNL d   1      -2.290   1.941   1.537  0.00  0.00    -0.004 A 
ATOM      5  C7  UNL d   1      -1.076   1.923   2.219  0.00  0.00     0.002 A 
ATOM      6  C8  UNL d   1      -0.099   0.983   1.887  0.00  0.00     0.002 A 
ENDROOT
BRANCH   1   7
ATOM      7  C2  UNL d   1       0.742  -0.948   0.490  0.00  0.00     0.056 C 
BRANCH   7   8
ATOM      8  C1  UNL d   1       0.895  -1.161  -1.020  0.00  0.00     0.007 C 
ATOM      9  C   UNL d   1       1.014  -2.628  -1.410  0.00  0.00     0.009 C 
ENDBRANCH   7   8
ENDBRANCH   1   7
TORSDOF 2
ENDMDL
