MODEL 1
REMARK minimizedAffinity -3.87193847
REMARK minimizedRMSD -1
REMARK  2 active torsions:
REMARK  status: ('A' for Active; 'I' for Inactive)
REMARK    1  A    between atoms: C1_2  and  C2_3 
REMARK    2  A    between atoms: C2_3  and  C3_4 
ROOT
ATOM      1  C3  UNL d   1       0.188  -0.170  -0.175  0.00  0.00    -0.075 A 
ATOM      2  C4  UNL d   1      -0.051  -0.852   1.027  0.00  0.00     0.002 A 
ATOM      3  C5  UNL d   1      -0.895  -0.307   1.995  0.00  0.00     0.002 A 
ATOM      4  C6  UNL d   1      -1.501   0.929   1.779  0.00  0.00    -0.004 A 
ATOM      5  C7  UNL d   1      -1.258   1.623   0.596  0.00  0.00     0.002 A 
ATOM      6  C8  UNL d   1      -0.417   1.078  -0.376  0.00  0.00     0.002 A 
ENDROOT
BRANCH   1   7
ATOM      7  C2  UNL d   1       1.077  -0.768  -1.239  0.00  0.00     0.056 C 
BRANCH   7   8
ATOM      8  C1  UNL d   1       0.951  -2.289  -1.374  0.00  0.00     0.007 C 
ATOM      9  C   UNL d   1       0.547  -2.737  -2.772  0.00  0.00     0.009 C 
ENDBRANCH   7   8
ENDBRANCH   1   7
TORSDOF 2
ENDMDL
