MODEL 1
REMARK minimizedAffinity -5.40512466
REMARK minimizedRMSD -1
REMARK  2 active torsions:
REMARK  status: ('A' for Active; 'I' for Inactive)
REMARK    1  A    between atoms: C1_2  and  C2_3 
REMARK    2  A    between atoms: C2_3  and  C3_4 
ROOT
ATOM      1  C3  UNL d   1      -0.208   1.385  -0.343  0.00  0.00    -0.075 A 
ATOM      2  C4  UNL d   1      -0.152   2.757  -0.628  0.00  0.00     0.002 A 
ATOM      3  C5  UNL d   1      -0.959   3.659   0.065  0.00  0.00     0.002 A 
ATOM      4  C6  UNL d   1      -1.839   3.201   1.043  0.00  0.00    -0.004 A 
ATOM      5  C7  UNL d   1      -1.916   1.838   1.323  0.00  0.00     0.002 A 
ATOM      6  C8  UNL d   1      -1.106   0.934   0.634  0.00  0.00     0.002 A 
ENDROOT
BRANCH   1   7
ATOM      7  C2  UNL d   1       0.684   0.407  -1.069  0.00  0.00     0.056 C 
BRANCH   7   8
ATOM      8  C1  UNL d   1       1.194  -0.742  -0.192  0.00  0.00     0.007 C 
ATOM      9  C   UNL d   1       1.449  -2.024  -0.972  0.00  0.00     0.009 C 
ENDBRANCH   7   8
ENDBRANCH   1   7
TORSDOF 2
ENDMDL
