MODEL 1
REMARK minimizedAffinity -5.87816429
REMARK minimizedRMSD -1
REMARK  2 active torsions:
REMARK  status: ('A' for Active; 'I' for Inactive)
REMARK    1  A    between atoms: C1_2  and  C2_3 
REMARK    2  A    between atoms: C2_3  and  C3_4 
ROOT
ATOM      1  C3  UNL d   1      -0.346   0.991   0.607  0.00  0.00    -0.075 A 
ATOM      2  C4  UNL d   1       0.038   2.084  -0.184  0.00  0.00     0.002 A 
ATOM      3  C5  UNL d   1      -0.722   3.254  -0.193  0.00  0.00     0.002 A 
ATOM      4  C6  UNL d   1      -1.878   3.343   0.578  0.00  0.00    -0.004 A 
ATOM      5  C7  UNL d   1      -2.278   2.258   1.355  0.00  0.00     0.002 A 
ATOM      6  C8  UNL d   1      -1.518   1.088   1.370  0.00  0.00     0.002 A 
ENDROOT
BRANCH   1   7
ATOM      7  C2  UNL d   1       0.487  -0.267   0.644  0.00  0.00     0.056 C 
BRANCH   7   8
ATOM      8  C1  UNL d   1       1.393  -0.451  -0.578  0.00  0.00     0.007 C 
ATOM      9  C   UNL d   1       1.237  -1.813  -1.242  0.00  0.00     0.009 C 
ENDBRANCH   7   8
ENDBRANCH   1   7
TORSDOF 2
ENDMDL
