MODEL 1
REMARK minimizedAffinity -5.4941349
REMARK minimizedRMSD -1
REMARK  2 active torsions:
REMARK  status: ('A' for Active; 'I' for Inactive)
REMARK    1  A    between atoms: C1_2  and  C2_3 
REMARK    2  A    between atoms: C2_3  and  C3_4 
ROOT
ATOM      1  C3  UNL d   1      -0.231   0.260   0.316  0.00  0.00    -0.075 A 
ATOM      2  C4  UNL d   1       0.006   1.352  -0.532  0.00  0.00     0.002 A 
ATOM      3  C5  UNL d   1      -0.641   2.569  -0.318  0.00  0.00     0.002 A 
ATOM      4  C6  UNL d   1      -1.540   2.707   0.737  0.00  0.00    -0.004 A 
ATOM      5  C7  UNL d   1      -1.797   1.624   1.576  0.00  0.00     0.002 A 
ATOM      6  C8  UNL d   1      -1.146   0.406   1.367  0.00  0.00     0.002 A 
ENDROOT
BRANCH   1   7
ATOM      7  C2  UNL d   1       0.489  -1.051   0.108  0.00  0.00     0.056 C 
BRANCH   7   8
ATOM      8  C1  UNL d   1       0.156  -1.741  -1.219  0.00  0.00     0.007 C 
ATOM      9  C   UNL d   1       0.626  -3.189  -1.277  0.00  0.00     0.009 C 
ENDBRANCH   7   8
ENDBRANCH   1   7
TORSDOF 2
ENDMDL
