MODEL 1
REMARK minimizedAffinity -0.794974267
REMARK minimizedRMSD -1
REMARK  0 active torsions:
REMARK  status: ('A' for Active; 'I' for Inactive)
ROOT
ATOM      1  C4' PXY d   1       2.260   4.619  -5.993  0.00  0.00     0.077 C 
ATOM      2  C1' PXY d   1      -3.460   3.791  -5.985  0.00  0.00     0.077 C 
ATOM      3  C1  PXY d   1      -1.958   3.996  -5.982  0.00  0.00    -0.082 A 
ATOM      4  C2  PXY d   1      -1.466   5.224  -5.970  0.00  0.00     0.003 A 
ATOM      5  C3  PXY d   1      -0.111   5.428  -6.000  0.00  0.00     0.003 A 
ATOM      6  C4  PXY d   1       0.751   4.364  -5.987  0.00  0.00    -0.082 A 
ATOM      7  C5  PXY d   1       0.256   3.108  -5.988  0.00  0.00     0.003 A 
ATOM      8  C6  PXY d   1      -1.123   2.922  -5.999  0.00  0.00     0.003 A 
ENDROOT
TORSDOF 0
ENDMDL
