MODEL 1
REMARK minimizedAffinity 6.09583902
REMARK minimizedRMSD -1
REMARK  0 active torsions:
REMARK  status: ('A' for Active; 'I' for Inactive)
ROOT
ATOM      1  C4' PXY d   1       0.197   1.120   1.391  0.00  0.00     0.077 C 
ATOM      2  C1' PXY d   1      -0.951  -3.843  -1.342  0.00  0.00     0.077 C 
ATOM      3  C1  PXY d   1      -0.652  -2.547  -0.614  0.00  0.00    -0.082 A 
ATOM      4  C2  PXY d   1      -0.758  -1.396  -1.258  0.00  0.00     0.003 A 
ATOM      5  C3  PXY d   1      -0.460  -0.217  -0.624  0.00  0.00     0.003 A 
ATOM      6  C4  PXY d   1      -0.103  -0.212   0.698  0.00  0.00    -0.082 A 
ATOM      7  C5  PXY d   1      -0.004  -1.382   1.365  0.00  0.00     0.003 A 
ATOM      8  C6  PXY d   1      -0.270  -2.571   0.692  0.00  0.00     0.003 A 
ENDROOT
TORSDOF 0
ENDMDL
