MODEL 1
REMARK minimizedAffinity -2.61193442
REMARK minimizedRMSD -1
REMARK  0 active torsions:
REMARK  status: ('A' for Active; 'I' for Inactive)
ROOT
ATOM      1  C4' PXY d   1       2.587   1.917  -5.993  0.00  0.00     0.077 C 
ATOM      2  C1' PXY d   1      -2.176   5.192  -5.981  0.00  0.00     0.077 C 
ATOM      3  C1  PXY d   1      -0.920   4.343  -5.990  0.00  0.00    -0.082 A 
ATOM      4  C2  PXY d   1      -1.023   3.024  -5.997  0.00  0.00     0.003 A 
ATOM      5  C3  PXY d   1       0.103   2.241  -5.972  0.00  0.00     0.003 A 
ATOM      6  C4  PXY d   1       1.346   2.814  -5.994  0.00  0.00    -0.082 A 
ATOM      7  C5  PXY d   1       1.459   4.159  -5.998  0.00  0.00     0.003 A 
ATOM      8  C6  PXY d   1       0.304   4.936  -5.981  0.00  0.00     0.003 A 
ENDROOT
TORSDOF 0
ENDMDL
