MODEL 1
REMARK minimizedAffinity -0.867081642
REMARK minimizedRMSD -1
REMARK  0 active torsions:
REMARK  status: ('A' for Active; 'I' for Inactive)
ROOT
ATOM      1  C4' PXY d   1      -5.158   5.953  -6.000  0.00  0.00     0.077 C 
ATOM      2  C1' PXY d   1      -0.683   2.664  -4.397  0.00  0.00     0.077 C 
ATOM      3  C1  PXY d   1      -1.859   3.519  -4.828  0.00  0.00    -0.082 A 
ATOM      4  C2  PXY d   1      -1.923   4.784  -4.445  0.00  0.00     0.003 A 
ATOM      5  C3  PXY d   1      -2.995   5.562  -4.799  0.00  0.00     0.003 A 
ATOM      6  C4  PXY d   1      -3.985   5.056  -5.597  0.00  0.00    -0.082 A 
ATOM      7  C5  PXY d   1      -3.922   3.769  -6.000  0.00  0.00     0.003 A 
ATOM      8  C6  PXY d   1      -2.846   2.984  -5.596  0.00  0.00     0.003 A 
ENDROOT
TORSDOF 0
ENDMDL
