MODEL 1
REMARK minimizedAffinity 3.65363908
REMARK minimizedRMSD -1
REMARK  0 active torsions:
REMARK  status: ('A' for Active; 'I' for Inactive)
ROOT
ATOM      1  C4' PXY d   1       5.745   3.371  -5.970  0.00  0.00     0.077 C 
ATOM      2  C1' PXY d   1      -0.035   3.298  -6.000  0.00  0.00     0.077 C 
ATOM      3  C1  PXY d   1       1.481   3.306  -5.987  0.00  0.00    -0.082 A 
ATOM      4  C2  PXY d   1       2.130   4.459  -5.974  0.00  0.00     0.003 A 
ATOM      5  C3  PXY d   1       3.500   4.484  -5.995  0.00  0.00     0.003 A 
ATOM      6  C4  PXY d   1       4.215   3.316  -5.974  0.00  0.00    -0.082 A 
ATOM      7  C5  PXY d   1       3.560   2.135  -5.975  0.00  0.00     0.003 A 
ATOM      8  C6  PXY d   1       2.169   2.132  -5.996  0.00  0.00     0.003 A 
ENDROOT
TORSDOF 0
ENDMDL
