MODEL 1
REMARK minimizedAffinity -2.6499331
REMARK minimizedRMSD -1
REMARK  0 active torsions:
REMARK  status: ('A' for Active; 'I' for Inactive)
ROOT
ATOM      1  C4' PXY d   1      -0.015   2.943  -5.982  0.00  0.00     0.077 C 
ATOM      2  C1' PXY d   1      -5.488   4.805  -5.997  0.00  0.00     0.077 C 
ATOM      3  C1  PXY d   1      -4.049   4.328  -5.998  0.00  0.00    -0.082 A 
ATOM      4  C2  PXY d   1      -3.790   3.030  -6.000  0.00  0.00     0.003 A 
ATOM      5  C3  PXY d   1      -2.495   2.582  -5.969  0.00  0.00     0.003 A 
ATOM      6  C4  PXY d   1      -1.453   3.470  -5.990  0.00  0.00    -0.082 A 
ATOM      7  C5  PXY d   1      -1.709   4.795  -6.000  0.00  0.00     0.003 A 
ATOM      8  C6  PXY d   1      -3.031   5.231  -5.989  0.00  0.00     0.003 A 
ENDROOT
TORSDOF 0
ENDMDL
