MODEL 1
REMARK minimizedAffinity 9.30420589
REMARK minimizedRMSD -1
REMARK  0 active torsions:
REMARK  status: ('A' for Active; 'I' for Inactive)
ROOT
ATOM      1  C4' PXY d   1      -2.904   5.987  -5.993  0.00  0.00     0.077 C 
ATOM      2  C1' PXY d   1       2.129   3.145  -5.912  0.00  0.00     0.077 C 
ATOM      3  C1  PXY d   1       0.803   3.880  -5.939  0.00  0.00    -0.082 A 
ATOM      4  C2  PXY d   1       0.788   5.203  -5.928  0.00  0.00     0.003 A 
ATOM      5  C3  PXY d   1      -0.402   5.883  -5.919  0.00  0.00     0.003 A 
ATOM      6  C4  PXY d   1      -1.589   5.203  -5.976  0.00  0.00    -0.082 A 
ATOM      7  C5  PXY d   1      -1.582   3.853  -5.999  0.00  0.00     0.003 A 
ATOM      8  C6  PXY d   1      -0.364   3.181  -5.965  0.00  0.00     0.003 A 
ENDROOT
TORSDOF 0
ENDMDL
