MODEL 1
REMARK minimizedAffinity 1.8696537
REMARK minimizedRMSD -1
REMARK  0 active torsions:
REMARK  status: ('A' for Active; 'I' for Inactive)
ROOT
ATOM      1  C4' PXY d   1      -1.067  -0.051   0.852  0.00  0.00     0.077 C 
ATOM      2  C1' PXY d   1       2.725   4.268   0.228  0.00  0.00     0.077 C 
ATOM      3  C1  PXY d   1       1.727   3.136   0.379  0.00  0.00    -0.082 A 
ATOM      4  C2  PXY d   1       1.252   2.839   1.578  0.00  0.00     0.003 A 
ATOM      5  C3  PXY d   1       0.373   1.798   1.737  0.00  0.00     0.003 A 
ATOM      6  C4  PXY d   1      -0.065   1.089   0.651  0.00  0.00    -0.082 A 
ATOM      7  C5  PXY d   1       0.407   1.394  -0.577  0.00  0.00     0.003 A 
ATOM      8  C6  PXY d   1       1.329   2.427  -0.712  0.00  0.00     0.003 A 
ENDROOT
TORSDOF 0
ENDMDL
