MODEL 1
REMARK minimizedAffinity 1.48324692
REMARK minimizedRMSD -1
REMARK  0 active torsions:
REMARK  status: ('A' for Active; 'I' for Inactive)
ROOT
ATOM      1  C4' PXY d   1       4.259   4.435   0.792  0.00  0.00     0.077 C 
ATOM      2  C1' PXY d   1      -0.611   1.322   0.708  0.00  0.00     0.077 C 
ATOM      3  C1  PXY d   1       0.668   2.136   0.717  0.00  0.00    -0.082 A 
ATOM      4  C2  PXY d   1       1.338   2.289   1.848  0.00  0.00     0.003 A 
ATOM      5  C3  PXY d   1       2.479   3.048   1.881  0.00  0.00     0.003 A 
ATOM      6  C4  PXY d   1       2.968   3.613   0.734  0.00  0.00    -0.082 A 
ATOM      7  C5  PXY d   1       2.296   3.454  -0.426  0.00  0.00     0.003 A 
ATOM      8  C6  PXY d   1       1.118   2.713  -0.430  0.00  0.00     0.003 A 
ENDROOT
TORSDOF 0
ENDMDL
