MODEL 1
REMARK minimizedAffinity 6.68340063
REMARK minimizedRMSD -1
REMARK  0 active torsions:
REMARK  status: ('A' for Active; 'I' for Inactive)
ROOT
ATOM      1  C4' PXY d   1      -0.644  -0.802  -1.000  0.00  0.00     0.077 C 
ATOM      2  C1' PXY d   1       2.023   4.218   0.050  0.00  0.00     0.077 C 
ATOM      3  C1  PXY d   1       1.326   2.898  -0.213  0.00  0.00    -0.082 A 
ATOM      4  C2  PXY d   1       1.266   2.425  -1.447  0.00  0.00     0.003 A 
ATOM      5  C3  PXY d   1       0.611   1.248  -1.707  0.00  0.00     0.003 A 
ATOM      6  C4  PXY d   1       0.058   0.522  -0.686  0.00  0.00    -0.082 A 
ATOM      7  C5  PXY d   1       0.125   0.993   0.577  0.00  0.00     0.003 A 
ATOM      8  C6  PXY d   1       0.758   2.210   0.815  0.00  0.00     0.003 A 
ENDROOT
TORSDOF 0
ENDMDL
