MODEL 1
REMARK minimizedAffinity 3.33829808
REMARK minimizedRMSD -1
REMARK  0 active torsions:
REMARK  status: ('A' for Active; 'I' for Inactive)
ROOT
ATOM      1  C4' PXY d   1      -3.590   4.164  -5.979  0.00  0.00     0.077 C 
ATOM      2  C1' PXY d   1       1.908   2.380  -5.977  0.00  0.00     0.077 C 
ATOM      3  C1  PXY d   1       0.463   2.836  -5.982  0.00  0.00    -0.082 A 
ATOM      4  C2  PXY d   1       0.185   4.130  -5.977  0.00  0.00     0.003 A 
ATOM      5  C3  PXY d   1      -1.116   4.560  -5.950  0.00  0.00     0.003 A 
ATOM      6  C4  PXY d   1      -2.145   3.657  -5.983  0.00  0.00    -0.082 A 
ATOM      7  C5  PXY d   1      -1.870   2.336  -5.999  0.00  0.00     0.003 A 
ATOM      8  C6  PXY d   1      -0.542   1.919  -5.985  0.00  0.00     0.003 A 
ENDROOT
TORSDOF 0
ENDMDL
