MODEL 1
REMARK minimizedAffinity -1.58087027
REMARK minimizedRMSD -1
REMARK  0 active torsions:
REMARK  status: ('A' for Active; 'I' for Inactive)
ROOT
ATOM      1  C4' PXY d   1      -4.498   3.704  -5.998  0.00  0.00     0.077 C 
ATOM      2  C1' PXY d   1       1.265   3.254  -5.982  0.00  0.00     0.077 C 
ATOM      3  C1  PXY d   1      -0.247   3.360  -5.991  0.00  0.00    -0.082 A 
ATOM      4  C2  PXY d   1      -0.819   4.553  -6.000  0.00  0.00     0.003 A 
ATOM      5  C3  PXY d   1      -2.185   4.668  -5.976  0.00  0.00     0.003 A 
ATOM      6  C4  PXY d   1      -2.974   3.549  -5.998  0.00  0.00    -0.082 A 
ATOM      7  C5  PXY d   1      -2.398   2.328  -6.000  0.00  0.00     0.003 A 
ATOM      8  C6  PXY d   1      -1.010   2.234  -5.982  0.00  0.00     0.003 A 
ENDROOT
TORSDOF 0
ENDMDL
