MODEL 1
REMARK minimizedAffinity 13.8885231
REMARK minimizedRMSD -1
REMARK  0 active torsions:
REMARK  status: ('A' for Active; 'I' for Inactive)
ROOT
ATOM      1  C4' PXY d   1       1.126   3.275  -0.435  0.00  0.00     0.077 C 
ATOM      2  C1' PXY d   1      -1.148  -1.638   1.590  0.00  0.00     0.077 C 
ATOM      3  C1  PXY d   1      -0.563  -0.345   1.057  0.00  0.00    -0.082 A 
ATOM      4  C2  PXY d   1       0.667  -0.335   0.571  0.00  0.00     0.003 A 
ATOM      5  C3  PXY d   1       1.223   0.833   0.114  0.00  0.00     0.003 A 
ATOM      6  C4  PXY d   1       0.492   1.991   0.105  0.00  0.00    -0.082 A 
ATOM      7  C5  PXY d   1      -0.768   1.986   0.589  0.00  0.00     0.003 A 
ATOM      8  C6  PXY d   1      -1.299   0.799   1.086  0.00  0.00     0.003 A 
ENDROOT
TORSDOF 0
ENDMDL
