MODEL 1
REMARK minimizedAffinity 4.08788443
REMARK minimizedRMSD -1
REMARK  0 active torsions:
REMARK  status: ('A' for Active; 'I' for Inactive)
ROOT
ATOM      1  C4' PXY d   1       3.971   4.741   0.267  0.00  0.00     0.077 C 
ATOM      2  C1' PXY d   1      -0.532   1.347   1.543  0.00  0.00     0.077 C 
ATOM      3  C1  PXY d   1       0.649   2.241   1.221  0.00  0.00    -0.082 A 
ATOM      4  C2  PXY d   1       0.854   2.630  -0.028  0.00  0.00     0.003 A 
ATOM      5  C3  PXY d   1       1.936   3.412  -0.342  0.00  0.00     0.003 A 
ATOM      6  C4  PXY d   1       2.786   3.845   0.640  0.00  0.00    -0.082 A 
ATOM      7  C5  PXY d   1       2.577   3.463   1.918  0.00  0.00     0.003 A 
ATOM      8  C6  PXY d   1       1.497   2.634   2.210  0.00  0.00     0.003 A 
ENDROOT
TORSDOF 0
ENDMDL
