MODEL 1
REMARK minimizedAffinity 4.93422604
REMARK minimizedRMSD -1
REMARK  0 active torsions:
REMARK  status: ('A' for Active; 'I' for Inactive)
ROOT
ATOM      1  C4' PXY d   1       0.375   2.766  -5.986  0.00  0.00     0.077 C 
ATOM      2  C1' PXY d   1       5.920   4.399  -5.988  0.00  0.00     0.077 C 
ATOM      3  C1  PXY d   1       4.462   3.982  -5.982  0.00  0.00    -0.082 A 
ATOM      4  C2  PXY d   1       4.149   2.696  -5.968  0.00  0.00     0.003 A 
ATOM      5  C3  PXY d   1       2.837   2.302  -5.996  0.00  0.00     0.003 A 
ATOM      6  C4  PXY d   1       1.833   3.233  -5.983  0.00  0.00    -0.082 A 
ATOM      7  C5  PXY d   1       2.144   4.546  -5.986  0.00  0.00     0.003 A 
ATOM      8  C6  PXY d   1       3.483   4.926  -6.000  0.00  0.00     0.003 A 
ENDROOT
TORSDOF 0
ENDMDL
