MODEL 1
REMARK minimizedAffinity 5.40313196
REMARK minimizedRMSD -1
REMARK  0 active torsions:
REMARK  status: ('A' for Active; 'I' for Inactive)
ROOT
ATOM      1  C4' PXY d   1      -4.209   3.818  -5.741  0.00  0.00     0.077 C 
ATOM      2  C1' PXY d   1       1.556   4.148  -5.996  0.00  0.00     0.077 C 
ATOM      3  C1  PXY d   1       0.044   4.073  -5.924  0.00  0.00    -0.082 A 
ATOM      4  C2  PXY d   1      -0.552   2.892  -5.894  0.00  0.00     0.003 A 
ATOM      5  C3  PXY d   1      -1.920   2.806  -5.861  0.00  0.00     0.003 A 
ATOM      6  C4  PXY d   1      -2.684   3.941  -5.805  0.00  0.00    -0.082 A 
ATOM      7  C5  PXY d   1      -2.083   5.150  -5.824  0.00  0.00     0.003 A 
ATOM      8  C6  PXY d   1      -0.695   5.215  -5.899  0.00  0.00     0.003 A 
ENDROOT
TORSDOF 0
ENDMDL
