MODEL 1
REMARK minimizedAffinity 4.01319504
REMARK minimizedRMSD -1
REMARK  0 active torsions:
REMARK  status: ('A' for Active; 'I' for Inactive)
ROOT
ATOM      1  C4' PXY d   1      -3.337   3.381  -5.969  0.00  0.00     0.077 C 
ATOM      2  C1' PXY d   1       2.356   2.382  -5.999  0.00  0.00     0.077 C 
ATOM      3  C1  PXY d   1       0.861   2.632  -5.996  0.00  0.00    -0.082 A 
ATOM      4  C2  PXY d   1       0.406   3.874  -5.996  0.00  0.00     0.003 A 
ATOM      5  C3  PXY d   1      -0.943   4.119  -5.962  0.00  0.00     0.003 A 
ATOM      6  C4  PXY d   1      -1.836   3.081  -5.981  0.00  0.00    -0.082 A 
ATOM      7  C5  PXY d   1      -1.379   1.811  -5.992  0.00  0.00     0.003 A 
ATOM      8  C6  PXY d   1      -0.006   1.584  -5.986  0.00  0.00     0.003 A 
ENDROOT
TORSDOF 0
ENDMDL
