MODEL 1
REMARK minimizedAffinity -0.521619439
REMARK minimizedRMSD -1
REMARK  0 active torsions:
REMARK  status: ('A' for Active; 'I' for Inactive)
ROOT
ATOM      1  C4' PXY d   1       3.536   2.598  -5.988  0.00  0.00     0.077 C 
ATOM      2  C1' PXY d   1      -2.045   4.103  -5.989  0.00  0.00     0.077 C 
ATOM      3  C1  PXY d   1      -0.585   3.697  -5.984  0.00  0.00    -0.082 A 
ATOM      4  C2  PXY d   1       0.353   4.629  -5.972  0.00  0.00     0.003 A 
ATOM      5  C3  PXY d   1       1.679   4.280  -5.999  0.00  0.00     0.003 A 
ATOM      6  C4  PXY d   1       2.048   2.962  -5.984  0.00  0.00    -0.082 A 
ATOM      7  C5  PXY d   1       1.097   2.004  -5.986  0.00  0.00     0.003 A 
ATOM      8  C6  PXY d   1      -0.243   2.380  -6.000  0.00  0.00     0.003 A 
ENDROOT
TORSDOF 0
ENDMDL
