MODEL 1
REMARK minimizedAffinity 4.01552582
REMARK minimizedRMSD -1
REMARK  0 active torsions:
REMARK  status: ('A' for Active; 'I' for Inactive)
ROOT
ATOM      1  C4' PXY d   1      -1.448   3.347  -5.962  0.00  0.00     0.077 C 
ATOM      2  C1' PXY d   1       4.240   2.321  -5.999  0.00  0.00     0.077 C 
ATOM      3  C1  PXY d   1       2.751   2.602  -5.984  0.00  0.00    -0.082 A 
ATOM      4  C2  PXY d   1       1.895   1.593  -5.967  0.00  0.00     0.003 A 
ATOM      5  C3  PXY d   1       0.544   1.829  -5.986  0.00  0.00     0.003 A 
ATOM      6  C4  PXY d   1       0.064   3.111  -5.968  0.00  0.00    -0.082 A 
ATOM      7  C5  PXY d   1       0.931   4.146  -5.975  0.00  0.00     0.003 A 
ATOM      8  C6  PXY d   1       2.298   3.885  -5.997  0.00  0.00     0.003 A 
ENDROOT
TORSDOF 0
ENDMDL
