MODEL 1
REMARK minimizedAffinity 6.90933561
REMARK minimizedRMSD -1
REMARK  0 active torsions:
REMARK  status: ('A' for Active; 'I' for Inactive)
ROOT
ATOM      1  C4' PXY d   1       3.151   4.699   0.276  0.00  0.00     0.077 C 
ATOM      2  C1' PXY d   1      -0.580   0.300   0.651  0.00  0.00     0.077 C 
ATOM      3  C1  PXY d   1       0.402   1.450   0.540  0.00  0.00    -0.082 A 
ATOM      4  C2  PXY d   1       0.907   1.986   1.639  0.00  0.00     0.003 A 
ATOM      5  C3  PXY d   1       1.772   3.047   1.559  0.00  0.00     0.003 A 
ATOM      6  C4  PXY d   1       2.164   3.530   0.339  0.00  0.00    -0.082 A 
ATOM      7  C5  PXY d   1       1.661   2.982  -0.787  0.00  0.00     0.003 A 
ATOM      8  C6  PXY d   1       0.753   1.932  -0.682  0.00  0.00     0.003 A 
ENDROOT
TORSDOF 0
ENDMDL
