MODEL 1
REMARK minimizedAffinity -4.71674776
REMARK minimizedRMSD -1
REMARK  0 active torsions:
REMARK  status: ('A' for Active; 'I' for Inactive)
ROOT
ATOM      1  C2' OXE d   1      -0.890   0.945  -1.843  0.00  0.00     0.078 C 
ATOM      2  C1' OXE d   1       0.897  -0.044   0.083  0.00  0.00     0.078 C 
ATOM      3  C1  OXE d   1      -0.500  -0.612   0.062  0.00  0.00    -0.078 A 
ATOM      4  C2  OXE d   1      -1.382  -0.089  -0.853  0.00  0.00    -0.078 A 
ATOM      5  C3  OXE d   1      -2.667  -0.615  -0.950  0.00  0.00     0.003 A 
ATOM      6  C4  OXE d   1      -3.117  -1.564  -0.024  0.00  0.00    -0.002 A 
ATOM      7  C5  OXE d   1      -2.247  -2.081   0.941  0.00  0.00    -0.002 A 
ATOM      8  C6  OXE d   1      -0.926  -1.648   0.971  0.00  0.00     0.003 A 
ENDROOT
TORSDOF 0
ENDMDL
