MODEL 1
REMARK minimizedAffinity -4.10029268
REMARK minimizedRMSD -1
REMARK  0 active torsions:
REMARK  status: ('A' for Active; 'I' for Inactive)
ROOT
ATOM      1  C2' OXE d   1       1.136  -0.068   0.280  0.00  0.00     0.078 C 
ATOM      2  C1' OXE d   1      -0.303  -1.923   1.819  0.00  0.00     0.078 C 
ATOM      3  C1  OXE d   1      -1.025  -1.238   0.685  0.00  0.00    -0.078 A 
ATOM      4  C2  OXE d   1      -0.326  -0.298  -0.033  0.00  0.00    -0.078 A 
ATOM      5  C3  OXE d   1      -0.928   0.323  -1.124  0.00  0.00     0.003 A 
ATOM      6  C4  OXE d   1      -2.284   0.112  -1.401  0.00  0.00    -0.002 A 
ATOM      7  C5  OXE d   1      -3.025  -0.812  -0.656  0.00  0.00    -0.002 A 
ATOM      8  C6  OXE d   1      -2.401  -1.526   0.361  0.00  0.00     0.003 A 
ENDROOT
TORSDOF 0
ENDMDL
