MODEL 1
REMARK minimizedAffinity -5.9369998
REMARK minimizedRMSD -1
REMARK  0 active torsions:
REMARK  status: ('A' for Active; 'I' for Inactive)
ROOT
ATOM      1  C2' OXE d   1      -0.801   0.685  -1.667  0.00  0.00     0.078 C 
ATOM      2  C1' OXE d   1       0.843  -0.272   0.398  0.00  0.00     0.078 C 
ATOM      3  C1  OXE d   1      -0.558  -0.822   0.302  0.00  0.00    -0.078 A 
ATOM      4  C2  OXE d   1      -1.371  -0.314  -0.683  0.00  0.00    -0.078 A 
ATOM      5  C3  OXE d   1      -2.654  -0.827  -0.851  0.00  0.00     0.003 A 
ATOM      6  C4  OXE d   1      -3.177  -1.743   0.070  0.00  0.00    -0.002 A 
ATOM      7  C5  OXE d   1      -2.380  -2.244   1.104  0.00  0.00    -0.002 A 
ATOM      8  C6  OXE d   1      -1.057  -1.827   1.208  0.00  0.00     0.003 A 
ENDROOT
TORSDOF 0
ENDMDL
