MODEL 1
REMARK minimizedAffinity -3.22828555
REMARK minimizedRMSD -1
REMARK  0 active torsions:
REMARK  status: ('A' for Active; 'I' for Inactive)
ROOT
ATOM      1  C2' OXE d   1      -3.316  -0.831   0.193  0.00  0.00     0.078 C 
ATOM      2  C1' OXE d   1      -1.608  -1.540   2.305  0.00  0.00     0.078 C 
ATOM      3  C1  OXE d   1      -1.010  -0.797   1.137  0.00  0.00    -0.078 A 
ATOM      4  C2  OXE d   1      -1.844  -0.495   0.086  0.00  0.00    -0.078 A 
ATOM      5  C3  OXE d   1      -1.356   0.238  -0.992  0.00  0.00     0.003 A 
ATOM      6  C4  OXE d   1       0.008   0.536  -1.087  0.00  0.00    -0.002 A 
ATOM      7  C5  OXE d   1       0.882   0.203  -0.047  0.00  0.00    -0.002 A 
ATOM      8  C6  OXE d   1       0.382  -0.425   1.089  0.00  0.00     0.003 A 
ENDROOT
TORSDOF 0
ENDMDL
