MODEL 1
REMARK minimizedAffinity -5.32645464
REMARK minimizedRMSD -1
REMARK  0 active torsions:
REMARK  status: ('A' for Active; 'I' for Inactive)
ROOT
ATOM      1  C2' OXE d   1      -0.943   0.746  -1.785  0.00  0.00     0.078 C 
ATOM      2  C1' OXE d   1       0.729   0.099   0.375  0.00  0.00     0.078 C 
ATOM      3  C1  OXE d   1      -0.589  -0.625   0.264  0.00  0.00    -0.078 A 
ATOM      4  C2  OXE d   1      -1.421  -0.269  -0.770  0.00  0.00    -0.078 A 
ATOM      5  C3  OXE d   1      -2.625  -0.945  -0.949  0.00  0.00     0.003 A 
ATOM      6  C4  OXE d   1      -3.065  -1.875   0.000  0.00  0.00    -0.002 A 
ATOM      7  C5  OXE d   1      -2.250  -2.223   1.083  0.00  0.00    -0.002 A 
ATOM      8  C6  OXE d   1      -0.993  -1.640   1.205  0.00  0.00     0.003 A 
ENDROOT
TORSDOF 0
ENDMDL
