MODEL 1
REMARK minimizedAffinity -6.58924532
REMARK minimizedRMSD -1
REMARK  0 active torsions:
REMARK  status: ('A' for Active; 'I' for Inactive)
ROOT
ATOM      1  C2' OXE d   1       0.855  -0.007   0.368  0.00  0.00     0.078 C 
ATOM      2  C1' OXE d   1      -0.549   0.954  -1.865  0.00  0.00     0.078 C 
ATOM      3  C1  OXE d   1      -1.252  -0.026  -0.960  0.00  0.00    -0.078 A 
ATOM      4  C2  OXE d   1      -0.541  -0.527   0.104  0.00  0.00    -0.078 A 
ATOM      5  C3  OXE d   1      -1.161  -1.392   1.002  0.00  0.00     0.003 A 
ATOM      6  C4  OXE d   1      -2.449  -1.876   0.745  0.00  0.00    -0.002 A 
ATOM      7  C5  OXE d   1      -3.177  -1.409  -0.355  0.00  0.00    -0.002 A 
ATOM      8  C6  OXE d   1      -2.610  -0.454  -1.191  0.00  0.00     0.003 A 
ENDROOT
TORSDOF 0
ENDMDL
