MODEL 1
REMARK minimizedAffinity -5.44573927
REMARK minimizedRMSD -1
REMARK  0 active torsions:
REMARK  status: ('A' for Active; 'I' for Inactive)
ROOT
ATOM      1  C2' OXE d   1       0.985   0.276   0.053  0.00  0.00     0.078 C 
ATOM      2  C1' OXE d   1      -0.725   0.925  -2.076  0.00  0.00     0.078 C 
ATOM      3  C1  OXE d   1      -1.240  -0.028  -1.026  0.00  0.00    -0.078 A 
ATOM      4  C2  OXE d   1      -0.380  -0.376  -0.013  0.00  0.00    -0.078 A 
ATOM      5  C3  OXE d   1      -0.822  -1.208   1.012  0.00  0.00     0.003 A 
ATOM      6  C4  OXE d   1      -2.082  -1.815   0.938  0.00  0.00    -0.002 A 
ATOM      7  C5  OXE d   1      -2.959  -1.505  -0.107  0.00  0.00    -0.002 A 
ATOM      8  C6  OXE d   1      -2.570  -0.582  -1.072  0.00  0.00     0.003 A 
ENDROOT
TORSDOF 0
ENDMDL
