MODEL 1
REMARK minimizedAffinity -3.16835427
REMARK minimizedRMSD -1
REMARK  0 active torsions:
REMARK  status: ('A' for Active; 'I' for Inactive)
ROOT
ATOM      1  C2' OXE d   1       3.493   2.362   0.469  0.00  0.00     0.078 C 
ATOM      2  C1' OXE d   1       1.337   3.645   1.728  0.00  0.00     0.078 C 
ATOM      3  C1  OXE d   1       1.073   2.321   1.057  0.00  0.00    -0.078 A 
ATOM      4  C2  OXE d   1       2.123   1.723   0.403  0.00  0.00    -0.078 A 
ATOM      5  C3  OXE d   1       1.947   0.474  -0.186  0.00  0.00     0.003 A 
ATOM      6  C4  OXE d   1       0.674  -0.106  -0.251  0.00  0.00    -0.002 A 
ATOM      7  C5  OXE d   1      -0.417   0.506   0.374  0.00  0.00    -0.002 A 
ATOM      8  C6  OXE d   1      -0.227   1.696   1.067  0.00  0.00     0.003 A 
ENDROOT
TORSDOF 0
ENDMDL
