MODEL 1
REMARK minimizedAffinity -2.42359066
REMARK minimizedRMSD -1
REMARK  0 active torsions:
REMARK  status: ('A' for Active; 'I' for Inactive)
ROOT
ATOM      1  C2' OXE d   1       1.275   0.455  -0.919  0.00  0.00     0.078 C 
ATOM      2  C1' OXE d   1       0.630  -0.847   1.483  0.00  0.00     0.078 C 
ATOM      3  C1  OXE d   1      -0.490  -0.561   0.515  0.00  0.00    -0.078 A 
ATOM      4  C2  OXE d   1      -0.173   0.118  -0.637  0.00  0.00    -0.078 A 
ATOM      5  C3  OXE d   1      -1.159   0.360  -1.589  0.00  0.00     0.003 A 
ATOM      6  C4  OXE d   1      -2.498   0.054  -1.316  0.00  0.00    -0.002 A 
ATOM      7  C5  OXE d   1      -2.849  -0.602  -0.132  0.00  0.00    -0.002 A 
ATOM      8  C6  OXE d   1      -1.854  -0.954   0.773  0.00  0.00     0.003 A 
ENDROOT
TORSDOF 0
ENDMDL
