MODEL 1
REMARK minimizedAffinity -4.74809074
REMARK minimizedRMSD -1
REMARK  0 active torsions:
REMARK  status: ('A' for Active; 'I' for Inactive)
ROOT
ATOM      1  C2' OXE d   1      -0.051   0.476  -1.425  0.00  0.00     0.078 C 
ATOM      2  C1' OXE d   1       1.224  -0.886   0.672  0.00  0.00     0.078 C 
ATOM      3  C1  OXE d   1      -0.231  -1.190   0.418  0.00  0.00    -0.078 A 
ATOM      4  C2  OXE d   1      -0.859  -0.485  -0.580  0.00  0.00    -0.078 A 
ATOM      5  C3  OXE d   1      -2.187  -0.766  -0.891  0.00  0.00     0.003 A 
ATOM      6  C4  OXE d   1      -2.930  -1.648  -0.098  0.00  0.00    -0.002 A 
ATOM      7  C5  OXE d   1      -2.319  -2.348   0.948  0.00  0.00    -0.002 A 
ATOM      8  C6  OXE d   1      -0.963  -2.162   1.192  0.00  0.00     0.003 A 
ENDROOT
TORSDOF 0
ENDMDL
