MODEL 1
REMARK minimizedAffinity -5.70216274
REMARK minimizedRMSD -1
REMARK  0 active torsions:
REMARK  status: ('A' for Active; 'I' for Inactive)
ROOT
ATOM      1  C2' OXE d   1      -3.441  -1.304   0.131  0.00  0.00     0.078 C 
ATOM      2  C1' OXE d   1      -1.544  -2.504   1.817  0.00  0.00     0.078 C 
ATOM      3  C1  OXE d   1      -1.052  -1.492   0.813  0.00  0.00    -0.078 A 
ATOM      4  C2  OXE d   1      -1.980  -0.944  -0.040  0.00  0.00    -0.078 A 
ATOM      5  C3  OXE d   1      -1.588   0.035  -0.948  0.00  0.00     0.003 A 
ATOM      6  C4  OXE d   1      -0.234   0.354  -1.106  0.00  0.00    -0.002 A 
ATOM      7  C5  OXE d   1       0.732  -0.222  -0.275  0.00  0.00    -0.002 A 
ATOM      8  C6  OXE d   1       0.336  -1.113   0.716  0.00  0.00     0.003 A 
ENDROOT
TORSDOF 0
ENDMDL
