MODEL 1
REMARK minimizedAffinity -4.03210831
REMARK minimizedRMSD -1
REMARK  0 active torsions:
REMARK  status: ('A' for Active; 'I' for Inactive)
ROOT
ATOM      1  C2' OXE d   1      -0.997   0.693  -1.395  0.00  0.00     0.078 C 
ATOM      2  C1' OXE d   1       0.645  -0.359   0.624  0.00  0.00     0.078 C 
ATOM      3  C1  OXE d   1      -0.750  -0.917   0.490  0.00  0.00    -0.078 A 
ATOM      4  C2  OXE d   1      -1.562  -0.364  -0.471  0.00  0.00    -0.078 A 
ATOM      5  C3  OXE d   1      -2.839  -0.878  -0.673  0.00  0.00     0.003 A 
ATOM      6  C4  OXE d   1      -3.358  -1.849   0.193  0.00  0.00    -0.002 A 
ATOM      7  C5  OXE d   1      -2.561  -2.397   1.203  0.00  0.00    -0.002 A 
ATOM      8  C6  OXE d   1      -1.243  -1.974   1.337  0.00  0.00     0.003 A 
ENDROOT
TORSDOF 0
ENDMDL
