MODEL 1
REMARK minimizedAffinity -4.29345036
REMARK minimizedRMSD -1
REMARK  0 active torsions:
REMARK  status: ('A' for Active; 'I' for Inactive)
ROOT
ATOM      1  C2' OXE d   1      -3.515  -1.194   0.075  0.00  0.00     0.078 C 
ATOM      2  C1' OXE d   1      -1.803  -2.208   2.055  0.00  0.00     0.078 C 
ATOM      3  C1  OXE d   1      -1.203  -1.320   0.994  0.00  0.00    -0.078 A 
ATOM      4  C2  OXE d   1      -2.039  -0.866   0.003  0.00  0.00    -0.078 A 
ATOM      5  C3  OXE d   1      -1.549   0.001  -0.969  0.00  0.00     0.003 A 
ATOM      6  C4  OXE d   1      -0.181   0.291  -1.035  0.00  0.00    -0.002 A 
ATOM      7  C5  OXE d   1       0.696  -0.193  -0.058  0.00  0.00    -0.002 A 
ATOM      8  C6  OXE d   1       0.194  -0.963   0.985  0.00  0.00     0.003 A 
ENDROOT
TORSDOF 0
ENDMDL
