MODEL 1
REMARK minimizedAffinity -4.21085262
REMARK minimizedRMSD -1
REMARK  0 active torsions:
REMARK  status: ('A' for Active; 'I' for Inactive)
ROOT
ATOM      1  C2' OXE d   1      -0.928   0.684  -1.469  0.00  0.00     0.078 C 
ATOM      2  C1' OXE d   1       0.597  -0.145   0.737  0.00  0.00     0.078 C 
ATOM      3  C1  OXE d   1      -0.751  -0.789   0.532  0.00  0.00    -0.078 A 
ATOM      4  C2  OXE d   1      -1.511  -0.344  -0.523  0.00  0.00    -0.078 A 
ATOM      5  C3  OXE d   1      -2.739  -0.942  -0.790  0.00  0.00     0.003 A 
ATOM      6  C4  OXE d   1      -3.275  -1.885   0.096  0.00  0.00    -0.002 A 
ATOM      7  C5  OXE d   1      -2.535  -2.324   1.199  0.00  0.00    -0.002 A 
ATOM      8  C6  OXE d   1      -1.256  -1.818   1.407  0.00  0.00     0.003 A 
ENDROOT
TORSDOF 0
ENDMDL
