MODEL 1
REMARK minimizedAffinity -5.10104036
REMARK minimizedRMSD -1
REMARK  0 active torsions:
REMARK  status: ('A' for Active; 'I' for Inactive)
ROOT
ATOM      1  C2' OXE d   1      -3.332  -1.637   0.191  0.00  0.00     0.078 C 
ATOM      2  C1' OXE d   1      -1.212  -2.605   1.756  0.00  0.00     0.078 C 
ATOM      3  C1  OXE d   1      -0.893  -1.581   0.695  0.00  0.00    -0.078 A 
ATOM      4  C2  OXE d   1      -1.929  -1.147  -0.097  0.00  0.00    -0.078 A 
ATOM      5  C3  OXE d   1      -1.701  -0.163  -1.054  0.00  0.00     0.003 A 
ATOM      6  C4  OXE d   1      -0.398   0.277  -1.321  0.00  0.00    -0.002 A 
ATOM      7  C5  OXE d   1       0.677  -0.181  -0.552  0.00  0.00    -0.002 A 
ATOM      8  C6  OXE d   1       0.441  -1.076   0.485  0.00  0.00     0.003 A 
ENDROOT
TORSDOF 0
ENDMDL
