MODEL 1
REMARK minimizedAffinity -3.45758533
REMARK minimizedRMSD -1
REMARK  0 active torsions:
REMARK  status: ('A' for Active; 'I' for Inactive)
ROOT
ATOM      1  C2' OXE d   1       0.883  -0.627   0.716  0.00  0.00     0.078 C 
ATOM      2  C1' OXE d   1      -0.768  -2.603   1.832  0.00  0.00     0.078 C 
ATOM      3  C1  OXE d   1      -1.319  -1.791   0.687  0.00  0.00    -0.078 A 
ATOM      4  C2  OXE d   1      -0.521  -0.795   0.177  0.00  0.00    -0.078 A 
ATOM      5  C3  OXE d   1      -0.959  -0.052  -0.915  0.00  0.00     0.003 A 
ATOM      6  C4  OXE d   1      -2.263  -0.207  -1.401  0.00  0.00    -0.002 A 
ATOM      7  C5  OXE d   1      -3.106  -1.189  -0.870  0.00  0.00    -0.002 A 
ATOM      8  C6  OXE d   1      -2.635  -2.017   0.143  0.00  0.00     0.003 A 
ENDROOT
TORSDOF 0
ENDMDL
