MODEL 1
REMARK minimizedAffinity -2.70133853
REMARK minimizedRMSD -1
REMARK  0 active torsions:
REMARK  status: ('A' for Active; 'I' for Inactive)
ROOT
ATOM      1  C2' OXE d   1      -1.339   0.694  -2.423  0.00  0.00     0.078 C 
ATOM      2  C1' OXE d   1      -2.765  -0.493  -0.316  0.00  0.00     0.078 C 
ATOM      3  C1  OXE d   1      -1.273  -0.334  -0.155  0.00  0.00    -0.078 A 
ATOM      4  C2  OXE d   1      -0.577   0.205  -1.210  0.00  0.00    -0.078 A 
ATOM      5  C3  OXE d   1       0.792   0.423  -1.092  0.00  0.00     0.003 A 
ATOM      6  C4  OXE d   1       1.491  -0.041   0.029  0.00  0.00    -0.002 A 
ATOM      7  C5  OXE d   1       0.806  -0.629   1.098  0.00  0.00    -0.002 A 
ATOM      8  C6  OXE d   1      -0.578  -0.744   1.040  0.00  0.00     0.003 A 
ENDROOT
TORSDOF 0
ENDMDL
