MODEL 1
REMARK minimizedAffinity -4.16324234
REMARK minimizedRMSD -1
REMARK  0 active torsions:
REMARK  status: ('A' for Active; 'I' for Inactive)
ROOT
ATOM      1  C2' OXE d   1      -1.109   0.338  -1.021  0.00  0.00     0.078 C 
ATOM      2  C1' OXE d   1      -3.403  -1.236  -0.650  0.00  0.00     0.078 C 
ATOM      3  C1  OXE d   1      -2.226  -1.482   0.262  0.00  0.00    -0.078 A 
ATOM      4  C2  OXE d   1      -1.091  -0.738   0.043  0.00  0.00    -0.078 A 
ATOM      5  C3  OXE d   1       0.003  -0.886   0.890  0.00  0.00     0.003 A 
ATOM      6  C4  OXE d   1       0.015  -1.892   1.864  0.00  0.00    -0.002 A 
ATOM      7  C5  OXE d   1      -1.116  -2.686   2.078  0.00  0.00    -0.002 A 
ATOM      8  C6  OXE d   1      -2.258  -2.466   1.315  0.00  0.00     0.003 A 
ENDROOT
TORSDOF 0
ENDMDL
