MODEL 1
REMARK minimizedAffinity -3.00777268
REMARK minimizedRMSD -1
REMARK  1 active torsions:
REMARK  status: ('A' for Active; 'I' for Inactive)
REMARK    1  A    between atoms: C1_2  and  C2_3 
ROOT
ATOM      1  C2  UNL d   1      -0.935   0.137  -0.123  0.00  0.00    -0.073 A 
ATOM      2  C3  UNL d   1      -1.445  -0.936   0.617  0.00  0.00    -0.002 A 
ATOM      3  C4  UNL d   1      -0.602  -1.697   1.429  0.00  0.00     0.004 A 
ATOM      4  C5  UNL d   1       0.756  -1.389   1.515  0.00  0.00    -0.004 A 
ATOM      5  C6  UNL d   1       1.282  -0.313   0.792  0.00  0.00    -0.075 A 
ATOM      6  C7  UNL d   1       2.740   0.030   0.872  0.00  0.00     0.076 C 
ATOM      7  C8  UNL d   1       0.429   0.444  -0.023  0.00  0.00     0.001 A 
ENDROOT
BRANCH   1   8
ATOM      8  C1  UNL d   1      -1.842   0.964  -0.995  0.00  0.00     0.053 C 
ATOM      9  C   UNL d   1      -2.338   0.185  -2.203  0.00  0.00     0.018 C 
ENDBRANCH   1   8
TORSDOF 1
ENDMDL
