MODEL 1
REMARK minimizedAffinity -6.46859598
REMARK minimizedRMSD -1
REMARK  1 active torsions:
REMARK  status: ('A' for Active; 'I' for Inactive)
REMARK    1  A    between atoms: C1_2  and  C2_3 
ROOT
ATOM      1  C2  UNL d   1       2.226   1.327   1.620  0.00  0.00    -0.073 A 
ATOM      2  C3  UNL d   1       3.024   0.207   1.360  0.00  0.00    -0.002 A 
ATOM      3  C4  UNL d   1       2.564  -0.806   0.518  0.00  0.00     0.004 A 
ATOM      4  C5  UNL d   1       1.307  -0.707  -0.077  0.00  0.00    -0.004 A 
ATOM      5  C6  UNL d   1       0.499   0.410   0.161  0.00  0.00    -0.075 A 
ATOM      6  C7  UNL d   1      -0.857   0.530  -0.470  0.00  0.00     0.076 C 
ATOM      7  C8  UNL d   1       0.967   1.422   1.010  0.00  0.00     0.001 A 
ENDROOT
BRANCH   1   8
ATOM      8  C1  UNL d   1       2.721   2.427   2.524  0.00  0.00     0.053 C 
ATOM      9  C   UNL d   1       1.646   2.897   3.491  0.00  0.00     0.018 C 
ENDBRANCH   1   8
TORSDOF 1
ENDMDL
