MODEL 1
REMARK minimizedAffinity -1.19377112
REMARK minimizedRMSD -1
REMARK  1 active torsions:
REMARK  status: ('A' for Active; 'I' for Inactive)
REMARK    1  A    between atoms: C1_2  and  C2_3 
ROOT
ATOM      1  C2  UNL d   1       1.280  -1.053   0.720  0.00  0.00    -0.073 A 
ATOM      2  C3  UNL d   1       2.600  -0.811   0.325  0.00  0.00    -0.002 A 
ATOM      3  C4  UNL d   1       2.996   0.470  -0.062  0.00  0.00     0.004 A 
ATOM      4  C5  UNL d   1       2.080   1.522  -0.050  0.00  0.00    -0.004 A 
ATOM      5  C6  UNL d   1       0.759   1.302   0.353  0.00  0.00    -0.075 A 
ATOM      6  C7  UNL d   1      -0.240   2.422   0.368  0.00  0.00     0.076 C 
ATOM      7  C8  UNL d   1       0.368   0.012   0.736  0.00  0.00     0.001 A 
ENDROOT
BRANCH   1   8
ATOM      8  C1  UNL d   1       0.849  -2.434   1.144  0.00  0.00     0.053 C 
ATOM      9  C   UNL d   1      -0.522  -2.426   1.801  0.00  0.00     0.018 C 
ENDBRANCH   1   8
TORSDOF 1
ENDMDL
