MODEL 1
REMARK minimizedAffinity 6.66496325
REMARK minimizedRMSD -1
REMARK  1 active torsions:
REMARK  status: ('A' for Active; 'I' for Inactive)
REMARK    1  A    between atoms: C1_2  and  C2_3 
ROOT
ATOM      1  C2  UNL d   1      -4.937   2.271  -1.409  0.00  0.00    -0.073 A 
ATOM      2  C3  UNL d   1      -5.461   1.602  -0.297  0.00  0.00    -0.002 A 
ATOM      3  C4  UNL d   1      -5.987   2.322   0.776  0.00  0.00     0.004 A 
ATOM      4  C5  UNL d   1      -6.000   3.716   0.747  0.00  0.00    -0.004 A 
ATOM      5  C6  UNL d   1      -5.491   4.403  -0.360  0.00  0.00    -0.075 A 
ATOM      6  C7  UNL d   1      -5.496   5.903  -0.407  0.00  0.00     0.076 C 
ATOM      7  C8  UNL d   1      -4.963   3.673  -1.433  0.00  0.00     0.001 A 
ENDROOT
BRANCH   1   8
ATOM      8  C1  UNL d   1      -4.375   1.497  -2.573  0.00  0.00     0.053 C 
ATOM      9  C   UNL d   1      -4.113   2.389  -3.777  0.00  0.00     0.018 C 
ENDBRANCH   1   8
TORSDOF 1
ENDMDL
