MODEL 1
REMARK minimizedAffinity -3.74096465
REMARK minimizedRMSD -1
REMARK  0 active torsions:
REMARK  status: ('A' for Active; 'I' for Inactive)
ROOT
ATOM      1  C   UNL d   1      -0.828   0.391  -0.058  0.00  0.00     0.172 C 
ATOM      2  N   UNL d   1      -0.157  -0.652   0.682  0.00  0.00    -0.070 N 
ATOM      3  C1  UNL d   1      -0.547  -1.145   1.898  0.00  0.00    -0.004 A 
ATOM      4  C2  UNL d   1       0.351  -2.125   2.264  0.00  0.00    -0.047 A 
ATOM      5  C3  UNL d   1       1.314  -2.223   1.231  0.00  0.00    -0.047 A 
ATOM      6  C4  UNL d   1       0.976  -1.300   0.265  0.00  0.00    -0.004 A 
ENDROOT
TORSDOF 0
ENDMDL
