MODEL 1
REMARK minimizedAffinity -2.50813603
REMARK minimizedRMSD -1
REMARK  0 active torsions:
REMARK  status: ('A' for Active; 'I' for Inactive)
ROOT
ATOM      1  C   UNL d   1      -0.976   1.153  -0.072  0.00  0.00     0.172 C 
ATOM      2  N   UNL d   1      -1.379   1.593  -1.387  0.00  0.00    -0.070 N 
ATOM      3  C1  UNL d   1      -0.590   2.268  -2.280  0.00  0.00    -0.004 A 
ATOM      4  C2  UNL d   1      -1.340   2.503  -3.412  0.00  0.00    -0.047 A 
ATOM      5  C3  UNL d   1      -2.625   1.952  -3.191  0.00  0.00    -0.047 A 
ATOM      6  C4  UNL d   1      -2.621   1.394  -1.930  0.00  0.00    -0.004 A 
ENDROOT
TORSDOF 0
ENDMDL
