MODEL 1
REMARK minimizedAffinity -3.51943111
REMARK minimizedRMSD -1
REMARK  0 active torsions:
REMARK  status: ('A' for Active; 'I' for Inactive)
ROOT
ATOM      1  C   UNL d   1      -0.379   0.941  -0.393  0.00  0.00     0.172 C 
ATOM      2  N   UNL d   1       0.137  -0.275   0.190  0.00  0.00    -0.070 N 
ATOM      3  C1  UNL d   1      -0.487  -1.028   1.149  0.00  0.00    -0.004 A 
ATOM      4  C2  UNL d   1       0.326  -2.103   1.436  0.00  0.00    -0.047 A 
ATOM      5  C3  UNL d   1       1.479  -1.991   0.623  0.00  0.00    -0.047 A 
ATOM      6  C4  UNL d   1       1.336  -0.851  -0.138  0.00  0.00    -0.004 A 
ENDROOT
TORSDOF 0
ENDMDL
