MODEL 1
REMARK minimizedAffinity -3.51536655
REMARK minimizedRMSD -1
REMARK  0 active torsions:
REMARK  status: ('A' for Active; 'I' for Inactive)
ROOT
ATOM      1  C   UNL d   1      -0.639   0.802  -0.237  0.00  0.00     0.172 C 
ATOM      2  N   UNL d   1       0.101  -0.342   0.239  0.00  0.00    -0.070 N 
ATOM      3  C1  UNL d   1      -0.421  -1.395   0.942  0.00  0.00    -0.004 A 
ATOM      4  C2  UNL d   1       0.605  -2.276   1.207  0.00  0.00    -0.047 A 
ATOM      5  C3  UNL d   1       1.785  -1.734   0.644  0.00  0.00    -0.047 A 
ATOM      6  C4  UNL d   1       1.444  -0.537   0.050  0.00  0.00    -0.004 A 
ENDROOT
TORSDOF 0
ENDMDL
