MODEL 1
REMARK minimizedAffinity -3.81739044
REMARK minimizedRMSD -1
REMARK  0 active torsions:
REMARK  status: ('A' for Active; 'I' for Inactive)
ROOT
ATOM      1  C   UNL d   1       1.197   0.532  -0.200  0.00  0.00     0.172 C 
ATOM      2  N   UNL d   1       1.032  -0.795   0.345  0.00  0.00    -0.070 N 
ATOM      3  C1  UNL d   1       1.977  -1.785   0.334  0.00  0.00    -0.004 A 
ATOM      4  C2  UNL d   1       1.435  -2.894   0.947  0.00  0.00    -0.047 A 
ATOM      5  C3  UNL d   1       0.117  -2.558   1.340  0.00  0.00    -0.047 A 
ATOM      6  C4  UNL d   1      -0.106  -1.253   0.954  0.00  0.00    -0.004 A 
ENDROOT
TORSDOF 0
ENDMDL
