MODEL 1
REMARK minimizedAffinity -4.16418886
REMARK minimizedRMSD -1
REMARK  0 active torsions:
REMARK  status: ('A' for Active; 'I' for Inactive)
ROOT
ATOM      1  C   UNL d   1       1.153  -0.963   0.005  0.00  0.00     0.172 C 
ATOM      2  N   UNL d   1       0.681  -1.511   1.254  0.00  0.00    -0.070 N 
ATOM      3  C1  UNL d   1      -0.450  -1.121   1.921  0.00  0.00    -0.004 A 
ATOM      4  C2  UNL d   1      -0.549  -1.883   3.065  0.00  0.00    -0.047 A 
ATOM      5  C3  UNL d   1       0.561  -2.760   3.087  0.00  0.00    -0.047 A 
ATOM      6  C4  UNL d   1       1.306  -2.509   1.955  0.00  0.00    -0.004 A 
ENDROOT
TORSDOF 0
ENDMDL
