MODEL 1
REMARK minimizedAffinity -3.58347797
REMARK minimizedRMSD -1
REMARK  0 active torsions:
REMARK  status: ('A' for Active; 'I' for Inactive)
ROOT
ATOM      1  C   UNL d   1      -0.400   0.948   0.008  0.00  0.00     0.172 C 
ATOM      2  N   UNL d   1       0.374  -0.235   0.300  0.00  0.00    -0.070 N 
ATOM      3  C1  UNL d   1       1.733  -0.350   0.178  0.00  0.00    -0.004 A 
ATOM      4  C2  UNL d   1       2.083  -1.630   0.551  0.00  0.00    -0.047 A 
ATOM      5  C3  UNL d   1       0.894  -2.308   0.908  0.00  0.00    -0.047 A 
ATOM      6  C4  UNL d   1      -0.149  -1.421   0.743  0.00  0.00    -0.004 A 
ENDROOT
TORSDOF 0
ENDMDL
