MODEL 1
REMARK minimizedAffinity -2.90775561
REMARK minimizedRMSD -1
REMARK  0 active torsions:
REMARK  status: ('A' for Active; 'I' for Inactive)
ROOT
ATOM      1  C   UNL d   1       1.761  -2.228   1.140  0.00  0.00     0.172 C 
ATOM      2  N   UNL d   1       0.803  -1.250   0.681  0.00  0.00    -0.070 N 
ATOM      3  C1  UNL d   1      -0.435  -1.029   1.223  0.00  0.00    -0.004 A 
ATOM      4  C2  UNL d   1      -1.037  -0.019   0.504  0.00  0.00    -0.047 A 
ATOM      5  C3  UNL d   1      -0.129   0.381  -0.505  0.00  0.00    -0.047 A 
ATOM      6  C4  UNL d   1       1.001  -0.397  -0.373  0.00  0.00    -0.004 A 
ENDROOT
TORSDOF 0
ENDMDL
