MODEL 1
REMARK minimizedAffinity -2.97718024
REMARK minimizedRMSD -1
REMARK  0 active torsions:
REMARK  status: ('A' for Active; 'I' for Inactive)
ROOT
ATOM      1  C   UNL d   1       0.062   0.701  -0.253  0.00  0.00     0.172 C 
ATOM      2  N   UNL d   1       0.904  -0.347   0.273  0.00  0.00    -0.070 N 
ATOM      3  C1  UNL d   1       0.679  -1.048   1.428  0.00  0.00    -0.004 A 
ATOM      4  C2  UNL d   1       1.705  -1.955   1.578  0.00  0.00    -0.047 A 
ATOM      5  C3  UNL d   1       2.578  -1.794   0.475  0.00  0.00    -0.047 A 
ATOM      6  C4  UNL d   1       2.058  -0.792  -0.317  0.00  0.00    -0.004 A 
ENDROOT
TORSDOF 0
ENDMDL
