MODEL 1
REMARK minimizedAffinity -2.01647758
REMARK minimizedRMSD -1
REMARK  0 active torsions:
REMARK  status: ('A' for Active; 'I' for Inactive)
ROOT
ATOM      1  C   UNL d   1      -0.585   1.326  -0.649  0.00  0.00     0.172 C 
ATOM      2  N   UNL d   1      -0.687   0.205   0.256  0.00  0.00    -0.070 N 
ATOM      3  C1  UNL d   1      -1.463   0.157   1.383  0.00  0.00    -0.004 A 
ATOM      4  C2  UNL d   1      -1.283  -1.078   1.967  0.00  0.00    -0.047 A 
ATOM      5  C3  UNL d   1      -0.367  -1.797   1.163  0.00  0.00    -0.047 A 
ATOM      6  C4  UNL d   1      -0.014  -0.979   0.110  0.00  0.00    -0.004 A 
ENDROOT
TORSDOF 0
ENDMDL
