MODEL 1
REMARK minimizedAffinity -4.02245283
REMARK minimizedRMSD -1
REMARK  0 active torsions:
REMARK  status: ('A' for Active; 'I' for Inactive)
ROOT
ATOM      1  C   UNL d   1      -0.737   0.367  -0.161  0.00  0.00     0.172 C 
ATOM      2  N   UNL d   1       0.018  -0.770   0.311  0.00  0.00    -0.070 N 
ATOM      3  C1  UNL d   1      -0.477  -1.799   1.066  0.00  0.00    -0.004 A 
ATOM      4  C2  UNL d   1       0.555  -2.680   1.308  0.00  0.00    -0.047 A 
ATOM      5  C3  UNL d   1       1.711  -2.161   0.678  0.00  0.00    -0.047 A 
ATOM      6  C4  UNL d   1       1.350  -0.978   0.068  0.00  0.00    -0.004 A 
ENDROOT
TORSDOF 0
ENDMDL
