MODEL 1
REMARK minimizedAffinity -2.6542964
REMARK minimizedRMSD -1
REMARK  0 active torsions:
REMARK  status: ('A' for Active; 'I' for Inactive)
ROOT
ATOM      1  C   UNL d   1       0.124  -2.454   0.686  0.00  0.00     0.172 C 
ATOM      2  N   UNL d   1      -0.185  -1.044   0.685  0.00  0.00    -0.070 N 
ATOM      3  C1  UNL d   1      -0.955  -0.395   1.613  0.00  0.00    -0.004 A 
ATOM      4  C2  UNL d   1      -1.008   0.936   1.260  0.00  0.00    -0.047 A 
ATOM      5  C3  UNL d   1      -0.244   1.092   0.079  0.00  0.00    -0.047 A 
ATOM      6  C4  UNL d   1       0.254  -0.149  -0.255  0.00  0.00    -0.004 A 
ENDROOT
TORSDOF 0
ENDMDL
