MODEL 1
REMARK minimizedAffinity -3.31670451
REMARK minimizedRMSD -1
REMARK  0 active torsions:
REMARK  status: ('A' for Active; 'I' for Inactive)
ROOT
ATOM      1  C   UNL d   1       1.167  -2.161   0.712  0.00  0.00     0.172 C 
ATOM      2  N   UNL d   1       0.497  -0.913   0.434  0.00  0.00    -0.070 N 
ATOM      3  C1  UNL d   1       0.976   0.091  -0.364  0.00  0.00    -0.004 A 
ATOM      4  C2  UNL d   1       0.044   1.106  -0.373  0.00  0.00    -0.047 A 
ATOM      5  C3  UNL d   1      -1.032   0.699   0.451  0.00  0.00    -0.047 A 
ATOM      6  C4  UNL d   1      -0.726  -0.555   0.937  0.00  0.00    -0.004 A 
ENDROOT
TORSDOF 0
ENDMDL
