MODEL 1
REMARK minimizedAffinity -3.89804077
REMARK minimizedRMSD -1
REMARK  0 active torsions:
REMARK  status: ('A' for Active; 'I' for Inactive)
ROOT
ATOM      1  C   UNL d   1      -0.587   0.673  -0.113  0.00  0.00     0.172 C 
ATOM      2  N   UNL d   1       0.170  -0.534   0.119  0.00  0.00    -0.070 N 
ATOM      3  C1  UNL d   1      -0.357  -1.764   0.407  0.00  0.00    -0.004 A 
ATOM      4  C2  UNL d   1       0.689  -2.648   0.557  0.00  0.00    -0.047 A 
ATOM      5  C3  UNL d   1       1.888  -1.924   0.353  0.00  0.00    -0.047 A 
ATOM      6  C4  UNL d   1       1.537  -0.618   0.084  0.00  0.00    -0.004 A 
ENDROOT
TORSDOF 0
ENDMDL
