MODEL 1
REMARK minimizedAffinity -3.63092709
REMARK minimizedRMSD -1
REMARK  0 active torsions:
REMARK  status: ('A' for Active; 'I' for Inactive)
ROOT
ATOM      1  C   UNL d   1       1.291   0.620  -0.572  0.00  0.00     0.172 C 
ATOM      2  N   UNL d   1       1.266  -0.555   0.267  0.00  0.00    -0.070 N 
ATOM      3  C1  UNL d   1       2.352  -1.126   0.875  0.00  0.00    -0.004 A 
ATOM      4  C2  UNL d   1       1.912  -2.223   1.583  0.00  0.00    -0.047 A 
ATOM      5  C3  UNL d   1       0.512  -2.316   1.393  0.00  0.00    -0.047 A 
ATOM      6  C4  UNL d   1       0.139  -1.271   0.574  0.00  0.00    -0.004 A 
ENDROOT
TORSDOF 0
ENDMDL
