MODEL 1
REMARK minimizedAffinity -1.74050689
REMARK minimizedRMSD -1
REMARK  0 active torsions:
REMARK  status: ('A' for Active; 'I' for Inactive)
ROOT
ATOM      1  C   UNL d   1       0.822  -2.330   0.160  0.00  0.00     0.172 C 
ATOM      2  N   UNL d   1       0.314  -0.988  -0.002  0.00  0.00    -0.070 N 
ATOM      3  C1  UNL d   1       0.982   0.054  -0.587  0.00  0.00    -0.004 A 
ATOM      4  C2  UNL d   1       0.161   1.159  -0.546  0.00  0.00    -0.047 A 
ATOM      5  C3  UNL d   1      -1.043   0.769   0.087  0.00  0.00    -0.047 A 
ATOM      6  C4  UNL d   1      -0.921  -0.565   0.414  0.00  0.00    -0.004 A 
ENDROOT
TORSDOF 0
ENDMDL
