MODEL 1
REMARK minimizedAffinity -3.14003301
REMARK minimizedRMSD -1
REMARK  0 active torsions:
REMARK  status: ('A' for Active; 'I' for Inactive)
ROOT
ATOM      1  C   UNL d   1       1.279  -2.532   0.948  0.00  0.00     0.172 C 
ATOM      2  N   UNL d   1       0.590  -1.295   0.663  0.00  0.00    -0.070 N 
ATOM      3  C1  UNL d   1      -0.650  -0.948   1.126  0.00  0.00    -0.004 A 
ATOM      4  C2  UNL d   1      -0.950   0.304   0.632  0.00  0.00    -0.047 A 
ATOM      5  C3  UNL d   1       0.149   0.722  -0.156  0.00  0.00    -0.047 A 
ATOM      6  C4  UNL d   1       1.088  -0.287  -0.119  0.00  0.00    -0.004 A 
ENDROOT
TORSDOF 0
ENDMDL
