MODEL 1
REMARK minimizedAffinity -3.72719407
REMARK minimizedRMSD -1
REMARK  0 active torsions:
REMARK  status: ('A' for Active; 'I' for Inactive)
ROOT
ATOM      1  C   UNL d   1      -0.593   0.628  -0.223  0.00  0.00     0.172 C 
ATOM      2  N   UNL d   1       0.255  -0.445   0.240  0.00  0.00    -0.070 N 
ATOM      3  C1  UNL d   1      -0.176  -1.626   0.782  0.00  0.00    -0.004 A 
ATOM      4  C2  UNL d   1       0.936  -2.378   1.094  0.00  0.00    -0.047 A 
ATOM      5  C3  UNL d   1       2.075  -1.622   0.728  0.00  0.00    -0.047 A 
ATOM      6  C4  UNL d   1       1.625  -0.430   0.202  0.00  0.00    -0.004 A 
ENDROOT
TORSDOF 0
ENDMDL
