MODEL 1
REMARK minimizedAffinity -1.9776175
REMARK minimizedRMSD -1
REMARK  0 active torsions:
REMARK  status: ('A' for Active; 'I' for Inactive)
ROOT
ATOM      1  C   UNL d   1       1.171   0.056  -0.770  0.00  0.00     0.172 C 
ATOM      2  N   UNL d   1       1.597  -0.967   0.156  0.00  0.00    -0.070 N 
ATOM      3  C1  UNL d   1       0.971  -2.167   0.363  0.00  0.00    -0.004 A 
ATOM      4  C2  UNL d   1       1.685  -2.856   1.319  0.00  0.00    -0.047 A 
ATOM      5  C3  UNL d   1       2.778  -2.042   1.700  0.00  0.00    -0.047 A 
ATOM      6  C4  UNL d   1       2.699  -0.878   0.965  0.00  0.00    -0.004 A 
ENDROOT
TORSDOF 0
ENDMDL
