MODEL 1
REMARK minimizedAffinity -3.35137558
REMARK minimizedRMSD -1
REMARK  0 active torsions:
REMARK  status: ('A' for Active; 'I' for Inactive)
ROOT
ATOM      1  C   UNL d   1       1.439  -2.152   0.749  0.00  0.00     0.172 C 
ATOM      2  N   UNL d   1       0.668  -0.956   0.501  0.00  0.00    -0.070 N 
ATOM      3  C1  UNL d   1      -0.618  -0.735   0.915  0.00  0.00    -0.004 A 
ATOM      4  C2  UNL d   1      -0.992   0.518   0.481  0.00  0.00    -0.047 A 
ATOM      5  C3  UNL d   1       0.108   1.070  -0.218  0.00  0.00    -0.047 A 
ATOM      6  C4  UNL d   1       1.122   0.136  -0.191  0.00  0.00    -0.004 A 
ENDROOT
TORSDOF 0
ENDMDL
