MODEL 1
REMARK minimizedAffinity -3.01245785
REMARK minimizedRMSD -1
REMARK  1 active torsions:
REMARK  status: ('A' for Active; 'I' for Inactive)
REMARK    1  A    between atoms: C1_2  and  C2_3 
ROOT
ATOM      1  C2  UNL d   1      -0.216  -1.385  -0.214  0.00  0.00    -0.077 A 
ATOM      2  C3  UNL d   1      -0.315  -2.694  -0.706  0.00  0.00     0.002 A 
ATOM      3  C4  UNL d   1       0.505  -3.119  -1.753  0.00  0.00     0.002 A 
ATOM      4  C5  UNL d   1       1.433  -2.243  -2.313  0.00  0.00    -0.004 A 
ATOM      5  C6  UNL d   1       1.538  -0.938  -1.831  0.00  0.00     0.002 A 
ATOM      6  C7  UNL d   1       0.717  -0.512  -0.786  0.00  0.00     0.002 A 
ENDROOT
BRANCH   1   7
ATOM      7  C1  UNL d   1      -1.066  -0.940   0.947  0.00  0.00     0.055 C 
ATOM      8  C   UNL d   1      -0.328   0.064   1.821  0.00  0.00     0.019 C 
ENDBRANCH   1   7
TORSDOF 1
ENDMDL
