MODEL 1
REMARK minimizedAffinity -4.0333147
REMARK minimizedRMSD -1
REMARK  1 active torsions:
REMARK  status: ('A' for Active; 'I' for Inactive)
REMARK    1  A    between atoms: C1_2  and  C2_3 
ROOT
ATOM      1  C2  UNL d   1       0.253  -1.487  -1.069  0.00  0.00    -0.077 A 
ATOM      2  C3  UNL d   1       1.285  -0.689  -0.555  0.00  0.00     0.002 A 
ATOM      3  C4  UNL d   1       1.128  -0.034   0.668  0.00  0.00     0.002 A 
ATOM      4  C5  UNL d   1      -0.056  -0.174   1.389  0.00  0.00    -0.004 A 
ATOM      5  C6  UNL d   1      -1.089  -0.964   0.885  0.00  0.00     0.002 A 
ATOM      6  C7  UNL d   1      -0.934  -1.619  -0.338  0.00  0.00     0.002 A 
ENDROOT
BRANCH   1   7
ATOM      7  C1  UNL d   1       0.439  -2.234  -2.364  0.00  0.00     0.055 C 
ATOM      8  C   UNL d   1      -0.066  -3.665  -2.256  0.00  0.00     0.019 C 
ENDBRANCH   1   7
TORSDOF 1
ENDMDL
