MODEL 1
REMARK minimizedAffinity -1.28176796
REMARK minimizedRMSD -1
REMARK  1 active torsions:
REMARK  status: ('A' for Active; 'I' for Inactive)
REMARK    1  A    between atoms: C1_2  and  C2_3 
ROOT
ATOM      1  C2  UNL d   1       0.085  -0.471   0.243  0.00  0.00    -0.077 A 
ATOM      2  C3  UNL d   1       0.367   0.449   1.263  0.00  0.00     0.002 A 
ATOM      3  C4  UNL d   1      -0.651   0.906   2.102  0.00  0.00     0.002 A 
ATOM      4  C5  UNL d   1      -1.955   0.445   1.934  0.00  0.00    -0.004 A 
ATOM      5  C6  UNL d   1      -2.245  -0.468   0.921  0.00  0.00     0.002 A 
ATOM      6  C7  UNL d   1      -1.230  -0.925   0.080  0.00  0.00     0.002 A 
ENDROOT
BRANCH   1   7
ATOM      7  C1  UNL d   1       1.190  -1.003  -0.632  0.00  0.00     0.055 C 
ATOM      8  C   UNL d   1       0.684  -2.097  -1.560  0.00  0.00     0.019 C 
ENDBRANCH   1   7
TORSDOF 1
ENDMDL
