MODEL 1
REMARK minimizedAffinity -1.63581467
REMARK minimizedRMSD -1
REMARK  1 active torsions:
REMARK  status: ('A' for Active; 'I' for Inactive)
REMARK    1  A    between atoms: C1_2  and  C2_3 
ROOT
ATOM      1  C2  UNL d   1       0.051  -1.592  -0.777  0.00  0.00    -0.077 A 
ATOM      2  C3  UNL d   1      -0.783  -2.178   0.186  0.00  0.00     0.002 A 
ATOM      3  C4  UNL d   1      -1.251  -1.428   1.266  0.00  0.00     0.002 A 
ATOM      4  C5  UNL d   1      -0.896  -0.086   1.391  0.00  0.00    -0.004 A 
ATOM      5  C6  UNL d   1      -0.066   0.506   0.440  0.00  0.00     0.002 A 
ATOM      6  C7  UNL d   1       0.404  -0.243  -0.640  0.00  0.00     0.002 A 
ENDROOT
BRANCH   1   7
ATOM      7  C1  UNL d   1       0.517  -2.386  -1.969  0.00  0.00     0.055 C 
ATOM      8  C   UNL d   1       0.301  -3.877  -1.759  0.00  0.00     0.019 C 
ENDBRANCH   1   7
TORSDOF 1
ENDMDL
