MODEL 1
REMARK minimizedAffinity -3.23391318
REMARK minimizedRMSD -1
REMARK  1 active torsions:
REMARK  status: ('A' for Active; 'I' for Inactive)
REMARK    1  A    between atoms: C1_2  and  C2_3 
ROOT
ATOM      1  C2  UNL d   1       0.875  -1.695  -0.818  0.00  0.00    -0.077 A 
ATOM      2  C3  UNL d   1       1.693  -0.802  -0.113  0.00  0.00     0.002 A 
ATOM      3  C4  UNL d   1       1.183  -0.082   0.970  0.00  0.00     0.002 A 
ATOM      4  C5  UNL d   1      -0.144  -0.252   1.358  0.00  0.00    -0.004 A 
ATOM      5  C6  UNL d   1      -0.966  -1.136   0.662  0.00  0.00     0.002 A 
ATOM      6  C7  UNL d   1      -0.459  -1.856  -0.421  0.00  0.00     0.002 A 
ENDROOT
BRANCH   1   7
ATOM      7  C1  UNL d   1       1.436  -2.509  -1.955  0.00  0.00     0.055 C 
ATOM      8  C   UNL d   1       0.351  -3.332  -2.635  0.00  0.00     0.019 C 
ENDBRANCH   1   7
TORSDOF 1
ENDMDL
