MODEL 1
REMARK minimizedAffinity -3.55906296
REMARK minimizedRMSD -1
REMARK  1 active torsions:
REMARK  status: ('A' for Active; 'I' for Inactive)
REMARK    1  A    between atoms: C1_2  and  C2_3 
ROOT
ATOM      1  C2  UNL d   1      -0.022  -2.364  -1.029  0.00  0.00    -0.077 A 
ATOM      2  C3  UNL d   1       0.989  -1.404  -0.881  0.00  0.00     0.002 A 
ATOM      3  C4  UNL d   1       0.856  -0.376   0.055  0.00  0.00     0.002 A 
ATOM      4  C5  UNL d   1      -0.284  -0.302   0.853  0.00  0.00    -0.004 A 
ATOM      5  C6  UNL d   1      -1.296  -1.250   0.712  0.00  0.00     0.002 A 
ATOM      6  C7  UNL d   1      -1.165  -2.277  -0.224  0.00  0.00     0.002 A 
ENDROOT
BRANCH   1   7
ATOM      7  C1  UNL d   1       0.141  -3.501  -2.003  0.00  0.00     0.055 C 
ATOM      8  C   UNL d   1      -0.087  -3.040  -3.436  0.00  0.00     0.019 C 
ENDBRANCH   1   7
TORSDOF 1
ENDMDL
