MODEL 1
REMARK minimizedAffinity -4.1000824
REMARK minimizedRMSD -1
REMARK  1 active torsions:
REMARK  status: ('A' for Active; 'I' for Inactive)
REMARK    1  A    between atoms: C1_2  and  C2_3 
ROOT
ATOM      1  C2  UNL d   1       0.359  -2.157  -1.167  0.00  0.00    -0.077 A 
ATOM      2  C3  UNL d   1      -0.815  -1.899  -0.446  0.00  0.00     0.002 A 
ATOM      3  C4  UNL d   1      -0.890  -0.799   0.412  0.00  0.00     0.002 A 
ATOM      4  C5  UNL d   1       0.204   0.052   0.553  0.00  0.00    -0.004 A 
ATOM      5  C6  UNL d   1       1.377  -0.198  -0.159  0.00  0.00     0.002 A 
ATOM      6  C7  UNL d   1       1.454  -1.297  -1.015  0.00  0.00     0.002 A 
ENDROOT
BRANCH   1   7
ATOM      7  C1  UNL d   1       0.424  -3.314  -2.130  0.00  0.00     0.055 C 
ATOM      8  C   UNL d   1       0.418  -2.833  -3.574  0.00  0.00     0.019 C 
ENDBRANCH   1   7
TORSDOF 1
ENDMDL
