MODEL 1
REMARK minimizedAffinity -3.81035972
REMARK minimizedRMSD -1
REMARK  1 active torsions:
REMARK  status: ('A' for Active; 'I' for Inactive)
REMARK    1  A    between atoms: C1_2  and  C2_3 
ROOT
ATOM      1  C2  UNL d   1      -0.254   0.921   0.670  0.00  0.00    -0.077 A 
ATOM      2  C3  UNL d   1       0.362   1.638  -0.365  0.00  0.00     0.002 A 
ATOM      3  C4  UNL d   1       0.384   3.034  -0.342  0.00  0.00     0.002 A 
ATOM      4  C5  UNL d   1      -0.205   3.724   0.715  0.00  0.00    -0.004 A 
ATOM      5  C6  UNL d   1      -0.823   3.020   1.748  0.00  0.00     0.002 A 
ATOM      6  C7  UNL d   1      -0.846   1.625   1.726  0.00  0.00     0.002 A 
ENDROOT
BRANCH   1   7
ATOM      7  C1  UNL d   1      -0.235  -0.585   0.672  0.00  0.00     0.055 C 
ATOM      8  C   UNL d   1      -0.087  -1.139  -0.738  0.00  0.00     0.019 C 
ENDBRANCH   1   7
TORSDOF 1
ENDMDL
