MODEL 1
REMARK minimizedAffinity -2.83331847
REMARK minimizedRMSD -1
REMARK  1 active torsions:
REMARK  status: ('A' for Active; 'I' for Inactive)
REMARK    1  A    between atoms: C1_2  and  C2_3 
ROOT
ATOM      1  C2  UNL d   1      -0.648   0.728   0.960  0.00  0.00    -0.077 A 
ATOM      2  C3  UNL d   1       0.003   1.312  -0.136  0.00  0.00     0.002 A 
ATOM      3  C4  UNL d   1       0.559   0.511  -1.135  0.00  0.00     0.002 A 
ATOM      4  C5  UNL d   1       0.466  -0.876  -1.051  0.00  0.00    -0.004 A 
ATOM      5  C6  UNL d   1      -0.178  -1.466   0.036  0.00  0.00     0.002 A 
ATOM      6  C7  UNL d   1      -0.733  -0.668   1.036  0.00  0.00     0.002 A 
ENDROOT
BRANCH   1   7
ATOM      7  C1  UNL d   1      -1.291   1.591   2.014  0.00  0.00     0.055 C 
ATOM      8  C   UNL d   1      -1.003   3.066   1.773  0.00  0.00     0.019 C 
ENDBRANCH   1   7
TORSDOF 1
ENDMDL
