MODEL 1
REMARK minimizedAffinity -0.676448643
REMARK minimizedRMSD -1
REMARK  0 active torsions:
REMARK  status: ('A' for Active; 'I' for Inactive)
ROOT
ATOM      1  C1  DEN d   1      -1.612  -0.710  -0.770  0.00  0.00     0.130 A 
ATOM      2  C2  DEN d   1      -0.661  -0.106   0.158  0.00  0.00    -0.031 A 
ATOM      3  C3  DEN d   1      -0.316   1.237  -0.351  0.00  0.00     0.027 A 
ATOM      4  C4  DEN d   1      -1.162   2.434  -2.473  0.00  0.00     0.027 A 
ATOM      5  C5  DEN d   1      -1.971   2.315  -3.582  0.00  0.00    -0.003 A 
ATOM      6  C6  DEN d   1      -2.685   1.177  -3.847  0.00  0.00     0.001 A 
ATOM      7  C7  DEN d   1      -2.638   0.127  -2.968  0.00  0.00     0.017 A 
ATOM      8  C8  DEN d   1      -1.819   0.236  -1.852  0.00  0.00    -0.094 A 
ATOM      9  C9  DEN d   1      -1.115   1.400  -1.595  0.00  0.00    -0.072 A 
ENDROOT
TORSDOF 0
ENDMDL
