MODEL 1
REMARK minimizedAffinity -6.76282549
REMARK minimizedRMSD -1
REMARK  0 active torsions:
REMARK  status: ('A' for Active; 'I' for Inactive)
ROOT
ATOM      1  C1  DEN d   1      -0.163   0.349   0.260  0.00  0.00     0.130 A 
ATOM      2  C2  DEN d   1       0.749   0.479  -0.874  0.00  0.00    -0.031 A 
ATOM      3  C3  DEN d   1       1.656  -0.687  -0.866  0.00  0.00     0.027 A 
ATOM      4  C4  DEN d   1       1.733  -2.672   0.779  0.00  0.00     0.027 A 
ATOM      5  C5  DEN d   1       1.165  -3.215   1.910  0.00  0.00    -0.003 A 
ATOM      6  C6  DEN d   1       0.146  -2.597   2.584  0.00  0.00     0.001 A 
ATOM      7  C7  DEN d   1      -0.368  -1.420   2.107  0.00  0.00     0.017 A 
ATOM      8  C8  DEN d   1       0.205  -0.862   0.971  0.00  0.00    -0.094 A 
ATOM      9  C9  DEN d   1       1.226  -1.509   0.297  0.00  0.00    -0.072 A 
ENDROOT
TORSDOF 0
ENDMDL
