MODEL 1
REMARK minimizedAffinity -5.38240194
REMARK minimizedRMSD -1
REMARK  0 active torsions:
REMARK  status: ('A' for Active; 'I' for Inactive)
ROOT
ATOM      1  C1  DEN d   1      -0.561   0.333   0.694  0.00  0.00     0.130 A 
ATOM      2  C2  DEN d   1       0.081   0.726  -0.557  0.00  0.00    -0.031 A 
ATOM      3  C3  DEN d   1       1.130  -0.267  -0.864  0.00  0.00     0.027 A 
ATOM      4  C4  DEN d   1       1.815  -2.367   0.466  0.00  0.00     0.027 A 
ATOM      5  C5  DEN d   1       1.565  -3.109   1.599  0.00  0.00    -0.003 A 
ATOM      6  C6  DEN d   1       0.620  -2.741   2.520  0.00  0.00     0.001 A 
ATOM      7  C7  DEN d   1      -0.141  -1.623   2.300  0.00  0.00     0.017 A 
ATOM      8  C8  DEN d   1       0.110  -0.866   1.164  0.00  0.00    -0.094 A 
ATOM      9  C9  DEN d   1       1.061  -1.262   0.239  0.00  0.00    -0.072 A 
ENDROOT
TORSDOF 0
ENDMDL
