MODEL 1
REMARK minimizedAffinity -4.56977034
REMARK minimizedRMSD -1
REMARK  0 active torsions:
REMARK  status: ('A' for Active; 'I' for Inactive)
ROOT
ATOM      1  C1  DEN d   1      -0.319  -0.792  -0.696  0.00  0.00     0.130 A 
ATOM      2  C2  DEN d   1       0.028   0.126   0.385  0.00  0.00    -0.031 A 
ATOM      3  C3  DEN d   1      -0.556   1.445   0.070  0.00  0.00     0.027 A 
ATOM      4  C4  DEN d   1      -1.960   2.151  -1.976  0.00  0.00     0.027 A 
ATOM      5  C5  DEN d   1      -2.505   1.721  -3.165  0.00  0.00    -0.003 A 
ATOM      6  C6  DEN d   1      -2.332   0.443  -3.628  0.00  0.00     0.001 A 
ATOM      7  C7  DEN d   1      -1.634  -0.463  -2.874  0.00  0.00     0.017 A 
ATOM      8  C8  DEN d   1      -1.075  -0.035  -1.677  0.00  0.00    -0.094 A 
ATOM      9  C9  DEN d   1      -1.271   1.257  -1.221  0.00  0.00    -0.072 A 
ENDROOT
TORSDOF 0
ENDMDL
