MODEL 1
REMARK minimizedAffinity -5.66662979
REMARK minimizedRMSD -1
REMARK  0 active torsions:
REMARK  status: ('A' for Active; 'I' for Inactive)
ROOT
ATOM      1  C1  DEN d   1      -0.582   0.390   0.125  0.00  0.00     0.130 A 
ATOM      2  C2  DEN d   1       0.333   0.654  -0.983  0.00  0.00    -0.031 A 
ATOM      3  C3  DEN d   1       1.444  -0.315  -0.900  0.00  0.00     0.027 A 
ATOM      4  C4  DEN d   1       1.832  -2.192   0.825  0.00  0.00     0.027 A 
ATOM      5  C5  DEN d   1       1.334  -2.797   1.958  0.00  0.00    -0.003 A 
ATOM      6  C6  DEN d   1       0.190  -2.363   2.574  0.00  0.00     0.001 A 
ATOM      7  C7  DEN d   1      -0.519  -1.323   2.034  0.00  0.00     0.017 A 
ATOM      8  C8  DEN d   1      -0.019  -0.704   0.896  0.00  0.00    -0.094 A 
ATOM      9  C9  DEN d   1       1.133  -1.165   0.281  0.00  0.00    -0.072 A 
ENDROOT
TORSDOF 0
ENDMDL
