MODEL 1
REMARK minimizedAffinity -6.2695713
REMARK minimizedRMSD -1
REMARK  0 active torsions:
REMARK  status: ('A' for Active; 'I' for Inactive)
ROOT
ATOM      1  C1  DEN d   1      -0.519   0.462   0.262  0.00  0.00     0.130 A 
ATOM      2  C2  DEN d   1       0.508   0.941  -0.658  0.00  0.00    -0.031 A 
ATOM      3  C3  DEN d   1       1.675   0.042  -0.549  0.00  0.00     0.027 A 
ATOM      4  C4  DEN d   1       1.986  -2.037   0.944  0.00  0.00     0.027 A 
ATOM      5  C5  DEN d   1       1.395  -2.830   1.903  0.00  0.00    -0.003 A 
ATOM      6  C6  DEN d   1       0.147  -2.563   2.402  0.00  0.00     0.001 A 
ATOM      7  C7  DEN d   1      -0.568  -1.503   1.912  0.00  0.00     0.017 A 
ATOM      8  C8  DEN d   1       0.025  -0.695   0.951  0.00  0.00    -0.094 A 
ATOM      9  C9  DEN d   1       1.282  -0.988   0.450  0.00  0.00    -0.072 A 
ENDROOT
TORSDOF 0
ENDMDL
