MODEL 1
REMARK minimizedAffinity -2.89954281
REMARK minimizedRMSD -1
REMARK  0 active torsions:
REMARK  status: ('A' for Active; 'I' for Inactive)
ROOT
ATOM      1  C1  DEN d   1      -0.418   0.242   0.850  0.00  0.00     0.130 A 
ATOM      2  C2  DEN d   1       0.430   1.136   0.066  0.00  0.00    -0.031 A 
ATOM      3  C3  DEN d   1       1.729   0.465  -0.145  0.00  0.00     0.027 A 
ATOM      4  C4  DEN d   1       2.502  -1.861   0.659  0.00  0.00     0.027 A 
ATOM      5  C5  DEN d   1       2.134  -2.983   1.368  0.00  0.00    -0.003 A 
ATOM      6  C6  DEN d   1       0.913  -3.094   1.978  0.00  0.00     0.001 A 
ATOM      7  C7  DEN d   1      -0.003  -2.083   1.852  0.00  0.00     0.017 A 
ATOM      8  C8  DEN d   1       0.363  -0.945   1.145  0.00  0.00    -0.094 A 
ATOM      9  C9  DEN d   1       1.598  -0.858   0.525  0.00  0.00    -0.072 A 
ENDROOT
TORSDOF 0
ENDMDL
