MODEL 1
REMARK minimizedAffinity -6.28048134
REMARK minimizedRMSD -1
REMARK  0 active torsions:
REMARK  status: ('A' for Active; 'I' for Inactive)
ROOT
ATOM      1  C1  DEN d   1      -0.706   0.321   0.184  0.00  0.00     0.130 A 
ATOM      2  C2  DEN d   1       0.371   0.904  -0.612  0.00  0.00    -0.031 A 
ATOM      3  C3  DEN d   1       1.557   0.033  -0.483  0.00  0.00     0.027 A 
ATOM      4  C4  DEN d   1       1.826  -2.153   0.859  0.00  0.00     0.027 A 
ATOM      5  C5  DEN d   1       1.191  -3.038   1.702  0.00  0.00    -0.003 A 
ATOM      6  C6  DEN d   1      -0.099  -2.849   2.122  0.00  0.00     0.001 A 
ATOM      7  C7  DEN d   1      -0.811  -1.773   1.663  0.00  0.00     0.017 A 
ATOM      8  C8  DEN d   1      -0.175  -0.872   0.819  0.00  0.00    -0.094 A 
ATOM      9  C9  DEN d   1       1.126  -1.087   0.397  0.00  0.00    -0.072 A 
ENDROOT
TORSDOF 0
ENDMDL
