MODEL 1
REMARK minimizedAffinity -5.62686396
REMARK minimizedRMSD -1
REMARK  0 active torsions:
REMARK  status: ('A' for Active; 'I' for Inactive)
ROOT
ATOM      1  C1  DEN d   1       0.664  -2.545   2.238  0.00  0.00     0.130 A 
ATOM      2  C2  DEN d   1       1.901  -2.972   1.590  0.00  0.00    -0.031 A 
ATOM      3  C3  DEN d   1       2.156  -2.066   0.452  0.00  0.00     0.027 A 
ATOM      4  C4  DEN d   1       0.765  -0.052  -0.361  0.00  0.00     0.027 A 
ATOM      5  C5  DEN d   1      -0.373   0.691  -0.136  0.00  0.00    -0.003 A 
ATOM      6  C6  DEN d   1      -1.256   0.389   0.866  0.00  0.00     0.001 A 
ATOM      7  C7  DEN d   1      -0.991  -0.657   1.711  0.00  0.00     0.017 A 
ATOM      8  C8  DEN d   1       0.151  -1.415   1.486  0.00  0.00    -0.094 A 
ATOM      9  C9  DEN d   1       1.037  -1.086   0.474  0.00  0.00    -0.072 A 
ENDROOT
TORSDOF 0
ENDMDL
