MODEL 1
REMARK minimizedAffinity -3.41434956
REMARK minimizedRMSD -1
REMARK  0 active torsions:
REMARK  status: ('A' for Active; 'I' for Inactive)
ROOT
ATOM      1  C1  DEN d   1      -0.380   1.399  -0.210  0.00  0.00     0.130 A 
ATOM      2  C2  DEN d   1      -0.213   0.011   0.209  0.00  0.00    -0.031 A 
ATOM      3  C3  DEN d   1      -0.857  -0.852  -0.801  0.00  0.00     0.027 A 
ATOM      4  C4  DEN d   1      -2.088  -0.177  -2.965  0.00  0.00     0.027 A 
ATOM      5  C5  DEN d   1      -2.496   0.887  -3.739  0.00  0.00    -0.003 A 
ATOM      6  C6  DEN d   1      -2.260   2.186  -3.377  0.00  0.00     0.001 A 
ATOM      7  C7  DEN d   1      -1.556   2.455  -2.232  0.00  0.00     0.017 A 
ATOM      8  C8  DEN d   1      -1.148   1.388  -1.443  0.00  0.00    -0.094 A 
ATOM      9  C9  DEN d   1      -1.387   0.081  -1.832  0.00  0.00    -0.072 A 
ENDROOT
TORSDOF 0
ENDMDL
