MODEL 1
REMARK minimizedAffinity -0.616443694
REMARK minimizedRMSD -1
REMARK  2 active torsions:
REMARK  status: ('A' for Active; 'I' for Inactive)
REMARK    1  A    between atoms: C1_2  and  C2_3 
REMARK    2  A    between atoms: C2_3  and  C3_4 
ROOT
ATOM      1  C3  UNL d   1       0.966   2.098  -0.439  0.00  0.00    -0.075 A 
ATOM      2  C4  UNL d   1       0.563   0.945   0.251  0.00  0.00     0.002 A 
ATOM      3  C5  UNL d   1       1.059  -0.307  -0.112  0.00  0.00     0.002 A 
ATOM      4  C6  UNL d   1       1.954  -0.425  -1.173  0.00  0.00    -0.004 A 
ATOM      5  C7  UNL d   1       2.349   0.712  -1.876  0.00  0.00     0.002 A 
ATOM      6  C8  UNL d   1       1.857   1.967  -1.512  0.00  0.00     0.002 A 
ENDROOT
BRANCH   1   7
ATOM      7  C2  UNL d   1       0.456   3.460  -0.032  0.00  0.00     0.056 C 
BRANCH   7   8
ATOM      8  C1  UNL d   1       1.520   4.361   0.601  0.00  0.00     0.007 C 
ATOM      9  C   UNL d   1       1.391   4.471   2.115  0.00  0.00     0.009 C 
ENDBRANCH   7   8
ENDBRANCH   1   7
TORSDOF 2
ENDMDL
