MODEL 1
REMARK minimizedAffinity -4.71985006
REMARK minimizedRMSD -1
REMARK  2 active torsions:
REMARK  status: ('A' for Active; 'I' for Inactive)
REMARK    1  A    between atoms: C1_2  and  C2_3 
REMARK    2  A    between atoms: C2_3  and  C3_4 
ROOT
ATOM      1  C3  UNL d   1       0.793   1.638  -0.483  0.00  0.00    -0.075 A 
ATOM      2  C4  UNL d   1       1.235   2.550  -1.453  0.00  0.00     0.002 A 
ATOM      3  C5  UNL d   1       1.397   3.899  -1.135  0.00  0.00     0.002 A 
ATOM      4  C6  UNL d   1       1.108   4.355   0.150  0.00  0.00    -0.004 A 
ATOM      5  C7  UNL d   1       0.652   3.461   1.116  0.00  0.00     0.002 A 
ATOM      6  C8  UNL d   1       0.494   2.110   0.802  0.00  0.00     0.002 A 
ENDROOT
BRANCH   1   7
ATOM      7  C2  UNL d   1       0.645   0.172  -0.813  0.00  0.00     0.056 C 
BRANCH   7   8
ATOM      8  C1  UNL d   1       1.924  -0.479  -1.347  0.00  0.00     0.007 C 
ATOM      9  C   UNL d   1       2.221  -1.831  -0.710  0.00  0.00     0.009 C 
ENDBRANCH   7   8
ENDBRANCH   1   7
TORSDOF 2
ENDMDL
