MODEL 1
REMARK minimizedAffinity 0.28830573
REMARK minimizedRMSD -1
REMARK  2 active torsions:
REMARK  status: ('A' for Active; 'I' for Inactive)
REMARK    1  A    between atoms: C1_2  and  C2_3 
REMARK    2  A    between atoms: C2_3  and  C3_4 
ROOT
ATOM      1  C3  UNL d   1       1.152   2.300  -1.055  0.00  0.00    -0.075 A 
ATOM      2  C4  UNL d   1       1.551   2.033   0.263  0.00  0.00     0.002 A 
ATOM      3  C5  UNL d   1       1.626   0.719   0.728  0.00  0.00     0.002 A 
ATOM      4  C6  UNL d   1       1.293  -0.340  -0.114  0.00  0.00    -0.004 A 
ATOM      5  C7  UNL d   1       0.880  -0.085  -1.419  0.00  0.00     0.002 A 
ATOM      6  C8  UNL d   1       0.808   1.228  -1.888  0.00  0.00     0.002 A 
ENDROOT
BRANCH   1   7
ATOM      7  C2  UNL d   1       1.098   3.718  -1.573  0.00  0.00     0.056 C 
BRANCH   7   8
ATOM      8  C1  UNL d   1       1.439   4.779  -0.522  0.00  0.00     0.007 C 
ATOM      9  C   UNL d   1       2.140   5.998  -1.106  0.00  0.00     0.009 C 
ENDBRANCH   7   8
ENDBRANCH   1   7
TORSDOF 2
ENDMDL
