MODEL 1
REMARK minimizedAffinity -2.32130384
REMARK minimizedRMSD -1
REMARK  2 active torsions:
REMARK  status: ('A' for Active; 'I' for Inactive)
REMARK    1  A    between atoms: C1_2  and  C2_3 
REMARK    2  A    between atoms: C2_3  and  C3_4 
ROOT
ATOM      1  C3  UNL d   1       1.228   2.262  -0.932  0.00  0.00    -0.075 A 
ATOM      2  C4  UNL d   1       2.039   1.983   0.178  0.00  0.00     0.002 A 
ATOM      3  C5  UNL d   1       2.042   0.712   0.752  0.00  0.00     0.002 A 
ATOM      4  C6  UNL d   1       1.228  -0.292   0.232  0.00  0.00    -0.004 A 
ATOM      5  C7  UNL d   1       0.406  -0.022  -0.860  0.00  0.00     0.002 A 
ATOM      6  C8  UNL d   1       0.405   1.248  -1.439  0.00  0.00     0.002 A 
ENDROOT
BRANCH   1   7
ATOM      7  C2  UNL d   1       1.242   3.628  -1.576  0.00  0.00     0.056 C 
BRANCH   7   8
ATOM      8  C1  UNL d   1       1.525   4.775  -0.599  0.00  0.00     0.007 C 
ATOM      9  C   UNL d   1       2.557   5.766  -1.120  0.00  0.00     0.009 C 
ENDBRANCH   7   8
ENDBRANCH   1   7
TORSDOF 2
ENDMDL
