MODEL 1
REMARK minimizedAffinity -2.48848557
REMARK minimizedRMSD -1
REMARK  2 active torsions:
REMARK  status: ('A' for Active; 'I' for Inactive)
REMARK    1  A    between atoms: C1_2  and  C2_3 
REMARK    2  A    between atoms: C2_3  and  C3_4 
ROOT
ATOM      1  C3  UNL d   1       1.138   2.168  -0.299  0.00  0.00    -0.075 A 
ATOM      2  C4  UNL d   1       1.135   1.082   0.588  0.00  0.00     0.002 A 
ATOM      3  C5  UNL d   1       1.152  -0.227   0.105  0.00  0.00     0.002 A 
ATOM      4  C6  UNL d   1       1.162  -0.466  -1.268  0.00  0.00    -0.004 A 
ATOM      5  C7  UNL d   1       1.149   0.605  -2.158  0.00  0.00     0.002 A 
ATOM      6  C8  UNL d   1       1.136   1.916  -1.678  0.00  0.00     0.002 A 
ENDROOT
BRANCH   1   7
ATOM      7  C2  UNL d   1       1.150   3.587   0.217  0.00  0.00     0.056 C 
BRANCH   7   8
ATOM      8  C1  UNL d   1       1.484   4.636  -0.849  0.00  0.00     0.007 C 
ATOM      9  C   UNL d   1       1.827   5.999  -0.263  0.00  0.00     0.009 C 
ENDBRANCH   7   8
ENDBRANCH   1   7
TORSDOF 2
ENDMDL
