MODEL 1
REMARK minimizedAffinity -0.455338031
REMARK minimizedRMSD -1
REMARK  2 active torsions:
REMARK  status: ('A' for Active; 'I' for Inactive)
REMARK    1  A    between atoms: C1_2  and  C2_3 
REMARK    2  A    between atoms: C2_3  and  C3_4 
ROOT
ATOM      1  C3  UNL d   1       1.568   2.290  -1.304  0.00  0.00    -0.075 A 
ATOM      2  C4  UNL d   1       1.204   1.120  -1.986  0.00  0.00     0.002 A 
ATOM      3  C5  UNL d   1       0.893  -0.043  -1.281  0.00  0.00     0.002 A 
ATOM      4  C6  UNL d   1       0.952  -0.055   0.111  0.00  0.00    -0.004 A 
ATOM      5  C7  UNL d   1       1.328   1.097   0.798  0.00  0.00     0.002 A 
ATOM      6  C8  UNL d   1       1.635   2.264   0.096  0.00  0.00     0.002 A 
ENDROOT
BRANCH   1   7
ATOM      7  C2  UNL d   1       1.877   3.561  -2.059  0.00  0.00     0.056 C 
BRANCH   7   8
ATOM      8  C1  UNL d   1       1.866   4.822  -1.189  0.00  0.00     0.007 C 
ATOM      9  C   UNL d   1       2.593   5.998  -1.827  0.00  0.00     0.009 C 
ENDBRANCH   7   8
ENDBRANCH   1   7
TORSDOF 2
ENDMDL
