MODEL 1
REMARK minimizedAffinity 5.8272953
REMARK minimizedRMSD -1
REMARK  2 active torsions:
REMARK  status: ('A' for Active; 'I' for Inactive)
REMARK    1  A    between atoms: C1_2  and  C2_3 
REMARK    2  A    between atoms: C2_3  and  C3_4 
ROOT
ATOM      1  C3  UNL d   1       0.929   3.001  -1.257  0.00  0.00    -0.075 A 
ATOM      2  C4  UNL d   1       1.043   2.028  -2.260  0.00  0.00     0.002 A 
ATOM      3  C5  UNL d   1       1.311   0.699  -1.932  0.00  0.00     0.002 A 
ATOM      4  C6  UNL d   1       1.479   0.328  -0.599  0.00  0.00    -0.004 A 
ATOM      5  C7  UNL d   1       1.385   1.289   0.405  0.00  0.00     0.002 A 
ATOM      6  C8  UNL d   1       1.112   2.619   0.079  0.00  0.00     0.002 A 
ENDROOT
BRANCH   1   7
ATOM      7  C2  UNL d   1       0.610   4.435  -1.604  0.00  0.00     0.056 C 
BRANCH   7   8
ATOM      8  C1  UNL d   1       1.330   5.464  -0.726  0.00  0.00     0.007 C 
ATOM      9  C   UNL d   1       2.610   5.999  -1.354  0.00  0.00     0.009 C 
ENDBRANCH   7   8
ENDBRANCH   1   7
TORSDOF 2
ENDMDL
