MODEL 1
REMARK minimizedAffinity 4.17820644
REMARK minimizedRMSD -1
REMARK  2 active torsions:
REMARK  status: ('A' for Active; 'I' for Inactive)
REMARK    1  A    between atoms: C1_2  and  C2_3 
REMARK    2  A    between atoms: C2_3  and  C3_4 
ROOT
ATOM      1  C3  UNL d   1       1.278   1.930  -1.192  0.00  0.00    -0.075 A 
ATOM      2  C4  UNL d   1       1.827   1.763   0.088  0.00  0.00     0.002 A 
ATOM      3  C5  UNL d   1       1.899   0.497   0.669  0.00  0.00     0.002 A 
ATOM      4  C6  UNL d   1       1.416  -0.616  -0.017  0.00  0.00    -0.004 A 
ATOM      5  C7  UNL d   1       0.854  -0.460  -1.282  0.00  0.00     0.002 A 
ATOM      6  C8  UNL d   1       0.784   0.805  -1.867  0.00  0.00     0.002 A 
ENDROOT
BRANCH   1   7
ATOM      7  C2  UNL d   1       1.224   3.293  -1.838  0.00  0.00     0.056 C 
BRANCH   7   8
ATOM      8  C1  UNL d   1       2.383   4.216  -1.446  0.00  0.00     0.007 C 
ATOM      9  C   UNL d   1       1.922   5.571  -0.926  0.00  0.00     0.009 C 
ENDBRANCH   7   8
ENDBRANCH   1   7
TORSDOF 2
ENDMDL
