MODEL 1
REMARK minimizedAffinity -2.70851254
REMARK minimizedRMSD -1
REMARK  2 active torsions:
REMARK  status: ('A' for Active; 'I' for Inactive)
REMARK    1  A    between atoms: C1_2  and  C2_3 
REMARK    2  A    between atoms: C2_3  and  C3_4 
ROOT
ATOM      1  C3  UNL d   1       1.238   2.340  -1.154  0.00  0.00    -0.075 A 
ATOM      2  C4  UNL d   1       1.109   2.320   0.242  0.00  0.00     0.002 A 
ATOM      3  C5  UNL d   1       0.897   1.117   0.916  0.00  0.00     0.002 A 
ATOM      4  C6  UNL d   1       0.802  -0.077   0.204  0.00  0.00    -0.004 A 
ATOM      5  C7  UNL d   1       0.913  -0.066  -1.184  0.00  0.00     0.002 A 
ATOM      6  C8  UNL d   1       1.129   1.135  -1.861  0.00  0.00     0.002 A 
ENDROOT
BRANCH   1   7
ATOM      7  C2  UNL d   1       1.497   3.635  -1.887  0.00  0.00     0.056 C 
BRANCH   7   8
ATOM      8  C1  UNL d   1       1.525   4.870  -0.980  0.00  0.00     0.007 C 
ATOM      9  C   UNL d   1       2.386   5.999  -1.531  0.00  0.00     0.009 C 
ENDBRANCH   7   8
ENDBRANCH   1   7
TORSDOF 2
ENDMDL
