MODEL 1
REMARK minimizedAffinity -1.08161724
REMARK minimizedRMSD -1
REMARK  2 active torsions:
REMARK  status: ('A' for Active; 'I' for Inactive)
REMARK    1  A    between atoms: C1_2  and  C2_3 
REMARK    2  A    between atoms: C2_3  and  C3_4 
ROOT
ATOM      1  C3  UNL d   1       1.237   1.259  -0.401  0.00  0.00    -0.075 A 
ATOM      2  C4  UNL d   1       1.225   1.170  -1.801  0.00  0.00     0.002 A 
ATOM      3  C5  UNL d   1       1.286   2.323  -2.584  0.00  0.00     0.002 A 
ATOM      4  C6  UNL d   1       1.350   3.577  -1.980  0.00  0.00    -0.004 A 
ATOM      5  C7  UNL d   1       1.346   3.678  -0.591  0.00  0.00     0.002 A 
ATOM      6  C8  UNL d   1       1.289   2.526   0.196  0.00  0.00     0.002 A 
ENDROOT
BRANCH   1   7
ATOM      7  C2  UNL d   1       1.200   0.014   0.453  0.00  0.00     0.056 C 
BRANCH   7   8
ATOM      8  C1  UNL d   1       2.532  -0.742   0.511  0.00  0.00     0.007 C 
ATOM      9  C   UNL d   1       3.680   0.105   1.044  0.00  0.00     0.009 C 
ENDBRANCH   7   8
ENDBRANCH   1   7
TORSDOF 2
ENDMDL
