MODEL 1
REMARK minimizedAffinity 4.9424777
REMARK minimizedRMSD -1
REMARK  2 active torsions:
REMARK  status: ('A' for Active; 'I' for Inactive)
REMARK    1  A    between atoms: C1_2  and  C2_3 
REMARK    2  A    between atoms: C2_3  and  C3_4 
ROOT
ATOM      1  C3  UNL d   1       1.707   3.380  -1.895  0.00  0.00    -0.075 A 
ATOM      2  C4  UNL d   1       2.314   2.116  -1.895  0.00  0.00     0.002 A 
ATOM      3  C5  UNL d   1       1.537   0.958  -1.949  0.00  0.00     0.002 A 
ATOM      4  C6  UNL d   1       0.148   1.049  -1.991  0.00  0.00    -0.004 A 
ATOM      5  C7  UNL d   1      -0.466   2.299  -1.975  0.00  0.00     0.002 A 
ATOM      6  C8  UNL d   1       0.309   3.460  -1.926  0.00  0.00     0.002 A 
ENDROOT
BRANCH   1   7
ATOM      7  C2  UNL d   1       2.543   4.638  -1.867  0.00  0.00     0.056 C 
BRANCH   7   8
ATOM      8  C1  UNL d   1       1.842   5.838  -1.221  0.00  0.00     0.007 C 
ATOM      9  C   UNL d   1       2.151   5.986   0.263  0.00  0.00     0.009 C 
ENDBRANCH   7   8
ENDBRANCH   1   7
TORSDOF 2
ENDMDL
