MODEL 1
REMARK minimizedAffinity 1.46132195
REMARK minimizedRMSD -1
REMARK  2 active torsions:
REMARK  status: ('A' for Active; 'I' for Inactive)
REMARK    1  A    between atoms: C1_2  and  C2_3 
REMARK    2  A    between atoms: C2_3  and  C3_4 
ROOT
ATOM      1  C3  UNL d   1       1.059  -0.516  -0.885  0.00  0.00    -0.075 A 
ATOM      2  C4  UNL d   1       1.674  -0.372   0.367  0.00  0.00     0.002 A 
ATOM      3  C5  UNL d   1       1.670   0.861   1.020  0.00  0.00     0.002 A 
ATOM      4  C6  UNL d   1       1.060   1.965   0.428  0.00  0.00    -0.004 A 
ATOM      5  C7  UNL d   1       0.460   1.837  -0.823  0.00  0.00     0.002 A 
ATOM      6  C8  UNL d   1       0.460   0.603  -1.477  0.00  0.00     0.002 A 
ENDROOT
BRANCH   1   7
ATOM      7  C2  UNL d   1       1.035  -1.855  -1.584  0.00  0.00     0.056 C 
BRANCH   7   8
ATOM      8  C1  UNL d   1       0.522  -3.005  -0.712  0.00  0.00     0.007 C 
ATOM      9  C   UNL d   1      -0.539  -3.853  -1.400  0.00  0.00     0.009 C 
ENDBRANCH   7   8
ENDBRANCH   1   7
TORSDOF 2
ENDMDL
