MODEL 1
REMARK minimizedAffinity -0.942998409
REMARK minimizedRMSD -1
REMARK  2 active torsions:
REMARK  status: ('A' for Active; 'I' for Inactive)
REMARK    1  A    between atoms: C1_2  and  C2_3 
REMARK    2  A    between atoms: C2_3  and  C3_4 
ROOT
ATOM      1  C3  UNL d   1       1.668   2.550  -0.772  0.00  0.00    -0.075 A 
ATOM      2  C4  UNL d   1       1.952   3.670  -1.567  0.00  0.00     0.002 A 
ATOM      3  C5  UNL d   1       2.004   4.945  -1.003  0.00  0.00     0.002 A 
ATOM      4  C6  UNL d   1       1.763   5.118   0.358  0.00  0.00    -0.004 A 
ATOM      5  C7  UNL d   1       1.464   4.015   1.154  0.00  0.00     0.002 A 
ATOM      6  C8  UNL d   1       1.415   2.738   0.594  0.00  0.00     0.002 A 
ENDROOT
BRANCH   1   7
ATOM      7  C2  UNL d   1       1.639   1.164  -1.370  0.00  0.00     0.056 C 
BRANCH   7   8
ATOM      8  C1  UNL d   1       2.177   0.072  -0.440  0.00  0.00     0.007 C 
ATOM      9  C   UNL d   1       3.558   0.387   0.121  0.00  0.00     0.009 C 
ENDBRANCH   7   8
ENDBRANCH   1   7
TORSDOF 2
ENDMDL
