MODEL 1
REMARK minimizedAffinity -2.71871638
REMARK minimizedRMSD -1
REMARK  2 active torsions:
REMARK  status: ('A' for Active; 'I' for Inactive)
REMARK    1  A    between atoms: C1_2  and  C2_3 
REMARK    2  A    between atoms: C2_3  and  C3_4 
ROOT
ATOM      1  C3  UNL d   1       1.363   2.396  -0.985  0.00  0.00    -0.075 A 
ATOM      2  C4  UNL d   1       1.131   2.186   0.382  0.00  0.00     0.002 A 
ATOM      3  C5  UNL d   1       1.210   0.904   0.925  0.00  0.00     0.002 A 
ATOM      4  C6  UNL d   1       1.510  -0.184   0.109  0.00  0.00    -0.004 A 
ATOM      5  C7  UNL d   1       1.726   0.010  -1.254  0.00  0.00     0.002 A 
ATOM      6  C8  UNL d   1       1.653   1.293  -1.799  0.00  0.00     0.002 A 
ENDROOT
BRANCH   1   7
ATOM      7  C2  UNL d   1       1.309   3.786  -1.573  0.00  0.00     0.056 C 
BRANCH   7   8
ATOM      8  C1  UNL d   1       1.563   4.904  -0.557  0.00  0.00     0.007 C 
ATOM      9  C   UNL d   1       2.479   6.000  -1.086  0.00  0.00     0.009 C 
ENDBRANCH   7   8
ENDBRANCH   1   7
TORSDOF 2
ENDMDL
