MODEL 1
REMARK minimizedAffinity -1.38524806
REMARK minimizedRMSD -1
REMARK  0 active torsions:
REMARK  status: ('A' for Active; 'I' for Inactive)
ROOT
ATOM      1  C   UNL d   1      -0.604   1.295  -0.214  0.00  0.00     0.020 A 
ATOM      2  C1  UNL d   1       0.623   1.524  -0.835  0.00  0.00     0.020 A 
ATOM      3  C2  UNL d   1       1.613   0.540  -0.810  0.00  0.00     0.034 A 
ATOM      4  C3  UNL d   1       1.377  -0.679  -0.163  0.00  0.00     0.017 A 
ATOM      5  C4  UNL d   1       0.145  -0.908   0.461  0.00  0.00     0.017 A 
ATOM      6  C5  UNL d   1      -0.842   0.082   0.432  0.00  0.00     0.034 A 
ATOM      7 Cl   UNL d   1      -0.219  -2.386   1.279  0.00  0.00    -0.070 Cl
ATOM      8 Cl1  UNL d   1       2.646  -1.851  -0.171  0.00  0.00    -0.070 Cl
ENDROOT
TORSDOF 0
ENDMDL
