MODEL 1
REMARK minimizedAffinity -5.21657848
REMARK minimizedRMSD -1
REMARK  0 active torsions:
REMARK  status: ('A' for Active; 'I' for Inactive)
ROOT
ATOM      1  C   UNL d   1      -2.846  -0.966   1.989  0.00  0.00     0.020 A 
ATOM      2  C1  UNL d   1      -2.239  -2.211   1.830  0.00  0.00     0.020 A 
ATOM      3  C2  UNL d   1      -0.991  -2.305   1.211  0.00  0.00     0.034 A 
ATOM      4  C3  UNL d   1      -0.346  -1.152   0.748  0.00  0.00     0.017 A 
ATOM      5  C4  UNL d   1      -0.957   0.097   0.908  0.00  0.00     0.017 A 
ATOM      6  C5  UNL d   1      -2.206   0.185   1.529  0.00  0.00     0.034 A 
ATOM      7 Cl   UNL d   1      -0.223   1.564   0.362  0.00  0.00    -0.070 Cl
ATOM      8 Cl1  UNL d   1       1.195  -1.343  -0.009  0.00  0.00    -0.070 Cl
ENDROOT
TORSDOF 0
ENDMDL
