MODEL 1
REMARK minimizedAffinity -2.96267891
REMARK minimizedRMSD -1
REMARK  0 active torsions:
REMARK  status: ('A' for Active; 'I' for Inactive)
ROOT
ATOM      1  C   UNL d   1       1.019   1.212  -0.303  0.00  0.00     0.020 A 
ATOM      2  C1  UNL d   1       1.703  -0.003  -0.305  0.00  0.00     0.020 A 
ATOM      3  C2  UNL d   1       1.114  -1.136   0.260  0.00  0.00     0.034 A 
ATOM      4  C3  UNL d   1      -0.162  -1.057   0.829  0.00  0.00     0.017 A 
ATOM      5  C4  UNL d   1      -0.847   0.164   0.831  0.00  0.00     0.017 A 
ATOM      6  C5  UNL d   1      -0.253   1.295   0.264  0.00  0.00     0.034 A 
ATOM      7 Cl   UNL d   1      -2.425   0.340   1.515  0.00  0.00    -0.070 Cl
ATOM      8 Cl1  UNL d   1      -0.829  -2.498   1.510  0.00  0.00    -0.070 Cl
ENDROOT
TORSDOF 0
ENDMDL
