MODEL 1
REMARK minimizedAffinity -5.30554295
REMARK minimizedRMSD -1
REMARK  0 active torsions:
REMARK  status: ('A' for Active; 'I' for Inactive)
ROOT
ATOM      1  C   UNL d   1      -2.231  -2.791   1.420  0.00  0.00     0.020 A 
ATOM      2  C1  UNL d   1      -2.821  -1.529   1.384  0.00  0.00     0.020 A 
ATOM      3  C2  UNL d   1      -2.089  -0.428   0.935  0.00  0.00     0.034 A 
ATOM      4  C3  UNL d   1      -0.761  -0.587   0.521  0.00  0.00     0.017 A 
ATOM      5  C4  UNL d   1      -0.169  -1.855   0.558  0.00  0.00     0.017 A 
ATOM      6  C5  UNL d   1      -0.907  -2.954   1.008  0.00  0.00     0.034 A 
ATOM      7 Cl   UNL d   1       1.464  -2.130   0.063  0.00  0.00    -0.070 Cl
ATOM      8 Cl1  UNL d   1       0.085   0.817  -0.023  0.00  0.00    -0.070 Cl
ENDROOT
TORSDOF 0
ENDMDL
