MODEL 1
REMARK minimizedAffinity -3.47974324
REMARK minimizedRMSD -1
REMARK  0 active torsions:
REMARK  status: ('A' for Active; 'I' for Inactive)
ROOT
ATOM      1  C   UNL d   1       1.205   0.185  -0.097  0.00  0.00     0.020 A 
ATOM      2  C1  UNL d   1       1.490  -1.173   0.043  0.00  0.00     0.020 A 
ATOM      3  C2  UNL d   1       0.470  -2.070   0.370  0.00  0.00     0.034 A 
ATOM      4  C3  UNL d   1      -0.839  -1.610   0.557  0.00  0.00     0.017 A 
ATOM      5  C4  UNL d   1      -1.123  -0.247   0.416  0.00  0.00     0.017 A 
ATOM      6  C5  UNL d   1      -0.098   0.647   0.089  0.00  0.00     0.034 A 
ATOM      7 Cl   UNL d   1      -2.713   0.396   0.631  0.00  0.00    -0.070 Cl
ATOM      8 Cl1  UNL d   1      -2.050  -2.775   0.959  0.00  0.00    -0.070 Cl
ENDROOT
TORSDOF 0
ENDMDL
