MODEL 1
REMARK minimizedAffinity -2.5850935
REMARK minimizedRMSD -1
REMARK  0 active torsions:
REMARK  status: ('A' for Active; 'I' for Inactive)
ROOT
ATOM      1  C   UNL d   1       1.065   0.011   0.371  0.00  0.00     0.020 A 
ATOM      2  C1  UNL d   1       0.401   1.230   0.242  0.00  0.00     0.020 A 
ATOM      3  C2  UNL d   1      -0.987   1.288   0.390  0.00  0.00     0.034 A 
ATOM      4  C3  UNL d   1      -1.714   0.125   0.668  0.00  0.00     0.017 A 
ATOM      5  C4  UNL d   1      -1.046  -1.098   0.797  0.00  0.00     0.017 A 
ATOM      6  C5  UNL d   1       0.343  -1.150   0.648  0.00  0.00     0.034 A 
ATOM      7 Cl   UNL d   1      -1.876  -2.575   1.139  0.00  0.00    -0.070 Cl
ATOM      8 Cl1  UNL d   1      -3.427   0.271   0.839  0.00  0.00    -0.070 Cl
ENDROOT
TORSDOF 0
ENDMDL
