MODEL 1
REMARK minimizedAffinity -2.11296129
REMARK minimizedRMSD -1
REMARK  0 active torsions:
REMARK  status: ('A' for Active; 'I' for Inactive)
ROOT
ATOM      1  C   UNL d   1      -0.569  -2.490   1.200  0.00  0.00     0.020 A 
ATOM      2  C1  UNL d   1      -1.795  -2.547   1.861  0.00  0.00     0.020 A 
ATOM      3  C2  UNL d   1      -2.603  -1.411   1.934  0.00  0.00     0.034 A 
ATOM      4  C3  UNL d   1      -2.187  -0.212   1.344  0.00  0.00     0.017 A 
ATOM      5  C4  UNL d   1      -0.956  -0.155   0.680  0.00  0.00     0.017 A 
ATOM      6  C5  UNL d   1      -0.151  -1.296   0.610  0.00  0.00     0.034 A 
ATOM      7 Cl   UNL d   1      -0.375   1.288  -0.072  0.00  0.00    -0.070 Cl
ATOM      8 Cl1  UNL d   1      -3.237   1.154   1.473  0.00  0.00    -0.070 Cl
ENDROOT
TORSDOF 0
ENDMDL
