MODEL 1
REMARK minimizedAffinity -2.20849895
REMARK minimizedRMSD -1
REMARK  0 active torsions:
REMARK  status: ('A' for Active; 'I' for Inactive)
ROOT
ATOM      1  C   UNL d   1      -0.757  -2.495   1.980  0.00  0.00     0.020 A 
ATOM      2  C1  UNL d   1       0.390  -2.425   1.191  0.00  0.00     0.020 A 
ATOM      3  C2  UNL d   1       0.698  -1.245   0.511  0.00  0.00     0.034 A 
ATOM      4  C3  UNL d   1      -0.142  -0.130   0.618  0.00  0.00     0.017 A 
ATOM      5  C4  UNL d   1      -1.293  -0.202   1.410  0.00  0.00     0.017 A 
ATOM      6  C5  UNL d   1      -1.597  -1.386   2.090  0.00  0.00     0.034 A 
ATOM      7 Cl   UNL d   1      -2.378   1.132   1.591  0.00  0.00    -0.070 Cl
ATOM      8 Cl1  UNL d   1       0.301   1.296  -0.251  0.00  0.00    -0.070 Cl
ENDROOT
TORSDOF 0
ENDMDL
