MODEL 1
REMARK minimizedAffinity -4.49006319
REMARK minimizedRMSD -1
REMARK  0 active torsions:
REMARK  status: ('A' for Active; 'I' for Inactive)
ROOT
ATOM      1  C   UNL d   1      -1.058   1.140   0.557  0.00  0.00     0.020 A 
ATOM      2  C1  UNL d   1       0.330   1.254   0.493  0.00  0.00     0.020 A 
ATOM      3  C2  UNL d   1       1.123   0.105   0.448  0.00  0.00     0.034 A 
ATOM      4  C3  UNL d   1       0.529  -1.162   0.468  0.00  0.00     0.017 A 
ATOM      5  C4  UNL d   1      -0.865  -1.275   0.532  0.00  0.00     0.017 A 
ATOM      6  C5  UNL d   1      -1.654  -0.121   0.577  0.00  0.00     0.034 A 
ATOM      7 Cl   UNL d   1      -1.671  -2.803   0.560  0.00  0.00    -0.070 Cl
ATOM      8 Cl1  UNL d   1       1.571  -2.539   0.410  0.00  0.00    -0.070 Cl
ENDROOT
TORSDOF 0
ENDMDL
