MODEL 1
REMARK minimizedAffinity -1.55656683
REMARK minimizedRMSD -1
REMARK  0 active torsions:
REMARK  status: ('A' for Active; 'I' for Inactive)
ROOT
ATOM      1  C   UNL d   1      -1.648  -3.055   0.307  0.00  0.00     0.020 A 
ATOM      2  C1  UNL d   1      -2.634  -2.098   0.070  0.00  0.00     0.020 A 
ATOM      3  C2  UNL d   1      -2.289  -0.747  -0.013  0.00  0.00     0.034 A 
ATOM      4  C3  UNL d   1      -0.956  -0.350   0.142  0.00  0.00     0.017 A 
ATOM      5  C4  UNL d   1       0.032  -1.312   0.380  0.00  0.00     0.017 A 
ATOM      6  C5  UNL d   1      -0.318  -2.663   0.462  0.00  0.00     0.034 A 
ATOM      7 Cl   UNL d   1       1.699  -0.899   0.582  0.00  0.00    -0.070 Cl
ATOM      8 Cl1  UNL d   1      -0.601   1.337   0.027  0.00  0.00    -0.070 Cl
ENDROOT
TORSDOF 0
ENDMDL
