MODEL 1
REMARK minimizedAffinity -4.82746983
REMARK minimizedRMSD -1
REMARK  0 active torsions:
REMARK  status: ('A' for Active; 'I' for Inactive)
ROOT
ATOM      1  C   UNL d   1      -2.995  -2.023   2.097  0.00  0.00     0.020 A 
ATOM      2  C1  UNL d   1      -1.941  -2.748   1.543  0.00  0.00     0.020 A 
ATOM      3  C2  UNL d   1      -0.928  -2.086   0.847  0.00  0.00     0.034 A 
ATOM      4  C3  UNL d   1      -0.966  -0.694   0.703  0.00  0.00     0.017 A 
ATOM      5  C4  UNL d   1      -2.024   0.033   1.259  0.00  0.00     0.017 A 
ATOM      6  C5  UNL d   1      -3.036  -0.635   1.955  0.00  0.00     0.034 A 
ATOM      7 Cl   UNL d   1      -2.140   1.752   1.123  0.00  0.00    -0.070 Cl
ATOM      8 Cl1  UNL d   1       0.321   0.059  -0.170  0.00  0.00    -0.070 Cl
ENDROOT
TORSDOF 0
ENDMDL
