MODEL 1
REMARK minimizedAffinity -2.87706113
REMARK minimizedRMSD -1
REMARK  0 active torsions:
REMARK  status: ('A' for Active; 'I' for Inactive)
ROOT
ATOM      1  C   UNL d   1      -1.781  -2.645   1.433  0.00  0.00     0.020 A 
ATOM      2  C1  UNL d   1      -2.457  -1.436   1.277  0.00  0.00     0.020 A 
ATOM      3  C2  UNL d   1      -1.811  -0.346   0.690  0.00  0.00     0.034 A 
ATOM      4  C3  UNL d   1      -0.485  -0.462   0.258  0.00  0.00     0.017 A 
ATOM      5  C4  UNL d   1       0.193  -1.677   0.415  0.00  0.00     0.017 A 
ATOM      6  C5  UNL d   1      -0.459  -2.765   1.003  0.00  0.00     0.034 A 
ATOM      7 Cl   UNL d   1       1.830  -1.897  -0.094  0.00  0.00    -0.070 Cl
ATOM      8 Cl1  UNL d   1       0.252   0.926  -0.459  0.00  0.00    -0.070 Cl
ENDROOT
TORSDOF 0
ENDMDL
