MODEL 1
REMARK minimizedAffinity 0.868380547
REMARK minimizedRMSD -1
REMARK  0 active torsions:
REMARK  status: ('A' for Active; 'I' for Inactive)
ROOT
ATOM      1  C   UNL d   1      -0.237  -2.546   1.245  0.00  0.00     0.020 A 
ATOM      2  C1  UNL d   1       0.926  -2.311   0.514  0.00  0.00     0.020 A 
ATOM      3  C2  UNL d   1       1.117  -1.080  -0.118  0.00  0.00     0.034 A 
ATOM      4  C3  UNL d   1       0.143  -0.079  -0.018  0.00  0.00     0.017 A 
ATOM      5  C4  UNL d   1      -1.024  -0.316   0.717  0.00  0.00     0.017 A 
ATOM      6  C5  UNL d   1      -1.210  -1.550   1.347  0.00  0.00     0.034 A 
ATOM      7 Cl   UNL d   1      -2.270   0.870   0.885  0.00  0.00    -0.070 Cl
ATOM      8 Cl1  UNL d   1       0.446   1.419  -0.824  0.00  0.00    -0.070 Cl
ENDROOT
TORSDOF 0
ENDMDL
