MODEL 1
REMARK minimizedAffinity -6.02342939
REMARK minimizedRMSD -1
REMARK  0 active torsions:
REMARK  status: ('A' for Active; 'I' for Inactive)
ROOT
ATOM      1  C   UNL d   1      -2.175  -1.721   0.553  0.00  0.00     0.020 A 
ATOM      2  C1  UNL d   1      -1.314  -2.771   0.872  0.00  0.00     0.020 A 
ATOM      3  C2  UNL d   1       0.067  -2.568   0.864  0.00  0.00     0.034 A 
ATOM      4  C3  UNL d   1       0.593  -1.312   0.538  0.00  0.00     0.017 A 
ATOM      5  C4  UNL d   1      -0.272  -0.259   0.219  0.00  0.00     0.017 A 
ATOM      6  C5  UNL d   1      -1.655  -0.468   0.228  0.00  0.00     0.034 A 
ATOM      7 Cl   UNL d   1       0.302   1.318  -0.194  0.00  0.00    -0.070 Cl
ATOM      8 Cl1  UNL d   1       2.311  -1.133   0.550  0.00  0.00    -0.070 Cl
ENDROOT
TORSDOF 0
ENDMDL
