MODEL 1
REMARK minimizedAffinity -3.15074849
REMARK minimizedRMSD -1
REMARK  0 active torsions:
REMARK  status: ('A' for Active; 'I' for Inactive)
ROOT
ATOM      1  C   UNL d   1       0.917   0.112  -0.238  0.00  0.00     0.020 A 
ATOM      2  C1  UNL d   1       1.201  -1.248  -0.131  0.00  0.00     0.020 A 
ATOM      3  C2  UNL d   1       0.237  -2.125   0.373  0.00  0.00     0.034 A 
ATOM      4  C3  UNL d   1      -1.015  -1.642   0.770  0.00  0.00     0.017 A 
ATOM      5  C4  UNL d   1      -1.299  -0.276   0.661  0.00  0.00     0.017 A 
ATOM      6  C5  UNL d   1      -0.331   0.597   0.157  0.00  0.00     0.034 A 
ATOM      7 Cl   UNL d   1      -2.821   0.394   1.131  0.00  0.00    -0.070 Cl
ATOM      8 Cl1  UNL d   1      -2.158  -2.783   1.383  0.00  0.00    -0.070 Cl
ENDROOT
TORSDOF 0
ENDMDL
