MODEL 1
REMARK minimizedAffinity -4.37257051
REMARK minimizedRMSD -1
REMARK  0 active torsions:
REMARK  status: ('A' for Active; 'I' for Inactive)
ROOT
ATOM      1  C   UNL d   1      -1.323  -2.764   1.271  0.00  0.00     0.020 A 
ATOM      2  C1  UNL d   1      -2.141  -1.956   0.482  0.00  0.00     0.020 A 
ATOM      3  C2  UNL d   1      -1.588  -0.898  -0.242  0.00  0.00     0.034 A 
ATOM      4  C3  UNL d   1      -0.213  -0.644  -0.178  0.00  0.00     0.017 A 
ATOM      5  C4  UNL d   1       0.607  -1.455   0.614  0.00  0.00     0.017 A 
ATOM      6  C5  UNL d   1       0.048  -2.514   1.337  0.00  0.00     0.034 A 
ATOM      7 Cl   UNL d   1       2.312  -1.204   0.743  0.00  0.00    -0.070 Cl
ATOM      8 Cl1  UNL d   1       0.403   0.682  -1.099  0.00  0.00    -0.070 Cl
ENDROOT
TORSDOF 0
ENDMDL
