MODEL 1
REMARK minimizedAffinity -4.42716169
REMARK minimizedRMSD -1
REMARK  0 active torsions:
REMARK  status: ('A' for Active; 'I' for Inactive)
ROOT
ATOM      1  C   UNL d   1      -2.433  -1.645   0.601  0.00  0.00     0.020 A 
ATOM      2  C1  UNL d   1      -1.642  -2.668   1.122  0.00  0.00     0.020 A 
ATOM      3  C2  UNL d   1      -0.250  -2.551   1.107  0.00  0.00     0.034 A 
ATOM      4  C3  UNL d   1       0.354  -1.409   0.570  0.00  0.00     0.017 A 
ATOM      5  C4  UNL d   1      -0.440  -0.383   0.046  0.00  0.00     0.017 A 
ATOM      6  C5  UNL d   1      -1.833  -0.505   0.064  0.00  0.00     0.034 A 
ATOM      7 Cl   UNL d   1       0.233   1.056  -0.634  0.00  0.00    -0.070 Cl
ATOM      8 Cl1  UNL d   1       2.080  -1.331   0.584  0.00  0.00    -0.070 Cl
ENDROOT
TORSDOF 0
ENDMDL
