MODEL 1
REMARK minimizedAffinity -3.42490816
REMARK minimizedRMSD -1
REMARK  3 active torsions:
REMARK  status: ('A' for Active; 'I' for Inactive)
REMARK    1  A    between atoms: C3'_2  and  C2'_3 
REMARK    2  A    between atoms: C2'_3  and  C1'_4 
REMARK    3  A    between atoms: C1'_4  and  C1_5 
ROOT
ATOM      1  C1  N4B d   1       0.936  -2.560   2.439  0.00  0.00    -0.075 A 
ATOM      2  C2  N4B d   1       1.403  -3.892   2.395  0.00  0.00     0.002 A 
ATOM      3  C3  N4B d   1       0.710  -4.885   3.042  0.00  0.00     0.002 A 
ATOM      4  C4  N4B d   1      -0.438  -4.568   3.753  0.00  0.00    -0.004 A 
ATOM      5  C5  N4B d   1      -0.896  -3.284   3.770  0.00  0.00     0.002 A 
ATOM      6  C6  N4B d   1      -0.212  -2.276   3.120  0.00  0.00     0.002 A 
ENDROOT
BRANCH   1   7
ATOM      7  C1' N4B d   1       1.707  -1.427   1.819  0.00  0.00     0.057 C 
BRANCH   7   8
ATOM      8  C2' N4B d   1       0.771  -0.612   0.931  0.00  0.00     0.009 C 
BRANCH   8   9
ATOM      9  C3' N4B d   1       1.165  -0.691  -0.534  0.00  0.00     0.004 C 
ATOM     10  C4' N4B d   1       0.108  -0.150  -1.449  0.00  0.00     0.003 C 
ENDBRANCH   8   9
ENDBRANCH   7   8
ENDBRANCH   1   7
TORSDOF 3
ENDMDL
