MODEL 1
REMARK minimizedAffinity -4.12463665
REMARK minimizedRMSD -1
REMARK  3 active torsions:
REMARK  status: ('A' for Active; 'I' for Inactive)
REMARK    1  A    between atoms: C3'_2  and  C2'_3 
REMARK    2  A    between atoms: C2'_3  and  C1'_4 
REMARK    3  A    between atoms: C1'_4  and  C1_5 
ROOT
ATOM      1  C1  N4B d   1      -1.346  -0.413   0.938  0.00  0.00    -0.075 A 
ATOM      2  C2  N4B d   1      -0.561  -0.240   2.100  0.00  0.00     0.002 A 
ATOM      3  C3  N4B d   1       0.796  -0.059   1.991  0.00  0.00     0.002 A 
ATOM      4  C4  N4B d   1       1.391  -0.066   0.739  0.00  0.00    -0.004 A 
ATOM      5  C5  N4B d   1       0.623  -0.208  -0.380  0.00  0.00     0.002 A 
ATOM      6  C6  N4B d   1      -0.743  -0.387  -0.286  0.00  0.00     0.002 A 
ENDROOT
BRANCH   1   7
ATOM      7  C1' N4B d   1      -2.820  -0.700   1.011  0.00  0.00     0.057 C 
BRANCH   7   8
ATOM      8  C2' N4B d   1      -3.251  -1.434  -0.255  0.00  0.00     0.009 C 
BRANCH   8   9
ATOM      9  C3' N4B d   1      -4.538  -2.214  -0.050  0.00  0.00     0.004 C 
ATOM     10  C4' N4B d   1      -5.663  -1.357   0.450  0.00  0.00     0.003 C 
ENDBRANCH   8   9
ENDBRANCH   7   8
ENDBRANCH   1   7
TORSDOF 3
ENDMDL
