MODEL 1
REMARK minimizedAffinity -1.03822565
REMARK minimizedRMSD -1
REMARK  3 active torsions:
REMARK  status: ('A' for Active; 'I' for Inactive)
REMARK    1  A    between atoms: C3'_2  and  C2'_3 
REMARK    2  A    between atoms: C2'_3  and  C1'_4 
REMARK    3  A    between atoms: C1'_4  and  C1_5 
ROOT
ATOM      1  C1  N4B d   1       0.198  -0.463   0.583  0.00  0.00    -0.075 A 
ATOM      2  C2  N4B d   1      -0.075   0.459   1.618  0.00  0.00     0.002 A 
ATOM      3  C3  N4B d   1       0.160   0.113   2.926  0.00  0.00     0.002 A 
ATOM      4  C4  N4B d   1       0.646  -1.151   3.224  0.00  0.00    -0.004 A 
ATOM      5  C5  N4B d   1       0.930  -2.027   2.217  0.00  0.00     0.002 A 
ATOM      6  C6  N4B d   1       0.703  -1.691   0.898  0.00  0.00     0.002 A 
ENDROOT
BRANCH   1   7
ATOM      7  C1' N4B d   1      -0.123  -0.161  -0.855  0.00  0.00     0.057 C 
BRANCH   7   8
ATOM      8  C2' N4B d   1      -1.481   0.530  -0.931  0.00  0.00     0.009 C 
BRANCH   8   9
ATOM      9  C3' N4B d   1      -1.413   1.834  -1.707  0.00  0.00     0.004 C 
ATOM     10  C4' N4B d   1      -2.764   2.441  -1.944  0.00  0.00     0.003 C 
ENDBRANCH   8   9
ENDBRANCH   7   8
ENDBRANCH   1   7
TORSDOF 3
ENDMDL
