MODEL 1
REMARK minimizedAffinity -4.80033541
REMARK minimizedRMSD -1
REMARK  3 active torsions:
REMARK  status: ('A' for Active; 'I' for Inactive)
REMARK    1  A    between atoms: C3'_2  and  C2'_3 
REMARK    2  A    between atoms: C2'_3  and  C1'_4 
REMARK    3  A    between atoms: C1'_4  and  C1_5 
ROOT
ATOM      1  C1  N4B d   1      -0.812  -0.602   0.935  0.00  0.00    -0.075 A 
ATOM      2  C2  N4B d   1      -0.453  -0.953   2.254  0.00  0.00     0.002 A 
ATOM      3  C3  N4B d   1       0.863  -0.904   2.644  0.00  0.00     0.002 A 
ATOM      4  C4  N4B d   1       1.835  -0.527   1.729  0.00  0.00    -0.004 A 
ATOM      5  C5  N4B d   1       1.477  -0.165   0.464  0.00  0.00     0.002 A 
ATOM      6  C6  N4B d   1       0.158  -0.206   0.060  0.00  0.00     0.002 A 
ENDROOT
BRANCH   1   7
ATOM      7  C1' N4B d   1      -2.227  -0.721   0.438  0.00  0.00     0.057 C 
BRANCH   7   8
ATOM      8  C2' N4B d   1      -2.212  -1.236  -0.998  0.00  0.00     0.009 C 
BRANCH   8   9
ATOM      9  C3' N4B d   1      -3.610  -1.544  -1.506  0.00  0.00     0.004 C 
ATOM     10  C4' N4B d   1      -4.352  -2.501  -0.621  0.00  0.00     0.003 C 
ENDBRANCH   8   9
ENDBRANCH   7   8
ENDBRANCH   1   7
TORSDOF 3
ENDMDL
