MODEL 1
REMARK minimizedAffinity -1.7175492
REMARK minimizedRMSD -1
REMARK  3 active torsions:
REMARK  status: ('A' for Active; 'I' for Inactive)
REMARK    1  A    between atoms: C3'_2  and  C2'_3 
REMARK    2  A    between atoms: C2'_3  and  C1'_4 
REMARK    3  A    between atoms: C1'_4  and  C1_5 
ROOT
ATOM      1  C1  N4B d   1      -0.145  -0.584   1.678  0.00  0.00    -0.075 A 
ATOM      2  C2  N4B d   1       0.906  -0.755   0.750  0.00  0.00     0.002 A 
ATOM      3  C3  N4B d   1       0.730  -0.387  -0.561  0.00  0.00     0.002 A 
ATOM      4  C4  N4B d   1      -0.488   0.134  -0.971  0.00  0.00    -0.004 A 
ATOM      5  C5  N4B d   1      -1.490   0.319  -0.063  0.00  0.00     0.002 A 
ATOM      6  C6  N4B d   1      -1.326  -0.042   1.259  0.00  0.00     0.002 A 
ENDROOT
BRANCH   1   7
ATOM      7  C1' N4B d   1      -0.030  -1.050   3.104  0.00  0.00     0.057 C 
BRANCH   7   8
ATOM      8  C2' N4B d   1       0.666  -2.408   3.132  0.00  0.00     0.009 C 
BRANCH   8   9
ATOM      9  C3' N4B d   1      -0.286  -3.541   2.788  0.00  0.00     0.004 C 
ATOM     10  C4' N4B d   1      -1.390  -3.696   3.791  0.00  0.00     0.003 C 
ENDBRANCH   8   9
ENDBRANCH   7   8
ENDBRANCH   1   7
TORSDOF 3
ENDMDL
