MODEL 1
REMARK minimizedAffinity -1.45698392
REMARK minimizedRMSD -1
REMARK  0 active torsions:
REMARK  status: ('A' for Active; 'I' for Inactive)
ROOT
ATOM      1  O1  BZF d   1      -4.350   5.971   5.274  0.00  0.00    -0.204 OA
ATOM      2  C2  BZF d   1      -3.015   5.999   5.627  0.00  0.00     0.174 A 
ATOM      3  C3  BZF d   1      -2.230   5.961   4.532  0.00  0.00    -0.012 A 
ATOM      4  C3A BZF d   1      -3.131   5.997   3.421  0.00  0.00    -0.107 A 
ATOM      5  C4  BZF d   1      -2.953   6.000   2.067  0.00  0.00     0.055 A 
ATOM      6  C5  BZF d   1      -4.044   5.966   1.257  0.00  0.00    -0.016 A 
ATOM      7  C6  BZF d   1      -5.325   5.925   1.767  0.00  0.00     0.022 A 
ATOM      8  C7  BZF d   1      -5.552   5.926   3.103  0.00  0.00     0.029 A 
ATOM      9  C7A BZF d   1      -4.453   5.993   3.923  0.00  0.00     0.058 A 
ENDROOT
TORSDOF 0
ENDMDL
