MODEL 1
REMARK minimizedAffinity 5.85089588
REMARK minimizedRMSD -1
REMARK  0 active torsions:
REMARK  status: ('A' for Active; 'I' for Inactive)
ROOT
ATOM      1  O1  BZF d   1      -2.672   2.465   4.382  0.00  0.00    -0.204 OA
ATOM      2  C2  BZF d   1      -2.871   1.529   3.385  0.00  0.00     0.174 A 
ATOM      3  C3  BZF d   1      -3.332   2.118   2.262  0.00  0.00    -0.012 A 
ATOM      4  C3A BZF d   1      -3.339   3.520   2.547  0.00  0.00    -0.107 A 
ATOM      5  C4  BZF d   1      -3.679   4.624   1.820  0.00  0.00     0.055 A 
ATOM      6  C5  BZF d   1      -3.642   5.845   2.416  0.00  0.00    -0.016 A 
ATOM      7  C6  BZF d   1      -3.275   5.997   3.737  0.00  0.00     0.022 A 
ATOM      8  C7  BZF d   1      -2.924   4.931   4.498  0.00  0.00     0.029 A 
ATOM      9  C7A BZF d   1      -2.929   3.700   3.889  0.00  0.00     0.058 A 
ENDROOT
TORSDOF 0
ENDMDL
