MODEL 1
REMARK minimizedAffinity -0.949999392
REMARK minimizedRMSD -1
REMARK  0 active torsions:
REMARK  status: ('A' for Active; 'I' for Inactive)
ROOT
ATOM      1  O1  BZF d   1      -4.102   5.651   5.666  0.00  0.00    -0.204 OA
ATOM      2  C2  BZF d   1      -2.779   5.923   5.956  0.00  0.00     0.174 A 
ATOM      3  C3  BZF d   1      -2.047   5.997   4.826  0.00  0.00    -0.012 A 
ATOM      4  C3A BZF d   1      -2.987   5.846   3.758  0.00  0.00    -0.107 A 
ATOM      5  C4  BZF d   1      -2.871   5.847   2.397  0.00  0.00     0.055 A 
ATOM      6  C5  BZF d   1      -3.972   5.601   1.640  0.00  0.00    -0.016 A 
ATOM      7  C6  BZF d   1      -5.203   5.347   2.209  0.00  0.00     0.022 A 
ATOM      8  C7  BZF d   1      -5.369   5.341   3.554  0.00  0.00     0.029 A 
ATOM      9  C7A BZF d   1      -4.265   5.622   4.322  0.00  0.00     0.058 A 
ENDROOT
TORSDOF 0
ENDMDL
