MODEL 1
REMARK minimizedAffinity -1.8121264
REMARK minimizedRMSD -1
REMARK  0 active torsions:
REMARK  status: ('A' for Active; 'I' for Inactive)
ROOT
ATOM      1  O1  BZF d   1      -2.339   5.950   4.866  0.00  0.00    -0.204 OA
ATOM      2  C2  BZF d   1      -3.128   5.943   6.000  0.00  0.00     0.174 A 
ATOM      3  C3  BZF d   1      -4.435   5.999   5.673  0.00  0.00    -0.012 A 
ATOM      4  C3A BZF d   1      -4.468   5.951   4.243  0.00  0.00    -0.107 A 
ATOM      5  C4  BZF d   1      -5.480   5.957   3.327  0.00  0.00     0.055 A 
ATOM      6  C5  BZF d   1      -5.173   5.974   2.003  0.00  0.00    -0.016 A 
ATOM      7  C6  BZF d   1      -3.866   5.992   1.562  0.00  0.00     0.022 A 
ATOM      8  C7  BZF d   1      -2.828   5.982   2.433  0.00  0.00     0.029 A 
ATOM      9  C7A BZF d   1      -3.135   5.931   3.771  0.00  0.00     0.058 A 
ENDROOT
TORSDOF 0
ENDMDL
