MODEL 1
REMARK minimizedAffinity -4.50830269
REMARK minimizedRMSD -1
REMARK  0 active torsions:
REMARK  status: ('A' for Active; 'I' for Inactive)
ROOT
ATOM      1  O1  BZF d   1      -2.250   5.916   4.924  0.00  0.00    -0.204 OA
ATOM      2  C2  BZF d   1      -3.180   5.917   5.946  0.00  0.00     0.174 A 
ATOM      3  C3  BZF d   1      -4.433   5.996   5.452  0.00  0.00    -0.012 A 
ATOM      4  C3A BZF d   1      -4.280   5.955   4.030  0.00  0.00    -0.107 A 
ATOM      5  C4  BZF d   1      -5.164   5.981   2.990  0.00  0.00     0.055 A 
ATOM      6  C5  BZF d   1      -4.687   6.000   1.718  0.00  0.00    -0.016 A 
ATOM      7  C6  BZF d   1      -3.334   5.998   1.450  0.00  0.00     0.022 A 
ATOM      8  C7  BZF d   1      -2.418   5.967   2.449  0.00  0.00     0.029 A 
ATOM      9  C7A BZF d   1      -2.898   5.915   3.735  0.00  0.00     0.058 A 
ENDROOT
TORSDOF 0
ENDMDL
