MODEL 1
REMARK minimizedAffinity -3.55471849
REMARK minimizedRMSD -1
REMARK  0 active torsions:
REMARK  status: ('A' for Active; 'I' for Inactive)
ROOT
ATOM      1  O1  BZF d   1      -4.883   5.623   5.116  0.00  0.00    -0.204 OA
ATOM      2  C2  BZF d   1      -3.649   5.865   5.689  0.00  0.00     0.174 A 
ATOM      3  C3  BZF d   1      -2.699   5.998   4.741  0.00  0.00    -0.012 A 
ATOM      4  C3A BZF d   1      -3.398   5.920   3.495  0.00  0.00    -0.107 A 
ATOM      5  C4  BZF d   1      -3.002   6.000   2.190  0.00  0.00     0.055 A 
ATOM      6  C5  BZF d   1      -3.922   5.810   1.208  0.00  0.00    -0.016 A 
ATOM      7  C6  BZF d   1      -5.243   5.534   1.494  0.00  0.00     0.022 A 
ATOM      8  C7  BZF d   1      -5.684   5.450   2.773  0.00  0.00     0.029 A 
ATOM      9  C7A BZF d   1      -4.763   5.674   3.768  0.00  0.00     0.058 A 
ENDROOT
TORSDOF 0
ENDMDL
