MODEL 1
REMARK minimizedAffinity 0.47355777
REMARK minimizedRMSD -1
REMARK  0 active torsions:
REMARK  status: ('A' for Active; 'I' for Inactive)
ROOT
ATOM      1  O1  BZF d   1      -3.986   5.763   5.591  0.00  0.00    -0.204 OA
ATOM      2  C2  BZF d   1      -2.665   5.930   5.957  0.00  0.00     0.174 A 
ATOM      3  C3  BZF d   1      -1.872   5.996   4.868  0.00  0.00    -0.012 A 
ATOM      4  C3A BZF d   1      -2.764   5.954   3.750  0.00  0.00    -0.107 A 
ATOM      5  C4  BZF d   1      -2.577   6.000   2.398  0.00  0.00     0.055 A 
ATOM      6  C5  BZF d   1      -3.652   5.863   1.578  0.00  0.00    -0.016 A 
ATOM      7  C6  BZF d   1      -4.925   5.674   2.075  0.00  0.00     0.022 A 
ATOM      8  C7  BZF d   1      -5.160   5.627   3.409  0.00  0.00     0.029 A 
ATOM      9  C7A BZF d   1      -4.081   5.798   4.240  0.00  0.00     0.058 A 
ENDROOT
TORSDOF 0
ENDMDL
