MODEL 1
REMARK minimizedAffinity -0.0965540782
REMARK minimizedRMSD -1
REMARK  0 active torsions:
REMARK  status: ('A' for Active; 'I' for Inactive)
ROOT
ATOM      1  O1  BZF d   1      -4.555   5.952   5.506  0.00  0.00    -0.204 OA
ATOM      2  C2  BZF d   1      -3.252   5.927   5.964  0.00  0.00     0.174 A 
ATOM      3  C3  BZF d   1      -2.384   5.877   4.934  0.00  0.00    -0.012 A 
ATOM      4  C3A BZF d   1      -3.192   5.964   3.756  0.00  0.00    -0.107 A 
ATOM      5  C4  BZF d   1      -2.907   5.981   2.421  0.00  0.00     0.055 A 
ATOM      6  C5  BZF d   1      -3.930   6.000   1.527  0.00  0.00    -0.016 A 
ATOM      7  C6  BZF d   1      -5.249   5.996   1.933  0.00  0.00     0.022 A 
ATOM      8  C7  BZF d   1      -5.581   5.985   3.247  0.00  0.00     0.029 A 
ATOM      9  C7A BZF d   1      -4.549   5.999   4.153  0.00  0.00     0.058 A 
ENDROOT
TORSDOF 0
ENDMDL
