MODEL 1
REMARK minimizedAffinity -2.76315212
REMARK minimizedRMSD -1
REMARK  0 active torsions:
REMARK  status: ('A' for Active; 'I' for Inactive)
ROOT
ATOM      1  O1  BZF d   1      -2.810   5.982   2.689  0.00  0.00    -0.204 OA
ATOM      2  C2  BZF d   1      -3.606   5.999   1.560  0.00  0.00     0.174 A 
ATOM      3  C3  BZF d   1      -4.847   5.555   1.844  0.00  0.00    -0.012 A 
ATOM      4  C3A BZF d   1      -4.852   5.330   3.257  0.00  0.00    -0.107 A 
ATOM      5  C4  BZF d   1      -5.805   4.900   4.136  0.00  0.00     0.055 A 
ATOM      6  C5  BZF d   1      -5.467   4.717   5.439  0.00  0.00    -0.016 A 
ATOM      7  C6  BZF d   1      -4.187   4.949   5.897  0.00  0.00     0.022 A 
ATOM      8  C7  BZF d   1      -3.209   5.381   5.063  0.00  0.00     0.029 A 
ATOM      9  C7A BZF d   1      -3.555   5.598   3.752  0.00  0.00     0.058 A 
ENDROOT
TORSDOF 0
ENDMDL
