MODEL 1
REMARK minimizedAffinity -0.640172482
REMARK minimizedRMSD -1
REMARK  0 active torsions:
REMARK  status: ('A' for Active; 'I' for Inactive)
ROOT
ATOM      1  O1  BZF d   1      -4.940   5.943   5.236  0.00  0.00    -0.204 OA
ATOM      2  C2  BZF d   1      -3.694   5.937   5.833  0.00  0.00     0.174 A 
ATOM      3  C3  BZF d   1      -2.718   5.899   4.903  0.00  0.00    -0.012 A 
ATOM      4  C3A BZF d   1      -3.395   5.974   3.644  0.00  0.00    -0.107 A 
ATOM      5  C4  BZF d   1      -2.966   5.995   2.348  0.00  0.00     0.055 A 
ATOM      6  C5  BZF d   1      -3.887   5.999   1.348  0.00  0.00    -0.016 A 
ATOM      7  C6  BZF d   1      -5.241   5.976   1.608  0.00  0.00     0.022 A 
ATOM      8  C7  BZF d   1      -5.714   5.960   2.878  0.00  0.00     0.029 A 
ATOM      9  C7A BZF d   1      -4.787   5.990   3.891  0.00  0.00     0.058 A 
ENDROOT
TORSDOF 0
ENDMDL
