MODEL 1
REMARK minimizedAffinity 3.18493748
REMARK minimizedRMSD -1
REMARK  0 active torsions:
REMARK  status: ('A' for Active; 'I' for Inactive)
ROOT
ATOM      1  O1  BZF d   1      -2.399   2.409   3.755  0.00  0.00    -0.204 OA
ATOM      2  C2  BZF d   1      -2.652   1.599   2.665  0.00  0.00     0.174 A 
ATOM      3  C3  BZF d   1      -3.175   2.314   1.648  0.00  0.00    -0.012 A 
ATOM      4  C3A BZF d   1      -3.169   3.672   2.101  0.00  0.00    -0.107 A 
ATOM      5  C4  BZF d   1      -3.551   4.853   1.533  0.00  0.00     0.055 A 
ATOM      6  C5  BZF d   1      -3.484   5.993   2.269  0.00  0.00    -0.016 A 
ATOM      7  C6  BZF d   1      -3.044   5.987   3.577  0.00  0.00     0.022 A 
ATOM      8  C7  BZF d   1      -2.650   4.841   4.182  0.00  0.00     0.029 A 
ATOM      9  C7A BZF d   1      -2.686   3.692   3.430  0.00  0.00     0.058 A 
ENDROOT
TORSDOF 0
ENDMDL
