MODEL 1
REMARK minimizedAffinity 1.30508542
REMARK minimizedRMSD -1
REMARK  0 active torsions:
REMARK  status: ('A' for Active; 'I' for Inactive)
ROOT
ATOM      1  O1  BZF d   1      -3.512   5.947   5.787  0.00  0.00    -0.204 OA
ATOM      2  C2  BZF d   1      -2.147   5.921   5.996  0.00  0.00     0.174 A 
ATOM      3  C3  BZF d   1      -1.484   5.871   4.823  0.00  0.00    -0.012 A 
ATOM      4  C3A BZF d   1      -2.495   5.959   3.815  0.00  0.00    -0.107 A 
ATOM      5  C4  BZF d   1      -2.461   5.978   2.450  0.00  0.00     0.055 A 
ATOM      6  C5  BZF d   1      -3.632   5.998   1.760  0.00  0.00    -0.016 A 
ATOM      7  C6  BZF d   1      -4.853   5.995   2.402  0.00  0.00     0.022 A 
ATOM      8  C7  BZF d   1      -4.937   5.983   3.755  0.00  0.00     0.029 A 
ATOM      9  C7A BZF d   1      -3.755   5.996   4.455  0.00  0.00     0.058 A 
ENDROOT
TORSDOF 0
ENDMDL
