MODEL 1
REMARK minimizedAffinity -2.27089834
REMARK minimizedRMSD -1
REMARK  0 active torsions:
REMARK  status: ('A' for Active; 'I' for Inactive)
ROOT
ATOM      1  O1  BZF d   1      -2.006   5.921   4.813  0.00  0.00    -0.204 OA
ATOM      2  C2  BZF d   1      -2.836   5.922   5.917  0.00  0.00     0.174 A 
ATOM      3  C3  BZF d   1      -4.130   6.000   5.543  0.00  0.00    -0.012 A 
ATOM      4  C3A BZF d   1      -4.111   5.957   4.113  0.00  0.00    -0.107 A 
ATOM      5  C4  BZF d   1      -5.089   5.982   3.161  0.00  0.00     0.055 A 
ATOM      6  C5  BZF d   1      -4.734   6.000   1.849  0.00  0.00    -0.016 A 
ATOM      7  C6  BZF d   1      -3.412   5.999   1.455  0.00  0.00     0.022 A 
ATOM      8  C7  BZF d   1      -2.406   5.969   2.364  0.00  0.00     0.029 A 
ATOM      9  C7A BZF d   1      -2.763   5.918   3.689  0.00  0.00     0.058 A 
ENDROOT
TORSDOF 0
ENDMDL
