MODEL 1
REMARK minimizedAffinity 1.51945305
REMARK minimizedRMSD -1
REMARK  0 active torsions:
REMARK  status: ('A' for Active; 'I' for Inactive)
ROOT
ATOM      1  O1  BZF d   1       5.289   0.743  -3.756  0.00  0.00    -0.204 OA
ATOM      2  C2  BZF d   1       5.999   0.656  -4.939  0.00  0.00     0.174 A 
ATOM      3  C3  BZF d   1       5.167   0.703  -6.000  0.00  0.00    -0.012 A 
ATOM      4  C3A BZF d   1       3.865   0.918  -5.448  0.00  0.00    -0.107 A 
ATOM      5  C4  BZF d   1       2.625   1.069  -6.000  0.00  0.00     0.055 A 
ATOM      6  C5  BZF d   1       1.548   1.190  -5.180  0.00  0.00    -0.016 A 
ATOM      7  C6  BZF d   1       1.673   1.160  -3.807  0.00  0.00     0.022 A 
ATOM      8  C7  BZF d   1       2.883   1.018  -3.213  0.00  0.00     0.029 A 
ATOM      9  C7A BZF d   1       3.978   0.928  -4.039  0.00  0.00     0.058 A 
ENDROOT
TORSDOF 0
ENDMDL
