MODEL 1
REMARK minimizedAffinity -1.19174922
REMARK minimizedRMSD -1
REMARK  0 active torsions:
REMARK  status: ('A' for Active; 'I' for Inactive)
ROOT
ATOM      1  O1  BZF d   1       4.121   6.000  -1.236  0.00  0.00    -0.204 OA
ATOM      2  C2  BZF d   1       2.923   5.347  -1.454  0.00  0.00     0.174 A 
ATOM      3  C3  BZF d   1       2.645   4.506  -0.437  0.00  0.00    -0.012 A 
ATOM      4  C3A BZF d   1       3.691   4.710   0.517  0.00  0.00    -0.107 A 
ATOM      5  C4  BZF d   1       3.959   4.175   1.745  0.00  0.00     0.055 A 
ATOM      6  C5  BZF d   1       5.102   4.535   2.387  0.00  0.00    -0.016 A 
ATOM      7  C6  BZF d   1       5.999   5.421   1.829  0.00  0.00     0.022 A 
ATOM      8  C7  BZF d   1       5.774   5.982   0.616  0.00  0.00     0.029 A 
ATOM      9  C7A BZF d   1       4.604   5.646  -0.021  0.00  0.00     0.058 A 
ENDROOT
TORSDOF 0
ENDMDL
