MODEL 1
REMARK minimizedAffinity 5.05635691
REMARK minimizedRMSD -1
REMARK  1 active torsions:
REMARK  status: ('A' for Active; 'I' for Inactive)
REMARK    1  A    between atoms: C1_2  and  C2_3 
ROOT
ATOM      1  C2  UNL d   1      -0.243   0.413  -0.699  0.00  0.00    -0.077 A 
ATOM      2  C3  UNL d   1      -0.126  -0.194   0.559  0.00  0.00     0.002 A 
ATOM      3  C4  UNL d   1       0.760   0.315   1.510  0.00  0.00     0.002 A 
ATOM      4  C5  UNL d   1       1.532   1.437   1.215  0.00  0.00    -0.004 A 
ATOM      5  C6  UNL d   1       1.425   2.047  -0.034  0.00  0.00     0.002 A 
ATOM      6  C7  UNL d   1       0.540   1.538  -0.986  0.00  0.00     0.002 A 
ENDROOT
BRANCH   1   7
ATOM      7  C1  UNL d   1      -1.234  -0.105  -1.708  0.00  0.00     0.055 C 
ATOM      8  C   UNL d   1      -2.547  -0.494  -1.045  0.00  0.00     0.019 C 
ENDBRANCH   1   7
TORSDOF 1
ENDMDL
