MODEL 1
REMARK minimizedAffinity 4.83945084
REMARK minimizedRMSD -1
REMARK  1 active torsions:
REMARK  status: ('A' for Active; 'I' for Inactive)
REMARK    1  A    between atoms: C1_2  and  C2_3 
ROOT
ATOM      1  C2  UNL d   1       0.697  -0.436   0.406  0.00  0.00    -0.077 A 
ATOM      2  C3  UNL d   1       1.442   0.346   1.300  0.00  0.00     0.002 A 
ATOM      3  C4  UNL d   1       2.038   1.534   0.873  0.00  0.00     0.002 A 
ATOM      4  C5  UNL d   1       1.892   1.953  -0.448  0.00  0.00    -0.004 A 
ATOM      5  C6  UNL d   1       1.156   1.181  -1.346  0.00  0.00     0.002 A 
ATOM      6  C7  UNL d   1       0.560  -0.007  -0.921  0.00  0.00     0.002 A 
ENDROOT
BRANCH   1   7
ATOM      7  C1  UNL d   1       0.012  -1.692   0.877  0.00  0.00     0.055 C 
ATOM      8  C   UNL d   1      -0.867  -1.422   2.089  0.00  0.00     0.019 C 
ENDBRANCH   1   7
TORSDOF 1
ENDMDL
