MODEL 1
REMARK minimizedAffinity 4.9527812
REMARK minimizedRMSD -1
REMARK  1 active torsions:
REMARK  status: ('A' for Active; 'I' for Inactive)
REMARK    1  A    between atoms: C1_2  and  C2_3 
ROOT
ATOM      1  C2  UNL d   1      -0.045   0.402   1.553  0.00  0.00    -0.077 A 
ATOM      2  C3  UNL d   1      -0.685   0.894   0.407  0.00  0.00     0.002 A 
ATOM      3  C4  UNL d   1       0.057   1.481  -0.620  0.00  0.00     0.002 A 
ATOM      4  C5  UNL d   1       1.443   1.576  -0.513  0.00  0.00    -0.004 A 
ATOM      5  C6  UNL d   1       2.089   1.091   0.624  0.00  0.00     0.002 A 
ATOM      6  C7  UNL d   1       1.348   0.506   1.652  0.00  0.00     0.002 A 
ENDROOT
BRANCH   1   7
ATOM      7  C1  UNL d   1      -0.839  -0.275   2.640  0.00  0.00     0.055 C 
ATOM      8  C   UNL d   1      -1.925   0.641   3.184  0.00  0.00     0.019 C 
ENDBRANCH   1   7
TORSDOF 1
ENDMDL
