MODEL 1
REMARK minimizedAffinity -3.50526524
REMARK minimizedRMSD -1
REMARK  1 active torsions:
REMARK  status: ('A' for Active; 'I' for Inactive)
REMARK    1  A    between atoms: C1_2  and  C2_3 
ROOT
ATOM      1  C2  UNL d   1      -0.465   5.982  -3.478  0.00  0.00    -0.077 A 
ATOM      2  C3  UNL d   1      -0.881   5.979  -2.139  0.00  0.00     0.002 A 
ATOM      3  C4  UNL d   1      -2.240   5.987  -1.821  0.00  0.00     0.002 A 
ATOM      4  C5  UNL d   1      -3.194   5.994  -2.837  0.00  0.00    -0.004 A 
ATOM      5  C6  UNL d   1      -2.791   5.999  -4.171  0.00  0.00     0.002 A 
ATOM      6  C7  UNL d   1      -1.433   5.992  -4.491  0.00  0.00     0.002 A 
ENDROOT
BRANCH   1   7
ATOM      7  C1  UNL d   1       1.000   5.924  -3.822  0.00  0.00     0.055 C 
ATOM      8  C   UNL d   1       1.219   5.998  -5.327  0.00  0.00     0.019 C 
ENDBRANCH   1   7
TORSDOF 1
ENDMDL
