MODEL 1
REMARK minimizedAffinity -4.26823711
REMARK minimizedRMSD -1
REMARK  1 active torsions:
REMARK  status: ('A' for Active; 'I' for Inactive)
REMARK    1  A    between atoms: C1_2  and  C2_3 
ROOT
ATOM      1  C2  UNL d   1       0.185   5.474  -4.144  0.00  0.00    -0.077 A 
ATOM      2  C3  UNL d   1      -0.490   5.825  -2.967  0.00  0.00     0.002 A 
ATOM      3  C4  UNL d   1      -1.876   5.999  -2.972  0.00  0.00     0.002 A 
ATOM      4  C5  UNL d   1      -2.598   5.820  -4.150  0.00  0.00    -0.004 A 
ATOM      5  C6  UNL d   1      -1.935   5.473  -5.327  0.00  0.00     0.002 A 
ATOM      6  C7  UNL d   1      -0.550   5.300  -5.324  0.00  0.00     0.002 A 
ENDROOT
BRANCH   1   7
ATOM      7  C1  UNL d   1       1.672   5.238  -4.130  0.00  0.00     0.055 C 
ATOM      8  C   UNL d   1       2.364   5.994  -5.255  0.00  0.00     0.019 C 
ENDBRANCH   1   7
TORSDOF 1
ENDMDL
