MODEL 1
REMARK minimizedAffinity -1.11364412
REMARK minimizedRMSD -1
REMARK  1 active torsions:
REMARK  status: ('A' for Active; 'I' for Inactive)
REMARK    1  A    between atoms: C1_2  and  C2_3 
ROOT
ATOM      1  C2  UNL d   1      -1.994   5.966  -2.876  0.00  0.00    -0.077 A 
ATOM      2  C3  UNL d   1      -1.296   5.973  -1.660  0.00  0.00     0.002 A 
ATOM      3  C4  UNL d   1       0.100   5.987  -1.647  0.00  0.00     0.002 A 
ATOM      4  C5  UNL d   1       0.809   6.000  -2.846  0.00  0.00    -0.004 A 
ATOM      5  C6  UNL d   1       0.124   5.991  -4.061  0.00  0.00     0.002 A 
ATOM      6  C7  UNL d   1      -1.271   5.976  -4.076  0.00  0.00     0.002 A 
ENDROOT
BRANCH   1   7
ATOM      7  C1  UNL d   1      -3.500   6.000  -2.892  0.00  0.00     0.055 C 
ATOM      8  C   UNL d   1      -4.070   5.977  -1.481  0.00  0.00     0.019 C 
ENDBRANCH   1   7
TORSDOF 1
ENDMDL
