MODEL 1
REMARK minimizedAffinity 0.46471414
REMARK minimizedRMSD -1
REMARK  1 active torsions:
REMARK  status: ('A' for Active; 'I' for Inactive)
REMARK    1  A    between atoms: C1_2  and  C2_3 
ROOT
ATOM      1  C2  UNL d   1      -4.242  -3.231  -1.267  0.00  0.00    -0.077 A 
ATOM      2  C3  UNL d   1      -4.786  -2.775  -0.058  0.00  0.00     0.002 A 
ATOM      3  C4  UNL d   1      -5.372  -3.673   0.836  0.00  0.00     0.002 A 
ATOM      4  C5  UNL d   1      -5.417  -5.032   0.533  0.00  0.00    -0.004 A 
ATOM      5  C6  UNL d   1      -4.880  -5.495  -0.668  0.00  0.00     0.002 A 
ATOM      6  C7  UNL d   1      -4.295  -4.599  -1.563  0.00  0.00     0.002 A 
ENDROOT
BRANCH   1   7
ATOM      7  C1  UNL d   1      -3.565  -2.271  -2.209  0.00  0.00     0.055 C 
ATOM      8  C   UNL d   1      -2.996  -1.072  -1.464  0.00  0.00     0.019 C 
ENDBRANCH   1   7
TORSDOF 1
ENDMDL
