MODEL 1
REMARK minimizedAffinity -0.385129541
REMARK minimizedRMSD -1
REMARK  1 active torsions:
REMARK  status: ('A' for Active; 'I' for Inactive)
REMARK    1  A    between atoms: C1_2  and  C2_3 
ROOT
ATOM      1  C2  UNL d   1      -0.131   5.985  -3.584  0.00  0.00    -0.077 A 
ATOM      2  C3  UNL d   1      -0.403   5.984  -2.209  0.00  0.00     0.002 A 
ATOM      3  C4  UNL d   1      -1.721   5.992  -1.749  0.00  0.00     0.002 A 
ATOM      4  C5  UNL d   1      -2.778   5.996  -2.658  0.00  0.00    -0.004 A 
ATOM      5  C6  UNL d   1      -2.518   6.000  -4.028  0.00  0.00     0.002 A 
ATOM      6  C7  UNL d   1      -1.201   5.993  -4.489  0.00  0.00     0.002 A 
ENDROOT
BRANCH   1   7
ATOM      7  C1  UNL d   1       1.289   5.927  -4.082  0.00  0.00     0.055 C 
ATOM      8  C   UNL d   1       1.340   5.700  -5.586  0.00  0.00     0.019 C 
ENDBRANCH   1   7
TORSDOF 1
ENDMDL
