MODEL 1
REMARK minimizedAffinity -3.54227829
REMARK minimizedRMSD -1
REMARK  1 active torsions:
REMARK  status: ('A' for Active; 'I' for Inactive)
REMARK    1  A    between atoms: C1_2  and  C2_3 
ROOT
ATOM      1  C2  UNL d   1      -0.736   5.938  -4.598  0.00  0.00    -0.077 A 
ATOM      2  C3  UNL d   1      -0.143   5.956  -5.868  0.00  0.00     0.002 A 
ATOM      3  C4  UNL d   1       1.247   5.988  -5.998  0.00  0.00     0.002 A 
ATOM      4  C5  UNL d   1       2.054   5.999  -4.862  0.00  0.00    -0.004 A 
ATOM      5  C6  UNL d   1       1.473   5.984  -3.595  0.00  0.00     0.002 A 
ATOM      6  C7  UNL d   1       0.084   5.953  -3.463  0.00  0.00     0.002 A 
ENDROOT
BRANCH   1   7
ATOM      7  C1  UNL d   1      -2.234   5.853  -4.456  0.00  0.00     0.055 C 
ATOM      8  C   UNL d   1      -2.658   5.949  -2.998  0.00  0.00     0.019 C 
ENDBRANCH   1   7
TORSDOF 1
ENDMDL
