MODEL 1
REMARK minimizedAffinity 0.187166765
REMARK minimizedRMSD -1
REMARK  1 active torsions:
REMARK  status: ('A' for Active; 'I' for Inactive)
REMARK    1  A    between atoms: C1_2  and  C2_3 
ROOT
ATOM      1  C2  UNL d   1      -1.319  -0.050   2.162  0.00  0.00    -0.077 A 
ATOM      2  C3  UNL d   1      -0.436   0.804   2.838  0.00  0.00     0.002 A 
ATOM      3  C4  UNL d   1       0.657   1.361   2.171  0.00  0.00     0.002 A 
ATOM      4  C5  UNL d   1       0.874   1.074   0.825  0.00  0.00    -0.004 A 
ATOM      5  C6  UNL d   1       0.002   0.224   0.145  0.00  0.00     0.002 A 
ATOM      6  C7  UNL d   1      -1.090  -0.334   0.810  0.00  0.00     0.002 A 
ENDROOT
BRANCH   1   7
ATOM      7  C1  UNL d   1      -2.526  -0.612   2.867  0.00  0.00     0.055 C 
ATOM      8  C   UNL d   1      -2.171  -1.116   4.258  0.00  0.00     0.019 C 
ENDBRANCH   1   7
TORSDOF 1
ENDMDL
