MODEL 1
REMARK minimizedAffinity -1.36303973
REMARK minimizedRMSD -1
REMARK  0 active torsions:
REMARK  status: ('A' for Active; 'I' for Inactive)
ROOT
ATOM      1  C1  DEN d   1      -1.627   0.859  -0.698  0.00  0.00     0.130 A 
ATOM      2  C2  DEN d   1      -1.766   0.292   0.640  0.00  0.00    -0.031 A 
ATOM      3  C3  DEN d   1      -0.683  -0.693   0.834  0.00  0.00     0.027 A 
ATOM      4  C4  DEN d   1       1.189  -1.388  -0.798  0.00  0.00     0.027 A 
ATOM      5  C5  DEN d   1       1.712  -1.189  -2.057  0.00  0.00    -0.003 A 
ATOM      6  C6  DEN d   1       1.143  -0.326  -2.956  0.00  0.00     0.001 A 
ATOM      7  C7  DEN d   1       0.043   0.405  -2.592  0.00  0.00     0.017 A 
ATOM      8  C8  DEN d   1      -0.494   0.205  -1.327  0.00  0.00    -0.094 A 
ATOM      9  C9  DEN d   1       0.103  -0.663  -0.429  0.00  0.00    -0.072 A 
ENDROOT
TORSDOF 0
ENDMDL
