MODEL 1
REMARK minimizedAffinity -2.03113055
REMARK minimizedRMSD -1
REMARK  0 active torsions:
REMARK  status: ('A' for Active; 'I' for Inactive)
ROOT
ATOM      1  C1  DEN d   1       0.305   1.038   2.392  0.00  0.00     0.130 A 
ATOM      2  C2  DEN d   1      -1.014   1.249   2.983  0.00  0.00    -0.031 A 
ATOM      3  C3  DEN d   1      -2.026   0.739   2.037  0.00  0.00     0.027 A 
ATOM      4  C4  DEN d   1      -1.682  -0.356  -0.273  0.00  0.00     0.027 A 
ATOM      5  C5  DEN d   1      -0.742  -0.740  -1.204  0.00  0.00    -0.003 A 
ATOM      6  C6  DEN d   1       0.598  -0.528  -1.019  0.00  0.00     0.001 A 
ATOM      7  C7  DEN d   1       1.041   0.042   0.145  0.00  0.00     0.017 A 
ATOM      8  C8  DEN d   1       0.100   0.438   1.086  0.00  0.00    -0.094 A 
ATOM      9  C9  DEN d   1      -1.250   0.205   0.885  0.00  0.00    -0.072 A 
ENDROOT
TORSDOF 0
ENDMDL
