MODEL 1
REMARK minimizedAffinity -1.59686053
REMARK minimizedRMSD -1
REMARK  0 active torsions:
REMARK  status: ('A' for Active; 'I' for Inactive)
ROOT
ATOM      1  C1  DEN d   1       1.624   1.156   1.503  0.00  0.00     0.130 A 
ATOM      2  C2  DEN d   1       0.797   1.839   2.494  0.00  0.00    -0.031 A 
ATOM      3  C3  DEN d   1      -0.615   1.506   2.218  0.00  0.00     0.027 A 
ATOM      4  C4  DEN d   1      -1.595   0.002   0.365  0.00  0.00     0.027 A 
ATOM      5  C5  DEN d   1      -1.286  -0.785  -0.722  0.00  0.00    -0.003 A 
ATOM      6  C6  DEN d   1       0.001  -0.952  -1.160  0.00  0.00     0.001 A 
ATOM      7  C7  DEN d   1       1.032  -0.359  -0.481  0.00  0.00     0.017 A 
ATOM      8  C8  DEN d   1       0.728   0.443   0.611  0.00  0.00    -0.094 A 
ATOM      9  C9  DEN d   1      -0.579   0.589   1.047  0.00  0.00    -0.072 A 
ENDROOT
TORSDOF 0
ENDMDL
