MODEL 1
REMARK minimizedAffinity -4.12458992
REMARK minimizedRMSD -1
REMARK  0 active torsions:
REMARK  status: ('A' for Active; 'I' for Inactive)
ROOT
ATOM      1  C1  DEN d   1       1.457  -1.882   0.134  0.00  0.00     0.130 A 
ATOM      2  C2  DEN d   1       2.575  -1.670   1.049  0.00  0.00    -0.031 A 
ATOM      3  C3  DEN d   1       2.100  -0.823   2.162  0.00  0.00     0.027 A 
ATOM      4  C4  DEN d   1      -0.247   0.171   2.557  0.00  0.00     0.027 A 
ATOM      5  C5  DEN d   1      -1.522   0.275   2.046  0.00  0.00    -0.003 A 
ATOM      6  C6  DEN d   1      -1.882  -0.299   0.856  0.00  0.00     0.001 A 
ATOM      7  C7  DEN d   1      -0.968  -1.042   0.157  0.00  0.00     0.017 A 
ATOM      8  C8  DEN d   1       0.322  -1.146   0.662  0.00  0.00    -0.094 A 
ATOM      9  C9  DEN d   1       0.663  -0.568   1.873  0.00  0.00    -0.072 A 
ENDROOT
TORSDOF 0
ENDMDL
