MODEL 1
REMARK minimizedAffinity -2.57251453
REMARK minimizedRMSD -1
REMARK  0 active torsions:
REMARK  status: ('A' for Active; 'I' for Inactive)
ROOT
ATOM      1  C1  DEN d   1       0.785   1.044   2.009  0.00  0.00     0.130 A 
ATOM      2  C2  DEN d   1      -0.470   1.461   2.629  0.00  0.00    -0.031 A 
ATOM      3  C3  DEN d   1      -1.578   1.032   1.752  0.00  0.00     0.027 A 
ATOM      4  C4  DEN d   1      -1.473  -0.235  -0.492  0.00  0.00     0.027 A 
ATOM      5  C5  DEN d   1      -0.630  -0.794  -1.427  0.00  0.00    -0.003 A 
ATOM      6  C6  DEN d   1       0.733  -0.749  -1.301  0.00  0.00     0.001 A 
ATOM      7  C7  DEN d   1       1.293  -0.173  -0.192  0.00  0.00     0.017 A 
ATOM      8  C8  DEN d   1       0.450   0.399   0.752  0.00  0.00    -0.094 A 
ATOM      9  C9  DEN d   1      -0.926   0.333   0.612  0.00  0.00    -0.072 A 
ENDROOT
TORSDOF 0
ENDMDL
