MODEL 1
REMARK minimizedAffinity 0.262763411
REMARK minimizedRMSD -1
REMARK  2 active torsions:
REMARK  status: ('A' for Active; 'I' for Inactive)
REMARK    1  A    between atoms: C2'_3  and  C1'_4 
REMARK    2  A    between atoms: C1'_4  and  C1_5 
ROOT
ATOM      1  C1  I4B d   1       0.461   0.593  -0.266  0.00  0.00    -0.075 A 
ATOM      2  C2  I4B d   1      -0.152  -0.446  -0.921  0.00  0.00     0.003 A 
ATOM      3  C3  I4B d   1      -0.102  -1.756  -0.385  0.00  0.00     0.002 A 
ATOM      4  C4  I4B d   1       0.609  -1.989   0.775  0.00  0.00    -0.004 A 
ATOM      5  C5  I4B d   1       1.210  -0.930   1.450  0.00  0.00     0.002 A 
ATOM      6  C6  I4B d   1       1.126   0.371   0.933  0.00  0.00     0.003 A 
ENDROOT
BRANCH   1   7
ATOM      7  C1' I4B d   1       0.417   1.957  -0.878  0.00  0.00     0.060 C 
BRANCH   7   8
ATOM      8  C2' I4B d   1       1.074   1.879  -2.241  0.00  0.00    -0.013 C 
ATOM      9  C4' I4B d   1       0.342   2.725  -3.248  0.00  0.00     0.013 C 
ATOM     10  C3' I4B d   1       2.499   2.323  -2.094  0.00  0.00     0.013 C 
ENDBRANCH   7   8
ENDBRANCH   1   7
TORSDOF 2
ENDMDL
