MODEL 1
REMARK minimizedAffinity -4.59733057
REMARK minimizedRMSD -1
REMARK  2 active torsions:
REMARK  status: ('A' for Active; 'I' for Inactive)
REMARK    1  A    between atoms: C2'_3  and  C1'_4 
REMARK    2  A    between atoms: C1'_4  and  C1_5 
ROOT
ATOM      1  C1  I4B d   1      -0.111  -0.022   0.902  0.00  0.00    -0.075 A 
ATOM      2  C2  I4B d   1       0.224  -1.322   1.185  0.00  0.00     0.003 A 
ATOM      3  C3  I4B d   1      -0.593  -2.099   2.042  0.00  0.00     0.002 A 
ATOM      4  C4  I4B d   1      -1.700  -1.523   2.631  0.00  0.00    -0.004 A 
ATOM      5  C5  I4B d   1      -2.051  -0.211   2.325  0.00  0.00     0.002 A 
ATOM      6  C6  I4B d   1      -1.259   0.541   1.445  0.00  0.00     0.003 A 
ENDROOT
BRANCH   1   7
ATOM      7  C1' I4B d   1       0.792   0.780   0.018  0.00  0.00     0.060 C 
BRANCH   7   8
ATOM      8  C2' I4B d   1       0.265   0.681  -1.399  0.00  0.00    -0.013 C 
ATOM      9  C4' I4B d   1       0.890   1.726  -2.286  0.00  0.00     0.013 C 
ATOM     10  C3' I4B d   1       0.553  -0.701  -1.905  0.00  0.00     0.013 C 
ENDBRANCH   7   8
ENDBRANCH   1   7
TORSDOF 2
ENDMDL
