MODEL 1
REMARK minimizedAffinity -0.0465156287
REMARK minimizedRMSD -1
REMARK  2 active torsions:
REMARK  status: ('A' for Active; 'I' for Inactive)
REMARK    1  A    between atoms: C2'_3  and  C1'_4 
REMARK    2  A    between atoms: C1'_4  and  C1_5 
ROOT
ATOM      1  C1  I4B d   1      -0.117  -1.499   1.591  0.00  0.00    -0.075 A 
ATOM      2  C2  I4B d   1       1.218  -1.462   1.276  0.00  0.00     0.003 A 
ATOM      3  C3  I4B d   1       1.698  -0.546   0.308  0.00  0.00     0.002 A 
ATOM      4  C4  I4B d   1       0.806   0.274  -0.352  0.00  0.00    -0.004 A 
ATOM      5  C5  I4B d   1      -0.545   0.251  -0.015  0.00  0.00     0.002 A 
ATOM      6  C6  I4B d   1      -1.008  -0.632   0.971  0.00  0.00     0.003 A 
ENDROOT
BRANCH   1   7
ATOM      7  C1' I4B d   1      -0.594  -2.501   2.594  0.00  0.00     0.060 C 
BRANCH   7   8
ATOM      8  C2' I4B d   1       0.161  -2.264   3.886  0.00  0.00    -0.013 C 
ATOM      9  C4' I4B d   1      -0.782  -2.127   5.051  0.00  0.00     0.013 C 
ATOM     10  C3' I4B d   1       1.106  -3.412   4.086  0.00  0.00     0.013 C 
ENDBRANCH   7   8
ENDBRANCH   1   7
TORSDOF 2
ENDMDL
