MODEL 1
REMARK minimizedAffinity -5.44148731
REMARK minimizedRMSD -1
REMARK  2 active torsions:
REMARK  status: ('A' for Active; 'I' for Inactive)
REMARK    1  A    between atoms: C2'_3  and  C1'_4 
REMARK    2  A    between atoms: C1'_4  and  C1_5 
ROOT
ATOM      1  C1  I4B d   1       0.876   1.347  -1.650  0.00  0.00    -0.075 A 
ATOM      2  C2  I4B d   1       1.664   2.284  -2.269  0.00  0.00     0.003 A 
ATOM      3  C3  I4B d   1       1.566   2.487  -3.667  0.00  0.00     0.002 A 
ATOM      4  C4  I4B d   1       0.709   1.700  -4.409  0.00  0.00    -0.004 A 
ATOM      5  C5  I4B d   1      -0.105   0.765  -3.777  0.00  0.00     0.002 A 
ATOM      6  C6  I4B d   1      -0.031   0.596  -2.386  0.00  0.00     0.003 A 
ENDROOT
BRANCH   1   7
ATOM      7  C1' I4B d   1       1.028   1.136  -0.177  0.00  0.00     0.060 C 
BRANCH   7   8
ATOM      8  C2' I4B d   1      -0.020   0.135   0.263  0.00  0.00    -0.013 C 
ATOM      9  C4' I4B d   1       0.608  -1.036   0.972  0.00  0.00     0.013 C 
ATOM     10  C3' I4B d   1      -0.996   0.846   1.152  0.00  0.00     0.013 C 
ENDBRANCH   7   8
ENDBRANCH   1   7
TORSDOF 2
ENDMDL
