MODEL 1
REMARK minimizedAffinity -4.30673504
REMARK minimizedRMSD -1
REMARK  2 active torsions:
REMARK  status: ('A' for Active; 'I' for Inactive)
REMARK    1  A    between atoms: C2'_3  and  C1'_4 
REMARK    2  A    between atoms: C1'_4  and  C1_5 
ROOT
ATOM      1  C1  I4B d   1      -0.404  -0.002  -0.064  0.00  0.00    -0.075 A 
ATOM      2  C2  I4B d   1       0.531  -0.735   0.622  0.00  0.00     0.003 A 
ATOM      3  C3  I4B d   1       0.163  -1.945   1.257  0.00  0.00     0.002 A 
ATOM      4  C4  I4B d   1      -1.154  -2.357   1.223  0.00  0.00    -0.004 A 
ATOM      5  C5  I4B d   1      -2.096  -1.625   0.507  0.00  0.00     0.002 A 
ATOM      6  C6  I4B d   1      -1.717  -0.446  -0.151  0.00  0.00     0.003 A 
ENDROOT
BRANCH   1   7
ATOM      7  C1' I4B d   1       0.012   1.289  -0.695  0.00  0.00     0.060 C 
BRANCH   7   8
ATOM      8  C2' I4B d   1       0.396   1.004  -2.133  0.00  0.00    -0.013 C 
ATOM      9  C4' I4B d   1      -0.618   1.572  -3.091  0.00  0.00     0.013 C 
ATOM     10  C3' I4B d   1       1.756   1.589  -2.374  0.00  0.00     0.013 C 
ENDBRANCH   7   8
ENDBRANCH   1   7
TORSDOF 2
ENDMDL
