MODEL 1
REMARK minimizedAffinity -3.54865766
REMARK minimizedRMSD -1
REMARK  2 active torsions:
REMARK  status: ('A' for Active; 'I' for Inactive)
REMARK    1  A    between atoms: C2'_3  and  C1'_4 
REMARK    2  A    between atoms: C1'_4  and  C1_5 
ROOT
ATOM      1  C1  I4B d   1      -0.066  -0.723   0.397  0.00  0.00    -0.075 A 
ATOM      2  C2  I4B d   1       1.167  -1.104   0.865  0.00  0.00     0.003 A 
ATOM      3  C3  I4B d   1       1.269  -2.003   1.954  0.00  0.00     0.002 A 
ATOM      4  C4  I4B d   1       0.121  -2.454   2.573  0.00  0.00    -0.004 A 
ATOM      5  C5  I4B d   1      -1.128  -2.085   2.082  0.00  0.00     0.002 A 
ATOM      6  C6  I4B d   1      -1.223  -1.224   0.979  0.00  0.00     0.003 A 
ENDROOT
BRANCH   1   7
ATOM      7  C1' I4B d   1      -0.137   0.254  -0.734  0.00  0.00     0.060 C 
BRANCH   7   8
ATOM      8  C2' I4B d   1       0.831   1.382  -0.438  0.00  0.00    -0.013 C 
ATOM      9  C4' I4B d   1       1.089   2.215  -1.665  0.00  0.00     0.013 C 
ATOM     10  C3' I4B d   1       0.249   2.212   0.668  0.00  0.00     0.013 C 
ENDBRANCH   7   8
ENDBRANCH   1   7
TORSDOF 2
ENDMDL
