MODEL 1
REMARK minimizedAffinity -4.07628727
REMARK minimizedRMSD -1
REMARK  2 active torsions:
REMARK  status: ('A' for Active; 'I' for Inactive)
REMARK    1  A    between atoms: C2'_3  and  C1'_4 
REMARK    2  A    between atoms: C1'_4  and  C1_5 
ROOT
ATOM      1  C1  I4B d   1       0.294   0.294  -1.039  0.00  0.00    -0.075 A 
ATOM      2  C2  I4B d   1      -0.416  -0.057  -2.161  0.00  0.00     0.003 A 
ATOM      3  C3  I4B d   1      -0.240   0.659  -3.369  0.00  0.00     0.002 A 
ATOM      4  C4  I4B d   1       0.613   1.744  -3.398  0.00  0.00    -0.004 A 
ATOM      5  C5  I4B d   1       1.348   2.085  -2.266  0.00  0.00     0.002 A 
ATOM      6  C6  I4B d   1       1.197   1.347  -1.083  0.00  0.00     0.003 A 
ENDROOT
BRANCH   1   7
ATOM      7  C1' I4B d   1       0.059  -0.464   0.229  0.00  0.00     0.060 C 
BRANCH   7   8
ATOM      8  C2' I4B d   1       0.412  -1.916  -0.022  0.00  0.00    -0.013 C 
ATOM      9  C4' I4B d   1       1.902  -2.129   0.018  0.00  0.00     0.013 C 
ATOM     10  C3' I4B d   1      -0.282  -2.747   1.015  0.00  0.00     0.013 C 
ENDBRANCH   7   8
ENDBRANCH   1   7
TORSDOF 2
ENDMDL
