MODEL 1
REMARK minimizedAffinity -3.3449614
REMARK minimizedRMSD -1
REMARK  2 active torsions:
REMARK  status: ('A' for Active; 'I' for Inactive)
REMARK    1  A    between atoms: C2'_3  and  C1'_4 
REMARK    2  A    between atoms: C1'_4  and  C1_5 
ROOT
ATOM      1  C1  I4B d   1       0.054   0.238   0.160  0.00  0.00    -0.075 A 
ATOM      2  C2  I4B d   1       0.942  -0.737  -0.222  0.00  0.00     0.003 A 
ATOM      3  C3  I4B d   1       0.867  -2.032   0.346  0.00  0.00     0.002 A 
ATOM      4  C4  I4B d   1      -0.072  -2.292   1.323  0.00  0.00    -0.004 A 
ATOM      5  C5  I4B d   1      -0.986  -1.309   1.692  0.00  0.00     0.002 A 
ATOM      6  C6  I4B d   1      -0.931  -0.040   1.099  0.00  0.00     0.003 A 
ENDROOT
BRANCH   1   7
ATOM      7  C1' I4B d   1       0.183   1.604  -0.437  0.00  0.00     0.060 C 
BRANCH   7   8
ATOM      8  C2' I4B d   1       0.786   1.455  -1.818  0.00  0.00    -0.013 C 
ATOM      9  C4' I4B d   1      -0.078   2.108  -2.864  0.00  0.00     0.013 C 
ATOM     10  C3' I4B d   1       2.157   2.062  -1.793  0.00  0.00     0.013 C 
ENDBRANCH   7   8
ENDBRANCH   1   7
TORSDOF 2
ENDMDL
