MODEL 1
REMARK minimizedAffinity -2.59279323
REMARK minimizedRMSD -1
REMARK  2 active torsions:
REMARK  status: ('A' for Active; 'I' for Inactive)
REMARK    1  A    between atoms: C2'_3  and  C1'_4 
REMARK    2  A    between atoms: C1'_4  and  C1_5 
ROOT
ATOM      1  C1  I4B d   1       0.723   0.025  -0.405  0.00  0.00    -0.075 A 
ATOM      2  C2  I4B d   1       0.736  -0.994  -1.325  0.00  0.00     0.003 A 
ATOM      3  C3  I4B d   1       0.681  -2.342  -0.896  0.00  0.00     0.002 A 
ATOM      4  C4  I4B d   1       0.665  -2.625   0.455  0.00  0.00    -0.004 A 
ATOM      5  C5  I4B d   1       0.629  -1.590   1.385  0.00  0.00     0.002 A 
ATOM      6  C6  I4B d   1       0.645  -0.256   0.952  0.00  0.00     0.003 A 
ENDROOT
BRANCH   1   7
ATOM      7  C1' I4B d   1       0.815   1.437  -0.892  0.00  0.00     0.060 C 
BRANCH   7   8
ATOM      8  C2' I4B d   1       1.541   1.425  -2.222  0.00  0.00    -0.013 C 
ATOM      9  C4' I4B d   1       0.834   2.285  -3.236  0.00  0.00     0.013 C 
ATOM     10  C3' I4B d   1       2.943   1.905  -1.989  0.00  0.00     0.013 C 
ENDBRANCH   7   8
ENDBRANCH   1   7
TORSDOF 2
ENDMDL
