MODEL 1
REMARK minimizedAffinity -4.07419825
REMARK minimizedRMSD -1
REMARK  2 active torsions:
REMARK  status: ('A' for Active; 'I' for Inactive)
REMARK    1  A    between atoms: C2'_3  and  C1'_4 
REMARK    2  A    between atoms: C1'_4  and  C1_5 
ROOT
ATOM      1  C1  I4B d   1       0.389  -1.029   0.014  0.00  0.00    -0.075 A 
ATOM      2  C2  I4B d   1       1.643  -0.605  -0.347  0.00  0.00     0.003 A 
ATOM      3  C3  I4B d   1       1.833   0.700  -0.864  0.00  0.00     0.002 A 
ATOM      4  C4  I4B d   1       0.741   1.523  -1.049  0.00  0.00    -0.004 A 
ATOM      5  C5  I4B d   1      -0.526   1.099  -0.660  0.00  0.00     0.002 A 
ATOM      6  C6  I4B d   1      -0.703  -0.180  -0.114  0.00  0.00     0.003 A 
ENDROOT
BRANCH   1   7
ATOM      7  C1' I4B d   1       0.220  -2.425   0.526  0.00  0.00     0.060 C 
BRANCH   7   8
ATOM      8  C2' I4B d   1      -0.591  -2.358   1.804  0.00  0.00    -0.013 C 
ATOM      9  C4' I4B d   1      -1.855  -3.170   1.691  0.00  0.00     0.013 C 
ATOM     10  C3' I4B d   1       0.272  -2.852   2.926  0.00  0.00     0.013 C 
ENDBRANCH   7   8
ENDBRANCH   1   7
TORSDOF 2
ENDMDL
