MODEL 1
REMARK minimizedAffinity 4.38305426
REMARK minimizedRMSD -1
REMARK  0 active torsions:
REMARK  status: ('A' for Active; 'I' for Inactive)
ROOT
ATOM      1  C   UNL d   1       1.950  -2.943   1.282  0.00  0.00     0.078 C 
ATOM      2  C1  UNL d   1       1.580  -2.044   0.140  0.00  0.00    -0.077 A 
ATOM      3  C2  UNL d   1       0.408  -2.259  -0.596  0.00  0.00    -0.001 A 
ATOM      4  C3  UNL d   1       0.081  -1.421  -1.663  0.00  0.00     0.003 A 
ATOM      5  C4  UNL d   1       0.920  -0.362  -2.004  0.00  0.00    -0.005 A 
ATOM      6  C5  UNL d   1       2.089  -0.141  -1.279  0.00  0.00     0.003 A 
ATOM      7  C6  UNL d   1       2.419  -0.979  -0.212  0.00  0.00    -0.001 A 
ENDROOT
TORSDOF 0
ENDMDL
