MODEL 1
REMARK minimizedAffinity 2.47218204
REMARK minimizedRMSD -1
REMARK  0 active torsions:
REMARK  status: ('A' for Active; 'I' for Inactive)
ROOT
ATOM      1  C   UNL d   1      -0.130  -1.615  -4.294  0.00  0.00     0.078 C 
ATOM      2  C1  UNL d   1       0.202  -1.372  -2.852  0.00  0.00    -0.077 A 
ATOM      3  C2  UNL d   1      -0.778  -1.480  -1.858  0.00  0.00    -0.001 A 
ATOM      4  C3  UNL d   1      -0.457  -1.242  -0.521  0.00  0.00     0.003 A 
ATOM      5  C4  UNL d   1       0.845  -0.892  -0.165  0.00  0.00    -0.005 A 
ATOM      6  C5  UNL d   1       1.826  -0.780  -1.148  0.00  0.00     0.003 A 
ATOM      7  C6  UNL d   1       1.507  -1.018  -2.485  0.00  0.00    -0.001 A 
ENDROOT
TORSDOF 0
ENDMDL
