MODEL 1
REMARK minimizedAffinity -3.48591518
REMARK minimizedRMSD -1
REMARK  0 active torsions:
REMARK  status: ('A' for Active; 'I' for Inactive)
ROOT
ATOM      1  C   UNL d   1       0.909  -0.284  -1.367  0.00  0.00     0.078 C 
ATOM      2  C1  UNL d   1       0.622  -1.491  -0.525  0.00  0.00    -0.077 A 
ATOM      3  C2  UNL d   1      -0.686  -1.960  -0.358  0.00  0.00    -0.001 A 
ATOM      4  C3  UNL d   1      -0.939  -3.079   0.437  0.00  0.00     0.003 A 
ATOM      5  C4  UNL d   1       0.112  -3.737   1.073  0.00  0.00    -0.005 A 
ATOM      6  C5  UNL d   1       1.417  -3.275   0.916  0.00  0.00     0.003 A 
ATOM      7  C6  UNL d   1       1.672  -2.157   0.121  0.00  0.00    -0.001 A 
ENDROOT
TORSDOF 0
ENDMDL
