MODEL 1
REMARK minimizedAffinity 4.92602825
REMARK minimizedRMSD -1
REMARK  0 active torsions:
REMARK  status: ('A' for Active; 'I' for Inactive)
ROOT
ATOM      1  C   UNL d   1      -5.603  -0.558   2.270  0.00  0.00     0.078 C 
ATOM      2  C1  UNL d   1      -4.344  -0.171   2.987  0.00  0.00    -0.077 A 
ATOM      3  C2  UNL d   1      -4.187   1.112   3.526  0.00  0.00    -0.001 A 
ATOM      4  C3  UNL d   1      -3.005   1.461   4.182  0.00  0.00     0.003 A 
ATOM      5  C4  UNL d   1      -1.972   0.534   4.305  0.00  0.00    -0.005 A 
ATOM      6  C5  UNL d   1      -2.119  -0.744   3.770  0.00  0.00     0.003 A 
ATOM      7  C6  UNL d   1      -3.300  -1.095   3.113  0.00  0.00    -0.001 A 
ENDROOT
TORSDOF 0
ENDMDL
