MODEL 1
REMARK minimizedAffinity -3.30603004
REMARK minimizedRMSD -1
REMARK  0 active torsions:
REMARK  status: ('A' for Active; 'I' for Inactive)
ROOT
ATOM      1  C   UNL d   1      -0.469  -3.898   1.040  0.00  0.00     0.078 C 
ATOM      2  C1  UNL d   1       0.074  -2.792   0.185  0.00  0.00    -0.077 A 
ATOM      3  C2  UNL d   1      -0.767  -2.047  -0.651  0.00  0.00    -0.001 A 
ATOM      4  C3  UNL d   1      -0.246  -1.027  -1.448  0.00  0.00     0.003 A 
ATOM      5  C4  UNL d   1       1.118  -0.743  -1.419  0.00  0.00    -0.005 A 
ATOM      6  C5  UNL d   1       1.963  -1.481  -0.592  0.00  0.00     0.003 A 
ATOM      7  C6  UNL d   1       1.444  -2.501   0.206  0.00  0.00    -0.001 A 
ENDROOT
TORSDOF 0
ENDMDL
