MODEL 1
REMARK minimizedAffinity -2.14891839
REMARK minimizedRMSD -1
REMARK  0 active torsions:
REMARK  status: ('A' for Active; 'I' for Inactive)
ROOT
ATOM      1  C   UNL d   1      -0.725  -3.760   0.848  0.00  0.00     0.078 C 
ATOM      2  C1  UNL d   1       0.128  -2.628   0.360  0.00  0.00    -0.077 A 
ATOM      3  C2  UNL d   1       1.410  -2.415   0.881  0.00  0.00    -0.001 A 
ATOM      4  C3  UNL d   1       2.190  -1.351   0.424  0.00  0.00     0.003 A 
ATOM      5  C4  UNL d   1       1.696  -0.492  -0.556  0.00  0.00    -0.005 A 
ATOM      6  C5  UNL d   1       0.421  -0.695  -1.079  0.00  0.00     0.003 A 
ATOM      7  C6  UNL d   1      -0.360  -1.758  -0.623  0.00  0.00    -0.001 A 
ENDROOT
TORSDOF 0
ENDMDL
