MODEL 1
REMARK minimizedAffinity 3.31267357
REMARK minimizedRMSD -1
REMARK  0 active torsions:
REMARK  status: ('A' for Active; 'I' for Inactive)
ROOT
ATOM      1  C   UNL d   1       0.960  -4.202   0.993  0.00  0.00     0.078 C 
ATOM      2  C1  UNL d   1       1.434  -2.930   0.356  0.00  0.00    -0.077 A 
ATOM      3  C2  UNL d   1       0.932  -2.513  -0.883  0.00  0.00    -0.001 A 
ATOM      4  C3  UNL d   1       1.390  -1.332  -1.469  0.00  0.00     0.003 A 
ATOM      5  C4  UNL d   1       2.354  -0.559  -0.825  0.00  0.00    -0.005 A 
ATOM      6  C5  UNL d   1       2.862  -0.967   0.407  0.00  0.00     0.003 A 
ATOM      7  C6  UNL d   1       2.405  -2.148   0.994  0.00  0.00    -0.001 A 
ENDROOT
TORSDOF 0
ENDMDL
