MODEL 1
REMARK minimizedAffinity 2.26896882
REMARK minimizedRMSD -1
REMARK  0 active torsions:
REMARK  status: ('A' for Active; 'I' for Inactive)
ROOT
ATOM      1  C   UNL d   1      -0.674  -2.598   0.750  0.00  0.00     0.078 C 
ATOM      2  C1  UNL d   1       0.591  -1.912   0.328  0.00  0.00    -0.077 A 
ATOM      3  C2  UNL d   1       1.305  -1.104   1.221  0.00  0.00    -0.001 A 
ATOM      4  C3  UNL d   1       2.476  -0.463   0.812  0.00  0.00     0.003 A 
ATOM      5  C4  UNL d   1       2.941  -0.623  -0.492  0.00  0.00    -0.005 A 
ATOM      6  C5  UNL d   1       2.236  -1.424  -1.388  0.00  0.00     0.003 A 
ATOM      7  C6  UNL d   1       1.065  -2.065  -0.980  0.00  0.00    -0.001 A 
ENDROOT
TORSDOF 0
ENDMDL
