MODEL 1
REMARK minimizedAffinity -0.0411387198
REMARK minimizedRMSD -1
REMARK  0 active torsions:
REMARK  status: ('A' for Active; 'I' for Inactive)
ROOT
ATOM      1  C   UNL d   1       2.083  -3.337   0.716  0.00  0.00     0.078 C 
ATOM      2  C1  UNL d   1       1.287  -2.252   0.055  0.00  0.00    -0.077 A 
ATOM      3  C2  UNL d   1       1.872  -1.021  -0.265  0.00  0.00    -0.001 A 
ATOM      4  C3  UNL d   1       1.116  -0.017  -0.871  0.00  0.00     0.003 A 
ATOM      5  C4  UNL d   1      -0.229  -0.233  -1.163  0.00  0.00    -0.005 A 
ATOM      6  C5  UNL d   1      -0.821  -1.454  -0.847  0.00  0.00     0.003 A 
ATOM      7  C6  UNL d   1      -0.067  -2.459  -0.240  0.00  0.00    -0.001 A 
ENDROOT
TORSDOF 0
ENDMDL
