MODEL 1
REMARK minimizedAffinity -0.198573798
REMARK minimizedRMSD -1
REMARK  0 active torsions:
REMARK  status: ('A' for Active; 'I' for Inactive)
ROOT
ATOM      1  C   UNL d   1       1.459  -1.376  -1.738  0.00  0.00     0.078 C 
ATOM      2  C1  UNL d   1       1.206   0.014  -2.240  0.00  0.00    -0.077 A 
ATOM      3  C2  UNL d   1       0.544   0.958  -1.444  0.00  0.00    -0.001 A 
ATOM      4  C3  UNL d   1       0.307   2.246  -1.928  0.00  0.00     0.003 A 
ATOM      5  C4  UNL d   1       0.726   2.601  -3.209  0.00  0.00    -0.005 A 
ATOM      6  C5  UNL d   1       1.382   1.668  -4.008  0.00  0.00     0.003 A 
ATOM      7  C6  UNL d   1       1.621   0.380  -3.526  0.00  0.00    -0.001 A 
ENDROOT
TORSDOF 0
ENDMDL
