MODEL 1
REMARK minimizedAffinity -1.57657576
REMARK minimizedRMSD -1
REMARK  0 active torsions:
REMARK  status: ('A' for Active; 'I' for Inactive)
ROOT
ATOM      1  C   UNL d   1       0.325   1.560  -1.626  0.00  0.00     0.078 C 
ATOM      2  C1  UNL d   1       0.705   0.166  -2.028  0.00  0.00    -0.077 A 
ATOM      3  C2  UNL d   1       0.851  -0.846  -1.072  0.00  0.00    -0.001 A 
ATOM      4  C3  UNL d   1       1.215  -2.136  -1.459  0.00  0.00     0.003 A 
ATOM      5  C4  UNL d   1       1.437  -2.427  -2.804  0.00  0.00    -0.005 A 
ATOM      6  C5  UNL d   1       1.297  -1.425  -3.763  0.00  0.00     0.003 A 
ATOM      7  C6  UNL d   1       0.933  -0.134  -3.377  0.00  0.00    -0.001 A 
ENDROOT
TORSDOF 0
ENDMDL
