MODEL 1
REMARK minimizedAffinity 0.0809154361
REMARK minimizedRMSD -1
REMARK  0 active torsions:
REMARK  status: ('A' for Active; 'I' for Inactive)
ROOT
ATOM      1  C   UNL d   1       2.539   4.210  -5.269  0.00  0.00     0.078 C 
ATOM      2  C1  UNL d   1       3.736   3.313  -5.173  0.00  0.00    -0.077 A 
ATOM      3  C2  UNL d   1       3.726   2.033  -5.740  0.00  0.00    -0.001 A 
ATOM      4  C3  UNL d   1       4.845   1.205  -5.634  0.00  0.00     0.003 A 
ATOM      5  C4  UNL d   1       5.981   1.647  -4.961  0.00  0.00    -0.005 A 
ATOM      6  C5  UNL d   1       6.000   2.919  -4.391  0.00  0.00     0.003 A 
ATOM      7  C6  UNL d   1       4.882   3.748  -4.496  0.00  0.00    -0.001 A 
ENDROOT
TORSDOF 0
ENDMDL
