MODEL 1
REMARK minimizedAffinity -3.10487151
REMARK minimizedRMSD -1
REMARK  0 active torsions:
REMARK  status: ('A' for Active; 'I' for Inactive)
ROOT
ATOM      1  C   UNL d   1      -3.787   1.926   5.620  0.00  0.00     0.078 C 
ATOM      2  C1  UNL d   1      -4.078   3.349   5.245  0.00  0.00    -0.077 A 
ATOM      3  C2  UNL d   1      -4.972   4.124   5.994  0.00  0.00    -0.001 A 
ATOM      4  C3  UNL d   1      -5.241   5.443   5.628  0.00  0.00     0.003 A 
ATOM      5  C4  UNL d   1      -4.621   5.999   4.510  0.00  0.00    -0.005 A 
ATOM      6  C5  UNL d   1      -3.732   5.235   3.757  0.00  0.00     0.003 A 
ATOM      7  C6  UNL d   1      -3.462   3.915   4.122  0.00  0.00    -0.001 A 
ENDROOT
TORSDOF 0
ENDMDL
