MODEL 1
REMARK minimizedAffinity 0.107197933
REMARK minimizedRMSD -1
REMARK  0 active torsions:
REMARK  status: ('A' for Active; 'I' for Inactive)
ROOT
ATOM      1  C   UNL d   1       6.000   0.384  -5.950  0.00  0.00     0.078 C 
ATOM      2  C1  UNL d   1       5.137   1.583  -5.692  0.00  0.00    -0.077 A 
ATOM      3  C2  UNL d   1       5.688   2.779  -5.216  0.00  0.00    -0.001 A 
ATOM      4  C3  UNL d   1       4.872   3.884  -4.971  0.00  0.00     0.003 A 
ATOM      5  C4  UNL d   1       3.500   3.804  -5.198  0.00  0.00    -0.005 A 
ATOM      6  C5  UNL d   1       2.942   2.618  -5.670  0.00  0.00     0.003 A 
ATOM      7  C6  UNL d   1       3.757   1.512  -5.915  0.00  0.00    -0.001 A 
ENDROOT
TORSDOF 0
ENDMDL
