MODEL 1
REMARK minimizedAffinity 2.53088307
REMARK minimizedRMSD -1
REMARK  0 active torsions:
REMARK  status: ('A' for Active; 'I' for Inactive)
ROOT
ATOM      1  C   UNL d   1       1.116  -2.925  -3.036  0.00  0.00     0.078 C 
ATOM      2  C1  UNL d   1       1.227  -1.430  -3.062  0.00  0.00    -0.077 A 
ATOM      3  C2  UNL d   1       1.896  -0.773  -4.102  0.00  0.00    -0.001 A 
ATOM      4  C3  UNL d   1       1.999   0.619  -4.107  0.00  0.00     0.003 A 
ATOM      5  C4  UNL d   1       1.437   1.366  -3.074  0.00  0.00    -0.005 A 
ATOM      6  C5  UNL d   1       0.771   0.721  -2.034  0.00  0.00     0.003 A 
ATOM      7  C6  UNL d   1       0.666  -0.670  -2.027  0.00  0.00    -0.001 A 
ENDROOT
TORSDOF 0
ENDMDL
