MODEL 1
REMARK minimizedAffinity 15.8442278
REMARK minimizedRMSD -1
REMARK  0 active torsions:
REMARK  status: ('A' for Active; 'I' for Inactive)
ROOT
ATOM      1  C2' OXE d   1       1.285   0.612  -2.815  0.00  0.00     0.078 C 
ATOM      2  C1' OXE d   1       3.508   0.922  -1.129  0.00  0.00     0.078 C 
ATOM      3  C1  OXE d   1       2.851  -0.434  -1.184  0.00  0.00    -0.078 A 
ATOM      4  C2  OXE d   1       1.735  -0.564  -1.976  0.00  0.00    -0.078 A 
ATOM      5  C3  OXE d   1       1.123  -1.808  -2.105  0.00  0.00     0.003 A 
ATOM      6  C4  OXE d   1       1.540  -2.888  -1.318  0.00  0.00    -0.002 A 
ATOM      7  C5  OXE d   1       2.649  -2.766  -0.475  0.00  0.00    -0.002 A 
ATOM      8  C6  OXE d   1       3.340  -1.561  -0.428  0.00  0.00     0.003 A 
ENDROOT
TORSDOF 0
ENDMDL
