MODEL 1
REMARK minimizedAffinity 15.877923
REMARK minimizedRMSD -1
REMARK  0 active torsions:
REMARK  status: ('A' for Active; 'I' for Inactive)
ROOT
ATOM      1  C2' OXE d   1      -3.797   2.254   6.000  0.00  0.00     0.078 C 
ATOM      2  C1' OXE d   1      -0.990   2.278   6.000  0.00  0.00     0.078 C 
ATOM      3  C1  OXE d   1      -1.690   1.864   4.729  0.00  0.00    -0.078 A 
ATOM      4  C2  OXE d   1      -3.063   1.811   4.753  0.00  0.00    -0.078 A 
ATOM      5  C3  OXE d   1      -3.760   1.488   3.592  0.00  0.00     0.003 A 
ATOM      6  C4  OXE d   1      -3.073   1.070   2.446  0.00  0.00    -0.002 A 
ATOM      7  C5  OXE d   1      -1.674   1.079   2.413  0.00  0.00    -0.002 A 
ATOM      8  C6  OXE d   1      -0.969   1.513   3.530  0.00  0.00     0.003 A 
ENDROOT
TORSDOF 0
ENDMDL
