MODEL 1
REMARK minimizedAffinity 18.0625725
REMARK minimizedRMSD -1
REMARK  0 active torsions:
REMARK  status: ('A' for Active; 'I' for Inactive)
ROOT
ATOM      1  C2' OXE d   1       0.521  -3.751  -0.609  0.00  0.00     0.078 C 
ATOM      2  C1' OXE d   1       0.729  -1.116  -1.554  0.00  0.00     0.078 C 
ATOM      3  C1  OXE d   1      -0.562  -1.855  -1.808  0.00  0.00    -0.078 A 
ATOM      4  C2  OXE d   1      -0.637  -3.159  -1.383  0.00  0.00    -0.078 A 
ATOM      5  C3  OXE d   1      -1.824  -3.869  -1.543  0.00  0.00     0.003 A 
ATOM      6  C4  OXE d   1      -2.887  -3.318  -2.268  0.00  0.00    -0.002 A 
ATOM      7  C5  OXE d   1      -2.816  -2.004  -2.744  0.00  0.00    -0.002 A 
ATOM      8  C6  OXE d   1      -1.679  -1.246  -2.486  0.00  0.00     0.003 A 
ENDROOT
TORSDOF 0
ENDMDL
