MODEL 1
REMARK minimizedAffinity 17.5213127
REMARK minimizedRMSD -1
REMARK  0 active torsions:
REMARK  status: ('A' for Active; 'I' for Inactive)
ROOT
ATOM      1  C2' OXE d   1       5.137  -1.997   0.396  0.00  0.00     0.078 C 
ATOM      2  C1' OXE d   1       2.480  -1.570  -0.403  0.00  0.00     0.078 C 
ATOM      3  C1  OXE d   1       3.449  -0.422  -0.539  0.00  0.00    -0.078 A 
ATOM      4  C2  OXE d   1       4.735  -0.625  -0.102  0.00  0.00    -0.078 A 
ATOM      5  C3  OXE d   1       5.683   0.383  -0.255  0.00  0.00     0.003 A 
ATOM      6  C4  OXE d   1       5.301   1.652  -0.708  0.00  0.00    -0.002 A 
ATOM      7  C5  OXE d   1       3.986   1.892  -1.121  0.00  0.00    -0.002 A 
ATOM      8  C6  OXE d   1       3.060   0.856  -1.083  0.00  0.00     0.003 A 
ENDROOT
TORSDOF 0
ENDMDL
