MODEL 1
REMARK minimizedAffinity 13.7496176
REMARK minimizedRMSD -1
REMARK  0 active torsions:
REMARK  status: ('A' for Active; 'I' for Inactive)
ROOT
ATOM      1  C2' OXE d   1       1.068   0.056  -2.204  0.00  0.00     0.078 C 
ATOM      2  C1' OXE d   1       3.273   0.693  -0.588  0.00  0.00     0.078 C 
ATOM      3  C1  OXE d   1       3.107  -0.743  -1.016  0.00  0.00    -0.078 A 
ATOM      4  C2  OXE d   1       1.999  -1.055  -1.768  0.00  0.00    -0.078 A 
ATOM      5  C3  OXE d   1       1.827  -2.355  -2.235  0.00  0.00     0.003 A 
ATOM      6  C4  OXE d   1       2.687  -3.378  -1.819  0.00  0.00    -0.002 A 
ATOM      7  C5  OXE d   1       3.799  -3.089  -1.021  0.00  0.00    -0.002 A 
ATOM      8  C6  OXE d   1       4.047  -1.773  -0.647  0.00  0.00     0.003 A 
ENDROOT
TORSDOF 0
ENDMDL
