MODEL 1
REMARK minimizedAffinity 11.3694334
REMARK minimizedRMSD -1
REMARK  0 active torsions:
REMARK  status: ('A' for Active; 'I' for Inactive)
ROOT
ATOM      1  C2' OXE d   1       1.122   0.627   5.658  0.00  0.00     0.078 C 
ATOM      2  C1' OXE d   1      -1.223   2.131   6.000  0.00  0.00     0.078 C 
ATOM      3  C1  OXE d   1      -1.000   1.470   4.662  0.00  0.00    -0.078 A 
ATOM      4  C2  OXE d   1       0.173   0.775   4.489  0.00  0.00    -0.078 A 
ATOM      5  C3  OXE d   1       0.404   0.101   3.293  0.00  0.00     0.003 A 
ATOM      6  C4  OXE d   1      -0.475   0.251   2.213  0.00  0.00    -0.002 A 
ATOM      7  C5  OXE d   1      -1.656   0.988   2.356  0.00  0.00    -0.002 A 
ATOM      8  C6  OXE d   1      -1.953   1.567   3.584  0.00  0.00     0.003 A 
ENDROOT
TORSDOF 0
ENDMDL
