MODEL 1
REMARK minimizedAffinity 4.44416571
REMARK minimizedRMSD -1
REMARK  0 active torsions:
REMARK  status: ('A' for Active; 'I' for Inactive)
ROOT
ATOM      1  C2' OXE d   1      -2.960  -3.056  -3.637  0.00  0.00     0.078 C 
ATOM      2  C1' OXE d   1      -3.248  -5.804  -3.139  0.00  0.00     0.078 C 
ATOM      3  C1  OXE d   1      -4.160  -5.175  -4.161  0.00  0.00    -0.078 A 
ATOM      4  C2  OXE d   1      -4.044  -3.821  -4.365  0.00  0.00    -0.078 A 
ATOM      5  C3  OXE d   1      -4.824  -3.200  -5.336  0.00  0.00     0.003 A 
ATOM      6  C4  OXE d   1      -5.831  -3.913  -5.998  0.00  0.00    -0.002 A 
ATOM      7  C5  OXE d   1      -5.993  -5.284  -5.777  0.00  0.00    -0.002 A 
ATOM      8  C6  OXE d   1      -5.140  -5.938  -4.895  0.00  0.00     0.003 A 
ENDROOT
TORSDOF 0
ENDMDL
