MODEL 1
REMARK minimizedAffinity 11.2923698
REMARK minimizedRMSD -1
REMARK  0 active torsions:
REMARK  status: ('A' for Active; 'I' for Inactive)
ROOT
ATOM      1  C2' OXE d   1       2.568   1.259  -0.607  0.00  0.00     0.078 C 
ATOM      2  C1' OXE d   1       1.636   2.065   1.915  0.00  0.00     0.078 C 
ATOM      3  C1  OXE d   1       1.431   3.007   0.755  0.00  0.00    -0.078 A 
ATOM      4  C2  OXE d   1       1.932   2.625  -0.466  0.00  0.00    -0.078 A 
ATOM      5  C3  OXE d   1       1.721   3.432  -1.580  0.00  0.00     0.003 A 
ATOM      6  C4  OXE d   1       1.141   4.699  -1.439  0.00  0.00    -0.002 A 
ATOM      7  C5  OXE d   1       0.659   5.124  -0.196  0.00  0.00    -0.002 A 
ATOM      8  C6  OXE d   1       0.758   4.275   0.900  0.00  0.00     0.003 A 
ENDROOT
TORSDOF 0
ENDMDL
