MODEL 1
REMARK minimizedAffinity -0.0367014892
REMARK minimizedRMSD -1
REMARK  0 active torsions:
REMARK  status: ('A' for Active; 'I' for Inactive)
ROOT
ATOM      1  C2' OXE d   1       3.877  -6.000  -1.517  0.00  0.00     0.078 C 
ATOM      2  C1' OXE d   1       1.464  -5.632  -2.904  0.00  0.00     0.078 C 
ATOM      3  C1  OXE d   1       2.065  -4.436  -2.208  0.00  0.00    -0.078 A 
ATOM      4  C2  OXE d   1       3.221  -4.636  -1.493  0.00  0.00    -0.078 A 
ATOM      5  C3  OXE d   1       3.847  -3.555  -0.878  0.00  0.00     0.003 A 
ATOM      6  C4  OXE d   1       3.229  -2.299  -0.852  0.00  0.00    -0.002 A 
ATOM      7  C5  OXE d   1       2.030  -2.084  -1.541  0.00  0.00    -0.002 A 
ATOM      8  C6  OXE d   1       1.459  -3.129  -2.257  0.00  0.00     0.003 A 
ENDROOT
TORSDOF 0
ENDMDL
