MODEL 1
REMARK minimizedAffinity 20.794363
REMARK minimizedRMSD -1
REMARK  0 active torsions:
REMARK  status: ('A' for Active; 'I' for Inactive)
ROOT
ATOM      1  C2' OXE d   1      -2.073  -0.001  -2.660  0.00  0.00     0.078 C 
ATOM      2  C1' OXE d   1       0.252  -1.299  -1.770  0.00  0.00     0.078 C 
ATOM      3  C1  OXE d   1      -0.898  -2.157  -2.237  0.00  0.00    -0.078 A 
ATOM      4  C2  OXE d   1      -2.048  -1.514  -2.627  0.00  0.00    -0.078 A 
ATOM      5  C3  OXE d   1      -3.119  -2.255  -3.118  0.00  0.00     0.003 A 
ATOM      6  C4  OXE d   1      -3.092  -3.655  -3.074  0.00  0.00    -0.002 A 
ATOM      7  C5  OXE d   1      -1.945  -4.329  -2.644  0.00  0.00    -0.002 A 
ATOM      8  C6  OXE d   1      -0.826  -3.597  -2.263  0.00  0.00     0.003 A 
ENDROOT
TORSDOF 0
ENDMDL
