MODEL 1
REMARK minimizedAffinity 9.91115093
REMARK minimizedRMSD -1
REMARK  0 active torsions:
REMARK  status: ('A' for Active; 'I' for Inactive)
ROOT
ATOM      1  C2' OXE d   1      -1.533  -0.459  -3.612  0.00  0.00     0.078 C 
ATOM      2  C1' OXE d   1       0.151  -1.880  -1.873  0.00  0.00     0.078 C 
ATOM      3  C1  OXE d   1      -1.009  -2.620  -2.491  0.00  0.00    -0.078 A 
ATOM      4  C2  OXE d   1      -1.855  -1.905  -3.304  0.00  0.00    -0.078 A 
ATOM      5  C3  OXE d   1      -2.908  -2.554  -3.943  0.00  0.00     0.003 A 
ATOM      6  C4  OXE d   1      -3.204  -3.889  -3.644  0.00  0.00    -0.002 A 
ATOM      7  C5  OXE d   1      -2.378  -4.625  -2.788  0.00  0.00    -0.002 A 
ATOM      8  C6  OXE d   1      -1.255  -4.019  -2.237  0.00  0.00     0.003 A 
ENDROOT
TORSDOF 0
ENDMDL
