MODEL 1
REMARK minimizedAffinity 9.59964561
REMARK minimizedRMSD -1
REMARK  0 active torsions:
REMARK  status: ('A' for Active; 'I' for Inactive)
ROOT
ATOM      1  C2' OXE d   1       0.759  -0.949  -0.293  0.00  0.00     0.078 C 
ATOM      2  C1' OXE d   1       1.849   0.256  -2.582  0.00  0.00     0.078 C 
ATOM      3  C1  OXE d   1       2.288  -1.148  -2.249  0.00  0.00    -0.078 A 
ATOM      4  C2  OXE d   1       1.786  -1.713  -1.101  0.00  0.00    -0.078 A 
ATOM      5  C3  OXE d   1       2.116  -3.025  -0.777  0.00  0.00     0.003 A 
ATOM      6  C4  OXE d   1       3.074  -3.721  -1.525  0.00  0.00    -0.002 A 
ATOM      7  C5  OXE d   1       3.628  -3.150  -2.675  0.00  0.00    -0.002 A 
ATOM      8  C6  OXE d   1       3.215  -1.883  -3.074  0.00  0.00     0.003 A 
ENDROOT
TORSDOF 0
ENDMDL
