MODEL 1
REMARK minimizedAffinity 16.4032345
REMARK minimizedRMSD -1
REMARK  0 active torsions:
REMARK  status: ('A' for Active; 'I' for Inactive)
ROOT
ATOM      1  C2' OXE d   1       2.786  -1.711  -0.464  0.00  0.00     0.078 C 
ATOM      2  C1' OXE d   1       3.372   1.008  -0.087  0.00  0.00     0.078 C 
ATOM      3  C1  OXE d   1       2.597   0.620  -1.321  0.00  0.00    -0.078 A 
ATOM      4  C2  OXE d   1       2.355  -0.718  -1.521  0.00  0.00    -0.078 A 
ATOM      5  C3  OXE d   1       1.597  -1.125  -2.616  0.00  0.00     0.003 A 
ATOM      6  C4  OXE d   1       1.212  -0.201  -3.594  0.00  0.00    -0.002 A 
ATOM      7  C5  OXE d   1       1.483   1.161  -3.430  0.00  0.00    -0.002 A 
ATOM      8  C6  OXE d   1       2.136   1.593  -2.281  0.00  0.00     0.003 A 
ENDROOT
TORSDOF 0
ENDMDL
