MODEL 1
REMARK minimizedAffinity 7.87367582
REMARK minimizedRMSD -1
REMARK  0 active torsions:
REMARK  status: ('A' for Active; 'I' for Inactive)
ROOT
ATOM      1  C2' OXE d   1      -1.555   3.044   3.472  0.00  0.00     0.078 C 
ATOM      2  C1' OXE d   1      -2.185   1.997   5.999  0.00  0.00     0.078 C 
ATOM      3  C1  OXE d   1      -2.769   1.312   4.789  0.00  0.00    -0.078 A 
ATOM      4  C2  OXE d   1      -2.493   1.859   3.559  0.00  0.00    -0.078 A 
ATOM      5  C3  OXE d   1      -2.961   1.235   2.406  0.00  0.00     0.003 A 
ATOM      6  C4  OXE d   1      -3.837   0.146   2.496  0.00  0.00    -0.002 A 
ATOM      7  C5  OXE d   1      -4.162  -0.403   3.740  0.00  0.00    -0.002 A 
ATOM      8  C6  OXE d   1      -3.604   0.141   4.892  0.00  0.00     0.003 A 
ENDROOT
TORSDOF 0
ENDMDL
