MODEL 1
REMARK minimizedAffinity 0.766762435
REMARK minimizedRMSD -1
REMARK  3 active torsions:
REMARK  status: ('A' for Active; 'I' for Inactive)
REMARK    1  A    between atoms: C3'_2  and  C2'_3 
REMARK    2  A    between atoms: C2'_3  and  C1'_4 
REMARK    3  A    between atoms: C1'_4  and  C1_5 
ROOT
ATOM      1  C1  N4B d   1       0.513   0.548   0.355  0.00  0.00    -0.075 A 
ATOM      2  C2  N4B d   1      -0.705   1.082  -0.120  0.00  0.00     0.002 A 
ATOM      3  C3  N4B d   1      -0.902   2.441  -0.127  0.00  0.00     0.002 A 
ATOM      4  C4  N4B d   1       0.092   3.281   0.351  0.00  0.00    -0.004 A 
ATOM      5  C5  N4B d   1       1.276   2.759   0.784  0.00  0.00     0.002 A 
ATOM      6  C6  N4B d   1       1.490   1.395   0.793  0.00  0.00     0.002 A 
ENDROOT
BRANCH   1   7
ATOM      7  C1' N4B d   1       0.742  -0.935   0.462  0.00  0.00     0.057 C 
BRANCH   7   8
ATOM      8  C2' N4B d   1       0.625  -1.561  -0.924  0.00  0.00     0.009 C 
BRANCH   8   9
ATOM      9  C3' N4B d   1      -0.662  -2.353  -1.083  0.00  0.00     0.004 C 
ATOM     10  C4' N4B d   1      -0.586  -3.372  -2.180  0.00  0.00     0.003 C 
ENDBRANCH   8   9
ENDBRANCH   7   8
ENDBRANCH   1   7
TORSDOF 3
ENDMDL
