MODEL 1
REMARK minimizedAffinity -3.05036068
REMARK minimizedRMSD -1
REMARK  3 active torsions:
REMARK  status: ('A' for Active; 'I' for Inactive)
REMARK    1  A    between atoms: C3'_2  and  C2'_3 
REMARK    2  A    between atoms: C2'_3  and  C1'_4 
REMARK    3  A    between atoms: C1'_4  and  C1_5 
ROOT
ATOM      1  C1  N4B d   1       1.510   0.320   1.313  0.00  0.00    -0.075 A 
ATOM      2  C2  N4B d   1       0.632  -0.786   1.333  0.00  0.00     0.002 A 
ATOM      3  C3  N4B d   1      -0.546  -0.740   0.628  0.00  0.00     0.002 A 
ATOM      4  C4  N4B d   1      -0.874   0.403  -0.085  0.00  0.00    -0.004 A 
ATOM      5  C5  N4B d   1      -0.009   1.457  -0.120  0.00  0.00     0.002 A 
ATOM      6  C6  N4B d   1       1.181   1.423   0.581  0.00  0.00     0.002 A 
ENDROOT
BRANCH   1   7
ATOM      7  C1' N4B d   1       2.768   0.349   2.137  0.00  0.00     0.057 C 
BRANCH   7   8
ATOM      8  C2' N4B d   1       2.652  -0.671   3.266  0.00  0.00     0.009 C 
BRANCH   8   9
ATOM      9  C3' N4B d   1       2.347  -0.011   4.599  0.00  0.00     0.004 C 
ATOM     10  C4' N4B d   1       2.448   1.484   4.544  0.00  0.00     0.003 C 
ENDBRANCH   8   9
ENDBRANCH   7   8
ENDBRANCH   1   7
TORSDOF 3
ENDMDL
