MODEL 1
REMARK minimizedAffinity -3.75882649
REMARK minimizedRMSD -1
REMARK  3 active torsions:
REMARK  status: ('A' for Active; 'I' for Inactive)
REMARK    1  A    between atoms: C3'_2  and  C2'_3 
REMARK    2  A    between atoms: C2'_3  and  C1'_4 
REMARK    3  A    between atoms: C1'_4  and  C1_5 
ROOT
ATOM      1  C1  N4B d   1       4.515  -3.461  -5.108  0.00  0.00    -0.075 A 
ATOM      2  C2  N4B d   1       4.362  -3.843  -3.757  0.00  0.00     0.002 A 
ATOM      3  C3  N4B d   1       4.734  -5.102  -3.354  0.00  0.00     0.002 A 
ATOM      4  C4  N4B d   1       5.242  -5.998  -4.283  0.00  0.00    -0.004 A 
ATOM      5  C5  N4B d   1       5.410  -5.612  -5.580  0.00  0.00     0.002 A 
ATOM      6  C6  N4B d   1       5.044  -4.349  -5.999  0.00  0.00     0.002 A 
ENDROOT
BRANCH   1   7
ATOM      7  C1' N4B d   1       4.042  -2.125  -5.613  0.00  0.00     0.057 C 
BRANCH   7   8
ATOM      8  C2' N4B d   1       4.829  -1.019  -4.915  0.00  0.00     0.009 C 
BRANCH   8   9
ATOM      9  C3' N4B d   1       5.586  -0.149  -5.904  0.00  0.00     0.004 C 
ATOM     10  C4' N4B d   1       5.123   1.277  -5.896  0.00  0.00     0.003 C 
ENDBRANCH   8   9
ENDBRANCH   7   8
ENDBRANCH   1   7
TORSDOF 3
ENDMDL
