MODEL 1
REMARK minimizedAffinity 4.00938559
REMARK minimizedRMSD -1
REMARK  3 active torsions:
REMARK  status: ('A' for Active; 'I' for Inactive)
REMARK    1  A    between atoms: C3'_2  and  C2'_3 
REMARK    2  A    between atoms: C2'_3  and  C1'_4 
REMARK    3  A    between atoms: C1'_4  and  C1_5 
ROOT
ATOM      1  C1  N4B d   1      -0.110  -1.991  -0.469  0.00  0.00    -0.075 A 
ATOM      2  C2  N4B d   1       0.754  -2.287  -1.547  0.00  0.00     0.002 A 
ATOM      3  C3  N4B d   1       0.265  -2.318  -2.830  0.00  0.00     0.002 A 
ATOM      4  C4  N4B d   1      -1.082  -2.076  -3.056  0.00  0.00    -0.004 A 
ATOM      5  C5  N4B d   1      -1.904  -1.765  -2.013  0.00  0.00     0.002 A 
ATOM      6  C6  N4B d   1      -1.425  -1.726  -0.719  0.00  0.00     0.002 A 
ENDROOT
BRANCH   1   7
ATOM      7  C1' N4B d   1       0.361  -2.029   0.959  0.00  0.00     0.057 C 
BRANCH   7   8
ATOM      8  C2' N4B d   1       1.071  -0.720   1.288  0.00  0.00     0.009 C 
BRANCH   8   9
ATOM      9  C3' N4B d   1       2.538  -0.936   1.617  0.00  0.00     0.004 C 
ATOM     10  C4' N4B d   1       3.411   0.189   1.145  0.00  0.00     0.003 C 
ENDBRANCH   8   9
ENDBRANCH   7   8
ENDBRANCH   1   7
TORSDOF 3
ENDMDL
