MODEL 1
REMARK minimizedAffinity 3.30232167
REMARK minimizedRMSD -1
REMARK  3 active torsions:
REMARK  status: ('A' for Active; 'I' for Inactive)
REMARK    1  A    between atoms: C3'_2  and  C2'_3 
REMARK    2  A    between atoms: C2'_3  and  C1'_4 
REMARK    3  A    between atoms: C1'_4  and  C1_5 
ROOT
ATOM      1  C1  N4B d   1       0.989  -0.213   0.745  0.00  0.00    -0.075 A 
ATOM      2  C2  N4B d   1       1.109  -0.909   1.968  0.00  0.00     0.002 A 
ATOM      3  C3  N4B d   1       1.889  -0.397   2.975  0.00  0.00     0.002 A 
ATOM      4  C4  N4B d   1       2.570   0.794   2.777  0.00  0.00    -0.004 A 
ATOM      5  C5  N4B d   1       2.429   1.473   1.602  0.00  0.00     0.002 A 
ATOM      6  C6  N4B d   1       1.645   0.973   0.582  0.00  0.00     0.002 A 
ENDROOT
BRANCH   1   7
ATOM      7  C1' N4B d   1       0.216  -0.776  -0.417  0.00  0.00     0.057 C 
BRANCH   7   8
ATOM      8  C2' N4B d   1       1.112  -1.732  -1.198  0.00  0.00     0.009 C 
BRANCH   8   9
ATOM      9  C3' N4B d   1       0.578  -3.154  -1.179  0.00  0.00     0.004 C 
ATOM     10  C4' N4B d   1      -0.856  -3.242  -1.609  0.00  0.00     0.003 C 
ENDBRANCH   8   9
ENDBRANCH   7   8
ENDBRANCH   1   7
TORSDOF 3
ENDMDL
