MODEL 1
REMARK minimizedAffinity 3.45229721
REMARK minimizedRMSD -1
REMARK  3 active torsions:
REMARK  status: ('A' for Active; 'I' for Inactive)
REMARK    1  A    between atoms: C3'_2  and  C2'_3 
REMARK    2  A    between atoms: C2'_3  and  C1'_4 
REMARK    3  A    between atoms: C1'_4  and  C1_5 
ROOT
ATOM      1  C1  N4B d   1       1.643  -1.322   2.930  0.00  0.00    -0.075 A 
ATOM      2  C2  N4B d   1       0.695  -1.934   2.080  0.00  0.00     0.002 A 
ATOM      3  C3  N4B d   1       0.324  -1.317   0.911  0.00  0.00     0.002 A 
ATOM      4  C4  N4B d   1       0.870  -0.086   0.581  0.00  0.00    -0.004 A 
ATOM      5  C5  N4B d   1       1.804   0.486   1.395  0.00  0.00     0.002 A 
ATOM      6  C6  N4B d   1       2.190  -0.124   2.571  0.00  0.00     0.002 A 
ENDROOT
BRANCH   1   7
ATOM      7  C1' N4B d   1       2.017  -1.917   4.261  0.00  0.00     0.057 C 
BRANCH   7   8
ATOM      8  C2' N4B d   1       1.277  -3.239   4.444  0.00  0.00     0.009 C 
BRANCH   8   9
ATOM      9  C3' N4B d   1       1.882  -4.079   5.555  0.00  0.00     0.004 C 
ATOM     10  C4' N4B d   1       2.671  -5.244   5.038  0.00  0.00     0.003 C 
ENDBRANCH   8   9
ENDBRANCH   7   8
ENDBRANCH   1   7
TORSDOF 3
ENDMDL
