MODEL 1
REMARK minimizedAffinity 3.56429148
REMARK minimizedRMSD -1
REMARK  1 active torsions:
REMARK  status: ('A' for Active; 'I' for Inactive)
REMARK    1  A    between atoms: N_2  and  C1_3 
ROOT
ATOM      1  C1  UNL d   1       2.707   0.571  -0.707  0.00  0.00     0.143 A 
ATOM      2  C2  UNL d   1       2.005  -0.359  -1.481  0.00  0.00    -0.057 A 
ATOM      3  C3  UNL d   1       1.693  -1.630  -0.983  0.00  0.00     0.033 A 
ATOM      4  C4  UNL d   1       2.105  -2.004   0.292  0.00  0.00    -0.042 A 
ATOM      5  C5  UNL d   1       2.825  -1.105   1.070  0.00  0.00     0.033 A 
ATOM      6  C6  UNL d   1       3.128   0.165   0.569  0.00  0.00    -0.057 A 
ENDROOT
BRANCH   1   7
ATOM      7  N   UNL d   1       3.132   1.814  -1.182  0.00  0.00    -0.732 N 
ATOM      8  C   UNL d   1       4.175   1.904  -2.181  0.00  0.00     0.284 C 
ATOM      9  H3  UNL d   1       2.359   2.459  -1.328  0.00  0.00     0.395 HD
ENDBRANCH   1   7
TORSDOF 1
ENDMDL
