MODEL 1
REMARK minimizedAffinity 16.8628712
REMARK minimizedRMSD -1
REMARK  1 active torsions:
REMARK  status: ('A' for Active; 'I' for Inactive)
REMARK    1  A    between atoms: N_2  and  C1_3 
ROOT
ATOM      1  C1  UNL d   1       4.654   3.440   2.385  0.00  0.00     0.143 A 
ATOM      2  C2  UNL d   1       3.611   4.106   3.039  0.00  0.00    -0.057 A 
ATOM      3  C3  UNL d   1       3.587   4.225   4.433  0.00  0.00     0.033 A 
ATOM      4  C4  UNL d   1       4.593   3.652   5.204  0.00  0.00    -0.042 A 
ATOM      5  C5  UNL d   1       5.626   2.964   4.578  0.00  0.00     0.033 A 
ATOM      6  C6  UNL d   1       5.649   2.855   3.184  0.00  0.00    -0.057 A 
ENDROOT
BRANCH   1   7
ATOM      7  N   UNL d   1       4.684   3.204   1.009  0.00  0.00    -0.732 N 
ATOM      8  C   UNL d   1       3.955   2.093   0.436  0.00  0.00     0.284 C 
ATOM      9  H3  UNL d   1       4.628   4.062   0.466  0.00  0.00     0.395 HD
ENDBRANCH   1   7
TORSDOF 1
ENDMDL
