MODEL 1
REMARK minimizedAffinity 8.1771574
REMARK minimizedRMSD -1
REMARK  1 active torsions:
REMARK  status: ('A' for Active; 'I' for Inactive)
REMARK    1  A    between atoms: N_2  and  C1_3 
ROOT
ATOM      1  C1  UNL d   1       2.965   0.789  -0.572  0.00  0.00     0.143 A 
ATOM      2  C2  UNL d   1       2.240  -0.140  -1.326  0.00  0.00    -0.057 A 
ATOM      3  C3  UNL d   1       1.930  -1.406  -0.816  0.00  0.00     0.033 A 
ATOM      4  C4  UNL d   1       2.366  -1.778   0.451  0.00  0.00    -0.042 A 
ATOM      5  C5  UNL d   1       3.109  -0.880   1.209  0.00  0.00     0.033 A 
ATOM      6  C6  UNL d   1       3.410   0.386   0.697  0.00  0.00    -0.057 A 
ENDROOT
BRANCH   1   7
ATOM      7  N   UNL d   1       3.389   2.027  -1.060  0.00  0.00    -0.732 N 
ATOM      8  C   UNL d   1       4.386   2.104  -2.107  0.00  0.00     0.284 C 
ATOM      9  H3  UNL d   1       2.622   2.686  -1.168  0.00  0.00     0.395 HD
ENDBRANCH   1   7
TORSDOF 1
ENDMDL
