MODEL 1
REMARK minimizedAffinity 4.26580238
REMARK minimizedRMSD -1
REMARK  1 active torsions:
REMARK  status: ('A' for Active; 'I' for Inactive)
REMARK    1  A    between atoms: N_2  and  C1_3 
ROOT
ATOM      1  C1  UNL d   1      -5.251   0.256  -3.311  0.00  0.00     0.143 A 
ATOM      2  C2  UNL d   1      -3.886   0.003  -3.145  0.00  0.00    -0.057 A 
ATOM      3  C3  UNL d   1      -3.298  -0.004  -1.875  0.00  0.00     0.033 A 
ATOM      4  C4  UNL d   1      -4.063   0.272  -0.746  0.00  0.00    -0.042 A 
ATOM      5  C5  UNL d   1      -5.417   0.551  -0.890  0.00  0.00     0.033 A 
ATOM      6  C6  UNL d   1      -6.000   0.550  -2.161  0.00  0.00    -0.057 A 
ENDROOT
BRANCH   1   7
ATOM      7  N   UNL d   1      -5.875   0.374  -4.556  0.00  0.00    -0.732 N 
ATOM      8  C   UNL d   1      -5.251   1.124  -5.625  0.00  0.00     0.284 C 
ATOM      9  H3  UNL d   1      -6.309  -0.495  -4.857  0.00  0.00     0.395 HD
ENDBRANCH   1   7
TORSDOF 1
ENDMDL
