MODEL 1
REMARK minimizedAffinity 5.99414635
REMARK minimizedRMSD -1
REMARK  1 active torsions:
REMARK  status: ('A' for Active; 'I' for Inactive)
REMARK    1  A    between atoms: N_2  and  C1_3 
ROOT
ATOM      1  C1  UNL d   1      -5.242   3.865   3.718  0.00  0.00     0.143 A 
ATOM      2  C2  UNL d   1      -6.000   5.041   3.744  0.00  0.00    -0.057 A 
ATOM      3  C3  UNL d   1      -5.998   5.881   4.864  0.00  0.00     0.033 A 
ATOM      4  C4  UNL d   1      -5.260   5.543   5.994  0.00  0.00    -0.042 A 
ATOM      5  C5  UNL d   1      -4.520   4.366   6.000  0.00  0.00     0.033 A 
ATOM      6  C6  UNL d   1      -4.520   3.535   4.876  0.00  0.00    -0.057 A 
ENDROOT
BRANCH   1   7
ATOM      7  N   UNL d   1      -5.279   2.939   2.673  0.00  0.00    -0.732 N 
ATOM      8  C   UNL d   1      -4.171   2.036   2.448  0.00  0.00     0.284 C 
ATOM      9  H3  UNL d   1      -6.195   2.508   2.568  0.00  0.00     0.395 HD
ENDBRANCH   1   7
TORSDOF 1
ENDMDL
