MODEL 1
REMARK minimizedAffinity -4.12038517
REMARK minimizedRMSD -1
REMARK  3 active torsions:
REMARK  status: ('A' for Active; 'I' for Inactive)
REMARK    1  A    between atoms: C3'_2  and  C2'_3 
REMARK    2  A    between atoms: C2'_3  and  C1'_4 
REMARK    3  A    between atoms: C1'_4  and  C1_5 
ROOT
ATOM      1  C1  N4B d   1      -0.269   0.061   0.482  0.00  0.00    -0.075 A 
ATOM      2  C2  N4B d   1       0.345   1.191  -0.099  0.00  0.00     0.002 A 
ATOM      3  C3  N4B d   1       1.296   1.030  -1.077  0.00  0.00     0.002 A 
ATOM      4  C4  N4B d   1       1.661  -0.248  -1.473  0.00  0.00    -0.004 A 
ATOM      5  C5  N4B d   1       1.045  -1.334  -0.925  0.00  0.00     0.002 A 
ATOM      6  C6  N4B d   1       0.084  -1.187   0.055  0.00  0.00     0.002 A 
ENDROOT
BRANCH   1   7
ATOM      7  C1' N4B d   1      -1.252   0.185   1.614  0.00  0.00     0.057 C 
BRANCH   7   8
ATOM      8  C2' N4B d   1      -2.588  -0.417   1.186  0.00  0.00     0.009 C 
BRANCH   8   9
ATOM      9  C3' N4B d   1      -3.760   0.243   1.892  0.00  0.00     0.004 C 
ATOM     10  C4' N4B d   1      -3.733   1.739   1.788  0.00  0.00     0.003 C 
ENDBRANCH   8   9
ENDBRANCH   7   8
ENDBRANCH   1   7
TORSDOF 3
ENDMDL
