MODEL 1
REMARK minimizedAffinity -5.12316084
REMARK minimizedRMSD -1
REMARK  3 active torsions:
REMARK  status: ('A' for Active; 'I' for Inactive)
REMARK    1  A    between atoms: C3'_2  and  C2'_3 
REMARK    2  A    between atoms: C2'_3  and  C1'_4 
REMARK    3  A    between atoms: C1'_4  and  C1_5 
ROOT
ATOM      1  C1  N4B d   1       0.322  -1.086  -0.807  0.00  0.00    -0.075 A 
ATOM      2  C2  N4B d   1       0.923  -2.290  -1.237  0.00  0.00     0.002 A 
ATOM      3  C3  N4B d   1       1.762  -2.288  -2.324  0.00  0.00     0.002 A 
ATOM      4  C4  N4B d   1       1.998  -1.104  -3.007  0.00  0.00    -0.004 A 
ATOM      5  C5  N4B d   1       1.433   0.059  -2.570  0.00  0.00     0.002 A 
ATOM      6  C6  N4B d   1       0.592   0.073  -1.476  0.00  0.00     0.002 A 
ENDROOT
BRANCH   1   7
ATOM      7  C1' N4B d   1      -0.669  -1.053   0.325  0.00  0.00     0.057 C 
BRANCH   7   8
ATOM      8  C2' N4B d   1      -0.504   0.253   1.096  0.00  0.00     0.009 C 
BRANCH   8   9
ATOM      9  C3' N4B d   1      -1.540   0.396   2.198  0.00  0.00     0.004 C 
ATOM     10  C4' N4B d   1      -2.904  -0.065   1.776  0.00  0.00     0.003 C 
ENDBRANCH   8   9
ENDBRANCH   7   8
ENDBRANCH   1   7
TORSDOF 3
ENDMDL
