MODEL 1
REMARK minimizedAffinity -3.5865531
REMARK minimizedRMSD -1
REMARK  3 active torsions:
REMARK  status: ('A' for Active; 'I' for Inactive)
REMARK    1  A    between atoms: C3'_2  and  C2'_3 
REMARK    2  A    between atoms: C2'_3  and  C1'_4 
REMARK    3  A    between atoms: C1'_4  and  C1_5 
ROOT
ATOM      1  C1  N4B d   1      -1.670   0.336   1.258  0.00  0.00    -0.075 A 
ATOM      2  C2  N4B d   1      -2.165   1.610   1.613  0.00  0.00     0.002 A 
ATOM      3  C3  N4B d   1      -3.518   1.813   1.728  0.00  0.00     0.002 A 
ATOM      4  C4  N4B d   1      -4.392   0.767   1.475  0.00  0.00    -0.004 A 
ATOM      5  C5  N4B d   1      -3.905  -0.467   1.158  0.00  0.00     0.002 A 
ATOM      6  C6  N4B d   1      -2.547  -0.687   1.043  0.00  0.00     0.002 A 
ENDROOT
BRANCH   1   7
ATOM      7  C1' N4B d   1      -0.203   0.088   1.036  0.00  0.00     0.057 C 
BRANCH   7   8
ATOM      8  C2' N4B d   1       0.264   0.890  -0.175  0.00  0.00     0.009 C 
BRANCH   8   9
ATOM      9  C3' N4B d   1       0.558  -0.003  -1.369  0.00  0.00     0.004 C 
ATOM     10  C4' N4B d   1       1.893   0.281  -1.991  0.00  0.00     0.003 C 
ENDBRANCH   8   9
ENDBRANCH   7   8
ENDBRANCH   1   7
TORSDOF 3
ENDMDL
