MODEL 1
REMARK minimizedAffinity -1.56969261
REMARK minimizedRMSD -1
REMARK  3 active torsions:
REMARK  status: ('A' for Active; 'I' for Inactive)
REMARK    1  A    between atoms: C3'_2  and  C2'_3 
REMARK    2  A    between atoms: C2'_3  and  C1'_4 
REMARK    3  A    between atoms: C1'_4  and  C1_5 
ROOT
ATOM      1  C1  N4B d   1      -0.341  -0.513   0.061  0.00  0.00    -0.075 A 
ATOM      2  C2  N4B d   1      -0.359  -0.535  -1.351  0.00  0.00     0.002 A 
ATOM      3  C3  N4B d   1      -0.073  -1.698  -2.023  0.00  0.00     0.002 A 
ATOM      4  C4  N4B d   1       0.251  -2.842  -1.307  0.00  0.00    -0.004 A 
ATOM      5  C5  N4B d   1       0.241  -2.818   0.057  0.00  0.00     0.002 A 
ATOM      6  C6  N4B d   1      -0.048  -1.658   0.745  0.00  0.00     0.002 A 
ENDROOT
BRANCH   1   7
ATOM      7  C1' N4B d   1      -0.563   0.756   0.838  0.00  0.00     0.057 C 
BRANCH   7   8
ATOM      8  C2' N4B d   1       0.318   1.858   0.259  0.00  0.00     0.009 C 
BRANCH   8   9
ATOM      9  C3' N4B d   1       1.796   1.559   0.441  0.00  0.00     0.004 C 
ATOM     10  C4' N4B d   1       2.510   1.346  -0.861  0.00  0.00     0.003 C 
ENDBRANCH   8   9
ENDBRANCH   7   8
ENDBRANCH   1   7
TORSDOF 3
ENDMDL
