MODEL 1
REMARK minimizedAffinity -5.24893141
REMARK minimizedRMSD -1
REMARK  3 active torsions:
REMARK  status: ('A' for Active; 'I' for Inactive)
REMARK    1  A    between atoms: C3'_2  and  C2'_3 
REMARK    2  A    between atoms: C2'_3  and  C1'_4 
REMARK    3  A    between atoms: C1'_4  and  C1_5 
ROOT
ATOM      1  C1  N4B d   1       0.366  -0.341  -0.702  0.00  0.00    -0.075 A 
ATOM      2  C2  N4B d   1       1.288   0.183  -1.634  0.00  0.00     0.002 A 
ATOM      3  C3  N4B d   1       1.913  -0.654  -2.526  0.00  0.00     0.002 A 
ATOM      4  C4  N4B d   1       1.646  -2.015  -2.492  0.00  0.00    -0.004 A 
ATOM      5  C5  N4B d   1       0.735  -2.509  -1.605  0.00  0.00     0.002 A 
ATOM      6  C6  N4B d   1       0.097  -1.679  -0.706  0.00  0.00     0.002 A 
ENDROOT
BRANCH   1   7
ATOM      7  C1' N4B d   1      -0.278   0.522   0.349  0.00  0.00     0.057 C 
BRANCH   7   8
ATOM      8  C2' N4B d   1      -0.817  -0.368   1.466  0.00  0.00     0.009 C 
BRANCH   8   9
ATOM      9  C3' N4B d   1      -2.005   0.264   2.172  0.00  0.00     0.004 C 
ATOM     10  C4' N4B d   1      -3.316  -0.101   1.542  0.00  0.00     0.003 C 
ENDBRANCH   8   9
ENDBRANCH   7   8
ENDBRANCH   1   7
TORSDOF 3
ENDMDL
