MODEL 1
REMARK minimizedAffinity -3.85427284
REMARK minimizedRMSD -1
REMARK  3 active torsions:
REMARK  status: ('A' for Active; 'I' for Inactive)
REMARK    1  A    between atoms: C3'_2  and  C2'_3 
REMARK    2  A    between atoms: C2'_3  and  C1'_4 
REMARK    3  A    between atoms: C1'_4  and  C1_5 
ROOT
ATOM      1  C1  N4B d   1      -0.019  -0.265  -0.717  0.00  0.00    -0.075 A 
ATOM      2  C2  N4B d   1       0.572   1.007  -0.558  0.00  0.00     0.002 A 
ATOM      3  C3  N4B d   1       1.408   1.502  -1.528  0.00  0.00     0.002 A 
ATOM      4  C4  N4B d   1       1.683   0.738  -2.652  0.00  0.00    -0.004 A 
ATOM      5  C5  N4B d   1       1.088  -0.480  -2.810  0.00  0.00     0.002 A 
ATOM      6  C6  N4B d   1       0.242  -0.988  -1.845  0.00  0.00     0.002 A 
ENDROOT
BRANCH   1   7
ATOM      7  C1' N4B d   1      -0.872  -0.885   0.356  0.00  0.00     0.057 C 
BRANCH   7   8
ATOM      8  C2' N4B d   1      -1.737   0.197   0.995  0.00  0.00     0.009 C 
BRANCH   8   9
ATOM      9  C3' N4B d   1      -3.219  -0.060   0.781  0.00  0.00     0.004 C 
ATOM     10  C4' N4B d   1      -4.088   0.974   1.432  0.00  0.00     0.003 C 
ENDBRANCH   8   9
ENDBRANCH   7   8
ENDBRANCH   1   7
TORSDOF 3
ENDMDL
