MODEL 1
REMARK minimizedAffinity -3.38927913
REMARK minimizedRMSD -1
REMARK  3 active torsions:
REMARK  status: ('A' for Active; 'I' for Inactive)
REMARK    1  A    between atoms: C3'_2  and  C2'_3 
REMARK    2  A    between atoms: C2'_3  and  C1'_4 
REMARK    3  A    between atoms: C1'_4  and  C1_5 
ROOT
ATOM      1  C1  N4B d   1       0.336  -0.220  -0.692  0.00  0.00    -0.075 A 
ATOM      2  C2  N4B d   1       0.977   1.007  -0.409  0.00  0.00     0.002 A 
ATOM      3  C3  N4B d   1       1.948   1.485  -1.255  0.00  0.00     0.002 A 
ATOM      4  C4  N4B d   1       2.306   0.749  -2.374  0.00  0.00    -0.004 A 
ATOM      5  C5  N4B d   1       1.665  -0.423  -2.654  0.00  0.00     0.002 A 
ATOM      6  C6  N4B d   1       0.684  -0.913  -1.815  0.00  0.00     0.002 A 
ENDROOT
BRANCH   1   7
ATOM      7  C1' N4B d   1      -0.670  -0.825   0.248  0.00  0.00     0.057 C 
BRANCH   7   8
ATOM      8  C2' N4B d   1      -1.523   0.286   0.852  0.00  0.00     0.009 C 
BRANCH   8   9
ATOM      9  C3' N4B d   1      -3.001  -0.063   0.841  0.00  0.00     0.004 C 
ATOM     10  C4' N4B d   1      -3.805   0.785   1.781  0.00  0.00     0.003 C 
ENDBRANCH   8   9
ENDBRANCH   7   8
ENDBRANCH   1   7
TORSDOF 3
ENDMDL
