MODEL 1
REMARK minimizedAffinity -4.47630835
REMARK minimizedRMSD -1
REMARK  3 active torsions:
REMARK  status: ('A' for Active; 'I' for Inactive)
REMARK    1  A    between atoms: C3'_2  and  C2'_3 
REMARK    2  A    between atoms: C2'_3  and  C1'_4 
REMARK    3  A    between atoms: C1'_4  and  C1_5 
ROOT
ATOM      1  C1  N4B d   1       0.520   0.313  -0.186  0.00  0.00    -0.075 A 
ATOM      2  C2  N4B d   1       0.111  -0.907  -0.767  0.00  0.00     0.002 A 
ATOM      3  C3  N4B d   1       0.613  -1.289  -1.987  0.00  0.00     0.002 A 
ATOM      4  C4  N4B d   1       1.509  -0.463  -2.649  0.00  0.00    -0.004 A 
ATOM      5  C5  N4B d   1       1.919   0.702  -2.069  0.00  0.00     0.002 A 
ATOM      6  C6  N4B d   1       1.425   1.097  -0.842  0.00  0.00     0.002 A 
ENDROOT
BRANCH   1   7
ATOM      7  C1' N4B d   1      -0.067   0.814   1.105  0.00  0.00     0.057 C 
BRANCH   7   8
ATOM      8  C2' N4B d   1      -0.979  -0.259   1.691  0.00  0.00     0.009 C 
BRANCH   8   9
ATOM      9  C3' N4B d   1      -2.142   0.341   2.462  0.00  0.00     0.004 C 
ATOM     10  C4' N4B d   1      -3.452   0.192   1.748  0.00  0.00     0.003 C 
ENDBRANCH   8   9
ENDBRANCH   7   8
ENDBRANCH   1   7
TORSDOF 3
ENDMDL
