MODEL 1
REMARK minimizedAffinity 2.10498524
REMARK minimizedRMSD -1
REMARK  1 active torsions:
REMARK  status: ('A' for Active; 'I' for Inactive)
REMARK    1  A    between atoms: C1_2  and  C2_3 
ROOT
ATOM      1  C2  UNL d   1       0.349  -1.122  -2.642  0.00  0.00    -0.073 A 
ATOM      2  C3  UNL d   1       0.526  -0.011  -1.809  0.00  0.00    -0.002 A 
ATOM      3  C4  UNL d   1       1.227  -0.135  -0.609  0.00  0.00     0.004 A 
ATOM      4  C5  UNL d   1       1.764  -1.366  -0.233  0.00  0.00    -0.004 A 
ATOM      5  C6  UNL d   1       1.609  -2.485  -1.058  0.00  0.00    -0.075 A 
ATOM      6  C7  UNL d   1       2.179  -3.817  -0.667  0.00  0.00     0.076 C 
ATOM      7  C8  UNL d   1       0.901  -2.353  -2.260  0.00  0.00     0.001 A 
ENDROOT
BRANCH   1   8
ATOM      8  C1  UNL d   1      -0.401  -0.992  -3.942  0.00  0.00     0.053 C 
ATOM      9  C   UNL d   1       0.012   0.249  -4.718  0.00  0.00     0.018 C 
ENDBRANCH   1   8
TORSDOF 1
ENDMDL
