MODEL 1
REMARK minimizedAffinity -1.81270981
REMARK minimizedRMSD -1
REMARK  1 active torsions:
REMARK  status: ('A' for Active; 'I' for Inactive)
REMARK    1  A    between atoms: C1_2  and  C2_3 
ROOT
ATOM      1  C2  UNL d   1       0.984  -3.072   0.221  0.00  0.00    -0.073 A 
ATOM      2  C3  UNL d   1      -0.314  -3.117  -0.300  0.00  0.00    -0.002 A 
ATOM      3  C4  UNL d   1      -0.729  -2.173  -1.240  0.00  0.00     0.004 A 
ATOM      4  C5  UNL d   1       0.150  -1.180  -1.673  0.00  0.00    -0.004 A 
ATOM      5  C6  UNL d   1       1.455  -1.126  -1.172  0.00  0.00    -0.075 A 
ATOM      6  C7  UNL d   1       2.412  -0.062  -1.625  0.00  0.00     0.076 C 
ATOM      7  C8  UNL d   1       1.863  -2.076  -0.226  0.00  0.00     0.001 A 
ENDROOT
BRANCH   1   8
ATOM      8  C1  UNL d   1       1.438  -4.094   1.232  0.00  0.00     0.053 C 
ATOM      9  C   UNL d   1       0.613  -5.369   1.163  0.00  0.00     0.018 C 
ENDBRANCH   1   8
TORSDOF 1
ENDMDL
