MODEL 1
REMARK minimizedAffinity 1.47928441
REMARK minimizedRMSD -1
REMARK  1 active torsions:
REMARK  status: ('A' for Active; 'I' for Inactive)
REMARK    1  A    between atoms: C1_2  and  C2_3 
ROOT
ATOM      1  C2  UNL d   1       1.935  -1.460  -1.008  0.00  0.00    -0.073 A 
ATOM      2  C3  UNL d   1       1.690  -0.266  -0.319  0.00  0.00    -0.002 A 
ATOM      3  C4  UNL d   1       0.901   0.731  -0.896  0.00  0.00     0.004 A 
ATOM      4  C5  UNL d   1       0.345   0.542  -2.161  0.00  0.00    -0.004 A 
ATOM      5  C6  UNL d   1       0.569  -0.649  -2.859  0.00  0.00    -0.075 A 
ATOM      6  C7  UNL d   1      -0.020  -0.866  -4.222  0.00  0.00     0.076 C 
ATOM      7  C8  UNL d   1       1.364  -1.644  -2.275  0.00  0.00     0.001 A 
ENDROOT
BRANCH   1   8
ATOM      8  C1  UNL d   1       2.781  -2.541  -0.387  0.00  0.00     0.053 C 
ATOM      9  C   UNL d   1       2.050  -3.874  -0.330  0.00  0.00     0.018 C 
ENDBRANCH   1   8
TORSDOF 1
ENDMDL
