MODEL 1
REMARK minimizedAffinity -1.55230212
REMARK minimizedRMSD -1
REMARK  1 active torsions:
REMARK  status: ('A' for Active; 'I' for Inactive)
REMARK    1  A    between atoms: C1_2  and  C2_3 
ROOT
ATOM      1  C2  UNL d   1       0.753  -3.767   0.604  0.00  0.00    -0.073 A 
ATOM      2  C3  UNL d   1       2.076  -3.627   0.170  0.00  0.00    -0.002 A 
ATOM      3  C4  UNL d   1       2.433  -2.573  -0.673  0.00  0.00     0.004 A 
ATOM      4  C5  UNL d   1       1.475  -1.647  -1.083  0.00  0.00    -0.004 A 
ATOM      5  C6  UNL d   1       0.150  -1.764  -0.651  0.00  0.00    -0.075 A 
ATOM      6  C7  UNL d   1      -0.893  -0.777  -1.086  0.00  0.00     0.076 C 
ATOM      7  C8  UNL d   1      -0.201  -2.826   0.193  0.00  0.00     0.001 A 
ENDROOT
BRANCH   1   8
ATOM      8  C1  UNL d   1       0.364  -4.900   1.519  0.00  0.00     0.053 C 
ATOM      9  C   UNL d   1       1.414  -5.999   1.543  0.00  0.00     0.018 C 
ENDBRANCH   1   8
TORSDOF 1
ENDMDL
