MODEL 1
REMARK minimizedAffinity -4.70842028
REMARK minimizedRMSD -1
REMARK  1 active torsions:
REMARK  status: ('A' for Active; 'I' for Inactive)
REMARK    1  A    between atoms: C1_2  and  C2_3 
ROOT
ATOM      1  C2  UNL d   1       1.039  -3.400   0.053  0.00  0.00    -0.073 A 
ATOM      2  C3  UNL d   1      -0.344  -3.313   0.253  0.00  0.00    -0.002 A 
ATOM      3  C4  UNL d   1      -1.011  -2.105   0.045  0.00  0.00     0.004 A 
ATOM      4  C5  UNL d   1      -0.306  -0.976  -0.371  0.00  0.00    -0.004 A 
ATOM      5  C6  UNL d   1       1.074  -1.046  -0.587  0.00  0.00    -0.075 A 
ATOM      6  C7  UNL d   1       1.847   0.161  -1.033  0.00  0.00     0.076 C 
ATOM      7  C8  UNL d   1       1.737  -2.261  -0.374  0.00  0.00     0.001 A 
ENDROOT
BRANCH   1   8
ATOM      8  C1  UNL d   1       1.763  -4.703   0.270  0.00  0.00     0.053 C 
ATOM      9  C   UNL d   1       0.893  -5.727   0.982  0.00  0.00     0.018 C 
ENDBRANCH   1   8
TORSDOF 1
ENDMDL
