MODEL 1
REMARK minimizedAffinity 7.28381872
REMARK minimizedRMSD -1
REMARK  1 active torsions:
REMARK  status: ('A' for Active; 'I' for Inactive)
REMARK    1  A    between atoms: C1_2  and  C2_3 
ROOT
ATOM      1  C2  UNL d   1      -4.889  -0.451   2.777  0.00  0.00    -0.073 A 
ATOM      2  C3  UNL d   1      -4.070  -1.574   2.937  0.00  0.00    -0.002 A 
ATOM      3  C4  UNL d   1      -3.047  -1.571   3.887  0.00  0.00     0.004 A 
ATOM      4  C5  UNL d   1      -2.839  -0.449   4.690  0.00  0.00    -0.004 A 
ATOM      5  C6  UNL d   1      -3.654   0.678   4.553  0.00  0.00    -0.075 A 
ATOM      6  C7  UNL d   1      -3.441   1.893   5.407  0.00  0.00     0.076 C 
ATOM      7  C8  UNL d   1      -4.677   0.668   3.595  0.00  0.00     0.001 A 
ENDROOT
BRANCH   1   8
ATOM      8  C1  UNL d   1      -5.998  -0.452   1.757  0.00  0.00     0.053 C 
ATOM      9  C   UNL d   1      -5.598   0.269   0.479  0.00  0.00     0.018 C 
ENDBRANCH   1   8
TORSDOF 1
ENDMDL
