MODEL 1
REMARK minimizedAffinity -2.4651444
REMARK minimizedRMSD -1
REMARK  1 active torsions:
REMARK  status: ('A' for Active; 'I' for Inactive)
REMARK    1  A    between atoms: C1_2  and  C2_3 
ROOT
ATOM      1  C2  UNL d   1      -4.785  -0.425   3.444  0.00  0.00    -0.073 A 
ATOM      2  C3  UNL d   1      -3.523  -1.004   3.275  0.00  0.00    -0.002 A 
ATOM      3  C4  UNL d   1      -2.422  -0.513   3.979  0.00  0.00     0.004 A 
ATOM      4  C5  UNL d   1      -2.574   0.555   4.863  0.00  0.00    -0.004 A 
ATOM      5  C6  UNL d   1      -3.830   1.139   5.054  0.00  0.00    -0.075 A 
ATOM      6  C7  UNL d   1      -4.010   2.290   6.000  0.00  0.00     0.076 C 
ATOM      7  C8  UNL d   1      -4.930   0.642   4.342  0.00  0.00     0.001 A 
ENDROOT
BRANCH   1   8
ATOM      8  C1  UNL d   1      -5.978  -0.956   2.691  0.00  0.00     0.053 C 
ATOM      9  C   UNL d   1      -5.997  -0.481   1.246  0.00  0.00     0.018 C 
ENDBRANCH   1   8
TORSDOF 1
ENDMDL
