MODEL 1
REMARK minimizedAffinity 3.36399579
REMARK minimizedRMSD -1
REMARK  1 active torsions:
REMARK  status: ('A' for Active; 'I' for Inactive)
REMARK    1  A    between atoms: C1_2  and  C2_3 
ROOT
ATOM      1  C2  UNL d   1       1.707  -2.027  -0.469  0.00  0.00    -0.073 A 
ATOM      2  C3  UNL d   1       2.074  -0.764  -0.945  0.00  0.00    -0.002 A 
ATOM      3  C4  UNL d   1       1.099   0.145  -1.358  0.00  0.00     0.004 A 
ATOM      4  C5  UNL d   1      -0.252  -0.198  -1.294  0.00  0.00    -0.004 A 
ATOM      5  C6  UNL d   1      -0.639  -1.451  -0.811  0.00  0.00    -0.075 A 
ATOM      6  C7  UNL d   1      -2.088  -1.836  -0.737  0.00  0.00     0.076 C 
ATOM      7  C8  UNL d   1       0.346  -2.359  -0.400  0.00  0.00     0.001 A 
ENDROOT
BRANCH   1   8
ATOM      8  C1  UNL d   1       2.756  -3.009  -0.015  0.00  0.00     0.053 C 
ATOM      9  C   UNL d   1       2.175  -4.394   0.222  0.00  0.00     0.018 C 
ENDBRANCH   1   8
TORSDOF 1
ENDMDL
