MODEL 1
REMARK minimizedAffinity -5.3436203
REMARK minimizedRMSD -1
REMARK  1 active torsions:
REMARK  status: ('A' for Active; 'I' for Inactive)
REMARK    1  A    between atoms: C1_2  and  C2_3 
ROOT
ATOM      1  C2  UNL d   1       0.842  -3.767   0.392  0.00  0.00    -0.073 A 
ATOM      2  C3  UNL d   1       2.215  -3.514   0.291  0.00  0.00    -0.002 A 
ATOM      3  C4  UNL d   1       2.671  -2.272  -0.153  0.00  0.00     0.004 A 
ATOM      4  C5  UNL d   1       1.762  -1.270  -0.492  0.00  0.00    -0.004 A 
ATOM      5  C6  UNL d   1       0.387  -1.500  -0.387  0.00  0.00    -0.075 A 
ATOM      6  C7  UNL d   1      -0.605  -0.434  -0.750  0.00  0.00     0.076 C 
ATOM      7  C8  UNL d   1      -0.064  -2.751   0.057  0.00  0.00     0.001 A 
ENDROOT
BRANCH   1   8
ATOM      8  C1  UNL d   1       0.345  -5.105   0.876  0.00  0.00     0.053 C 
ATOM      9  C   UNL d   1       1.481  -6.000   1.345  0.00  0.00     0.018 C 
ENDBRANCH   1   8
TORSDOF 1
ENDMDL
