MODEL 1
REMARK minimizedAffinity -1.72894919
REMARK minimizedRMSD -1
REMARK  1 active torsions:
REMARK  status: ('A' for Active; 'I' for Inactive)
REMARK    1  A    between atoms: C1_2  and  C2_3 
ROOT
ATOM      1  C2  UNL d   1      -3.974   1.573   0.490  0.00  0.00    -0.073 A 
ATOM      2  C3  UNL d   1      -4.778   0.454   0.245  0.00  0.00    -0.002 A 
ATOM      3  C4  UNL d   1      -5.092  -0.428   1.280  0.00  0.00     0.004 A 
ATOM      4  C5  UNL d   1      -4.613  -0.197   2.570  0.00  0.00    -0.004 A 
ATOM      5  C6  UNL d   1      -3.818   0.922   2.836  0.00  0.00    -0.075 A 
ATOM      6  C7  UNL d   1      -3.292   1.184   4.217  0.00  0.00     0.076 C 
ATOM      7  C8  UNL d   1      -3.505   1.802   1.791  0.00  0.00     0.001 A 
ENDROOT
BRANCH   1   8
ATOM      8  C1  UNL d   1      -3.638   2.531  -0.623  0.00  0.00     0.053 C 
ATOM      9  C   UNL d   1      -3.052   3.832  -0.097  0.00  0.00     0.018 C 
ENDBRANCH   1   8
TORSDOF 1
ENDMDL
