MODEL 1
REMARK minimizedAffinity 0.923925638
REMARK minimizedRMSD -1
REMARK  1 active torsions:
REMARK  status: ('A' for Active; 'I' for Inactive)
REMARK    1  A    between atoms: C3_4  and  O_7 
ROOT
ATOM      1  C   UNL d   1       1.484   4.900  -4.665  0.00  0.00    -0.033 A 
ATOM      2  C1  UNL d   1       0.832   3.839  -4.034  0.00  0.00     0.039 A 
ATOM      3  C2  UNL d   1       1.518   2.651  -3.773  0.00  0.00    -0.080 A 
ATOM      4  C3  UNL d   1       2.854   2.537  -4.148  0.00  0.00     0.150 A 
ATOM      5  C4  UNL d   1       3.511   3.591  -4.773  0.00  0.00    -0.007 A 
ATOM      6  C5  UNL d   1       2.824   4.776  -5.034  0.00  0.00     0.039 A 
ENDROOT
BRANCH   4   7
ATOM      7  O   UNL d   1       3.564   1.396  -3.918  0.00  0.00    -0.526 OA
ATOM      8  H5  UNL d   1       2.973   0.744  -3.506  0.00  0.00     0.418 HD
ENDBRANCH   4   7
TORSDOF 1
ENDMDL
