MODEL 1
REMARK minimizedAffinity -1.94996905
REMARK minimizedRMSD -1
REMARK  1 active torsions:
REMARK  status: ('A' for Active; 'I' for Inactive)
REMARK    1  A    between atoms: C3_4  and  O_7 
ROOT
ATOM      1  C   UNL d   1      -3.746  -6.000  -0.012  0.00  0.00    -0.033 A 
ATOM      2  C1  UNL d   1      -2.616  -5.190  -0.136  0.00  0.00     0.039 A 
ATOM      3  C2  UNL d   1      -2.709  -3.952  -0.776  0.00  0.00    -0.080 A 
ATOM      4  C3  UNL d   1      -3.936  -3.537  -1.285  0.00  0.00     0.150 A 
ATOM      5  C4  UNL d   1      -5.067  -4.337  -1.161  0.00  0.00    -0.007 A 
ATOM      6  C5  UNL d   1      -4.972  -5.573  -0.522  0.00  0.00     0.039 A 
ENDROOT
BRANCH   4   7
ATOM      7  O   UNL d   1      -4.075  -2.339  -1.922  0.00  0.00    -0.526 OA
ATOM      8  H5  UNL d   1      -3.206  -1.908  -1.959  0.00  0.00     0.418 HD
ENDBRANCH   4   7
TORSDOF 1
ENDMDL
