MODEL 1
REMARK minimizedAffinity -0.64947021
REMARK minimizedRMSD -1
REMARK  1 active torsions:
REMARK  status: ('A' for Active; 'I' for Inactive)
REMARK    1  A    between atoms: C3_4  and  O_7 
ROOT
ATOM      1  C   UNL d   1      -0.885   0.877   1.812  0.00  0.00    -0.033 A 
ATOM      2  C1  UNL d   1      -0.169  -0.288   2.093  0.00  0.00     0.039 A 
ATOM      3  C2  UNL d   1       1.050  -0.531   1.458  0.00  0.00    -0.080 A 
ATOM      4  C3  UNL d   1       1.543   0.399   0.546  0.00  0.00     0.150 A 
ATOM      5  C4  UNL d   1       0.837   1.563   0.264  0.00  0.00    -0.007 A 
ATOM      6  C5  UNL d   1      -0.381   1.804   0.898  0.00  0.00     0.039 A 
ENDROOT
BRANCH   4   7
ATOM      7  O   UNL d   1       2.726   0.203  -0.102  0.00  0.00    -0.526 OA
ATOM      8  H5  UNL d   1       3.088  -0.656   0.171  0.00  0.00     0.418 HD
ENDBRANCH   4   7
TORSDOF 1
ENDMDL
