MODEL 1
REMARK minimizedAffinity 1.46596169
REMARK minimizedRMSD -1
REMARK  1 active torsions:
REMARK  status: ('A' for Active; 'I' for Inactive)
REMARK    1  A    between atoms: C3_4  and  O_7 
ROOT
ATOM      1  C   UNL d   1       2.889  -0.434   0.223  0.00  0.00    -0.033 A 
ATOM      2  C1  UNL d   1       3.553  -0.791  -0.952  0.00  0.00     0.039 A 
ATOM      3  C2  UNL d   1       3.555   0.075  -2.047  0.00  0.00    -0.080 A 
ATOM      4  C3  UNL d   1       2.890   1.295  -1.954  0.00  0.00     0.150 A 
ATOM      5  C4  UNL d   1       2.230   1.659  -0.785  0.00  0.00    -0.007 A 
ATOM      6  C5  UNL d   1       2.228   0.792   0.307  0.00  0.00     0.039 A 
ENDROOT
BRANCH   4   7
ATOM      7  O   UNL d   1       2.860   2.171  -2.998  0.00  0.00    -0.526 OA
ATOM      8  H5  UNL d   1       3.333   1.773  -3.747  0.00  0.00     0.418 HD
ENDBRANCH   4   7
TORSDOF 1
ENDMDL
