MODEL 1
REMARK minimizedAffinity 6.57071114
REMARK minimizedRMSD -1
REMARK  1 active torsions:
REMARK  status: ('A' for Active; 'I' for Inactive)
REMARK    1  A    between atoms: C3_4  and  O_7 
ROOT
ATOM      1  C   UNL d   1       4.405   1.102  -2.559  0.00  0.00    -0.033 A 
ATOM      2  C1  UNL d   1       4.580   2.470  -2.779  0.00  0.00     0.039 A 
ATOM      3  C2  UNL d   1       3.531   3.236  -3.291  0.00  0.00    -0.080 A 
ATOM      4  C3  UNL d   1       2.314   2.623  -3.577  0.00  0.00     0.150 A 
ATOM      5  C4  UNL d   1       2.132   1.262  -3.356  0.00  0.00    -0.007 A 
ATOM      6  C5  UNL d   1       3.181   0.498  -2.846  0.00  0.00     0.039 A 
ENDROOT
BRANCH   4   7
ATOM      7  O   UNL d   1       1.262   3.329  -4.082  0.00  0.00    -0.526 OA
ATOM      8  H5  UNL d   1       1.543   4.250  -4.209  0.00  0.00     0.418 HD
ENDBRANCH   4   7
TORSDOF 1
ENDMDL
