MODEL 1
REMARK minimizedAffinity 1.30381668
REMARK minimizedRMSD -1
REMARK  1 active torsions:
REMARK  status: ('A' for Active; 'I' for Inactive)
REMARK    1  A    between atoms: C3_4  and  O_7 
ROOT
ATOM      1  C   UNL d   1      -0.353   0.777   1.260  0.00  0.00    -0.033 A 
ATOM      2  C1  UNL d   1      -0.320   2.137   1.574  0.00  0.00     0.039 A 
ATOM      3  C2  UNL d   1      -1.365   2.714   2.298  0.00  0.00    -0.080 A 
ATOM      4  C3  UNL d   1      -2.435   1.921   2.703  0.00  0.00     0.150 A 
ATOM      5  C4  UNL d   1      -2.473   0.564   2.397  0.00  0.00    -0.007 A 
ATOM      6  C5  UNL d   1      -1.429  -0.010   1.673  0.00  0.00     0.039 A 
ENDROOT
BRANCH   4   7
ATOM      7  O   UNL d   1      -3.481   2.440   3.408  0.00  0.00    -0.526 OA
ATOM      8  H5  UNL d   1      -3.332   3.394   3.521  0.00  0.00     0.418 HD
ENDBRANCH   4   7
TORSDOF 1
ENDMDL
