MODEL 1
REMARK minimizedAffinity -2.60784817
REMARK minimizedRMSD -1
REMARK  1 active torsions:
REMARK  status: ('A' for Active; 'I' for Inactive)
REMARK    1  A    between atoms: C3_4  and  O_7 
ROOT
ATOM      1  C   UNL d   1       0.765   1.613   0.658  0.00  0.00    -0.033 A 
ATOM      2  C1  UNL d   1      -0.470   2.003   1.181  0.00  0.00     0.039 A 
ATOM      3  C2  UNL d   1      -1.392   1.039   1.592  0.00  0.00    -0.080 A 
ATOM      4  C3  UNL d   1      -1.068  -0.310   1.475  0.00  0.00     0.150 A 
ATOM      5  C4  UNL d   1       0.161  -0.706   0.959  0.00  0.00    -0.007 A 
ATOM      6  C5  UNL d   1       1.080   0.258   0.548  0.00  0.00     0.039 A 
ENDROOT
BRANCH   4   7
ATOM      7  O   UNL d   1      -1.938  -1.287   1.858  0.00  0.00    -0.526 OA
ATOM      8  H5  UNL d   1      -2.757  -0.866   2.169  0.00  0.00     0.418 HD
ENDBRANCH   4   7
TORSDOF 1
ENDMDL
