MODEL 1
REMARK minimizedAffinity -1.34083009
REMARK minimizedRMSD -1
REMARK  1 active torsions:
REMARK  status: ('A' for Active; 'I' for Inactive)
REMARK    1  A    between atoms: C3_4  and  O_7 
ROOT
ATOM      1  C   UNL d   1      -0.410  -0.417   1.501  0.00  0.00    -0.033 A 
ATOM      2  C1  UNL d   1       0.216   0.711   0.966  0.00  0.00     0.039 A 
ATOM      3  C2  UNL d   1      -0.484   1.915   0.859  0.00  0.00    -0.080 A 
ATOM      4  C3  UNL d   1      -1.806   1.977   1.291  0.00  0.00     0.150 A 
ATOM      5  C4  UNL d   1      -2.434   0.858   1.828  0.00  0.00    -0.007 A 
ATOM      6  C5  UNL d   1      -1.734  -0.343   1.933  0.00  0.00     0.039 A 
ENDROOT
BRANCH   4   7
ATOM      7  O   UNL d   1      -2.531   3.128   1.202  0.00  0.00    -0.526 OA
ATOM      8  H5  UNL d   1      -1.977   3.809   0.785  0.00  0.00     0.418 HD
ENDBRANCH   4   7
TORSDOF 1
ENDMDL
