MODEL 1
REMARK minimizedAffinity 4.81222725
REMARK minimizedRMSD -1
REMARK  1 active torsions:
REMARK  status: ('A' for Active; 'I' for Inactive)
REMARK    1  A    between atoms: C3_4  and  O_7 
ROOT
ATOM      1  C   UNL d   1       0.746   0.057   1.154  0.00  0.00    -0.033 A 
ATOM      2  C1  UNL d   1      -0.388  -0.066   1.959  0.00  0.00     0.039 A 
ATOM      3  C2  UNL d   1      -1.232   1.029   2.151  0.00  0.00    -0.080 A 
ATOM      4  C3  UNL d   1      -0.932   2.239   1.532  0.00  0.00     0.150 A 
ATOM      5  C4  UNL d   1       0.194   2.368   0.726  0.00  0.00    -0.007 A 
ATOM      6  C5  UNL d   1       1.036   1.273   0.536  0.00  0.00     0.039 A 
ENDROOT
BRANCH   4   7
ATOM      7  O   UNL d   1      -1.724   3.337   1.693  0.00  0.00    -0.526 OA
ATOM      8  H5  UNL d   1      -2.449   3.108   2.299  0.00  0.00     0.418 HD
ENDBRANCH   4   7
TORSDOF 1
ENDMDL
