MODEL 1
REMARK minimizedAffinity -1.2416687
REMARK minimizedRMSD -1
REMARK  1 active torsions:
REMARK  status: ('A' for Active; 'I' for Inactive)
REMARK    1  A    between atoms: C3_4  and  O_7 
ROOT
ATOM      1  C   UNL d   1      -0.024   0.496   1.036  0.00  0.00    -0.033 A 
ATOM      2  C1  UNL d   1      -0.137   1.875   1.222  0.00  0.00     0.039 A 
ATOM      3  C2  UNL d   1      -1.262   2.407   1.856  0.00  0.00    -0.080 A 
ATOM      4  C3  UNL d   1      -2.265   1.549   2.299  0.00  0.00     0.150 A 
ATOM      5  C4  UNL d   1      -2.158   0.174   2.120  0.00  0.00    -0.007 A 
ATOM      6  C5  UNL d   1      -1.034  -0.355   1.487  0.00  0.00     0.039 A 
ENDROOT
BRANCH   4   7
ATOM      7  O   UNL d   1      -3.384   2.022   2.918  0.00  0.00    -0.526 OA
ATOM      8  H5  UNL d   1      -3.334   2.992   2.946  0.00  0.00     0.418 HD
ENDBRANCH   4   7
TORSDOF 1
ENDMDL
