MODEL 1
REMARK minimizedAffinity -1.15459478
REMARK minimizedRMSD -1
REMARK  1 active torsions:
REMARK  status: ('A' for Active; 'I' for Inactive)
REMARK    1  A    between atoms: C3_4  and  O_7 
ROOT
ATOM      1  C   UNL d   1      -0.132   1.584   0.379  0.00  0.00    -0.033 A 
ATOM      2  C1  UNL d   1       1.086   0.909   0.487  0.00  0.00     0.039 A 
ATOM      3  C2  UNL d   1       1.127  -0.378   1.026  0.00  0.00    -0.080 A 
ATOM      4  C3  UNL d   1      -0.054  -0.979   1.452  0.00  0.00     0.150 A 
ATOM      5  C4  UNL d   1      -1.271  -0.313   1.344  0.00  0.00    -0.007 A 
ATOM      6  C5  UNL d   1      -1.310   0.972   0.807  0.00  0.00     0.039 A 
ENDROOT
BRANCH   4   7
ATOM      7  O   UNL d   1      -0.064  -2.232   1.990  0.00  0.00    -0.526 OA
ATOM      8  H5  UNL d   1       0.851  -2.557   2.028  0.00  0.00     0.418 HD
ENDBRANCH   4   7
TORSDOF 1
ENDMDL
