MODEL 1
REMARK minimizedAffinity -0.484458685
REMARK minimizedRMSD -1
REMARK  1 active torsions:
REMARK  status: ('A' for Active; 'I' for Inactive)
REMARK    1  A    between atoms: C3_4  and  O_7 
ROOT
ATOM      1  C   UNL d   1      -2.383   0.471   2.044  0.00  0.00    -0.033 A 
ATOM      2  C1  UNL d   1      -1.772   1.663   1.651  0.00  0.00     0.039 A 
ATOM      3  C2  UNL d   1      -0.468   1.650   1.154  0.00  0.00    -0.080 A 
ATOM      4  C3  UNL d   1       0.213   0.440   1.053  0.00  0.00     0.150 A 
ATOM      5  C4  UNL d   1      -0.391  -0.752   1.439  0.00  0.00    -0.007 A 
ATOM      6  C5  UNL d   1      -1.693  -0.737   1.937  0.00  0.00     0.039 A 
ENDROOT
BRANCH   4   7
ATOM      7  O   UNL d   1       1.490   0.378   0.578  0.00  0.00    -0.526 OA
ATOM      8  H5  UNL d   1       1.788   1.281   0.378  0.00  0.00     0.418 HD
ENDBRANCH   4   7
TORSDOF 1
ENDMDL
