MODEL 1
REMARK minimizedAffinity 5.62496805
REMARK minimizedRMSD -1
REMARK  1 active torsions:
REMARK  status: ('A' for Active; 'I' for Inactive)
REMARK    1  A    between atoms: C3_4  and  O_7 
ROOT
ATOM      1  C   UNL d   1       2.251   2.228  -1.554  0.00  0.00    -0.033 A 
ATOM      2  C1  UNL d   1       2.947   1.195  -2.185  0.00  0.00     0.039 A 
ATOM      3  C2  UNL d   1       3.318   0.058  -1.464  0.00  0.00    -0.080 A 
ATOM      4  C3  UNL d   1       2.986  -0.034  -0.115  0.00  0.00     0.150 A 
ATOM      5  C4  UNL d   1       2.289   0.990   0.519  0.00  0.00    -0.007 A 
ATOM      6  C5  UNL d   1       1.920   2.124  -0.203  0.00  0.00     0.039 A 
ENDROOT
BRANCH   4   7
ATOM      7  O   UNL d   1       3.331  -1.121   0.631  0.00  0.00    -0.526 OA
ATOM      8  H5  UNL d   1       3.833  -1.734   0.068  0.00  0.00     0.418 HD
ENDBRANCH   4   7
TORSDOF 1
ENDMDL
