MODEL 1
REMARK minimizedAffinity 5.58976221
REMARK minimizedRMSD -1
REMARK  1 active torsions:
REMARK  status: ('A' for Active; 'I' for Inactive)
REMARK    1  A    between atoms: C3_4  and  O_7 
ROOT
ATOM      1  C   UNL d   1       0.256   1.486   0.260  0.00  0.00    -0.033 A 
ATOM      2  C1  UNL d   1      -0.526   1.787   1.376  0.00  0.00     0.039 A 
ATOM      3  C2  UNL d   1      -0.148   1.331   2.640  0.00  0.00    -0.080 A 
ATOM      4  C3  UNL d   1       1.014   0.575   2.774  0.00  0.00     0.150 A 
ATOM      5  C4  UNL d   1       1.800   0.275   1.667  0.00  0.00    -0.007 A 
ATOM      6  C5  UNL d   1       1.420   0.731   0.405  0.00  0.00     0.039 A 
ENDROOT
BRANCH   4   7
ATOM      7  O   UNL d   1       1.421   0.104   3.986  0.00  0.00    -0.526 OA
ATOM      8  H5  UNL d   1       0.766   0.365   4.654  0.00  0.00     0.418 HD
ENDBRANCH   4   7
TORSDOF 1
ENDMDL
