MODEL 1
REMARK minimizedAffinity 10.5040922
REMARK minimizedRMSD -1
REMARK  0 active torsions:
REMARK  status: ('A' for Active; 'I' for Inactive)
ROOT
ATOM      1  C2' OXE d   1      -2.119  -4.789  -1.485  0.00  0.00     0.078 C 
ATOM      2  C1' OXE d   1       0.324  -4.517  -2.841  0.00  0.00     0.078 C 
ATOM      3  C1  OXE d   1      -0.938  -4.161  -3.587  0.00  0.00    -0.078 A 
ATOM      4  C2  OXE d   1      -2.132  -4.342  -2.931  0.00  0.00    -0.078 A 
ATOM      5  C3  OXE d   1      -3.323  -3.978  -3.553  0.00  0.00     0.003 A 
ATOM      6  C4  OXE d   1      -3.327  -3.575  -4.894  0.00  0.00    -0.002 A 
ATOM      7  C5  OXE d   1      -2.125  -3.422  -5.593  0.00  0.00    -0.002 A 
ATOM      8  C6  OXE d   1      -0.922  -3.670  -4.942  0.00  0.00     0.003 A 
ENDROOT
TORSDOF 0
ENDMDL
