MODEL 1
REMARK minimizedAffinity 11.2234039
REMARK minimizedRMSD -1
REMARK  0 active torsions:
REMARK  status: ('A' for Active; 'I' for Inactive)
ROOT
ATOM      1  C2' OXE d   1      -5.750  -5.676  -5.972  0.00  0.00     0.078 C 
ATOM      2  C1' OXE d   1      -5.996  -2.879  -5.993  0.00  0.00     0.078 C 
ATOM      3  C1  OXE d   1      -4.821  -3.476  -5.260  0.00  0.00    -0.078 A 
ATOM      4  C2  OXE d   1      -4.734  -4.847  -5.215  0.00  0.00    -0.078 A 
ATOM      5  C3  OXE d   1      -3.640  -5.449  -4.599  0.00  0.00     0.003 A 
ATOM      6  C4  OXE d   1      -2.711  -4.676  -3.893  0.00  0.00    -0.002 A 
ATOM      7  C5  OXE d   1      -2.803  -3.280  -3.892  0.00  0.00    -0.002 A 
ATOM      8  C6  OXE d   1      -3.826  -2.664  -4.605  0.00  0.00     0.003 A 
ENDROOT
TORSDOF 0
ENDMDL
