MODEL 1
REMARK minimizedAffinity 7.20796394
REMARK minimizedRMSD -1
REMARK  0 active torsions:
REMARK  status: ('A' for Active; 'I' for Inactive)
ROOT
ATOM      1  C2' OXE d   1       1.726   0.539  -0.200  0.00  0.00     0.078 C 
ATOM      2  C1' OXE d   1       2.132  -2.105  -1.051  0.00  0.00     0.078 C 
ATOM      3  C1  OXE d   1       2.093  -1.025  -2.103  0.00  0.00    -0.078 A 
ATOM      4  C2  OXE d   1       1.847   0.259  -1.683  0.00  0.00    -0.078 A 
ATOM      5  C3  OXE d   1       1.855   1.301  -2.606  0.00  0.00     0.003 A 
ATOM      6  C4  OXE d   1       1.958   1.032  -3.977  0.00  0.00    -0.002 A 
ATOM      7  C5  OXE d   1       2.169  -0.275  -4.430  0.00  0.00    -0.002 A 
ATOM      8  C6  OXE d   1       2.281  -1.307  -3.505  0.00  0.00     0.003 A 
ENDROOT
TORSDOF 0
ENDMDL
