MODEL 1
REMARK minimizedAffinity 15.8208265
REMARK minimizedRMSD -1
REMARK  0 active torsions:
REMARK  status: ('A' for Active; 'I' for Inactive)
ROOT
ATOM      1  C2' OXE d   1      -4.410   3.226   5.998  0.00  0.00     0.078 C 
ATOM      2  C1' OXE d   1      -6.000   1.928   4.082  0.00  0.00     0.078 C 
ATOM      3  C1  OXE d   1      -4.503   1.778   3.973  0.00  0.00    -0.078 A 
ATOM      4  C2  OXE d   1      -3.731   2.454   4.886  0.00  0.00    -0.078 A 
ATOM      5  C3  OXE d   1      -2.347   2.306   4.864  0.00  0.00     0.003 A 
ATOM      6  C4  OXE d   1      -1.727   1.599   3.826  0.00  0.00    -0.002 A 
ATOM      7  C5  OXE d   1      -2.493   0.936   2.862  0.00  0.00    -0.002 A 
ATOM      8  C6  OXE d   1      -3.881   0.980   2.946  0.00  0.00     0.003 A 
ENDROOT
TORSDOF 0
ENDMDL
