MODEL 1
REMARK minimizedAffinity 16.2711353
REMARK minimizedRMSD -1
REMARK  0 active torsions:
REMARK  status: ('A' for Active; 'I' for Inactive)
ROOT
ATOM      1  C2' OXE d   1       2.904  -3.832  -0.341  0.00  0.00     0.078 C 
ATOM      2  C1' OXE d   1       0.735  -3.581  -2.106  0.00  0.00     0.078 C 
ATOM      3  C1  OXE d   1       1.421  -2.317  -1.650  0.00  0.00    -0.078 A 
ATOM      4  C2  OXE d   1       2.452  -2.446  -0.750  0.00  0.00    -0.078 A 
ATOM      5  C3  OXE d   1       3.154  -1.317  -0.339  0.00  0.00     0.003 A 
ATOM      6  C4  OXE d   1       2.723  -0.039  -0.714  0.00  0.00    -0.002 A 
ATOM      7  C5  OXE d   1       1.651   0.117  -1.599  0.00  0.00    -0.002 A 
ATOM      8  C6  OXE d   1       1.018  -1.011  -2.108  0.00  0.00     0.003 A 
ENDROOT
TORSDOF 0
ENDMDL
