MODEL 1
REMARK minimizedAffinity 8.34296703
REMARK minimizedRMSD -1
REMARK  0 active torsions:
REMARK  status: ('A' for Active; 'I' for Inactive)
ROOT
ATOM      1  C2' OXE d   1       1.371   0.577  -3.094  0.00  0.00     0.078 C 
ATOM      2  C1' OXE d   1       3.127   0.869  -0.924  0.00  0.00     0.078 C 
ATOM      3  C1  OXE d   1       2.653  -0.522  -1.263  0.00  0.00    -0.078 A 
ATOM      4  C2  OXE d   1       1.757  -0.650  -2.297  0.00  0.00    -0.078 A 
ATOM      5  C3  OXE d   1       1.330  -1.916  -2.686  0.00  0.00     0.003 A 
ATOM      6  C4  OXE d   1       1.684  -3.045  -1.938  0.00  0.00    -0.002 A 
ATOM      7  C5  OXE d   1       2.564  -2.932  -0.856  0.00  0.00    -0.002 A 
ATOM      8  C6  OXE d   1       3.090  -1.686  -0.532  0.00  0.00     0.003 A 
ENDROOT
TORSDOF 0
ENDMDL
