MODEL 1
REMARK minimizedAffinity 15.9519577
REMARK minimizedRMSD -1
REMARK  0 active torsions:
REMARK  status: ('A' for Active; 'I' for Inactive)
ROOT
ATOM      1  C2' OXE d   1      -5.897  -2.617   2.572  0.00  0.00     0.078 C 
ATOM      2  C1' OXE d   1      -4.380  -2.562   4.933  0.00  0.00     0.078 C 
ATOM      3  C1  OXE d   1      -4.130  -1.481   3.911  0.00  0.00    -0.078 A 
ATOM      4  C2  OXE d   1      -4.844  -1.543   2.739  0.00  0.00    -0.078 A 
ATOM      5  C3  OXE d   1      -4.691  -0.540   1.785  0.00  0.00     0.003 A 
ATOM      6  C4  OXE d   1      -3.708   0.444   1.943  0.00  0.00    -0.002 A 
ATOM      7  C5  OXE d   1      -2.942   0.502   3.112  0.00  0.00    -0.002 A 
ATOM      8  C6  OXE d   1      -3.170  -0.426   4.122  0.00  0.00     0.003 A 
ENDROOT
TORSDOF 0
ENDMDL
