MODEL 1
REMARK minimizedAffinity 8.09674931
REMARK minimizedRMSD -1
REMARK  0 active torsions:
REMARK  status: ('A' for Active; 'I' for Inactive)
ROOT
ATOM      1  C2' OXE d   1      -1.830  -3.030  -3.016  0.00  0.00     0.078 C 
ATOM      2  C1' OXE d   1      -0.307  -5.382  -2.857  0.00  0.00     0.078 C 
ATOM      3  C1  OXE d   1       0.347  -4.091  -2.435  0.00  0.00    -0.078 A 
ATOM      4  C2  OXE d   1      -0.390  -2.938  -2.560  0.00  0.00    -0.078 A 
ATOM      5  C3  OXE d   1       0.147  -1.726  -2.134  0.00  0.00     0.003 A 
ATOM      6  C4  OXE d   1       1.483  -1.649  -1.723  0.00  0.00    -0.002 A 
ATOM      7  C5  OXE d   1       2.264  -2.805  -1.626  0.00  0.00    -0.002 A 
ATOM      8  C6  OXE d   1       1.699  -4.037  -1.937  0.00  0.00     0.003 A 
ENDROOT
TORSDOF 0
ENDMDL
