MODEL 1
REMARK minimizedAffinity 17.5317173
REMARK minimizedRMSD -1
REMARK  0 active torsions:
REMARK  status: ('A' for Active; 'I' for Inactive)
ROOT
ATOM      1  C2' OXE d   1      -0.365   1.226   2.130  0.00  0.00     0.078 C 
ATOM      2  C1' OXE d   1       2.341   1.958   2.266  0.00  0.00     0.078 C 
ATOM      3  C1  OXE d   1       1.627   1.659   3.561  0.00  0.00    -0.078 A 
ATOM      4  C2  OXE d   1       0.291   1.347   3.488  0.00  0.00    -0.078 A 
ATOM      5  C3  OXE d   1      -0.402   1.010   4.648  0.00  0.00     0.003 A 
ATOM      6  C4  OXE d   1       0.210   1.134   5.901  0.00  0.00    -0.002 A 
ATOM      7  C5  OXE d   1       1.560   1.489   6.000  0.00  0.00    -0.002 A 
ATOM      8  C6  OXE d   1       2.293   1.712   4.839  0.00  0.00     0.003 A 
ENDROOT
TORSDOF 0
ENDMDL
