MODEL 1
REMARK minimizedAffinity 16.9117832
REMARK minimizedRMSD -1
REMARK  0 active torsions:
REMARK  status: ('A' for Active; 'I' for Inactive)
ROOT
ATOM      1  C2' OXE d   1      -3.371   0.726   2.255  0.00  0.00     0.078 C 
ATOM      2  C1' OXE d   1      -3.370  -0.821   4.598  0.00  0.00     0.078 C 
ATOM      3  C1  OXE d   1      -3.801   0.620   4.707  0.00  0.00    -0.078 A 
ATOM      4  C2  OXE d   1      -3.754   1.382   3.564  0.00  0.00    -0.078 A 
ATOM      5  C3  OXE d   1      -4.193   2.703   3.598  0.00  0.00     0.003 A 
ATOM      6  C4  OXE d   1      -4.535   3.305   4.814  0.00  0.00    -0.002 A 
ATOM      7  C5  OXE d   1      -4.552   2.558   5.997  0.00  0.00    -0.002 A 
ATOM      8  C6  OXE d   1      -4.230   1.206   5.953  0.00  0.00     0.003 A 
ENDROOT
TORSDOF 0
ENDMDL
