MODEL 1
REMARK minimizedAffinity 8.27449989
REMARK minimizedRMSD -1
REMARK  0 active torsions:
REMARK  status: ('A' for Active; 'I' for Inactive)
ROOT
ATOM      1  C2' OXE d   1       2.632  -4.161   0.245  0.00  0.00     0.078 C 
ATOM      2  C1' OXE d   1       1.334  -4.364  -2.236  0.00  0.00     0.078 C 
ATOM      3  C1  OXE d   1       1.754  -2.992  -1.772  0.00  0.00    -0.078 A 
ATOM      4  C2  OXE d   1       2.346  -2.896  -0.536  0.00  0.00    -0.078 A 
ATOM      5  C3  OXE d   1       2.802  -1.661  -0.084  0.00  0.00     0.003 A 
ATOM      6  C4  OXE d   1       2.525  -0.495  -0.808  0.00  0.00    -0.002 A 
ATOM      7  C5  OXE d   1       1.887  -0.566  -2.051  0.00  0.00    -0.002 A 
ATOM      8  C6  OXE d   1       1.534  -1.808  -2.566  0.00  0.00     0.003 A 
ENDROOT
TORSDOF 0
ENDMDL
