MODEL 1
REMARK minimizedAffinity 14.581089
REMARK minimizedRMSD -1
REMARK  0 active torsions:
REMARK  status: ('A' for Active; 'I' for Inactive)
ROOT
ATOM      1  C2' OXE d   1       1.722   1.122   5.939  0.00  0.00     0.078 C 
ATOM      2  C1' OXE d   1      -0.470   2.875   5.993  0.00  0.00     0.078 C 
ATOM      3  C1  OXE d   1      -0.363   1.917   4.833  0.00  0.00    -0.078 A 
ATOM      4  C2  OXE d   1       0.737   1.095   4.791  0.00  0.00    -0.078 A 
ATOM      5  C3  OXE d   1       0.856   0.154   3.772  0.00  0.00     0.003 A 
ATOM      6  C4  OXE d   1      -0.054   0.143   2.708  0.00  0.00    -0.002 A 
ATOM      7  C5  OXE d   1      -1.161   0.998   2.711  0.00  0.00    -0.002 A 
ATOM      8  C6  OXE d   1      -1.353   1.860   3.785  0.00  0.00     0.003 A 
ENDROOT
TORSDOF 0
ENDMDL
