MODEL 1
REMARK minimizedAffinity 6.00119019
REMARK minimizedRMSD -1
REMARK  0 active torsions:
REMARK  status: ('A' for Active; 'I' for Inactive)
ROOT
ATOM      1  C2' OXE d   1      -1.792  -4.845  -3.086  0.00  0.00     0.078 C 
ATOM      2  C1' OXE d   1      -2.324  -2.500  -4.534  0.00  0.00     0.078 C 
ATOM      3  C1  OXE d   1      -3.189  -3.705  -4.805  0.00  0.00    -0.078 A 
ATOM      4  C2  OXE d   1      -2.891  -4.862  -4.126  0.00  0.00    -0.078 A 
ATOM      5  C3  OXE d   1      -3.692  -5.988  -4.298  0.00  0.00     0.003 A 
ATOM      6  C4  OXE d   1      -4.701  -5.998  -5.269  0.00  0.00    -0.002 A 
ATOM      7  C5  OXE d   1      -4.995  -4.843  -6.000  0.00  0.00    -0.002 A 
ATOM      8  C6  OXE d   1      -4.278  -3.678  -5.750  0.00  0.00     0.003 A 
ENDROOT
TORSDOF 0
ENDMDL
