MODEL 1
REMARK minimizedAffinity 11.0040722
REMARK minimizedRMSD -1
REMARK  0 active torsions:
REMARK  status: ('A' for Active; 'I' for Inactive)
ROOT
ATOM      1  C2' OXE d   1      -1.655  -1.415  -3.068  0.00  0.00     0.078 C 
ATOM      2  C1' OXE d   1      -0.023  -3.251  -1.709  0.00  0.00     0.078 C 
ATOM      3  C1  OXE d   1      -1.337  -3.749  -2.257  0.00  0.00    -0.078 A 
ATOM      4  C2  OXE d   1      -2.150  -2.833  -2.880  0.00  0.00    -0.078 A 
ATOM      5  C3  OXE d   1      -3.348  -3.251  -3.452  0.00  0.00     0.003 A 
ATOM      6  C4  OXE d   1      -3.804  -4.562  -3.266  0.00  0.00    -0.002 A 
ATOM      7  C5  OXE d   1      -3.009  -5.501  -2.600  0.00  0.00    -0.002 A 
ATOM      8  C6  OXE d   1      -1.757  -5.123  -2.128  0.00  0.00     0.003 A 
ENDROOT
TORSDOF 0
ENDMDL
