MODEL 1
REMARK minimizedAffinity -3.62389541
REMARK minimizedRMSD -1
REMARK  0 active torsions:
REMARK  status: ('A' for Active; 'I' for Inactive)
ROOT
ATOM      1  C2' OXE d   1       2.557  -2.432  -4.326  0.00  0.00     0.078 C 
ATOM      2  C1' OXE d   1       1.749  -0.715  -2.257  0.00  0.00     0.078 C 
ATOM      3  C1  OXE d   1       2.165  -2.116  -1.886  0.00  0.00    -0.078 A 
ATOM      4  C2  OXE d   1       2.514  -2.964  -2.909  0.00  0.00    -0.078 A 
ATOM      5  C3  OXE d   1       2.958  -4.251  -2.618  0.00  0.00     0.003 A 
ATOM      6  C4  OXE d   1       2.906  -4.738  -1.306  0.00  0.00    -0.002 A 
ATOM      7  C5  OXE d   1       2.516  -3.904  -0.254  0.00  0.00    -0.002 A 
ATOM      8  C6  OXE d   1       2.184  -2.580  -0.521  0.00  0.00     0.003 A 
ENDROOT
TORSDOF 0
ENDMDL
