MODEL 1
REMARK minimizedAffinity 20.3104134
REMARK minimizedRMSD -1
REMARK  0 active torsions:
REMARK  status: ('A' for Active; 'I' for Inactive)
ROOT
ATOM      1  C2' OXE d   1       0.352   0.399   1.941  0.00  0.00     0.078 C 
ATOM      2  C1' OXE d   1      -2.216   1.172   2.772  0.00  0.00     0.078 C 
ATOM      3  C1  OXE d   1      -1.091   1.279   3.771  0.00  0.00    -0.078 A 
ATOM      4  C2  OXE d   1       0.153   0.854   3.370  0.00  0.00    -0.078 A 
ATOM      5  C3  OXE d   1       1.237   0.982   4.235  0.00  0.00     0.003 A 
ATOM      6  C4  OXE d   1       1.042   1.395   5.559  0.00  0.00    -0.002 A 
ATOM      7  C5  OXE d   1      -0.224   1.794   5.999  0.00  0.00    -0.002 A 
ATOM      8  C6  OXE d   1      -1.291   1.783   5.107  0.00  0.00     0.003 A 
ENDROOT
TORSDOF 0
ENDMDL
