MODEL 1
REMARK minimizedAffinity -2.70591927
REMARK minimizedRMSD -1
REMARK  1 active torsions:
REMARK  status: ('A' for Active; 'I' for Inactive)
REMARK    1  A    between atoms: N_2  and  C1_3 
ROOT
ATOM      1  C1  UNL d   1      -0.433  -0.135  -0.117  0.00  0.00     0.143 A 
ATOM      2  C2  UNL d   1       0.758  -0.238  -0.845  0.00  0.00    -0.057 A 
ATOM      3  C3  UNL d   1       1.583  -1.363  -0.731  0.00  0.00     0.033 A 
ATOM      4  C4  UNL d   1       1.246  -2.396   0.138  0.00  0.00    -0.042 A 
ATOM      5  C5  UNL d   1       0.079  -2.304   0.889  0.00  0.00     0.033 A 
ATOM      6  C6  UNL d   1      -0.744  -1.180   0.766  0.00  0.00    -0.057 A 
ENDROOT
BRANCH   1   7
ATOM      7  N   UNL d   1      -1.246   1.001  -0.113  0.00  0.00    -0.732 N 
ATOM      8  C   UNL d   1      -2.528   0.988   0.559  0.00  0.00     0.284 C 
ATOM      9  H3  UNL d   1      -0.715   1.858   0.022  0.00  0.00     0.395 HD
ENDBRANCH   1   7
TORSDOF 1
ENDMDL
