MODEL 1
REMARK minimizedAffinity -3.7115922
REMARK minimizedRMSD -1
REMARK  1 active torsions:
REMARK  status: ('A' for Active; 'I' for Inactive)
REMARK    1  A    between atoms: N_2  and  C1_3 
ROOT
ATOM      1  C1  UNL d   1       1.726  -0.378   0.207  0.00  0.00     0.143 A 
ATOM      2  C2  UNL d   1       0.399  -0.403  -0.234  0.00  0.00    -0.057 A 
ATOM      3  C3  UNL d   1      -0.295   0.781  -0.515  0.00  0.00     0.033 A 
ATOM      4  C4  UNL d   1       0.320   2.015  -0.331  0.00  0.00    -0.042 A 
ATOM      5  C5  UNL d   1       1.631   2.064   0.130  0.00  0.00     0.033 A 
ATOM      6  C6  UNL d   1       2.321   0.878   0.402  0.00  0.00    -0.057 A 
ENDROOT
BRANCH   1   7
ATOM      7  N   UNL d   1       2.438  -1.516   0.596  0.00  0.00    -0.732 N 
ATOM      8  C   UNL d   1       3.795  -1.405   1.086  0.00  0.00     0.284 C 
ATOM      9  H3  UNL d   1       1.862  -2.176   1.114  0.00  0.00     0.395 HD
ENDBRANCH   1   7
TORSDOF 1
ENDMDL
