MODEL 1
REMARK minimizedAffinity -4.51834106
REMARK minimizedRMSD -1
REMARK  1 active torsions:
REMARK  status: ('A' for Active; 'I' for Inactive)
REMARK    1  A    between atoms: N_2  and  C1_3 
ROOT
ATOM      1  C1  UNL d   1      -0.039   0.075   0.172  0.00  0.00     0.143 A 
ATOM      2  C2  UNL d   1      -0.128  -1.301  -0.061  0.00  0.00    -0.057 A 
ATOM      3  C3  UNL d   1       0.984  -2.138   0.098  0.00  0.00     0.033 A 
ATOM      4  C4  UNL d   1       2.215  -1.606   0.466  0.00  0.00    -0.042 A 
ATOM      5  C5  UNL d   1       2.333  -0.237   0.678  0.00  0.00     0.033 A 
ATOM      6  C6  UNL d   1       1.218   0.592   0.524  0.00  0.00    -0.057 A 
ENDROOT
BRANCH   1   7
ATOM      7  N   UNL d   1      -1.083   0.973  -0.064  0.00  0.00    -0.732 N 
ATOM      8  C   UNL d   1      -2.412   0.709   0.444  0.00  0.00     0.284 C 
ATOM      9  H3  UNL d   1      -0.788   1.943   0.026  0.00  0.00     0.395 HD
ENDBRANCH   1   7
TORSDOF 1
ENDMDL
