MODEL 1
REMARK minimizedAffinity -4.55859756
REMARK minimizedRMSD -1
REMARK  1 active torsions:
REMARK  status: ('A' for Active; 'I' for Inactive)
REMARK    1  A    between atoms: N_2  and  C1_3 
ROOT
ATOM      1  C1  UNL d   1       0.757  -0.454  -0.232  0.00  0.00     0.143 A 
ATOM      2  C2  UNL d   1       1.401  -1.624   0.187  0.00  0.00    -0.057 A 
ATOM      3  C3  UNL d   1       2.606  -1.575   0.897  0.00  0.00     0.033 A 
ATOM      4  C4  UNL d   1       3.206  -0.351   1.177  0.00  0.00    -0.042 A 
ATOM      5  C5  UNL d   1       2.597   0.823   0.749  0.00  0.00     0.033 A 
ATOM      6  C6  UNL d   1       1.390   0.768   0.046  0.00  0.00    -0.057 A 
ENDROOT
BRANCH   1   7
ATOM      7  N   UNL d   1      -0.392  -0.441  -1.026  0.00  0.00    -0.732 N 
ATOM      8  C   UNL d   1      -1.571   0.286  -0.605  0.00  0.00     0.284 C 
ATOM      9  H3  UNL d   1      -0.178  -0.348  -2.017  0.00  0.00     0.395 HD
ENDBRANCH   1   7
TORSDOF 1
ENDMDL
