MODEL 1
REMARK minimizedAffinity -3.92405176
REMARK minimizedRMSD -1
REMARK  1 active torsions:
REMARK  status: ('A' for Active; 'I' for Inactive)
REMARK    1  A    between atoms: N_2  and  C1_3 
ROOT
ATOM      1  C1  UNL d   1       1.145   0.123  -0.093  0.00  0.00     0.143 A 
ATOM      2  C2  UNL d   1       1.785  -1.118  -0.168  0.00  0.00    -0.057 A 
ATOM      3  C3  UNL d   1       1.054  -2.311  -0.227  0.00  0.00     0.033 A 
ATOM      4  C4  UNL d   1      -0.336  -2.284  -0.182  0.00  0.00    -0.042 A 
ATOM      5  C5  UNL d   1      -0.994  -1.063  -0.082  0.00  0.00     0.033 A 
ATOM      6  C6  UNL d   1      -0.258   0.125  -0.030  0.00  0.00    -0.057 A 
ENDROOT
BRANCH   1   7
ATOM      7  N   UNL d   1       1.817   1.337   0.068  0.00  0.00    -0.732 N 
ATOM      8  C   UNL d   1       3.263   1.377   0.121  0.00  0.00     0.284 C 
ATOM      9  H3  UNL d   1       1.400   2.087  -0.479  0.00  0.00     0.395 HD
ENDBRANCH   1   7
TORSDOF 1
ENDMDL
