MODEL 1
REMARK minimizedAffinity -2.96824908
REMARK minimizedRMSD -1
REMARK  1 active torsions:
REMARK  status: ('A' for Active; 'I' for Inactive)
REMARK    1  A    between atoms: N_2  and  C1_3 
ROOT
ATOM      1  C1  UNL d   1      -0.212  -0.044  -0.133  0.00  0.00     0.143 A 
ATOM      2  C2  UNL d   1       0.920   0.389   0.566  0.00  0.00    -0.057 A 
ATOM      3  C3  UNL d   1       2.050  -0.429   0.695  0.00  0.00     0.033 A 
ATOM      4  C4  UNL d   1       2.055  -1.709   0.150  0.00  0.00    -0.042 A 
ATOM      5  C5  UNL d   1       0.932  -2.169  -0.527  0.00  0.00     0.033 A 
ATOM      6  C6  UNL d   1      -0.191  -1.345  -0.659  0.00  0.00    -0.057 A 
ENDROOT
BRANCH   1   7
ATOM      7  N   UNL d   1      -1.402   0.684  -0.212  0.00  0.00    -0.732 N 
ATOM      8  C   UNL d   1      -2.423   0.541   0.804  0.00  0.00     0.284 C 
ATOM      9  H3  UNL d   1      -1.252   1.643  -0.518  0.00  0.00     0.395 HD
ENDBRANCH   1   7
TORSDOF 1
ENDMDL
