MODEL 1
REMARK minimizedAffinity 4.82919598
REMARK minimizedRMSD -1
REMARK  1 active torsions:
REMARK  status: ('A' for Active; 'I' for Inactive)
REMARK    1  A    between atoms: N_2  and  C1_3 
ROOT
ATOM      1  C1  UNL d   1       1.345  -2.196  -0.407  0.00  0.00     0.143 A 
ATOM      2  C2  UNL d   1       0.904  -0.877  -0.258  0.00  0.00    -0.057 A 
ATOM      3  C3  UNL d   1      -0.421  -0.589   0.089  0.00  0.00     0.033 A 
ATOM      4  C4  UNL d   1      -1.340  -1.619   0.265  0.00  0.00    -0.042 A 
ATOM      5  C5  UNL d   1      -0.930  -2.937   0.097  0.00  0.00     0.033 A 
ATOM      6  C6  UNL d   1       0.397  -3.218  -0.243  0.00  0.00    -0.057 A 
ENDROOT
BRANCH   1   7
ATOM      7  N   UNL d   1       2.625  -2.544  -0.847  0.00  0.00    -0.732 N 
ATOM      8  C   UNL d   1       3.130  -2.050  -2.109  0.00  0.00     0.284 C 
ATOM      9  H3  UNL d   1       3.309  -2.537  -0.094  0.00  0.00     0.395 HD
ENDBRANCH   1   7
TORSDOF 1
ENDMDL
