MODEL 1
REMARK minimizedAffinity 8.14941978
REMARK minimizedRMSD -1
REMARK  0 active torsions:
REMARK  status: ('A' for Active; 'I' for Inactive)
ROOT
ATOM      1  N1  IND d   1       1.500  -4.505  -5.902  0.00  0.00    -0.196 N 
ATOM      2  C2  IND d   1       2.730  -4.446  -5.307  0.00  0.00     0.054 A 
ATOM      3  C3  IND d   1       2.641  -3.836  -4.104  0.00  0.00    -0.031 A 
ATOM      4  C4  IND d   1       0.564  -2.950  -2.868  0.00  0.00     0.051 A 
ATOM      5  C5  IND d   1      -0.778  -2.747  -3.026  0.00  0.00    -0.031 A 
ATOM      6  C6  IND d   1      -1.444  -3.131  -4.172  0.00  0.00     0.015 A 
ATOM      7  C7  IND d   1      -0.791  -3.744  -5.203  0.00  0.00    -0.016 A 
ATOM      8  C8  IND d   1       0.574  -3.945  -5.050  0.00  0.00    -0.047 A 
ATOM      9  C9  IND d   1       1.262  -3.519  -3.907  0.00  0.00    -0.096 A 
ATOM     10  HN1 IND d   1       1.333  -4.837  -6.677  0.00  0.00     0.298 HD
ENDROOT
TORSDOF 0
ENDMDL
