MODEL 1
REMARK minimizedAffinity 10.6529942
REMARK minimizedRMSD -1
REMARK  0 active torsions:
REMARK  status: ('A' for Active; 'I' for Inactive)
ROOT
ATOM      1  N1  IND d   1      -1.294  -2.886  -3.185  0.00  0.00    -0.196 N 
ATOM      2  C2  IND d   1      -1.002  -2.674  -1.867  0.00  0.00     0.054 A 
ATOM      3  C3  IND d   1       0.319  -2.855  -1.643  0.00  0.00    -0.031 A 
ATOM      4  C4  IND d   1       2.201  -3.402  -3.313  0.00  0.00     0.051 A 
ATOM      5  C5  IND d   1       2.418  -3.723  -4.624  0.00  0.00    -0.031 A 
ATOM      6  C6  IND d   1       1.388  -3.780  -5.541  0.00  0.00     0.015 A 
ATOM      7  C7  IND d   1       0.099  -3.505  -5.182  0.00  0.00    -0.016 A 
ATOM      8  C8  IND d   1      -0.126  -3.186  -3.851  0.00  0.00    -0.047 A 
ATOM      9  C9  IND d   1       0.908  -3.169  -2.906  0.00  0.00    -0.096 A 
ATOM     10  HN1 IND d   1      -2.077  -2.840  -3.539  0.00  0.00     0.298 HD
ENDROOT
TORSDOF 0
ENDMDL
