MODEL 1
REMARK minimizedAffinity 15.2459936
REMARK minimizedRMSD -1
REMARK  0 active torsions:
REMARK  status: ('A' for Active; 'I' for Inactive)
ROOT
ATOM      1  N1  IND d   1       5.255  -4.072   4.457  0.00  0.00    -0.196 N 
ATOM      2  C2  IND d   1       5.651  -3.613   5.682  0.00  0.00     0.054 A 
ATOM      3  C3  IND d   1       4.986  -2.479   5.997  0.00  0.00    -0.031 A 
ATOM      4  C4  IND d   1       3.133  -1.254   4.695  0.00  0.00     0.051 A 
ATOM      5  C5  IND d   1       2.459  -1.273   3.506  0.00  0.00    -0.031 A 
ATOM      6  C6  IND d   1       2.685  -2.248   2.556  0.00  0.00     0.015 A 
ATOM      7  C7  IND d   1       3.589  -3.250   2.764  0.00  0.00    -0.016 A 
ATOM      8  C8  IND d   1       4.281  -3.230   3.967  0.00  0.00    -0.047 A 
ATOM      9  C9  IND d   1       4.087  -2.219   4.918  0.00  0.00    -0.096 A 
ATOM     10  HN1 IND d   1       5.562  -4.769   4.059  0.00  0.00     0.298 HD
ENDROOT
TORSDOF 0
ENDMDL
