MODEL 1
REMARK minimizedAffinity 11.0929403
REMARK minimizedRMSD -1
REMARK  0 active torsions:
REMARK  status: ('A' for Active; 'I' for Inactive)
ROOT
ATOM      1  N1  IND d   1      -2.223  -2.922   0.515  0.00  0.00    -0.196 N 
ATOM      2  C2  IND d   1      -1.254  -2.766   1.467  0.00  0.00     0.054 A 
ATOM      3  C3  IND d   1      -0.064  -2.490   0.886  0.00  0.00    -0.031 A 
ATOM      4  C4  IND d   1       0.502  -2.148  -1.602  0.00  0.00     0.051 A 
ATOM      5  C5  IND d   1      -0.046  -2.225  -2.851  0.00  0.00    -0.031 A 
ATOM      6  C6  IND d   1      -1.375  -2.541  -3.047  0.00  0.00     0.015 A 
ATOM      7  C7  IND d   1      -2.212  -2.783  -1.994  0.00  0.00    -0.016 A 
ATOM      8  C8  IND d   1      -1.658  -2.713  -0.724  0.00  0.00    -0.047 A 
ATOM      9  C9  IND d   1      -0.300  -2.434  -0.522  0.00  0.00    -0.096 A 
ATOM     10  HN1 IND d   1      -3.047  -3.117   0.665  0.00  0.00     0.298 HD
ENDROOT
TORSDOF 0
ENDMDL
