MODEL 1
REMARK minimizedAffinity 7.55455971
REMARK minimizedRMSD -1
REMARK  0 active torsions:
REMARK  status: ('A' for Active; 'I' for Inactive)
ROOT
ATOM      1  N1  IND d   1      -4.133   1.968   0.140  0.00  0.00    -0.196 N 
ATOM      2  C2  IND d   1      -2.908   1.856   0.735  0.00  0.00     0.054 A 
ATOM      3  C3  IND d   1      -2.436   3.077   1.074  0.00  0.00    -0.031 A 
ATOM      4  C4  IND d   1      -3.552   5.385   0.837  0.00  0.00     0.051 A 
ATOM      5  C5  IND d   1      -4.658   5.999   0.319  0.00  0.00    -0.031 A 
ATOM      6  C6  IND d   1      -5.667   5.286  -0.295  0.00  0.00     0.015 A 
ATOM      7  C7  IND d   1      -5.613   3.925  -0.404  0.00  0.00    -0.016 A 
ATOM      8  C8  IND d   1      -4.488   3.299   0.114  0.00  0.00    -0.047 A 
ATOM      9  C9  IND d   1      -3.441   4.022   0.701  0.00  0.00    -0.096 A 
ATOM     10  HN1 IND d   1      -4.603   1.317  -0.167  0.00  0.00     0.298 HD
ENDROOT
TORSDOF 0
ENDMDL
