MODEL 1
REMARK minimizedAffinity 2.44866204
REMARK minimizedRMSD -1
REMARK  0 active torsions:
REMARK  status: ('A' for Active; 'I' for Inactive)
ROOT
ATOM      1  N1  IND d   1      -1.490  -2.197   3.581  0.00  0.00    -0.196 N 
ATOM      2  C2  IND d   1      -2.312  -1.106   3.610  0.00  0.00     0.054 A 
ATOM      3  C3  IND d   1      -2.474  -0.606   2.364  0.00  0.00    -0.031 A 
ATOM      4  C4  IND d   1      -1.565  -1.482   0.120  0.00  0.00     0.051 A 
ATOM      5  C5  IND d   1      -0.737  -2.431  -0.410  0.00  0.00    -0.031 A 
ATOM      6  C6  IND d   1      -0.106  -3.372   0.379  0.00  0.00     0.015 A 
ATOM      7  C7  IND d   1      -0.291  -3.405   1.733  0.00  0.00    -0.016 A 
ATOM      8  C8  IND d   1      -1.126  -2.438   2.275  0.00  0.00    -0.047 A 
ATOM      9  C9  IND d   1      -1.735  -1.455   1.484  0.00  0.00    -0.096 A 
ATOM     10  HN1 IND d   1      -1.242  -2.656   4.265  0.00  0.00     0.298 HD
ENDROOT
TORSDOF 0
ENDMDL
