MODEL 1
REMARK minimizedAffinity 8.03557396
REMARK minimizedRMSD -1
REMARK  0 active torsions:
REMARK  status: ('A' for Active; 'I' for Inactive)
ROOT
ATOM      1  N1  IND d   1      -2.571  -4.954  -5.249  0.00  0.00    -0.196 N 
ATOM      2  C2  IND d   1      -2.097  -5.994  -6.000  0.00  0.00     0.054 A 
ATOM      3  C3  IND d   1      -0.746  -6.000  -5.997  0.00  0.00    -0.031 A 
ATOM      4  C4  IND d   1       0.893  -4.459  -4.744  0.00  0.00     0.051 A 
ATOM      5  C5  IND d   1       0.935  -3.340  -3.961  0.00  0.00    -0.031 A 
ATOM      6  C6  IND d   1      -0.213  -2.690  -3.556  0.00  0.00     0.015 A 
ATOM      7  C7  IND d   1      -1.452  -3.144  -3.912  0.00  0.00    -0.016 A 
ATOM      8  C8  IND d   1      -1.497  -4.276  -4.714  0.00  0.00    -0.047 A 
ATOM      9  C9  IND d   1      -0.334  -4.915  -5.163  0.00  0.00    -0.096 A 
ATOM     10  HN1 IND d   1      -3.399  -4.757  -5.131  0.00  0.00     0.298 HD
ENDROOT
TORSDOF 0
ENDMDL
