MODEL 1
REMARK minimizedAffinity 6.50826502
REMARK minimizedRMSD -1
REMARK  0 active torsions:
REMARK  status: ('A' for Active; 'I' for Inactive)
ROOT
ATOM      1  N1  IND d   1       3.232  -2.287   5.763  0.00  0.00    -0.196 N 
ATOM      2  C2  IND d   1       4.233  -1.361   5.846  0.00  0.00     0.054 A 
ATOM      3  C3  IND d   1       5.430  -1.973   5.985  0.00  0.00    -0.031 A 
ATOM      4  C4  IND d   1       5.989  -4.486   5.999  0.00  0.00     0.051 A 
ATOM      5  C5  IND d   1       5.402  -5.721   5.988  0.00  0.00    -0.031 A 
ATOM      6  C6  IND d   1       4.034  -5.876   5.898  0.00  0.00     0.015 A 
ATOM      7  C7  IND d   1       3.199  -4.799   5.802  0.00  0.00    -0.016 A 
ATOM      8  C8  IND d   1       3.791  -3.544   5.820  0.00  0.00    -0.047 A 
ATOM      9  C9  IND d   1       5.176  -3.379   5.954  0.00  0.00    -0.096 A 
ATOM     10  HN1 IND d   1       2.393  -2.113   5.688  0.00  0.00     0.298 HD
ENDROOT
TORSDOF 0
ENDMDL
