MODEL 1
REMARK minimizedAffinity 11.3060045
REMARK minimizedRMSD -1
REMARK  0 active torsions:
REMARK  status: ('A' for Active; 'I' for Inactive)
ROOT
ATOM      1  N1  IND d   1      -2.467  -2.592   0.019  0.00  0.00    -0.196 N 
ATOM      2  C2  IND d   1      -1.530  -2.293   0.968  0.00  0.00     0.054 A 
ATOM      3  C3  IND d   1      -0.289  -2.325   0.432  0.00  0.00    -0.031 A 
ATOM      4  C4  IND d   1       0.428  -2.744  -2.005  0.00  0.00     0.051 A 
ATOM      5  C5  IND d   1      -0.069  -3.097  -3.229  0.00  0.00    -0.031 A 
ATOM      6  C6  IND d   1      -1.417  -3.300  -3.437  0.00  0.00     0.015 A 
ATOM      7  C7  IND d   1      -2.325  -3.147  -2.428  0.00  0.00    -0.016 A 
ATOM      8  C8  IND d   1      -1.824  -2.796  -1.182  0.00  0.00    -0.047 A 
ATOM      9  C9  IND d   1      -0.452  -2.630  -0.955  0.00  0.00    -0.096 A 
ATOM     10  HN1 IND d   1      -3.315  -2.643   0.150  0.00  0.00     0.298 HD
ENDROOT
TORSDOF 0
ENDMDL
