MODEL 1
REMARK minimizedAffinity 6.582757
REMARK minimizedRMSD -1
REMARK  0 active torsions:
REMARK  status: ('A' for Active; 'I' for Inactive)
ROOT
ATOM      1  N1  IND d   1      -1.469  -1.910  -2.596  0.00  0.00    -0.196 N 
ATOM      2  C2  IND d   1      -0.459  -2.540  -3.268  0.00  0.00     0.054 A 
ATOM      3  C3  IND d   1       0.378  -3.147  -2.398  0.00  0.00    -0.031 A 
ATOM      4  C4  IND d   1       0.227  -3.322   0.166  0.00  0.00     0.051 A 
ATOM      5  C5  IND d   1      -0.499  -2.877   1.235  0.00  0.00    -0.031 A 
ATOM      6  C6  IND d   1      -1.610  -2.073   1.078  0.00  0.00     0.015 A 
ATOM      7  C7  IND d   1      -2.044  -1.691  -0.160  0.00  0.00    -0.016 A 
ATOM      8  C8  IND d   1      -1.305  -2.135  -1.247  0.00  0.00    -0.047 A 
ATOM      9  C9  IND d   1      -0.152  -2.917  -1.092  0.00  0.00    -0.096 A 
ATOM     10  HN1 IND d   1      -2.100  -1.450  -2.955  0.00  0.00     0.298 HD
ENDROOT
TORSDOF 0
ENDMDL
