MODEL 1
REMARK minimizedAffinity 7.07101011
REMARK minimizedRMSD -1
REMARK  0 active torsions:
REMARK  status: ('A' for Active; 'I' for Inactive)
ROOT
ATOM      1  N1  IND d   1      -3.591  -2.564  -0.642  0.00  0.00    -0.196 N 
ATOM      2  C2  IND d   1      -3.523  -2.448   0.718  0.00  0.00     0.054 A 
ATOM      3  C3  IND d   1      -2.234  -2.397   1.122  0.00  0.00    -0.031 A 
ATOM      4  C4  IND d   1      -0.079  -2.383  -0.286  0.00  0.00     0.051 A 
ATOM      5  C5  IND d   1       0.369  -2.508  -1.571  0.00  0.00    -0.031 A 
ATOM      6  C6  IND d   1      -0.498  -2.658  -2.634  0.00  0.00     0.015 A 
ATOM      7  C7  IND d   1      -1.851  -2.677  -2.452  0.00  0.00    -0.016 A 
ATOM      8  C8  IND d   1      -2.310  -2.558  -1.147  0.00  0.00    -0.047 A 
ATOM      9  C9  IND d   1      -1.433  -2.449  -0.060  0.00  0.00    -0.096 A 
ATOM     10  HN1 IND d   1      -4.313  -2.629  -1.105  0.00  0.00     0.298 HD
ENDROOT
TORSDOF 0
ENDMDL
