MODEL 1
REMARK minimizedAffinity 14.2879868
REMARK minimizedRMSD -1
REMARK  0 active torsions:
REMARK  status: ('A' for Active; 'I' for Inactive)
ROOT
ATOM      1  N1  IND d   1       1.172  -3.714  -4.865  0.00  0.00    -0.196 N 
ATOM      2  C2  IND d   1       2.457  -3.925  -4.448  0.00  0.00     0.054 A 
ATOM      3  C3  IND d   1       2.595  -3.568  -3.151  0.00  0.00    -0.031 A 
ATOM      4  C4  IND d   1       0.821  -2.710  -1.493  0.00  0.00     0.051 A 
ATOM      5  C5  IND d   1      -0.487  -2.321  -1.421  0.00  0.00    -0.031 A 
ATOM      6  C6  IND d   1      -1.326  -2.380  -2.514  0.00  0.00     0.015 A 
ATOM      7  C7  IND d   1      -0.890  -2.843  -3.723  0.00  0.00    -0.016 A 
ATOM      8  C8  IND d   1       0.439  -3.232  -3.802  0.00  0.00    -0.047 A 
ATOM      9  C9  IND d   1       1.307  -3.135  -2.707  0.00  0.00    -0.096 A 
ATOM     10  HN1 IND d   1       0.872  -3.858  -5.658  0.00  0.00     0.298 HD
ENDROOT
TORSDOF 0
ENDMDL
