MODEL 1
REMARK minimizedAffinity 4.17263985
REMARK minimizedRMSD -1
REMARK  0 active torsions:
REMARK  status: ('A' for Active; 'I' for Inactive)
ROOT
ATOM      1  N1  IND d   1      -1.651  -2.278  -2.483  0.00  0.00    -0.196 N 
ATOM      2  C2  IND d   1      -0.504  -2.733  -3.070  0.00  0.00     0.054 A 
ATOM      3  C3  IND d   1       0.396  -3.092  -2.128  0.00  0.00    -0.031 A 
ATOM      4  C4  IND d   1       0.161  -3.113   0.436  0.00  0.00     0.051 A 
ATOM      5  C5  IND d   1      -0.691  -2.753   1.442  0.00  0.00    -0.031 A 
ATOM      6  C6  IND d   1      -1.932  -2.207   1.186  0.00  0.00     0.015 A 
ATOM      7  C7  IND d   1      -2.375  -2.011  -0.091  0.00  0.00    -0.016 A 
ATOM      8  C8  IND d   1      -1.510  -2.369  -1.116  0.00  0.00    -0.047 A 
ATOM      9  C9  IND d   1      -0.232  -2.884  -0.862  0.00  0.00    -0.096 A 
ATOM     10  HN1 IND d   1      -2.345  -1.984  -2.898  0.00  0.00     0.298 HD
ENDROOT
TORSDOF 0
ENDMDL
