MODEL 1
REMARK minimizedAffinity 18.6857452
REMARK minimizedRMSD -1
REMARK  0 active torsions:
REMARK  status: ('A' for Active; 'I' for Inactive)
ROOT
ATOM      1  N1  IND d   1      -3.630  -1.902  -1.438  0.00  0.00    -0.196 N 
ATOM      2  C2  IND d   1      -3.638  -1.743  -0.081  0.00  0.00     0.054 A 
ATOM      3  C3  IND d   1      -2.383  -1.839   0.412  0.00  0.00    -0.031 A 
ATOM      4  C4  IND d   1      -0.155  -2.155  -0.839  0.00  0.00     0.051 A 
ATOM      5  C5  IND d   1       0.357  -2.386  -2.085  0.00  0.00    -0.031 A 
ATOM      6  C6  IND d   1      -0.449  -2.467  -3.202  0.00  0.00     0.015 A 
ATOM      7  C7  IND d   1      -1.803  -2.307  -3.115  0.00  0.00    -0.016 A 
ATOM      8  C8  IND d   1      -2.328  -2.079  -1.851  0.00  0.00    -0.047 A 
ATOM      9  C9  IND d   1      -1.519  -2.039  -0.708  0.00  0.00    -0.096 A 
ATOM     10  HN1 IND d   1      -4.322  -1.894  -1.949  0.00  0.00     0.298 HD
ENDROOT
TORSDOF 0
ENDMDL
