MODEL 1
REMARK minimizedAffinity 7.88025618
REMARK minimizedRMSD -1
REMARK  0 active torsions:
REMARK  status: ('A' for Active; 'I' for Inactive)
ROOT
ATOM      1  N1  IND d   1      -1.505  -2.057  -2.990  0.00  0.00    -0.196 N 
ATOM      2  C2  IND d   1      -0.796  -1.954  -1.825  0.00  0.00     0.054 A 
ATOM      3  C3  IND d   1       0.457  -2.435  -1.994  0.00  0.00    -0.031 A 
ATOM      4  C4  IND d   1       1.588  -3.343  -4.120  0.00  0.00     0.051 A 
ATOM      5  C5  IND d   1       1.331  -3.667  -5.423  0.00  0.00    -0.031 A 
ATOM      6  C6  IND d   1       0.091  -3.464  -5.993  0.00  0.00     0.015 A 
ATOM      7  C7  IND d   1      -0.939  -2.916  -5.282  0.00  0.00    -0.016 A 
ATOM      8  C8  IND d   1      -0.684  -2.593  -3.957  0.00  0.00    -0.047 A 
ATOM      9  C9  IND d   1       0.560  -2.837  -3.361  0.00  0.00    -0.096 A 
ATOM     10  HN1 IND d   1      -2.326  -1.826  -3.099  0.00  0.00     0.298 HD
ENDROOT
TORSDOF 0
ENDMDL
