MODEL 1
REMARK minimizedAffinity 6.07433605
REMARK minimizedRMSD -1
REMARK  0 active torsions:
REMARK  status: ('A' for Active; 'I' for Inactive)
ROOT
ATOM      1  N1  IND d   1      -3.931  -2.401  -0.469  0.00  0.00    -0.196 N 
ATOM      2  C2  IND d   1      -3.733  -2.122   0.855  0.00  0.00     0.054 A 
ATOM      3  C3  IND d   1      -2.415  -1.960   1.110  0.00  0.00    -0.031 A 
ATOM      4  C4  IND d   1      -0.418  -2.009  -0.514  0.00  0.00     0.051 A 
ATOM      5  C5  IND d   1      -0.095  -2.263  -1.817  0.00  0.00    -0.031 A 
ATOM      6  C6  IND d   1      -1.054  -2.580  -2.758  0.00  0.00     0.015 A 
ATOM      7  C7  IND d   1      -2.379  -2.644  -2.430  0.00  0.00    -0.016 A 
ATOM      8  C8  IND d   1      -2.709  -2.393  -1.106  0.00  0.00    -0.047 A 
ATOM      9  C9  IND d   1      -1.736  -2.113  -0.138  0.00  0.00    -0.096 A 
ATOM     10  HN1 IND d   1      -4.690  -2.556  -0.840  0.00  0.00     0.298 HD
ENDROOT
TORSDOF 0
ENDMDL
