MODEL 1
REMARK minimizedAffinity 14.4328003
REMARK minimizedRMSD -1
REMARK  0 active torsions:
REMARK  status: ('A' for Active; 'I' for Inactive)
ROOT
ATOM      1  N1  IND d   1      -0.550   5.999   0.997  0.00  0.00    -0.196 N 
ATOM      2  C2  IND d   1       0.746   5.641   1.245  0.00  0.00     0.054 A 
ATOM      3  C3  IND d   1       0.871   4.295   1.239  0.00  0.00    -0.031 A 
ATOM      4  C4  IND d   1      -0.897   2.490   0.742  0.00  0.00     0.051 A 
ATOM      5  C5  IND d   1      -2.231   2.329   0.496  0.00  0.00    -0.031 A 
ATOM      6  C6  IND d   1      -3.091   3.404   0.400  0.00  0.00     0.015 A 
ATOM      7  C7  IND d   1      -2.643   4.688   0.535  0.00  0.00    -0.016 A 
ATOM      8  C8  IND d   1      -1.290   4.855   0.792  0.00  0.00    -0.047 A 
ATOM      9  C9  IND d   1      -0.420   3.766   0.933  0.00  0.00    -0.096 A 
ATOM     10  HN1 IND d   1      -0.852   6.804   0.973  0.00  0.00     0.298 HD
ENDROOT
TORSDOF 0
ENDMDL
