MODEL 1
REMARK minimizedAffinity 22.7833805
REMARK minimizedRMSD -1
REMARK  0 active torsions:
REMARK  status: ('A' for Active; 'I' for Inactive)
ROOT
ATOM      1  N1  IND d   1      -1.874  -2.189  -2.784  0.00  0.00    -0.196 N 
ATOM      2  C2  IND d   1      -0.880  -2.750  -3.537  0.00  0.00     0.054 A 
ATOM      3  C3  IND d   1       0.188  -3.042  -2.762  0.00  0.00    -0.031 A 
ATOM      4  C4  IND d   1       0.485  -2.779  -0.218  0.00  0.00     0.051 A 
ATOM      5  C5  IND d   1      -0.135  -2.279   0.892  0.00  0.00    -0.031 A 
ATOM      6  C6  IND d   1      -1.393  -1.715   0.834  0.00  0.00     0.015 A 
ATOM      7  C7  IND d   1      -2.086  -1.640  -0.342  0.00  0.00    -0.016 A 
ATOM      8  C8  IND d   1      -1.456  -2.140  -1.473  0.00  0.00    -0.047 A 
ATOM      9  C9  IND d   1      -0.163  -2.675  -1.427  0.00  0.00    -0.096 A 
ATOM     10  HN1 IND d   1      -2.633  -1.914  -3.081  0.00  0.00     0.298 HD
ENDROOT
TORSDOF 0
ENDMDL
