MODEL 1
REMARK minimizedAffinity -4.76597118
REMARK minimizedRMSD -1
REMARK  0 active torsions:
REMARK  status: ('A' for Active; 'I' for Inactive)
ROOT
ATOM      1  C   UNL d   1      -1.842   2.082  -3.011  0.00  0.00     0.078 C 
ATOM      2  C1  UNL d   1      -1.658   1.193  -1.818  0.00  0.00    -0.077 A 
ATOM      3  C2  UNL d   1      -2.718   0.424  -1.321  0.00  0.00    -0.001 A 
ATOM      4  C3  UNL d   1      -2.534  -0.392  -0.204  0.00  0.00     0.003 A 
ATOM      5  C4  UNL d   1      -1.293  -0.446   0.427  0.00  0.00    -0.005 A 
ATOM      6  C5  UNL d   1      -0.233   0.317  -0.059  0.00  0.00     0.003 A 
ATOM      7  C6  UNL d   1      -0.415   1.133  -1.177  0.00  0.00    -0.001 A 
ENDROOT
TORSDOF 0
ENDMDL
