MODEL 1
REMARK minimizedAffinity -6.08666706
REMARK minimizedRMSD -1
REMARK  0 active torsions:
REMARK  status: ('A' for Active; 'I' for Inactive)
ROOT
ATOM      1  C   UNL d   1       1.487  -2.760   1.010  0.00  0.00     0.078 C 
ATOM      2  C1  UNL d   1       0.624  -1.572   0.707  0.00  0.00    -0.077 A 
ATOM      3  C2  UNL d   1      -0.662  -1.457   1.250  0.00  0.00    -0.001 A 
ATOM      4  C3  UNL d   1      -1.458  -0.350   0.952  0.00  0.00     0.003 A 
ATOM      5  C4  UNL d   1      -0.979   0.650   0.109  0.00  0.00    -0.005 A 
ATOM      6  C5  UNL d   1       0.298   0.544  -0.438  0.00  0.00     0.003 A 
ATOM      7  C6  UNL d   1       1.096  -0.562  -0.141  0.00  0.00    -0.001 A 
ENDROOT
TORSDOF 0
ENDMDL
