MODEL 1
REMARK minimizedAffinity -4.77754927
REMARK minimizedRMSD -1
REMARK  0 active torsions:
REMARK  status: ('A' for Active; 'I' for Inactive)
ROOT
ATOM      1  C   UNL d   1       1.895  -1.658   1.284  0.00  0.00     0.078 C 
ATOM      2  C1  UNL d   1       0.956  -0.593   0.803  0.00  0.00    -0.077 A 
ATOM      3  C2  UNL d   1       1.279   0.211  -0.297  0.00  0.00    -0.001 A 
ATOM      4  C3  UNL d   1       0.399   1.206  -0.727  0.00  0.00     0.003 A 
ATOM      5  C4  UNL d   1      -0.809   1.406  -0.062  0.00  0.00    -0.005 A 
ATOM      6  C5  UNL d   1      -1.138   0.613   1.035  0.00  0.00     0.003 A 
ATOM      7  C6  UNL d   1      -0.260  -0.382   1.466  0.00  0.00    -0.001 A 
ENDROOT
TORSDOF 0
ENDMDL
