MODEL 1
REMARK minimizedAffinity -2.0399406
REMARK minimizedRMSD -1
REMARK  0 active torsions:
REMARK  status: ('A' for Active; 'I' for Inactive)
ROOT
ATOM      1  C   UNL d   1       2.416  -1.501   0.817  0.00  0.00     0.078 C 
ATOM      2  C1  UNL d   1       1.337  -0.562   0.367  0.00  0.00    -0.077 A 
ATOM      3  C2  UNL d   1       1.549   0.323  -0.697  0.00  0.00    -0.001 A 
ATOM      4  C3  UNL d   1       0.539   1.198  -1.100  0.00  0.00     0.003 A 
ATOM      5  C4  UNL d   1      -0.690   1.197  -0.443  0.00  0.00    -0.005 A 
ATOM      6  C5  UNL d   1      -0.910   0.321   0.618  0.00  0.00     0.003 A 
ATOM      7  C6  UNL d   1       0.099  -0.554   1.022  0.00  0.00    -0.001 A 
ENDROOT
TORSDOF 0
ENDMDL
