MODEL 1
REMARK minimizedAffinity -2.07635498
REMARK minimizedRMSD -1
REMARK  0 active torsions:
REMARK  status: ('A' for Active; 'I' for Inactive)
ROOT
ATOM      1  C   UNL d   1       2.359  -1.679   0.773  0.00  0.00     0.078 C 
ATOM      2  C1  UNL d   1       1.248  -0.721   0.466  0.00  0.00    -0.077 A 
ATOM      3  C2  UNL d   1      -0.042  -0.925   0.971  0.00  0.00    -0.001 A 
ATOM      4  C3  UNL d   1      -1.069  -0.030   0.668  0.00  0.00     0.003 A 
ATOM      5  C4  UNL d   1      -0.818   1.075  -0.142  0.00  0.00    -0.005 A 
ATOM      6  C5  UNL d   1       0.462   1.286  -0.651  0.00  0.00     0.003 A 
ATOM      7  C6  UNL d   1       1.491   0.392  -0.350  0.00  0.00    -0.001 A 
ENDROOT
TORSDOF 0
ENDMDL
