MODEL 1
REMARK minimizedAffinity -0.765355587
REMARK minimizedRMSD -1
REMARK  0 active torsions:
REMARK  status: ('A' for Active; 'I' for Inactive)
ROOT
ATOM      1  C   UNL d   1       0.908   0.535  -0.013  0.00  0.00     0.078 C 
ATOM      2  C1  UNL d   1      -0.274   0.895  -0.863  0.00  0.00    -0.077 A 
ATOM      3  C2  UNL d   1      -1.423   0.094  -0.877  0.00  0.00    -0.001 A 
ATOM      4  C3  UNL d   1      -2.512   0.437  -1.680  0.00  0.00     0.003 A 
ATOM      5  C4  UNL d   1      -2.463   1.580  -2.475  0.00  0.00    -0.005 A 
ATOM      6  C5  UNL d   1      -1.324   2.381  -2.469  0.00  0.00     0.003 A 
ATOM      7  C6  UNL d   1      -0.233   2.041  -1.667  0.00  0.00    -0.001 A 
ENDROOT
TORSDOF 0
ENDMDL
