MODEL 1
REMARK minimizedAffinity -0.911680341
REMARK minimizedRMSD -1
REMARK  0 active torsions:
REMARK  status: ('A' for Active; 'I' for Inactive)
ROOT
ATOM      1  C   UNL d   1      -1.901  -0.725   2.567  0.00  0.00     0.078 C 
ATOM      2  C1  UNL d   1      -1.274  -0.308   1.270  0.00  0.00    -0.077 A 
ATOM      3  C2  UNL d   1      -1.977  -0.411   0.063  0.00  0.00    -0.001 A 
ATOM      4  C3  UNL d   1      -1.377  -0.028  -1.138  0.00  0.00     0.003 A 
ATOM      5  C4  UNL d   1      -0.072   0.459  -1.144  0.00  0.00    -0.005 A 
ATOM      6  C5  UNL d   1       0.636   0.563   0.052  0.00  0.00     0.003 A 
ATOM      7  C6  UNL d   1       0.038   0.181   1.254  0.00  0.00    -0.001 A 
ENDROOT
TORSDOF 0
ENDMDL
