MODEL 1
REMARK minimizedAffinity 0.451813608
REMARK minimizedRMSD -1
REMARK  0 active torsions:
REMARK  status: ('A' for Active; 'I' for Inactive)
ROOT
ATOM      1  C   UNL d   1       2.266  -1.076   1.231  0.00  0.00     0.078 C 
ATOM      2  C1  UNL d   1       1.499  -0.287   0.212  0.00  0.00    -0.077 A 
ATOM      3  C2  UNL d   1       0.387  -0.837  -0.438  0.00  0.00    -0.001 A 
ATOM      4  C3  UNL d   1      -0.312  -0.094  -1.391  0.00  0.00     0.003 A 
ATOM      5  C4  UNL d   1       0.095   1.202  -1.704  0.00  0.00    -0.005 A 
ATOM      6  C5  UNL d   1       1.201   1.756  -1.064  0.00  0.00     0.003 A 
ATOM      7  C6  UNL d   1       1.901   1.015  -0.111  0.00  0.00    -0.001 A 
ENDROOT
TORSDOF 0
ENDMDL
