MODEL 1
REMARK minimizedAffinity -4.28227758
REMARK minimizedRMSD -1
REMARK  0 active torsions:
REMARK  status: ('A' for Active; 'I' for Inactive)
ROOT
ATOM      1  C   UNL d   1      -1.654  -1.121   0.436  0.00  0.00     0.078 C 
ATOM      2  C1  UNL d   1      -0.229  -0.737   0.166  0.00  0.00    -0.077 A 
ATOM      3  C2  UNL d   1       0.080   0.361  -0.645  0.00  0.00    -0.001 A 
ATOM      4  C3  UNL d   1       1.411   0.701  -0.896  0.00  0.00     0.003 A 
ATOM      5  C4  UNL d   1       2.442  -0.053  -0.340  0.00  0.00    -0.005 A 
ATOM      6  C5  UNL d   1       2.144  -1.149   0.467  0.00  0.00     0.003 A 
ATOM      7  C6  UNL d   1       0.814  -1.491   0.719  0.00  0.00    -0.001 A 
ENDROOT
TORSDOF 0
ENDMDL
