MODEL 1
REMARK minimizedAffinity -5.62828302
REMARK minimizedRMSD -1
REMARK  0 active torsions:
REMARK  status: ('A' for Active; 'I' for Inactive)
ROOT
ATOM      1  C   UNL d   1      -1.470   0.156  -0.054  0.00  0.00     0.078 C 
ATOM      2  C1  UNL d   1      -0.607  -0.895   0.576  0.00  0.00    -0.077 A 
ATOM      3  C2  UNL d   1      -1.081  -1.677   1.636  0.00  0.00    -0.001 A 
ATOM      4  C3  UNL d   1      -0.262  -2.646   2.220  0.00  0.00     0.003 A 
ATOM      5  C4  UNL d   1       1.036  -2.839   1.752  0.00  0.00    -0.005 A 
ATOM      6  C5  UNL d   1       1.517  -2.064   0.699  0.00  0.00     0.003 A 
ATOM      7  C6  UNL d   1       0.700  -1.095   0.114  0.00  0.00    -0.001 A 
ENDROOT
TORSDOF 0
ENDMDL
