MODEL 1
REMARK minimizedAffinity -0.646573842
REMARK minimizedRMSD -1
REMARK  0 active torsions:
REMARK  status: ('A' for Active; 'I' for Inactive)
ROOT
ATOM      1  C   UNL d   1       1.008   0.046  -0.380  0.00  0.00     0.078 C 
ATOM      2  C1  UNL d   1       0.194  -0.371   0.809  0.00  0.00    -0.077 A 
ATOM      3  C2  UNL d   1      -1.193  -0.183   0.835  0.00  0.00    -0.001 A 
ATOM      4  C3  UNL d   1      -1.936  -0.566   1.953  0.00  0.00     0.003 A 
ATOM      5  C4  UNL d   1      -1.301  -1.139   3.053  0.00  0.00    -0.005 A 
ATOM      6  C5  UNL d   1       0.079  -1.329   3.036  0.00  0.00     0.003 A 
ATOM      7  C6  UNL d   1       0.824  -0.946   1.920  0.00  0.00    -0.001 A 
ENDROOT
TORSDOF 0
ENDMDL
