MODEL 1
REMARK minimizedAffinity -3.17026258
REMARK minimizedRMSD -1
REMARK  0 active torsions:
REMARK  status: ('A' for Active; 'I' for Inactive)
ROOT
ATOM      1  C   UNL d   1      -1.386  -0.050   1.412  0.00  0.00     0.078 C 
ATOM      2  C1  UNL d   1      -1.825   0.389   0.047  0.00  0.00    -0.077 A 
ATOM      3  C2  UNL d   1      -1.106   1.358  -0.665  0.00  0.00    -0.001 A 
ATOM      4  C3  UNL d   1      -1.532   1.765  -1.930  0.00  0.00     0.003 A 
ATOM      5  C4  UNL d   1      -2.678   1.209  -2.495  0.00  0.00    -0.005 A 
ATOM      6  C5  UNL d   1      -3.401   0.247  -1.793  0.00  0.00     0.003 A 
ATOM      7  C6  UNL d   1      -2.977  -0.162  -0.528  0.00  0.00    -0.001 A 
ENDROOT
TORSDOF 0
ENDMDL
