MODEL 1
REMARK minimizedAffinity -5.10842943
REMARK minimizedRMSD -1
REMARK  0 active torsions:
REMARK  status: ('A' for Active; 'I' for Inactive)
ROOT
ATOM      1  C   UNL d   1      -2.043   1.557  -3.391  0.00  0.00     0.078 C 
ATOM      2  C1  UNL d   1      -1.954   0.907  -2.043  0.00  0.00    -0.077 A 
ATOM      3  C2  UNL d   1      -0.849   1.122  -1.210  0.00  0.00    -0.001 A 
ATOM      4  C3  UNL d   1      -0.775   0.503   0.039  0.00  0.00     0.003 A 
ATOM      5  C4  UNL d   1      -1.802  -0.336   0.466  0.00  0.00    -0.005 A 
ATOM      6  C5  UNL d   1      -2.905  -0.558  -0.357  0.00  0.00     0.003 A 
ATOM      7  C6  UNL d   1      -2.981   0.061  -1.606  0.00  0.00    -0.001 A 
ENDROOT
TORSDOF 0
ENDMDL
