MODEL 1
REMARK minimizedAffinity -5.30405807
REMARK minimizedRMSD -1
REMARK  0 active torsions:
REMARK  status: ('A' for Active; 'I' for Inactive)
ROOT
ATOM      1  C   UNL d   1      -1.484   0.299   0.070  0.00  0.00     0.078 C 
ATOM      2  C1  UNL d   1      -0.640  -0.631   0.889  0.00  0.00    -0.077 A 
ATOM      3  C2  UNL d   1      -1.083  -1.100   2.132  0.00  0.00    -0.001 A 
ATOM      4  C3  UNL d   1      -0.283  -1.958   2.889  0.00  0.00     0.003 A 
ATOM      5  C4  UNL d   1       0.965  -2.354   2.411  0.00  0.00    -0.005 A 
ATOM      6  C5  UNL d   1       1.415  -1.890   1.176  0.00  0.00     0.003 A 
ATOM      7  C6  UNL d   1       0.616  -1.032   0.419  0.00  0.00    -0.001 A 
ENDROOT
TORSDOF 0
ENDMDL
