MODEL 1
REMARK minimizedAffinity -3.65900922
REMARK minimizedRMSD -1
REMARK  0 active torsions:
REMARK  status: ('A' for Active; 'I' for Inactive)
ROOT
ATOM      1  C   UNL d   1      -1.858  -0.421   2.054  0.00  0.00     0.078 C 
ATOM      2  C1  UNL d   1      -0.755  -0.106   1.088  0.00  0.00    -0.077 A 
ATOM      3  C2  UNL d   1       0.451  -0.818   1.113  0.00  0.00    -0.001 A 
ATOM      4  C3  UNL d   1       1.473  -0.507   0.214  0.00  0.00     0.003 A 
ATOM      5  C4  UNL d   1       1.300   0.516  -0.716  0.00  0.00    -0.005 A 
ATOM      6  C5  UNL d   1       0.104   1.231  -0.747  0.00  0.00     0.003 A 
ATOM      7  C6  UNL d   1      -0.919   0.922   0.151  0.00  0.00    -0.001 A 
ENDROOT
TORSDOF 0
ENDMDL
