MODEL 1
REMARK minimizedAffinity 2.89733768
REMARK minimizedRMSD -1
REMARK  3 active torsions:
REMARK  status: ('A' for Active; 'I' for Inactive)
REMARK    1  A    between atoms: C3'_2  and  C2'_3 
REMARK    2  A    between atoms: C2'_3  and  C1'_4 
REMARK    3  A    between atoms: C1'_4  and  C1_5 
ROOT
ATOM      1  C1  N4B d   1      -1.241   0.197   0.696  0.00  0.00    -0.075 A 
ATOM      2  C2  N4B d   1       0.064   0.735   0.681  0.00  0.00     0.002 A 
ATOM      3  C3  N4B d   1       0.248   2.094   0.764  0.00  0.00     0.002 A 
ATOM      4  C4  N4B d   1      -0.854   2.932   0.842  0.00  0.00    -0.004 A 
ATOM      5  C5  N4B d   1      -2.111   2.402   0.881  0.00  0.00     0.002 A 
ATOM      6  C6  N4B d   1      -2.311   1.039   0.803  0.00  0.00     0.002 A 
ENDROOT
BRANCH   1   7
ATOM      7  C1' N4B d   1      -1.495  -1.275   0.521  0.00  0.00     0.057 C 
BRANCH   7   8
ATOM      8  C2' N4B d   1      -1.726  -1.572  -0.958  0.00  0.00     0.009 C 
BRANCH   8   9
ATOM      9  C3' N4B d   1      -1.838  -3.062  -1.227  0.00  0.00     0.004 C 
ATOM     10  C4' N4B d   1      -1.243  -3.461  -2.545  0.00  0.00     0.003 C 
ENDBRANCH   8   9
ENDBRANCH   7   8
ENDBRANCH   1   7
TORSDOF 3
ENDMDL
