MODEL 1
REMARK minimizedAffinity 3.73026061
REMARK minimizedRMSD -1
REMARK  3 active torsions:
REMARK  status: ('A' for Active; 'I' for Inactive)
REMARK    1  A    between atoms: C3'_2  and  C2'_3 
REMARK    2  A    between atoms: C2'_3  and  C1'_4 
REMARK    3  A    between atoms: C1'_4  and  C1_5 
ROOT
ATOM      1  C1  N4B d   1      -0.001   1.221   0.934  0.00  0.00    -0.075 A 
ATOM      2  C2  N4B d   1      -0.787   2.392   1.010  0.00  0.00     0.002 A 
ATOM      3  C3  N4B d   1      -2.149   2.296   1.157  0.00  0.00     0.002 A 
ATOM      4  C4  N4B d   1      -2.747   1.045   1.212  0.00  0.00    -0.004 A 
ATOM      5  C5  N4B d   1      -1.978  -0.080   1.164  0.00  0.00     0.002 A 
ATOM      6  C6  N4B d   1      -0.607   0.001   1.020  0.00  0.00     0.002 A 
ENDROOT
BRANCH   1   7
ATOM      7  C1' N4B d   1       1.482   1.275   0.687  0.00  0.00     0.057 C 
BRANCH   7   8
ATOM      8  C2' N4B d   1       1.884   0.104  -0.204  0.00  0.00     0.009 C 
BRANCH   8   9
ATOM      9  C3' N4B d   1       2.235   0.555  -1.611  0.00  0.00     0.004 C 
ATOM     10  C4' N4B d   1       2.389  -0.591  -2.567  0.00  0.00     0.003 C 
ENDBRANCH   8   9
ENDBRANCH   7   8
ENDBRANCH   1   7
TORSDOF 3
ENDMDL
