MODEL 1
REMARK minimizedAffinity 4.07753801
REMARK minimizedRMSD -1
REMARK  3 active torsions:
REMARK  status: ('A' for Active; 'I' for Inactive)
REMARK    1  A    between atoms: C3'_2  and  C2'_3 
REMARK    2  A    between atoms: C2'_3  and  C1'_4 
REMARK    3  A    between atoms: C1'_4  and  C1_5 
ROOT
ATOM      1  C1  N4B d   1      -0.055  -1.773  -1.044  0.00  0.00    -0.075 A 
ATOM      2  C2  N4B d   1       1.151  -1.083  -1.297  0.00  0.00     0.002 A 
ATOM      3  C3  N4B d   1       1.489   0.009  -0.537  0.00  0.00     0.002 A 
ATOM      4  C4  N4B d   1       0.633   0.439   0.465  0.00  0.00    -0.004 A 
ATOM      5  C5  N4B d   1      -0.518  -0.248   0.720  0.00  0.00     0.002 A 
ATOM      6  C6  N4B d   1      -0.869  -1.350  -0.034  0.00  0.00     0.002 A 
ENDROOT
BRANCH   1   7
ATOM      7  C1' N4B d   1      -0.509  -2.920  -1.905  0.00  0.00     0.057 C 
BRANCH   7   8
ATOM      8  C2' N4B d   1      -1.913  -3.341  -1.480  0.00  0.00     0.009 C 
BRANCH   8   9
ATOM      9  C3' N4B d   1      -1.994  -4.827  -1.177  0.00  0.00     0.004 C 
ATOM     10  C4' N4B d   1      -3.405  -5.317  -1.047  0.00  0.00     0.003 C 
ENDBRANCH   8   9
ENDBRANCH   7   8
ENDBRANCH   1   7
TORSDOF 3
ENDMDL
