MODEL 1
REMARK minimizedAffinity 3.18869328
REMARK minimizedRMSD -1
REMARK  3 active torsions:
REMARK  status: ('A' for Active; 'I' for Inactive)
REMARK    1  A    between atoms: C3'_2  and  C2'_3 
REMARK    2  A    between atoms: C2'_3  and  C1'_4 
REMARK    3  A    between atoms: C1'_4  and  C1_5 
ROOT
ATOM      1  C1  N4B d   1       0.040   1.088   0.790  0.00  0.00    -0.075 A 
ATOM      2  C2  N4B d   1      -0.653   2.309   0.639  0.00  0.00     0.002 A 
ATOM      3  C3  N4B d   1      -2.026   2.324   0.644  0.00  0.00     0.002 A 
ATOM      4  C4  N4B d   1      -2.725   1.134   0.780  0.00  0.00    -0.004 A 
ATOM      5  C5  N4B d   1      -2.048  -0.038   0.950  0.00  0.00     0.002 A 
ATOM      6  C6  N4B d   1      -0.668  -0.068   0.950  0.00  0.00     0.002 A 
ENDROOT
BRANCH   1   7
ATOM      7  C1' N4B d   1       1.540   1.011   0.704  0.00  0.00     0.057 C 
BRANCH   7   8
ATOM      8  C2' N4B d   1       1.929  -0.080  -0.290  0.00  0.00     0.009 C 
BRANCH   8   9
ATOM      9  C3' N4B d   1       2.337   0.496  -1.635  0.00  0.00     0.004 C 
ATOM     10  C4' N4B d   1       2.612  -0.563  -2.660  0.00  0.00     0.003 C 
ENDBRANCH   8   9
ENDBRANCH   7   8
ENDBRANCH   1   7
TORSDOF 3
ENDMDL
