MODEL 1
REMARK minimizedAffinity 8.28658295
REMARK minimizedRMSD -1
REMARK  3 active torsions:
REMARK  status: ('A' for Active; 'I' for Inactive)
REMARK    1  A    between atoms: C3'_2  and  C2'_3 
REMARK    2  A    between atoms: C2'_3  and  C1'_4 
REMARK    3  A    between atoms: C1'_4  and  C1_5 
ROOT
ATOM      1  C1  N4B d   1      -0.263   1.593   1.152  0.00  0.00    -0.075 A 
ATOM      2  C2  N4B d   1      -1.143   2.697   1.117  0.00  0.00     0.002 A 
ATOM      3  C3  N4B d   1      -2.485   2.498   0.908  0.00  0.00     0.002 A 
ATOM      4  C4  N4B d   1      -2.966   1.212   0.712  0.00  0.00    -0.004 A 
ATOM      5  C5  N4B d   1      -2.113   0.149   0.772  0.00  0.00     0.002 A 
ATOM      6  C6  N4B d   1      -0.762   0.333   0.986  0.00  0.00     0.002 A 
ENDROOT
BRANCH   1   7
ATOM      7  C1' N4B d   1       1.225   1.767   1.293  0.00  0.00     0.057 C 
BRANCH   7   8
ATOM      8  C2' N4B d   1       1.506   2.861   2.318  0.00  0.00     0.009 C 
BRANCH   8   9
ATOM      9  C3' N4B d   1       2.979   2.933   2.683  0.00  0.00     0.004 C 
ATOM     10  C4' N4B d   1       3.375   4.268   3.239  0.00  0.00     0.003 C 
ENDBRANCH   8   9
ENDBRANCH   7   8
ENDBRANCH   1   7
TORSDOF 3
ENDMDL
