MODEL 1
REMARK minimizedAffinity 13.1669102
REMARK minimizedRMSD -1
REMARK  3 active torsions:
REMARK  status: ('A' for Active; 'I' for Inactive)
REMARK    1  A    between atoms: C3'_2  and  C2'_3 
REMARK    2  A    between atoms: C2'_3  and  C1'_4 
REMARK    3  A    between atoms: C1'_4  and  C1_5 
ROOT
ATOM      1  C1  N4B d   1       2.050  -0.648  -1.629  0.00  0.00    -0.075 A 
ATOM      2  C2  N4B d   1       1.630   0.071  -2.769  0.00  0.00     0.002 A 
ATOM      3  C3  N4B d   1       2.520   0.331  -3.783  0.00  0.00     0.002 A 
ATOM      4  C4  N4B d   1       3.833  -0.100  -3.670  0.00  0.00    -0.004 A 
ATOM      5  C5  N4B d   1       4.224  -0.816  -2.576  0.00  0.00     0.002 A 
ATOM      6  C6  N4B d   1       3.340  -1.088  -1.552  0.00  0.00     0.002 A 
ENDROOT
BRANCH   1   7
ATOM      7  C1' N4B d   1       1.136  -0.882  -0.457  0.00  0.00     0.057 C 
BRANCH   7   8
ATOM      8  C2' N4B d   1       1.671  -0.122   0.754  0.00  0.00     0.009 C 
BRANCH   8   9
ATOM      9  C3' N4B d   1       1.338   1.358   0.688  0.00  0.00     0.004 C 
ATOM     10  C4' N4B d   1       2.417   2.222   1.269  0.00  0.00     0.003 C 
ENDBRANCH   8   9
ENDBRANCH   7   8
ENDBRANCH   1   7
TORSDOF 3
ENDMDL
