MODEL 1
REMARK minimizedAffinity 5.83798838
REMARK minimizedRMSD -1
REMARK  0 active torsions:
REMARK  status: ('A' for Active; 'I' for Inactive)
ROOT
ATOM      1  C   UNL d   1       3.186   1.226  -0.967  0.00  0.00     0.023 A 
ATOM      2  C1  UNL d   1       3.528   2.164  -1.941  0.00  0.00     0.003 A 
ATOM      3  C2  UNL d   1       4.193   3.338  -1.579  0.00  0.00     0.048 A 
ATOM      4  C3  UNL d   1       4.513   3.566  -0.242  0.00  0.00     0.023 A 
ATOM      5  C4  UNL d   1       4.174   2.630   0.736  0.00  0.00     0.048 A 
ATOM      6  C5  UNL d   1       3.509   1.459   0.370  0.00  0.00     0.003 A 
ATOM      7  I   UNL d   1       5.503   5.312   0.299  0.00  0.00    -0.146 I 
ENDROOT
TORSDOF 0
ENDMDL
