MODEL 1
REMARK minimizedAffinity 8.21672916
REMARK minimizedRMSD -1
REMARK  0 active torsions:
REMARK  status: ('A' for Active; 'I' for Inactive)
ROOT
ATOM      1  C   UNL d   1       3.894   1.608  -3.024  0.00  0.00     0.023 A 
ATOM      2  C1  UNL d   1       3.339   2.650  -2.281  0.00  0.00     0.003 A 
ATOM      3  C2  UNL d   1       3.940   3.911  -2.286  0.00  0.00     0.048 A 
ATOM      4  C3  UNL d   1       5.096   4.123  -3.038  0.00  0.00     0.023 A 
ATOM      5  C4  UNL d   1       5.654   3.083  -3.783  0.00  0.00     0.048 A 
ATOM      6  C5  UNL d   1       5.050   1.824  -3.774  0.00  0.00     0.003 A 
ATOM      7  I   UNL d   1       5.992   5.998  -3.047  0.00  0.00    -0.146 I 
ENDROOT
TORSDOF 0
ENDMDL
