MODEL 1
REMARK minimizedAffinity 10.5804777
REMARK minimizedRMSD -1
REMARK  0 active torsions:
REMARK  status: ('A' for Active; 'I' for Inactive)
ROOT
ATOM      1  C   UNL d   1       2.312  -1.934   0.383  0.00  0.00     0.023 A 
ATOM      2  C1  UNL d   1       2.961  -0.995   1.184  0.00  0.00     0.003 A 
ATOM      3  C2  UNL d   1       3.250   0.274   0.679  0.00  0.00     0.048 A 
ATOM      4  C3  UNL d   1       2.887   0.598  -0.627  0.00  0.00     0.023 A 
ATOM      5  C4  UNL d   1       2.236  -0.338  -1.433  0.00  0.00     0.048 A 
ATOM      6  C5  UNL d   1       1.950  -1.606  -0.924  0.00  0.00     0.003 A 
ATOM      7  I   UNL d   1       3.317   2.487  -1.381  0.00  0.00    -0.146 I 
ENDROOT
TORSDOF 0
ENDMDL
