MODEL 1
REMARK minimizedAffinity 13.1972008
REMARK minimizedRMSD -1
REMARK  0 active torsions:
REMARK  status: ('A' for Active; 'I' for Inactive)
ROOT
ATOM      1  C   UNL d   1       4.636   4.386  -1.811  0.00  0.00     0.023 A 
ATOM      2  C1  UNL d   1       4.051   3.123  -1.916  0.00  0.00     0.003 A 
ATOM      3  C2  UNL d   1       4.438   2.256  -2.940  0.00  0.00     0.048 A 
ATOM      4  C3  UNL d   1       5.411   2.657  -3.854  0.00  0.00     0.023 A 
ATOM      5  C4  UNL d   1       6.000   3.918  -3.753  0.00  0.00     0.048 A 
ATOM      6  C5  UNL d   1       5.609   4.783  -2.729  0.00  0.00     0.003 A 
ATOM      7  I   UNL d   1       5.990   1.367  -5.378  0.00  0.00    -0.146 I 
ENDROOT
TORSDOF 0
ENDMDL
