MODEL 1
REMARK minimizedAffinity 4.8819685
REMARK minimizedRMSD -1
REMARK  0 active torsions:
REMARK  status: ('A' for Active; 'I' for Inactive)
ROOT
ATOM      1  C   UNL d   1      -4.078   3.943   1.710  0.00  0.00     0.023 A 
ATOM      2  C1  UNL d   1      -5.440   3.751   1.947  0.00  0.00     0.003 A 
ATOM      3  C2  UNL d   1      -5.993   4.111   3.178  0.00  0.00     0.048 A 
ATOM      4  C3  UNL d   1      -5.179   4.664   4.167  0.00  0.00     0.023 A 
ATOM      5  C4  UNL d   1      -3.817   4.859   3.933  0.00  0.00     0.048 A 
ATOM      6  C5  UNL d   1      -3.268   4.496   2.702  0.00  0.00     0.003 A 
ATOM      7  I   UNL d   1      -6.000   5.200   5.999  0.00  0.00    -0.146 I 
ENDROOT
TORSDOF 0
ENDMDL
