MODEL 1
REMARK minimizedAffinity 16.0534039
REMARK minimizedRMSD -1
REMARK  0 active torsions:
REMARK  status: ('A' for Active; 'I' for Inactive)
ROOT
ATOM      1  C   UNL d   1      -2.105  -5.998  -0.536  0.00  0.00     0.023 A 
ATOM      2  C1  UNL d   1      -1.139  -5.970   0.469  0.00  0.00     0.003 A 
ATOM      3  C2  UNL d   1      -0.165  -4.969   0.475  0.00  0.00     0.048 A 
ATOM      4  C3  UNL d   1      -0.165  -3.998  -0.526  0.00  0.00     0.023 A 
ATOM      5  C4  UNL d   1      -1.131  -4.022  -1.533  0.00  0.00     0.048 A 
ATOM      6  C5  UNL d   1      -2.102  -5.026  -1.536  0.00  0.00     0.003 A 
ATOM      7  I   UNL d   1       1.283  -2.507  -0.519  0.00  0.00    -0.146 I 
ENDROOT
TORSDOF 0
ENDMDL
