MODEL 1
REMARK minimizedAffinity 20.2064419
REMARK minimizedRMSD -1
REMARK  0 active torsions:
REMARK  status: ('A' for Active; 'I' for Inactive)
ROOT
ATOM      1  C   UNL d   1      -4.483   0.015  -1.187  0.00  0.00     0.023 A 
ATOM      2  C1  UNL d   1      -5.574   0.791  -1.577  0.00  0.00     0.003 A 
ATOM      3  C2  UNL d   1      -5.577   2.166  -1.333  0.00  0.00     0.048 A 
ATOM      4  C3  UNL d   1      -4.484   2.758  -0.700  0.00  0.00     0.023 A 
ATOM      5  C4  UNL d   1      -3.390   1.985  -0.309  0.00  0.00     0.048 A 
ATOM      6  C5  UNL d   1      -3.392   0.611  -0.554  0.00  0.00     0.003 A 
ATOM      7  I   UNL d   1      -4.486   4.805  -0.336  0.00  0.00    -0.146 I 
ENDROOT
TORSDOF 0
ENDMDL
