MODEL 1
REMARK minimizedAffinity 3.79631877
REMARK minimizedRMSD -1
REMARK  1 active torsions:
REMARK  status: ('A' for Active; 'I' for Inactive)
REMARK    1  A    between atoms: C1_2  and  C2_3 
ROOT
ATOM      1  C2  UNL d   1       1.192  -2.338   2.012  0.00  0.00    -0.081 A 
ATOM      2  C3  UNL d   1       1.393  -3.701   1.759  0.00  0.00     0.006 A 
ATOM      3  C4  UNL d   1       2.114  -4.489   2.659  0.00  0.00     0.002 A 
ATOM      4  C5  UNL d   1       2.638  -3.931   3.830  0.00  0.00    -0.080 A 
ATOM      5  C6  UNL d   1       3.388  -4.773   4.819  0.00  0.00     0.076 C 
ATOM      6  C7  UNL d   1       2.453  -2.566   4.074  0.00  0.00     0.002 A 
ATOM      7  C8  UNL d   1       1.733  -1.777   3.174  0.00  0.00     0.006 A 
ENDROOT
BRANCH   1   8
ATOM      8  C1  UNL d   1       0.360  -1.499   1.076  0.00  0.00     0.054 C 
ATOM      9  C   UNL d   1      -0.977  -2.162   0.779  0.00  0.00     0.018 C 
ENDBRANCH   1   8
TORSDOF 1
ENDMDL
