MODEL 1
REMARK minimizedAffinity 9.73364067
REMARK minimizedRMSD -1
REMARK  1 active torsions:
REMARK  status: ('A' for Active; 'I' for Inactive)
REMARK    1  A    between atoms: C1_2  and  C2_3 
ROOT
ATOM      1  C2  UNL d   1       3.732  -3.097   4.238  0.00  0.00    -0.081 A 
ATOM      2  C3  UNL d   1       4.084  -1.925   3.559  0.00  0.00     0.006 A 
ATOM      3  C4  UNL d   1       3.191  -1.328   2.666  0.00  0.00     0.002 A 
ATOM      4  C5  UNL d   1       1.929  -1.889   2.443  0.00  0.00    -0.080 A 
ATOM      5  C6  UNL d   1       0.950  -1.242   1.510  0.00  0.00     0.076 C 
ATOM      6  C7  UNL d   1       1.583  -3.070   3.109  0.00  0.00     0.002 A 
ATOM      7  C8  UNL d   1       2.476  -3.667   4.001  0.00  0.00     0.006 A 
ENDROOT
BRANCH   1   8
ATOM      8  C1  UNL d   1       4.667  -3.707   5.251  0.00  0.00     0.054 C 
ATOM      9  C   UNL d   1       5.996  -2.966   5.294  0.00  0.00     0.018 C 
ENDBRANCH   1   8
TORSDOF 1
ENDMDL
