MODEL 1
REMARK minimizedAffinity -0.360042185
REMARK minimizedRMSD -1
REMARK  0 active torsions:
REMARK  status: ('A' for Active; 'I' for Inactive)
ROOT
ATOM      1  C   UNL d   1      -3.951   3.745  -3.269  0.00  0.00     0.020 A 
ATOM      2  C1  UNL d   1      -4.240   2.588  -2.546  0.00  0.00     0.020 A 
ATOM      3  C2  UNL d   1      -3.211   1.716  -2.184  0.00  0.00     0.034 A 
ATOM      4  C3  UNL d   1      -1.889   1.999  -2.544  0.00  0.00     0.017 A 
ATOM      5  C4  UNL d   1      -1.600   3.161  -3.270  0.00  0.00     0.017 A 
ATOM      6  C5  UNL d   1      -2.634   4.030  -3.630  0.00  0.00     0.034 A 
ATOM      7 Cl   UNL d   1       0.007   3.578  -3.751  0.00  0.00    -0.070 Cl
ATOM      8 Cl1  UNL d   1      -0.667   0.877  -2.062  0.00  0.00    -0.070 Cl
ENDROOT
TORSDOF 0
ENDMDL
