MODEL 1
REMARK minimizedAffinity -4.21017981
REMARK minimizedRMSD -1
REMARK  0 active torsions:
REMARK  status: ('A' for Active; 'I' for Inactive)
ROOT
ATOM      1  C   UNL d   1      -3.354  -0.740  -1.592  0.00  0.00     0.020 A 
ATOM      2  C1  UNL d   1      -2.942  -1.215  -0.348  0.00  0.00     0.020 A 
ATOM      3  C2  UNL d   1      -1.743  -0.766   0.209  0.00  0.00     0.034 A 
ATOM      4  C3  UNL d   1      -0.951   0.162  -0.478  0.00  0.00     0.017 A 
ATOM      5  C4  UNL d   1      -1.366   0.638  -1.727  0.00  0.00     0.017 A 
ATOM      6  C5  UNL d   1      -2.568   0.185  -2.280  0.00  0.00     0.034 A 
ATOM      7 Cl   UNL d   1      -0.443   1.783  -2.636  0.00  0.00    -0.070 Cl
ATOM      8 Cl1  UNL d   1       0.519   0.675   0.270  0.00  0.00    -0.070 Cl
ENDROOT
TORSDOF 0
ENDMDL
