MODEL 1
REMARK minimizedAffinity -3.99552393
REMARK minimizedRMSD -1
REMARK  0 active torsions:
REMARK  status: ('A' for Active; 'I' for Inactive)
ROOT
ATOM      1  C   UNL d   1       2.004  -0.550   2.139  0.00  0.00     0.020 A 
ATOM      2  C1  UNL d   1       0.693  -0.162   2.410  0.00  0.00     0.020 A 
ATOM      3  C2  UNL d   1      -0.249  -0.118   1.381  0.00  0.00     0.034 A 
ATOM      4  C3  UNL d   1       0.119  -0.462   0.075  0.00  0.00     0.017 A 
ATOM      5  C4  UNL d   1       1.435  -0.851  -0.197  0.00  0.00     0.017 A 
ATOM      6  C5  UNL d   1       2.375  -0.894   0.838  0.00  0.00     0.034 A 
ATOM      7 Cl   UNL d   1       1.964  -1.290  -1.783  0.00  0.00    -0.070 Cl
ATOM      8 Cl1  UNL d   1      -1.098  -0.385  -1.150  0.00  0.00    -0.070 Cl
ENDROOT
TORSDOF 0
ENDMDL
