MODEL 1
REMARK minimizedAffinity -4.62876129
REMARK minimizedRMSD -1
REMARK  0 active torsions:
REMARK  status: ('A' for Active; 'I' for Inactive)
ROOT
ATOM      1  C   UNL d   1       0.723  -0.430   2.809  0.00  0.00     0.020 A 
ATOM      2  C1  UNL d   1       1.682   0.139   1.972  0.00  0.00     0.020 A 
ATOM      3  C2  UNL d   1       1.373   0.403   0.636  0.00  0.00     0.034 A 
ATOM      4  C3  UNL d   1       0.103   0.097   0.133  0.00  0.00     0.017 A 
ATOM      5  C4  UNL d   1      -0.858  -0.474   0.974  0.00  0.00     0.017 A 
ATOM      6  C5  UNL d   1      -0.544  -0.736   2.311  0.00  0.00     0.034 A 
ATOM      7 Cl   UNL d   1      -2.446  -0.879   0.426  0.00  0.00    -0.070 Cl
ATOM      8 Cl1  UNL d   1      -0.209   0.451  -1.529  0.00  0.00    -0.070 Cl
ENDROOT
TORSDOF 0
ENDMDL
