MODEL 1
REMARK minimizedAffinity -5.00898266
REMARK minimizedRMSD -1
REMARK  0 active torsions:
REMARK  status: ('A' for Active; 'I' for Inactive)
ROOT
ATOM      1  C   UNL d   1       0.966  -1.073   2.534  0.00  0.00     0.020 A 
ATOM      2  C1  UNL d   1       1.806  -0.102   1.989  0.00  0.00     0.020 A 
ATOM      3  C2  UNL d   1       1.384   0.646   0.888  0.00  0.00     0.034 A 
ATOM      4  C3  UNL d   1       0.120   0.426   0.329  0.00  0.00     0.017 A 
ATOM      5  C4  UNL d   1      -0.722  -0.549   0.877  0.00  0.00     0.017 A 
ATOM      6  C5  UNL d   1      -0.295  -1.295   1.980  0.00  0.00     0.034 A 
ATOM      7 Cl   UNL d   1      -2.295  -0.878   0.242  0.00  0.00    -0.070 Cl
ATOM      8 Cl1  UNL d   1      -0.336   1.388  -1.032  0.00  0.00    -0.070 Cl
ENDROOT
TORSDOF 0
ENDMDL
