MODEL 1
REMARK minimizedAffinity 2.21786666
REMARK minimizedRMSD -1
REMARK  0 active torsions:
REMARK  status: ('A' for Active; 'I' for Inactive)
ROOT
ATOM      1  C   UNL d   1       0.672   3.981  -4.372  0.00  0.00     0.020 A 
ATOM      2  C1  UNL d   1       1.467   4.153  -3.240  0.00  0.00     0.020 A 
ATOM      3  C2  UNL d   1       1.008   3.724  -1.992  0.00  0.00     0.034 A 
ATOM      4  C3  UNL d   1      -0.249   3.121  -1.874  0.00  0.00     0.017 A 
ATOM      5  C4  UNL d   1      -1.047   2.948  -3.012  0.00  0.00     0.017 A 
ATOM      6  C5  UNL d   1      -0.583   3.380  -4.258  0.00  0.00     0.034 A 
ATOM      7 Cl   UNL d   1      -2.609   2.213  -2.945  0.00  0.00    -0.070 Cl
ATOM      8 Cl1  UNL d   1      -0.753   2.614  -0.301  0.00  0.00    -0.070 Cl
ENDROOT
TORSDOF 0
ENDMDL
