MODEL 1
REMARK minimizedAffinity -4.67307472
REMARK minimizedRMSD -1
REMARK  0 active torsions:
REMARK  status: ('A' for Active; 'I' for Inactive)
ROOT
ATOM      1  C   UNL d   1       0.623  -1.083   2.821  0.00  0.00     0.020 A 
ATOM      2  C1  UNL d   1       1.503  -0.252   2.130  0.00  0.00     0.020 A 
ATOM      3  C2  UNL d   1       1.142   0.266   0.885  0.00  0.00     0.034 A 
ATOM      4  C3  UNL d   1      -0.102  -0.048   0.326  0.00  0.00     0.017 A 
ATOM      5  C4  UNL d   1      -0.985  -0.883   1.020  0.00  0.00     0.017 A 
ATOM      6  C5  UNL d   1      -0.618  -1.398   2.267  0.00  0.00     0.034 A 
ATOM      7 Cl   UNL d   1      -2.537  -1.314   0.395  0.00  0.00    -0.070 Cl
ATOM      8 Cl1  UNL d   1      -0.483   0.628  -1.218  0.00  0.00    -0.070 Cl
ENDROOT
TORSDOF 0
ENDMDL
