MODEL 1
REMARK minimizedAffinity -1.32564461
REMARK minimizedRMSD -1
REMARK  0 active torsions:
REMARK  status: ('A' for Active; 'I' for Inactive)
ROOT
ATOM      1  C   UNL d   1      -0.678   3.097  -2.996  0.00  0.00     0.020 A 
ATOM      2  C1  UNL d   1       0.701   2.934  -3.120  0.00  0.00     0.020 A 
ATOM      3  C2  UNL d   1       1.297   1.725  -2.756  0.00  0.00     0.034 A 
ATOM      4  C3  UNL d   1       0.513   0.674  -2.265  0.00  0.00     0.017 A 
ATOM      5  C4  UNL d   1      -0.871   0.839  -2.140  0.00  0.00     0.017 A 
ATOM      6  C5  UNL d   1      -1.462   2.052  -2.507  0.00  0.00     0.034 A 
ATOM      7 Cl   UNL d   1      -1.903  -0.412  -1.543  0.00  0.00    -0.070 Cl
ATOM      8 Cl1  UNL d   1       1.316  -0.794  -1.834  0.00  0.00    -0.070 Cl
ENDROOT
TORSDOF 0
ENDMDL
