MODEL 1
REMARK minimizedAffinity -3.33693647
REMARK minimizedRMSD -1
REMARK  0 active torsions:
REMARK  status: ('A' for Active; 'I' for Inactive)
ROOT
ATOM      1  C   UNL d   1       0.694   0.991  -0.655  0.00  0.00     0.172 C 
ATOM      2  N   UNL d   1       0.279  -0.179   0.083  0.00  0.00    -0.070 N 
ATOM      3  C1  UNL d   1      -0.974  -0.732   0.064  0.00  0.00    -0.004 A 
ATOM      4  C2  UNL d   1      -0.963  -1.831   0.896  0.00  0.00    -0.047 A 
ATOM      5  C3  UNL d   1       0.341  -1.941   1.435  0.00  0.00    -0.047 A 
ATOM      6  C4  UNL d   1       1.089  -0.906   0.915  0.00  0.00    -0.004 A 
ENDROOT
TORSDOF 0
ENDMDL
