MODEL 1
REMARK minimizedAffinity -2.66728258
REMARK minimizedRMSD -1
REMARK  0 active torsions:
REMARK  status: ('A' for Active; 'I' for Inactive)
ROOT
ATOM      1  C   UNL d   1       0.287   1.064  -0.737  0.00  0.00     0.172 C 
ATOM      2  N   UNL d   1      -0.599   0.082  -0.157  0.00  0.00    -0.070 N 
ATOM      3  C1  UNL d   1      -0.270  -1.213   0.140  0.00  0.00    -0.004 A 
ATOM      4  C2  UNL d   1      -1.385  -1.819   0.676  0.00  0.00    -0.047 A 
ATOM      5  C3  UNL d   1      -2.420  -0.855   0.702  0.00  0.00    -0.047 A 
ATOM      6  C4  UNL d   1      -1.906   0.314   0.181  0.00  0.00    -0.004 A 
ENDROOT
TORSDOF 0
ENDMDL
