MODEL 1
REMARK minimizedAffinity -2.91891718
REMARK minimizedRMSD -1
REMARK  0 active torsions:
REMARK  status: ('A' for Active; 'I' for Inactive)
ROOT
ATOM      1  C   UNL d   1      -1.217  -2.513   0.586  0.00  0.00     0.172 C 
ATOM      2  N   UNL d   1      -0.589  -1.242   0.309  0.00  0.00    -0.070 N 
ATOM      3  C1  UNL d   1      -1.244  -0.062   0.078  0.00  0.00    -0.004 A 
ATOM      4  C2  UNL d   1      -0.294   0.911  -0.145  0.00  0.00    -0.047 A 
ATOM      5  C3  UNL d   1       0.976   0.294  -0.044  0.00  0.00    -0.047 A 
ATOM      6  C4  UNL d   1       0.764  -1.039   0.237  0.00  0.00    -0.004 A 
ENDROOT
TORSDOF 0
ENDMDL
