MODEL 1
REMARK minimizedAffinity -4.02604914
REMARK minimizedRMSD -1
REMARK  0 active torsions:
REMARK  status: ('A' for Active; 'I' for Inactive)
ROOT
ATOM      1  C   UNL d   1       0.309   0.435  -0.291  0.00  0.00     0.172 C 
ATOM      2  N   UNL d   1      -0.488  -0.571   0.370  0.00  0.00    -0.070 N 
ATOM      3  C1  UNL d   1      -0.200  -1.908   0.427  0.00  0.00    -0.004 A 
ATOM      4  C2  UNL d   1      -1.201  -2.526   1.145  0.00  0.00    -0.047 A 
ATOM      5  C3  UNL d   1      -2.123  -1.525   1.532  0.00  0.00    -0.047 A 
ATOM      6  C4  UNL d   1      -1.658  -0.324   1.039  0.00  0.00    -0.004 A 
ENDROOT
TORSDOF 0
ENDMDL
