MODEL 1
REMARK minimizedAffinity -2.43982315
REMARK minimizedRMSD -1
REMARK  0 active torsions:
REMARK  status: ('A' for Active; 'I' for Inactive)
ROOT
ATOM      1  C   UNL d   1       0.337   0.744  -0.221  0.00  0.00     0.172 C 
ATOM      2  N   UNL d   1      -0.136  -0.543   0.233  0.00  0.00    -0.070 N 
ATOM      3  C1  UNL d   1       0.447  -1.751  -0.043  0.00  0.00    -0.004 A 
ATOM      4  C2  UNL d   1      -0.304  -2.731   0.569  0.00  0.00    -0.047 A 
ATOM      5  C3  UNL d   1      -1.375  -2.090   1.235  0.00  0.00    -0.047 A 
ATOM      6  C4  UNL d   1      -1.248  -0.736   1.010  0.00  0.00    -0.004 A 
ENDROOT
TORSDOF 0
ENDMDL
