MODEL 1
REMARK minimizedAffinity -2.25454426
REMARK minimizedRMSD -1
REMARK  0 active torsions:
REMARK  status: ('A' for Active; 'I' for Inactive)
ROOT
ATOM      1  C   UNL d   1      -0.230  -2.885   3.937  0.00  0.00     0.172 C 
ATOM      2  N   UNL d   1      -0.652  -2.637   2.578  0.00  0.00    -0.070 N 
ATOM      3  C1  UNL d   1      -1.669  -3.282   1.927  0.00  0.00    -0.004 A 
ATOM      4  C2  UNL d   1      -1.754  -2.759   0.655  0.00  0.00    -0.047 A 
ATOM      5  C3  UNL d   1      -0.754  -1.765   0.537  0.00  0.00    -0.047 A 
ATOM      6  C4  UNL d   1      -0.086  -1.710   1.743  0.00  0.00    -0.004 A 
ENDROOT
TORSDOF 0
ENDMDL
