MODEL 1
REMARK minimizedAffinity -2.95758486
REMARK minimizedRMSD -1
REMARK  0 active torsions:
REMARK  status: ('A' for Active; 'I' for Inactive)
ROOT
ATOM      1  C   UNL d   1       1.188  -0.013   0.095  0.00  0.00     0.172 C 
ATOM      2  N   UNL d   1       0.955   1.129  -0.759  0.00  0.00    -0.070 N 
ATOM      3  C1  UNL d   1       1.810   1.594  -1.721  0.00  0.00    -0.004 A 
ATOM      4  C2  UNL d   1       1.225   2.694  -2.310  0.00  0.00    -0.047 A 
ATOM      5  C3  UNL d   1      -0.026   2.896  -1.680  0.00  0.00    -0.047 A 
ATOM      6  C4  UNL d   1      -0.168   1.914  -0.723  0.00  0.00    -0.004 A 
ENDROOT
TORSDOF 0
ENDMDL
