MODEL 1
REMARK minimizedAffinity -2.23163199
REMARK minimizedRMSD -1
REMARK  0 active torsions:
REMARK  status: ('A' for Active; 'I' for Inactive)
ROOT
ATOM      1  C   UNL d   1      -0.626  -2.086   1.021  0.00  0.00     0.172 C 
ATOM      2  N   UNL d   1      -0.147  -0.915   0.324  0.00  0.00    -0.070 N 
ATOM      3  C1  UNL d   1       1.138  -0.710  -0.102  0.00  0.00    -0.004 A 
ATOM      4  C2  UNL d   1       1.186   0.522  -0.720  0.00  0.00    -0.047 A 
ATOM      5  C3  UNL d   1      -0.115   1.076  -0.661  0.00  0.00    -0.047 A 
ATOM      6  C4  UNL d   1      -0.920   0.166  -0.009  0.00  0.00    -0.004 A 
ENDROOT
TORSDOF 0
ENDMDL
