MODEL 1
REMARK minimizedAffinity -2.91865683
REMARK minimizedRMSD -1
REMARK  0 active torsions:
REMARK  status: ('A' for Active; 'I' for Inactive)
ROOT
ATOM      1  C   UNL d   1       0.329   0.565  -0.627  0.00  0.00     0.172 C 
ATOM      2  N   UNL d   1      -0.397  -0.512   0.004  0.00  0.00    -0.070 N 
ATOM      3  C1  UNL d   1      -1.740  -0.749  -0.119  0.00  0.00    -0.004 A 
ATOM      4  C2  UNL d   1      -2.043  -1.863   0.633  0.00  0.00    -0.047 A 
ATOM      5  C3  UNL d   1      -0.840  -2.311   1.230  0.00  0.00    -0.047 A 
ATOM      6  C4  UNL d   1       0.163  -1.456   0.824  0.00  0.00    -0.004 A 
ENDROOT
TORSDOF 0
ENDMDL
