MODEL 1
REMARK minimizedAffinity -4.07377863
REMARK minimizedRMSD -1
REMARK  0 active torsions:
REMARK  status: ('A' for Active; 'I' for Inactive)
ROOT
ATOM      1  C   UNL d   1       0.482   0.482  -0.036  0.00  0.00     0.172 C 
ATOM      2  N   UNL d   1      -0.415  -0.581   0.351  0.00  0.00    -0.070 N 
ATOM      3  C1  UNL d   1      -1.531  -0.439   1.131  0.00  0.00    -0.004 A 
ATOM      4  C2  UNL d   1      -2.111  -1.682   1.268  0.00  0.00    -0.047 A 
ATOM      5  C3  UNL d   1      -1.315  -2.603   0.547  0.00  0.00    -0.047 A 
ATOM      6  C4  UNL d   1      -0.271  -1.894  -0.011  0.00  0.00    -0.004 A 
ENDROOT
TORSDOF 0
ENDMDL
