MODEL 1
REMARK minimizedAffinity -3.26502371
REMARK minimizedRMSD -1
REMARK  0 active torsions:
REMARK  status: ('A' for Active; 'I' for Inactive)
ROOT
ATOM      1  C   UNL d   1       1.497  -0.608   0.380  0.00  0.00     0.172 C 
ATOM      2  N   UNL d   1       0.140  -1.099   0.426  0.00  0.00    -0.070 N 
ATOM      3  C1  UNL d   1      -0.990  -0.338   0.287  0.00  0.00    -0.004 A 
ATOM      4  C2  UNL d   1      -2.079  -1.176   0.390  0.00  0.00    -0.047 A 
ATOM      5  C3  UNL d   1      -1.587  -2.486   0.599  0.00  0.00    -0.047 A 
ATOM      6  C4  UNL d   1      -0.210  -2.410   0.617  0.00  0.00    -0.004 A 
ENDROOT
TORSDOF 0
ENDMDL
