MODEL 1
REMARK minimizedAffinity -2.66899872
REMARK minimizedRMSD -1
REMARK  0 active torsions:
REMARK  status: ('A' for Active; 'I' for Inactive)
ROOT
ATOM      1  C   UNL d   1      -1.084  -2.208   0.835  0.00  0.00     0.172 C 
ATOM      2  N   UNL d   1      -0.614  -0.855   0.646  0.00  0.00    -0.070 N 
ATOM      3  C1  UNL d   1       0.662  -0.494   0.308  0.00  0.00    -0.004 A 
ATOM      4  C2  UNL d   1       0.703   0.881   0.224  0.00  0.00    -0.047 A 
ATOM      5  C3  UNL d   1      -0.593   1.363   0.522  0.00  0.00    -0.047 A 
ATOM      6  C4  UNL d   1      -1.389   0.267   0.780  0.00  0.00    -0.004 A 
ENDROOT
TORSDOF 0
ENDMDL
