MODEL 1
REMARK minimizedAffinity -3.41610003
REMARK minimizedRMSD -1
REMARK  0 active torsions:
REMARK  status: ('A' for Active; 'I' for Inactive)
ROOT
ATOM      1  C   UNL d   1       0.612   1.218  -0.331  0.00  0.00     0.172 C 
ATOM      2  N   UNL d   1      -0.030   0.007   0.125  0.00  0.00    -0.070 N 
ATOM      3  C1  UNL d   1       0.573  -1.214   0.259  0.00  0.00    -0.004 A 
ATOM      4  C2  UNL d   1      -0.373  -2.104   0.719  0.00  0.00    -0.047 A 
ATOM      5  C3  UNL d   1      -1.587  -1.393   0.866  0.00  0.00    -0.047 A 
ATOM      6  C4  UNL d   1      -1.347  -0.088   0.491  0.00  0.00    -0.004 A 
ENDROOT
TORSDOF 0
ENDMDL
