MODEL 1
REMARK minimizedAffinity -3.53278399
REMARK minimizedRMSD -1
REMARK  0 active torsions:
REMARK  status: ('A' for Active; 'I' for Inactive)
ROOT
ATOM      1  C   UNL d   1       0.728   1.004  -0.466  0.00  0.00     0.172 C 
ATOM      2  N   UNL d   1       0.145  -0.241  -0.025  0.00  0.00    -0.070 N 
ATOM      3  C1  UNL d   1       0.767  -1.461  -0.031  0.00  0.00    -0.004 A 
ATOM      4  C2  UNL d   1      -0.121  -2.390   0.465  0.00  0.00    -0.047 A 
ATOM      5  C3  UNL d   1      -1.319  -1.705   0.780  0.00  0.00    -0.047 A 
ATOM      6  C4  UNL d   1      -1.127  -0.376   0.467  0.00  0.00    -0.004 A 
ENDROOT
TORSDOF 0
ENDMDL
