MODEL 1
REMARK minimizedAffinity -2.63346815
REMARK minimizedRMSD -1
REMARK  0 active torsions:
REMARK  status: ('A' for Active; 'I' for Inactive)
ROOT
ATOM      1  C   UNL d   1       0.827   1.414  -1.036  0.00  0.00     0.172 C 
ATOM      2  N   UNL d   1       0.447   0.192  -0.366  0.00  0.00    -0.070 N 
ATOM      3  C1  UNL d   1      -0.835  -0.249  -0.177  0.00  0.00    -0.004 A 
ATOM      4  C2  UNL d   1      -0.773  -1.448   0.499  0.00  0.00    -0.047 A 
ATOM      5  C3  UNL d   1       0.593  -1.737   0.725  0.00  0.00    -0.047 A 
ATOM      6  C4  UNL d   1       1.327  -0.705   0.179  0.00  0.00    -0.004 A 
ENDROOT
TORSDOF 0
ENDMDL
