MODEL 1
REMARK minimizedAffinity -3.84624624
REMARK minimizedRMSD -1
REMARK  0 active torsions:
REMARK  status: ('A' for Active; 'I' for Inactive)
ROOT
ATOM      1  C   UNL d   1      -1.539  -2.091   1.184  0.00  0.00     0.172 C 
ATOM      2  N   UNL d   1      -1.046  -0.755   0.943  0.00  0.00    -0.070 N 
ATOM      3  C1  UNL d   1      -1.720   0.406   1.214  0.00  0.00    -0.004 A 
ATOM      4  C2  UNL d   1      -0.913   1.459   0.843  0.00  0.00    -0.047 A 
ATOM      5  C3  UNL d   1       0.288   0.912   0.330  0.00  0.00    -0.047 A 
ATOM      6  C4  UNL d   1       0.178  -0.460   0.404  0.00  0.00    -0.004 A 
ENDROOT
TORSDOF 0
ENDMDL
