MODEL 1
REMARK minimizedAffinity 16.4201126
REMARK minimizedRMSD -1
REMARK  0 active torsions:
REMARK  status: ('A' for Active; 'I' for Inactive)
ROOT
ATOM      1  C   UNL d   1       1.171   2.659  -0.685  0.00  0.00     0.078 C 
ATOM      2  C1  UNL d   1       1.605   1.475   0.126  0.00  0.00    -0.077 A 
ATOM      3  C2  UNL d   1       2.916   1.370   0.605  0.00  0.00    -0.001 A 
ATOM      4  C3  UNL d   1       3.309   0.257   1.351  0.00  0.00     0.003 A 
ATOM      5  C4  UNL d   1       2.396  -0.760   1.623  0.00  0.00    -0.005 A 
ATOM      6  C5  UNL d   1       1.089  -0.666   1.148  0.00  0.00     0.003 A 
ATOM      7  C6  UNL d   1       0.695   0.446   0.403  0.00  0.00    -0.001 A 
ENDROOT
TORSDOF 0
ENDMDL
