MODEL 1
REMARK minimizedAffinity 5.62435913
REMARK minimizedRMSD -1
REMARK  0 active torsions:
REMARK  status: ('A' for Active; 'I' for Inactive)
ROOT
ATOM      1  C   UNL d   1      -0.344  -4.180  -3.382  0.00  0.00     0.078 C 
ATOM      2  C1  UNL d   1       0.802  -4.481  -4.301  0.00  0.00    -0.077 A 
ATOM      3  C2  UNL d   1       0.915  -5.730  -4.926  0.00  0.00    -0.001 A 
ATOM      4  C3  UNL d   1       1.992  -6.000  -5.772  0.00  0.00     0.003 A 
ATOM      5  C4  UNL d   1       2.964  -5.028  -6.000  0.00  0.00    -0.005 A 
ATOM      6  C5  UNL d   1       2.860  -3.784  -5.381  0.00  0.00     0.003 A 
ATOM      7  C6  UNL d   1       1.784  -3.511  -4.535  0.00  0.00    -0.001 A 
ENDROOT
TORSDOF 0
ENDMDL
