MODEL 1
REMARK minimizedAffinity 7.33058882
REMARK minimizedRMSD -1
REMARK  0 active torsions:
REMARK  status: ('A' for Active; 'I' for Inactive)
ROOT
ATOM      1  C   UNL d   1      -3.011  -2.598   2.524  0.00  0.00     0.078 C 
ATOM      2  C1  UNL d   1      -3.855  -2.833   3.741  0.00  0.00    -0.077 A 
ATOM      3  C2  UNL d   1      -3.324  -3.455   4.878  0.00  0.00    -0.001 A 
ATOM      4  C3  UNL d   1      -4.124  -3.676   6.000  0.00  0.00     0.003 A 
ATOM      5  C4  UNL d   1      -5.460  -3.280   5.996  0.00  0.00    -0.005 A 
ATOM      6  C5  UNL d   1      -5.998  -2.663   4.869  0.00  0.00     0.003 A 
ATOM      7  C6  UNL d   1      -5.199  -2.440   3.746  0.00  0.00    -0.001 A 
ENDROOT
TORSDOF 0
ENDMDL
