MODEL 1
REMARK minimizedAffinity 16.4901581
REMARK minimizedRMSD -1
REMARK  0 active torsions:
REMARK  status: ('A' for Active; 'I' for Inactive)
ROOT
ATOM      1  C   UNL d   1       3.447   0.405   1.210  0.00  0.00     0.078 C 
ATOM      2  C1  UNL d   1       4.005   0.041  -0.134  0.00  0.00    -0.077 A 
ATOM      3  C2  UNL d   1       4.246  -1.295  -0.478  0.00  0.00    -0.001 A 
ATOM      4  C3  UNL d   1       4.775  -1.618  -1.728  0.00  0.00     0.003 A 
ATOM      5  C4  UNL d   1       5.069  -0.610  -2.645  0.00  0.00    -0.005 A 
ATOM      6  C5  UNL d   1       4.835   0.722  -2.311  0.00  0.00     0.003 A 
ATOM      7  C6  UNL d   1       4.306   1.047  -1.061  0.00  0.00    -0.001 A 
ENDROOT
TORSDOF 0
ENDMDL
