MODEL 1
REMARK minimizedAffinity 12.3581715
REMARK minimizedRMSD -1
REMARK  0 active torsions:
REMARK  status: ('A' for Active; 'I' for Inactive)
ROOT
ATOM      1  C   UNL d   1      -0.786  -3.373   1.421  0.00  0.00     0.078 C 
ATOM      2  C1  UNL d   1       0.462  -4.098   1.013  0.00  0.00    -0.077 A 
ATOM      3  C2  UNL d   1       1.094  -3.817  -0.204  0.00  0.00    -0.001 A 
ATOM      4  C3  UNL d   1       2.249  -4.507  -0.575  0.00  0.00     0.003 A 
ATOM      5  C4  UNL d   1       2.781  -5.483   0.264  0.00  0.00    -0.005 A 
ATOM      6  C5  UNL d   1       2.158  -5.772   1.477  0.00  0.00     0.003 A 
ATOM      7  C6  UNL d   1       1.003  -5.083   1.849  0.00  0.00    -0.001 A 
ENDROOT
TORSDOF 0
ENDMDL
