MODEL 1
REMARK minimizedAffinity 12.9179029
REMARK minimizedRMSD -1
REMARK  0 active torsions:
REMARK  status: ('A' for Active; 'I' for Inactive)
ROOT
ATOM      1  C   UNL d   1       1.680  -1.265   1.493  0.00  0.00     0.078 C 
ATOM      2  C1  UNL d   1       1.096  -2.646   1.483  0.00  0.00    -0.077 A 
ATOM      3  C2  UNL d   1      -0.278  -2.847   1.306  0.00  0.00    -0.001 A 
ATOM      4  C3  UNL d   1      -0.810  -4.137   1.309  0.00  0.00     0.003 A 
ATOM      5  C4  UNL d   1       0.026  -5.238   1.490  0.00  0.00    -0.005 A 
ATOM      6  C5  UNL d   1       1.394  -5.048   1.670  0.00  0.00     0.003 A 
ATOM      7  C6  UNL d   1       1.928  -3.758   1.667  0.00  0.00    -0.001 A 
ENDROOT
TORSDOF 0
ENDMDL
