MODEL 1
REMARK minimizedAffinity 6.48531485
REMARK minimizedRMSD -1
REMARK  0 active torsions:
REMARK  status: ('A' for Active; 'I' for Inactive)
ROOT
ATOM      1  C   UNL d   1       4.234  -3.454  -5.812  0.00  0.00     0.078 C 
ATOM      2  C1  UNL d   1       2.972  -4.154  -5.403  0.00  0.00    -0.077 A 
ATOM      3  C2  UNL d   1       2.594  -5.365  -5.996  0.00  0.00    -0.001 A 
ATOM      4  C3  UNL d   1       1.412  -6.000  -5.613  0.00  0.00     0.003 A 
ATOM      5  C4  UNL d   1       0.597  -5.431  -4.636  0.00  0.00    -0.005 A 
ATOM      6  C5  UNL d   1       0.963  -4.225  -4.042  0.00  0.00     0.003 A 
ATOM      7  C6  UNL d   1       2.145  -3.589  -4.424  0.00  0.00    -0.001 A 
ENDROOT
TORSDOF 0
ENDMDL
