MODEL 1
REMARK minimizedAffinity 17.8641033
REMARK minimizedRMSD -1
REMARK  0 active torsions:
REMARK  status: ('A' for Active; 'I' for Inactive)
ROOT
ATOM      1  C   UNL d   1      -2.567  -2.286   2.701  0.00  0.00     0.078 C 
ATOM      2  C1  UNL d   1      -3.653  -2.536   3.704  0.00  0.00    -0.077 A 
ATOM      3  C2  UNL d   1      -4.999  -2.564   3.318  0.00  0.00    -0.001 A 
ATOM      4  C3  UNL d   1      -6.000  -2.788   4.265  0.00  0.00     0.003 A 
ATOM      5  C4  UNL d   1      -5.666  -2.985   5.603  0.00  0.00    -0.005 A 
ATOM      6  C5  UNL d   1      -4.330  -2.958   5.997  0.00  0.00     0.003 A 
ATOM      7  C6  UNL d   1      -3.327  -2.734   5.052  0.00  0.00    -0.001 A 
ENDROOT
TORSDOF 0
ENDMDL
