MODEL 1
REMARK minimizedAffinity 14.6654425
REMARK minimizedRMSD -1
REMARK  0 active torsions:
REMARK  status: ('A' for Active; 'I' for Inactive)
ROOT
ATOM      1  C   UNL d   1       1.933  -6.000  -6.000  0.00  0.00     0.078 C 
ATOM      2  C1  UNL d   1       1.357  -5.286  -4.813  0.00  0.00    -0.077 A 
ATOM      3  C2  UNL d   1       0.923  -5.995  -3.687  0.00  0.00    -0.001 A 
ATOM      4  C3  UNL d   1       0.379  -5.319  -2.593  0.00  0.00     0.003 A 
ATOM      5  C4  UNL d   1       0.262  -3.931  -2.617  0.00  0.00    -0.005 A 
ATOM      6  C5  UNL d   1       0.690  -3.217  -3.735  0.00  0.00     0.003 A 
ATOM      7  C6  UNL d   1       1.234  -3.891  -4.829  0.00  0.00    -0.001 A 
ENDROOT
TORSDOF 0
ENDMDL
