MODEL 1
REMARK minimizedAffinity 9.19898987
REMARK minimizedRMSD -1
REMARK  0 active torsions:
REMARK  status: ('A' for Active; 'I' for Inactive)
ROOT
ATOM      1  C   UNL d   1      -2.437   2.698  -2.663  0.00  0.00     0.078 C 
ATOM      2  C1  UNL d   1      -1.070   2.580  -2.057  0.00  0.00    -0.077 A 
ATOM      3  C2  UNL d   1       0.072   2.510  -2.863  0.00  0.00    -0.001 A 
ATOM      4  C3  UNL d   1       1.337   2.390  -2.285  0.00  0.00     0.003 A 
ATOM      5  C4  UNL d   1       1.472   2.337  -0.899  0.00  0.00    -0.005 A 
ATOM      6  C5  UNL d   1       0.340   2.403  -0.089  0.00  0.00     0.003 A 
ATOM      7  C6  UNL d   1      -0.926   2.523  -0.665  0.00  0.00    -0.001 A 
ENDROOT
TORSDOF 0
ENDMDL
