MODEL 1
REMARK minimizedAffinity 7.78789282
REMARK minimizedRMSD -1
REMARK  0 active torsions:
REMARK  status: ('A' for Active; 'I' for Inactive)
ROOT
ATOM      1  C   UNL d   1       1.937  -5.963  -5.899  0.00  0.00     0.078 C 
ATOM      2  C1  UNL d   1       1.479  -5.269  -4.651  0.00  0.00    -0.077 A 
ATOM      3  C2  UNL d   1       1.029  -5.998  -3.544  0.00  0.00    -0.001 A 
ATOM      4  C3  UNL d   1       0.597  -5.338  -2.392  0.00  0.00     0.003 A 
ATOM      5  C4  UNL d   1       0.610  -3.946  -2.337  0.00  0.00    -0.005 A 
ATOM      6  C5  UNL d   1       1.055  -3.212  -3.434  0.00  0.00     0.003 A 
ATOM      7  C6  UNL d   1       1.487  -3.870  -4.587  0.00  0.00    -0.001 A 
ENDROOT
TORSDOF 0
ENDMDL
