MODEL 1
REMARK minimizedAffinity 3.47272515
REMARK minimizedRMSD -1
REMARK  0 active torsions:
REMARK  status: ('A' for Active; 'I' for Inactive)
ROOT
ATOM      1  C   UNL d   1       1.456  -0.850   1.042  0.00  0.00     0.078 C 
ATOM      2  C1  UNL d   1       1.134  -0.742   2.503  0.00  0.00    -0.077 A 
ATOM      3  C2  UNL d   1       2.150  -0.620   3.459  0.00  0.00    -0.001 A 
ATOM      4  C3  UNL d   1       1.835  -0.531   4.816  0.00  0.00     0.003 A 
ATOM      5  C4  UNL d   1       0.505  -0.563   5.229  0.00  0.00    -0.005 A 
ATOM      6  C5  UNL d   1      -0.513  -0.685   4.286  0.00  0.00     0.003 A 
ATOM      7  C6  UNL d   1      -0.200  -0.775   2.928  0.00  0.00    -0.001 A 
ENDROOT
TORSDOF 0
ENDMDL
