MODEL 1
REMARK minimizedAffinity 5.84906387
REMARK minimizedRMSD -1
REMARK  0 active torsions:
REMARK  status: ('A' for Active; 'I' for Inactive)
ROOT
ATOM      1  C   UNL d   1      -4.756  -5.885  -1.771  0.00  0.00     0.078 C 
ATOM      2  C1  UNL d   1      -4.704  -5.337  -0.377  0.00  0.00    -0.077 A 
ATOM      3  C2  UNL d   1      -5.337  -6.000   0.682  0.00  0.00    -0.001 A 
ATOM      4  C3  UNL d   1      -5.289  -5.473   1.974  0.00  0.00     0.003 A 
ATOM      5  C4  UNL d   1      -4.611  -4.281   2.219  0.00  0.00    -0.005 A 
ATOM      6  C5  UNL d   1      -3.980  -3.613   1.171  0.00  0.00     0.003 A 
ATOM      7  C6  UNL d   1      -4.027  -4.138  -0.121  0.00  0.00    -0.001 A 
ENDROOT
TORSDOF 0
ENDMDL
