MODEL 1
REMARK minimizedAffinity 13.6469173
REMARK minimizedRMSD -1
REMARK  0 active torsions:
REMARK  status: ('A' for Active; 'I' for Inactive)
ROOT
ATOM      1  C   UNL d   1      -4.482  -5.912  -1.356  0.00  0.00     0.078 C 
ATOM      2  C1  UNL d   1      -4.614  -5.342   0.025  0.00  0.00    -0.077 A 
ATOM      3  C2  UNL d   1      -5.386  -5.987   1.000  0.00  0.00    -0.001 A 
ATOM      4  C3  UNL d   1      -5.508  -5.440   2.278  0.00  0.00     0.003 A 
ATOM      5  C4  UNL d   1      -4.862  -4.246   2.594  0.00  0.00    -0.005 A 
ATOM      6  C5  UNL d   1      -4.094  -3.597   1.630  0.00  0.00     0.003 A 
ATOM      7  C6  UNL d   1      -3.971  -4.142   0.351  0.00  0.00    -0.001 A 
ENDROOT
TORSDOF 0
ENDMDL
