MODEL 1
REMARK minimizedAffinity -2.30939531
REMARK minimizedRMSD -1
REMARK  0 active torsions:
REMARK  status: ('A' for Active; 'I' for Inactive)
ROOT
ATOM      1  C   UNL d   1      -5.687  -2.236   6.000  0.00  0.00     0.078 C 
ATOM      2  C1  UNL d   1      -5.423  -3.544   5.316  0.00  0.00    -0.077 A 
ATOM      3  C2  UNL d   1      -4.640  -3.607   4.156  0.00  0.00    -0.001 A 
ATOM      4  C3  UNL d   1      -4.411  -4.830   3.525  0.00  0.00     0.003 A 
ATOM      5  C4  UNL d   1      -4.960  -6.000   4.045  0.00  0.00    -0.005 A 
ATOM      6  C5  UNL d   1      -5.742  -5.948   5.197  0.00  0.00     0.003 A 
ATOM      7  C6  UNL d   1      -5.973  -4.725   5.830  0.00  0.00    -0.001 A 
ENDROOT
TORSDOF 0
ENDMDL
