MODEL 1
REMARK minimizedAffinity -6.11836815
REMARK minimizedRMSD -1
REMARK  1 active torsions:
REMARK  status: ('A' for Active; 'I' for Inactive)
REMARK    1  A    between atoms: C1_2  and  C2_3 
ROOT
ATOM      1  C2  UNL d   1       0.688  -0.493   0.574  0.00  0.00    -0.077 A 
ATOM      2  C3  UNL d   1       0.344  -1.601   1.363  0.00  0.00     0.002 A 
ATOM      3  C4  UNL d   1       1.329  -2.311   2.051  0.00  0.00     0.002 A 
ATOM      4  C5  UNL d   1       2.664  -1.919   1.962  0.00  0.00    -0.004 A 
ATOM      5  C6  UNL d   1       3.016  -0.821   1.178  0.00  0.00     0.002 A 
ATOM      6  C7  UNL d   1       2.032  -0.111   0.489  0.00  0.00     0.002 A 
ENDROOT
BRANCH   1   7
ATOM      7  C1  UNL d   1      -0.379   0.303  -0.130  0.00  0.00     0.055 C 
ATOM      8  C   UNL d   1      -1.765  -0.262   0.146  0.00  0.00     0.019 C 
ENDBRANCH   1   7
TORSDOF 1
ENDMDL
