MODEL 1
REMARK minimizedAffinity -5.59660625
REMARK minimizedRMSD -1
REMARK  1 active torsions:
REMARK  status: ('A' for Active; 'I' for Inactive)
REMARK    1  A    between atoms: C1_2  and  C2_3 
ROOT
ATOM      1  C2  UNL d   1       1.156  -0.036   0.414  0.00  0.00    -0.077 A 
ATOM      2  C3  UNL d   1       1.120  -0.905   1.513  0.00  0.00     0.002 A 
ATOM      3  C4  UNL d   1       2.293  -1.219   2.203  0.00  0.00     0.002 A 
ATOM      4  C5  UNL d   1       3.508  -0.665   1.804  0.00  0.00    -0.004 A 
ATOM      5  C6  UNL d   1       3.553   0.199   0.711  0.00  0.00     0.002 A 
ATOM      6  C7  UNL d   1       2.382   0.513   0.020  0.00  0.00     0.002 A 
ENDROOT
BRANCH   1   7
ATOM      7  C1  UNL d   1      -0.115   0.343  -0.301  0.00  0.00     0.055 C 
ATOM      8  C   UNL d   1      -1.326   0.205   0.611  0.00  0.00     0.019 C 
ENDBRANCH   1   7
TORSDOF 1
ENDMDL
