MODEL 1
REMARK minimizedAffinity -4.51126528
REMARK minimizedRMSD -1
REMARK  1 active torsions:
REMARK  status: ('A' for Active; 'I' for Inactive)
REMARK    1  A    between atoms: C1_2  and  C2_3 
ROOT
ATOM      1  C2  UNL d   1       1.394   0.550   0.404  0.00  0.00    -0.077 A 
ATOM      2  C3  UNL d   1       0.711   1.694  -0.033  0.00  0.00     0.002 A 
ATOM      3  C4  UNL d   1      -0.603   1.599  -0.495  0.00  0.00     0.002 A 
ATOM      4  C5  UNL d   1      -1.247   0.364  -0.520  0.00  0.00    -0.004 A 
ATOM      5  C6  UNL d   1      -0.575  -0.780  -0.090  0.00  0.00     0.002 A 
ATOM      6  C7  UNL d   1       0.739  -0.687   0.371  0.00  0.00     0.002 A 
ENDROOT
BRANCH   1   7
ATOM      7  C1  UNL d   1       2.794   0.658   0.948  0.00  0.00     0.055 C 
ATOM      8  C   UNL d   1       3.581  -0.623   0.710  0.00  0.00     0.019 C 
ENDBRANCH   1   7
TORSDOF 1
ENDMDL
