MODEL 1
REMARK minimizedAffinity -3.18950558
REMARK minimizedRMSD -1
REMARK  1 active torsions:
REMARK  status: ('A' for Active; 'I' for Inactive)
REMARK    1  A    between atoms: C1_2  and  C2_3 
ROOT
ATOM      1  C2  UNL d   1      -1.508   0.188  -1.281  0.00  0.00    -0.077 A 
ATOM      2  C3  UNL d   1      -1.511  -0.975  -2.064  0.00  0.00     0.002 A 
ATOM      3  C4  UNL d   1      -1.992  -0.943  -3.375  0.00  0.00     0.002 A 
ATOM      4  C5  UNL d   1      -2.469   0.250  -3.915  0.00  0.00    -0.004 A 
ATOM      5  C6  UNL d   1      -2.471   1.412  -3.143  0.00  0.00     0.002 A 
ATOM      6  C7  UNL d   1      -1.993   1.381  -1.833  0.00  0.00     0.002 A 
ENDROOT
BRANCH   1   7
ATOM      7  C1  UNL d   1      -0.944   0.167   0.116  0.00  0.00     0.055 C 
ATOM      8  C   UNL d   1       0.476   0.713   0.148  0.00  0.00     0.019 C 
ENDBRANCH   1   7
TORSDOF 1
ENDMDL
