MODEL 1
REMARK minimizedAffinity -5.82885313
REMARK minimizedRMSD -1
REMARK  1 active torsions:
REMARK  status: ('A' for Active; 'I' for Inactive)
REMARK    1  A    between atoms: C1_2  and  C2_3 
ROOT
ATOM      1  C2  UNL d   1       0.495   0.455   0.486  0.00  0.00    -0.077 A 
ATOM      2  C3  UNL d   1       1.229  -0.708   0.209  0.00  0.00     0.002 A 
ATOM      3  C4  UNL d   1       2.554  -0.825   0.634  0.00  0.00     0.002 A 
ATOM      4  C5  UNL d   1       3.155   0.214   1.341  0.00  0.00    -0.004 A 
ATOM      5  C6  UNL d   1       2.434   1.375   1.619  0.00  0.00     0.002 A 
ATOM      6  C7  UNL d   1       1.110   1.495   1.194  0.00  0.00     0.002 A 
ENDROOT
BRANCH   1   7
ATOM      7  C1  UNL d   1      -0.949   0.563   0.071  0.00  0.00     0.055 C 
ATOM      8  C   UNL d   1      -1.093   0.547  -1.444  0.00  0.00     0.019 C 
ENDBRANCH   1   7
TORSDOF 1
ENDMDL
