MODEL 1
REMARK minimizedAffinity -4.78378725
REMARK minimizedRMSD -1
REMARK  1 active torsions:
REMARK  status: ('A' for Active; 'I' for Inactive)
REMARK    1  A    between atoms: C1_2  and  C2_3 
ROOT
ATOM      1  C2  UNL d   1       0.173  -0.044  -0.088  0.00  0.00    -0.077 A 
ATOM      2  C3  UNL d   1       0.690  -1.217   0.480  0.00  0.00     0.002 A 
ATOM      3  C4  UNL d   1       2.047  -1.309   0.797  0.00  0.00     0.002 A 
ATOM      4  C5  UNL d   1       2.896  -0.232   0.554  0.00  0.00    -0.004 A 
ATOM      5  C6  UNL d   1       2.392   0.938  -0.013  0.00  0.00     0.002 A 
ATOM      6  C7  UNL d   1       1.036   1.032  -0.331  0.00  0.00     0.002 A 
ENDROOT
BRANCH   1   7
ATOM      7  C1  UNL d   1      -1.299   0.076  -0.385  0.00  0.00     0.055 C 
ATOM      8  C   UNL d   1      -1.569   0.014  -1.881  0.00  0.00     0.019 C 
ENDBRANCH   1   7
TORSDOF 1
ENDMDL
