MODEL 1
REMARK minimizedAffinity -3.16714478
REMARK minimizedRMSD -1
REMARK  1 active torsions:
REMARK  status: ('A' for Active; 'I' for Inactive)
REMARK    1  A    between atoms: C1_2  and  C2_3 
ROOT
ATOM      1  C2  UNL d   1       1.425  -0.664   0.344  0.00  0.00    -0.077 A 
ATOM      2  C3  UNL d   1       0.648   0.482   0.125  0.00  0.00     0.002 A 
ATOM      3  C4  UNL d   1      -0.736   0.443   0.303  0.00  0.00     0.002 A 
ATOM      4  C5  UNL d   1      -1.355  -0.739   0.705  0.00  0.00    -0.004 A 
ATOM      5  C6  UNL d   1      -0.591  -1.885   0.923  0.00  0.00     0.002 A 
ATOM      6  C7  UNL d   1       0.792  -1.848   0.745  0.00  0.00     0.002 A 
ENDROOT
BRANCH   1   7
ATOM      7  C1  UNL d   1       2.923  -0.610   0.200  0.00  0.00     0.055 C 
ATOM      8  C   UNL d   1       3.560   0.175   1.337  0.00  0.00     0.019 C 
ENDBRANCH   1   7
TORSDOF 1
ENDMDL
