MODEL 1
REMARK minimizedAffinity 1.70137203
REMARK minimizedRMSD -1
REMARK  1 active torsions:
REMARK  status: ('A' for Active; 'I' for Inactive)
REMARK    1  A    between atoms: C1_2  and  C2_3 
ROOT
ATOM      1  C2  UNL d   1      -1.175  -0.076   1.961  0.00  0.00    -0.077 A 
ATOM      2  C3  UNL d   1       0.096   0.006   1.377  0.00  0.00     0.002 A 
ATOM      3  C4  UNL d   1       1.202  -0.566   2.009  0.00  0.00     0.002 A 
ATOM      4  C5  UNL d   1       1.046  -1.227   3.225  0.00  0.00    -0.004 A 
ATOM      5  C6  UNL d   1      -0.214  -1.312   3.815  0.00  0.00     0.002 A 
ATOM      6  C7  UNL d   1      -1.320  -0.740   3.186  0.00  0.00     0.002 A 
ENDROOT
BRANCH   1   7
ATOM      7  C1  UNL d   1      -2.377   0.497   1.257  0.00  0.00     0.055 C 
ATOM      8  C   UNL d   1      -2.526  -0.079  -0.144  0.00  0.00     0.019 C 
ENDBRANCH   1   7
TORSDOF 1
ENDMDL
