MODEL 1
REMARK minimizedAffinity 3.59809208
REMARK minimizedRMSD -1
REMARK  1 active torsions:
REMARK  status: ('A' for Active; 'I' for Inactive)
REMARK    1  A    between atoms: C1_2  and  C2_3 
ROOT
ATOM      1  C2  UNL d   1      -0.334  -0.252   0.508  0.00  0.00    -0.077 A 
ATOM      2  C3  UNL d   1      -0.889   0.080   1.752  0.00  0.00     0.002 A 
ATOM      3  C4  UNL d   1      -2.270   0.230   1.892  0.00  0.00     0.002 A 
ATOM      4  C5  UNL d   1      -3.108   0.045   0.794  0.00  0.00    -0.004 A 
ATOM      5  C6  UNL d   1      -2.565  -0.284  -0.448  0.00  0.00     0.002 A 
ATOM      6  C7  UNL d   1      -1.185  -0.432  -0.590  0.00  0.00     0.002 A 
ENDROOT
BRANCH   1   7
ATOM      7  C1  UNL d   1       1.151  -0.462   0.366  0.00  0.00     0.055 C 
ATOM      8  C   UNL d   1       1.851   0.817  -0.069  0.00  0.00     0.019 C 
ENDBRANCH   1   7
TORSDOF 1
ENDMDL
