MODEL 1
REMARK minimizedAffinity 6.38480568
REMARK minimizedRMSD -1
REMARK  1 active torsions:
REMARK  status: ('A' for Active; 'I' for Inactive)
REMARK    1  A    between atoms: C1_2  and  C2_3 
ROOT
ATOM      1  C2  UNL d   1       0.224   5.570   0.488  0.00  0.00    -0.077 A 
ATOM      2  C3  UNL d   1       1.252   5.161   1.349  0.00  0.00     0.002 A 
ATOM      3  C4  UNL d   1       2.580   5.170   0.917  0.00  0.00     0.002 A 
ATOM      4  C5  UNL d   1       2.891   5.590  -0.374  0.00  0.00    -0.004 A 
ATOM      5  C6  UNL d   1       1.876   5.997  -1.238  0.00  0.00     0.002 A 
ATOM      6  C7  UNL d   1       0.548   5.988  -0.809  0.00  0.00     0.002 A 
ENDROOT
BRANCH   1   7
ATOM      7  C1  UNL d   1      -1.204   5.608   0.968  0.00  0.00     0.055 C 
ATOM      8  C   UNL d   1      -2.155   5.995  -0.155  0.00  0.00     0.019 C 
ENDBRANCH   1   7
TORSDOF 1
ENDMDL
