MODEL 1
REMARK minimizedAffinity 5.45161772
REMARK minimizedRMSD -1
REMARK  1 active torsions:
REMARK  status: ('A' for Active; 'I' for Inactive)
REMARK    1  A    between atoms: C1_2  and  C2_3 
ROOT
ATOM      1  C2  UNL d   1      -1.804  -0.210   1.922  0.00  0.00    -0.077 A 
ATOM      2  C3  UNL d   1      -2.738  -0.503   0.919  0.00  0.00     0.002 A 
ATOM      3  C4  UNL d   1      -2.321  -0.708  -0.398  0.00  0.00     0.002 A 
ATOM      4  C5  UNL d   1      -0.968  -0.627  -0.722  0.00  0.00    -0.004 A 
ATOM      5  C6  UNL d   1      -0.031  -0.334   0.268  0.00  0.00     0.002 A 
ATOM      6  C7  UNL d   1      -0.447  -0.127   1.584  0.00  0.00     0.002 A 
ENDROOT
BRANCH   1   7
ATOM      7  C1  UNL d   1      -2.247  -0.036   3.351  0.00  0.00     0.055 C 
ATOM      8  C   UNL d   1      -3.232  -1.122   3.761  0.00  0.00     0.019 C 
ENDBRANCH   1   7
TORSDOF 1
ENDMDL
