MODEL 1
REMARK minimizedAffinity 1.68596482
REMARK minimizedRMSD -1
REMARK  1 active torsions:
REMARK  status: ('A' for Active; 'I' for Inactive)
REMARK    1  A    between atoms: C1_2  and  C2_3 
ROOT
ATOM      1  C2  UNL d   1      -2.610   2.870   0.609  0.00  0.00    -0.077 A 
ATOM      2  C3  UNL d   1      -2.057   3.926  -0.129  0.00  0.00     0.002 A 
ATOM      3  C4  UNL d   1      -0.719   4.284   0.044  0.00  0.00     0.002 A 
ATOM      4  C5  UNL d   1       0.078   3.589   0.951  0.00  0.00    -0.004 A 
ATOM      5  C6  UNL d   1      -0.463   2.538   1.691  0.00  0.00     0.002 A 
ATOM      6  C7  UNL d   1      -1.800   2.180   1.520  0.00  0.00     0.002 A 
ENDROOT
BRANCH   1   7
ATOM      7  C1  UNL d   1      -4.040   2.450   0.388  0.00  0.00     0.055 C 
ATOM      8  C   UNL d   1      -4.293   1.046   0.917  0.00  0.00     0.019 C 
ENDBRANCH   1   7
TORSDOF 1
ENDMDL
