MODEL 1
REMARK minimizedAffinity -4.92163467
REMARK minimizedRMSD -1
REMARK  1 active torsions:
REMARK  status: ('A' for Active; 'I' for Inactive)
REMARK    1  A    between atoms: C1_2  and  C2_3 
ROOT
ATOM      1  C2  UNL d   1       5.596   0.957  -4.652  0.00  0.00    -0.077 A 
ATOM      2  C3  UNL d   1       5.904   1.806  -3.580  0.00  0.00     0.002 A 
ATOM      3  C4  UNL d   1       5.489   3.139  -3.593  0.00  0.00     0.002 A 
ATOM      4  C5  UNL d   1       4.761   3.633  -4.673  0.00  0.00    -0.004 A 
ATOM      5  C6  UNL d   1       4.451   2.797  -5.745  0.00  0.00     0.002 A 
ATOM      6  C7  UNL d   1       4.866   1.465  -5.735  0.00  0.00     0.002 A 
ENDROOT
BRANCH   1   7
ATOM      7  C1  UNL d   1       6.000  -0.494  -4.618  0.00  0.00     0.055 C 
ATOM      8  C   UNL d   1       5.948  -1.050  -3.202  0.00  0.00     0.019 C 
ENDBRANCH   1   7
TORSDOF 1
ENDMDL
