MODEL 1
REMARK minimizedAffinity 5.25694418
REMARK minimizedRMSD -1
REMARK  1 active torsions:
REMARK  status: ('A' for Active; 'I' for Inactive)
REMARK    1  A    between atoms: C1_2  and  C2_3 
ROOT
ATOM      1  C2  UNL d   1      -1.196   2.452   2.452  0.00  0.00    -0.077 A 
ATOM      2  C3  UNL d   1      -2.071   3.265   1.717  0.00  0.00     0.002 A 
ATOM      3  C4  UNL d   1      -1.755   3.641   0.410  0.00  0.00     0.002 A 
ATOM      4  C5  UNL d   1      -0.568   3.204  -0.175  0.00  0.00    -0.004 A 
ATOM      5  C6  UNL d   1       0.309   2.397   0.549  0.00  0.00     0.002 A 
ATOM      6  C7  UNL d   1      -0.004   2.021   1.856  0.00  0.00     0.002 A 
ENDROOT
BRANCH   1   7
ATOM      7  C1  UNL d   1      -1.558   2.006   3.845  0.00  0.00     0.055 C 
ATOM      8  C   UNL d   1      -2.463   0.782   3.816  0.00  0.00     0.019 C 
ENDBRANCH   1   7
TORSDOF 1
ENDMDL
