MODEL 1
REMARK minimizedAffinity 6.9254446
REMARK minimizedRMSD -1
REMARK  1 active torsions:
REMARK  status: ('A' for Active; 'I' for Inactive)
REMARK    1  A    between atoms: C1_2  and  C2_3 
ROOT
ATOM      1  C2  UNL d   1      -1.006  -3.055  -0.990  0.00  0.00    -0.077 A 
ATOM      2  C3  UNL d   1      -0.296  -1.848  -1.051  0.00  0.00     0.002 A 
ATOM      3  C4  UNL d   1      -0.244  -1.002   0.059  0.00  0.00     0.002 A 
ATOM      4  C5  UNL d   1      -0.896  -1.357   1.238  0.00  0.00    -0.004 A 
ATOM      5  C6  UNL d   1      -1.607  -2.554   1.308  0.00  0.00     0.002 A 
ATOM      6  C7  UNL d   1      -1.661  -3.400   0.199  0.00  0.00     0.002 A 
ENDROOT
BRANCH   1   7
ATOM      7  C1  UNL d   1      -1.022  -3.992  -2.170  0.00  0.00     0.055 C 
ATOM      8  C   UNL d   1      -2.026  -5.117  -1.970  0.00  0.00     0.019 C 
ENDBRANCH   1   7
TORSDOF 1
ENDMDL
