MODEL 1
REMARK minimizedAffinity 7.69934082
REMARK minimizedRMSD -1
REMARK  1 active torsions:
REMARK  status: ('A' for Active; 'I' for Inactive)
REMARK    1  A    between atoms: C1_2  and  C2_3 
ROOT
ATOM      1  C2  UNL d   1      -1.474  -2.385   0.896  0.00  0.00    -0.077 A 
ATOM      2  C3  UNL d   1      -2.125  -3.386   0.161  0.00  0.00     0.002 A 
ATOM      3  C4  UNL d   1      -1.689  -3.716  -1.123  0.00  0.00     0.002 A 
ATOM      4  C5  UNL d   1      -0.598  -3.054  -1.682  0.00  0.00    -0.004 A 
ATOM      5  C6  UNL d   1       0.055  -2.055  -0.960  0.00  0.00     0.002 A 
ATOM      6  C7  UNL d   1      -0.381  -1.723   0.324  0.00  0.00     0.002 A 
ENDROOT
BRANCH   1   7
ATOM      7  C1  UNL d   1      -1.913  -2.062   2.301  0.00  0.00     0.055 C 
ATOM      8  C   UNL d   1      -2.051  -3.323   3.142  0.00  0.00     0.019 C 
ENDBRANCH   1   7
TORSDOF 1
ENDMDL
