MODEL 1
REMARK minimizedAffinity 3.59580255
REMARK minimizedRMSD -1
REMARK  1 active torsions:
REMARK  status: ('A' for Active; 'I' for Inactive)
REMARK    1  A    between atoms: C1_2  and  C2_3 
ROOT
ATOM      1  C2  UNL d   1       1.242  -4.069  -3.200  0.00  0.00    -0.077 A 
ATOM      2  C3  UNL d   1       1.640  -4.346  -1.884  0.00  0.00     0.002 A 
ATOM      3  C4  UNL d   1       0.752  -4.157  -0.823  0.00  0.00     0.002 A 
ATOM      4  C5  UNL d   1      -0.539  -3.694  -1.067  0.00  0.00    -0.004 A 
ATOM      5  C6  UNL d   1      -0.943  -3.413  -2.372  0.00  0.00     0.002 A 
ATOM      6  C7  UNL d   1      -0.057  -3.601  -3.433  0.00  0.00     0.002 A 
ENDROOT
BRANCH   1   7
ATOM      7  C1  UNL d   1       2.182  -4.319  -4.350  0.00  0.00     0.055 C 
ATOM      8  C   UNL d   1       1.472  -5.011  -5.505  0.00  0.00     0.019 C 
ENDBRANCH   1   7
TORSDOF 1
ENDMDL
