MODEL 1
REMARK minimizedAffinity 8.734128
REMARK minimizedRMSD -1
REMARK  1 active torsions:
REMARK  status: ('A' for Active; 'I' for Inactive)
REMARK    1  A    between atoms: C1_2  and  C2_3 
ROOT
ATOM      1  C2  UNL d   1      -0.879  -2.616  -0.444  0.00  0.00    -0.077 A 
ATOM      2  C3  UNL d   1       0.065  -1.581  -0.391  0.00  0.00     0.002 A 
ATOM      3  C4  UNL d   1       0.163  -0.771   0.742  0.00  0.00     0.002 A 
ATOM      4  C5  UNL d   1      -0.676  -0.990   1.832  0.00  0.00    -0.004 A 
ATOM      5  C6  UNL d   1      -1.620  -2.015   1.788  0.00  0.00     0.002 A 
ATOM      6  C7  UNL d   1      -1.720  -2.825   0.656  0.00  0.00     0.002 A 
ENDROOT
BRANCH   1   7
ATOM      7  C1  UNL d   1      -0.953  -3.522  -1.645  0.00  0.00     0.055 C 
ATOM      8  C   UNL d   1       0.152  -3.209  -2.643  0.00  0.00     0.019 C 
ENDBRANCH   1   7
TORSDOF 1
ENDMDL
