MODEL 1
REMARK minimizedAffinity 2.96155643
REMARK minimizedRMSD -1
REMARK  1 active torsions:
REMARK  status: ('A' for Active; 'I' for Inactive)
REMARK    1  A    between atoms: C1_2  and  C2_3 
ROOT
ATOM      1  C2  UNL d   1      -5.243   3.505  -4.119  0.00  0.00    -0.077 A 
ATOM      2  C3  UNL d   1      -3.846   3.415  -4.199  0.00  0.00     0.002 A 
ATOM      3  C4  UNL d   1      -3.143   4.173  -5.137  0.00  0.00     0.002 A 
ATOM      4  C5  UNL d   1      -3.826   5.029  -5.998  0.00  0.00    -0.004 A 
ATOM      5  C6  UNL d   1      -5.216   5.124  -5.928  0.00  0.00     0.002 A 
ATOM      6  C7  UNL d   1      -5.921   4.365  -4.992  0.00  0.00     0.002 A 
ENDROOT
BRANCH   1   7
ATOM      7  C1  UNL d   1      -6.000   2.725  -3.076  0.00  0.00     0.055 C 
ATOM      8  C   UNL d   1      -5.243   2.687  -1.756  0.00  0.00     0.019 C 
ENDBRANCH   1   7
TORSDOF 1
ENDMDL
