MODEL 1
REMARK minimizedAffinity 4.22343969
REMARK minimizedRMSD -1
REMARK  1 active torsions:
REMARK  status: ('A' for Active; 'I' for Inactive)
REMARK    1  A    between atoms: C1_2  and  C2_3 
ROOT
ATOM      1  C2  UNL d   1      -2.232   3.900  -4.004  0.00  0.00    -0.077 A 
ATOM      2  C3  UNL d   1      -3.218   3.328  -4.820  0.00  0.00     0.002 A 
ATOM      3  C4  UNL d   1      -3.842   4.087  -5.812  0.00  0.00     0.002 A 
ATOM      4  C5  UNL d   1      -3.485   5.421  -5.999  0.00  0.00    -0.004 A 
ATOM      5  C6  UNL d   1      -2.507   6.000  -5.191  0.00  0.00     0.002 A 
ATOM      6  C7  UNL d   1      -1.882   5.242  -4.199  0.00  0.00     0.002 A 
ENDROOT
BRANCH   1   7
ATOM      7  C1  UNL d   1      -1.523   3.069  -2.967  0.00  0.00     0.055 C 
ATOM      8  C   UNL d   1      -1.515   3.763  -1.613  0.00  0.00     0.019 C 
ENDBRANCH   1   7
TORSDOF 1
ENDMDL
