MODEL 1
REMARK minimizedAffinity 8.41802597
REMARK minimizedRMSD -1
REMARK  1 active torsions:
REMARK  status: ('A' for Active; 'I' for Inactive)
REMARK    1  A    between atoms: C1_2  and  C2_3 
ROOT
ATOM      1  C2  UNL d   1      -0.377  -1.530  -0.214  0.00  0.00    -0.077 A 
ATOM      2  C3  UNL d   1      -0.786  -2.866  -0.112  0.00  0.00     0.002 A 
ATOM      3  C4  UNL d   1      -1.034  -3.619  -1.262  0.00  0.00     0.002 A 
ATOM      4  C5  UNL d   1      -0.871  -3.045  -2.521  0.00  0.00    -0.004 A 
ATOM      5  C6  UNL d   1      -0.466  -1.715  -2.632  0.00  0.00     0.002 A 
ATOM      6  C7  UNL d   1      -0.219  -0.961  -1.484  0.00  0.00     0.002 A 
ENDROOT
BRANCH   1   7
ATOM      7  C1  UNL d   1      -0.062  -0.731   1.024  0.00  0.00     0.055 C 
ATOM      8  C   UNL d   1       0.660   0.564   0.679  0.00  0.00     0.019 C 
ENDBRANCH   1   7
TORSDOF 1
ENDMDL
