MODEL 1
REMARK minimizedAffinity 6.81406927
REMARK minimizedRMSD -1
REMARK  1 active torsions:
REMARK  status: ('A' for Active; 'I' for Inactive)
REMARK    1  A    between atoms: C1_2  and  C2_3 
ROOT
ATOM      1  C2  UNL d   1       1.737  -1.267   3.342  0.00  0.00    -0.081 A 
ATOM      2  C3  UNL d   1       2.519  -0.785   4.399  0.00  0.00     0.006 A 
ATOM      3  C4  UNL d   1       2.959   0.541   4.407  0.00  0.00     0.002 A 
ATOM      4  C5  UNL d   1       2.617   1.408   3.364  0.00  0.00    -0.080 A 
ATOM      5  C6  UNL d   1       3.057   2.842   3.376  0.00  0.00     0.076 C 
ATOM      6  C7  UNL d   1       1.850   0.923   2.300  0.00  0.00     0.002 A 
ATOM      7  C8  UNL d   1       1.411  -0.403   2.291  0.00  0.00     0.006 A 
ENDROOT
BRANCH   1   8
ATOM      8  C1  UNL d   1       1.207  -2.678   3.362  0.00  0.00     0.054 C 
ATOM      9  C   UNL d   1       1.787  -3.470   4.525  0.00  0.00     0.018 C 
ENDBRANCH   1   8
TORSDOF 1
ENDMDL
