MODEL 1
REMARK minimizedAffinity -4.99784946
REMARK minimizedRMSD -1
REMARK  1 active torsions:
REMARK  status: ('A' for Active; 'I' for Inactive)
REMARK    1  A    between atoms: C1_2  and  C2_3 
ROOT
ATOM      1  C2  UNL d   1      -0.874  -0.015   0.089  0.00  0.00    -0.081 A 
ATOM      2  C3  UNL d   1      -0.042   1.095  -0.100  0.00  0.00     0.006 A 
ATOM      3  C4  UNL d   1       1.307   1.039   0.260  0.00  0.00     0.002 A 
ATOM      4  C5  UNL d   1       1.847  -0.130   0.807  0.00  0.00    -0.080 A 
ATOM      5  C6  UNL d   1       3.300  -0.214   1.169  0.00  0.00     0.076 C 
ATOM      6  C7  UNL d   1       1.012  -1.234   1.011  0.00  0.00     0.002 A 
ATOM      7  C8  UNL d   1      -0.336  -1.178   0.652  0.00  0.00     0.006 A 
ENDROOT
BRANCH   1   8
ATOM      8  C1  UNL d   1      -2.313   0.021  -0.358  0.00  0.00     0.054 C 
ATOM      9  C   UNL d   1      -2.425   0.379  -1.833  0.00  0.00     0.018 C 
ENDBRANCH   1   8
TORSDOF 1
ENDMDL
