MODEL 1
REMARK minimizedAffinity -5.73336077
REMARK minimizedRMSD -1
REMARK  1 active torsions:
REMARK  status: ('A' for Active; 'I' for Inactive)
REMARK    1  A    between atoms: C1_2  and  C2_3 
ROOT
ATOM      1  C2  UNL d   1      -0.765   0.446  -0.620  0.00  0.00    -0.081 A 
ATOM      2  C3  UNL d   1       0.090   1.554  -0.659  0.00  0.00     0.006 A 
ATOM      3  C4  UNL d   1       1.430   1.428  -0.287  0.00  0.00     0.002 A 
ATOM      4  C5  UNL d   1       1.940   0.191   0.122  0.00  0.00    -0.080 A 
ATOM      5  C6  UNL d   1       3.384   0.036   0.496  0.00  0.00     0.076 C 
ATOM      6  C7  UNL d   1       1.082  -0.912   0.179  0.00  0.00     0.002 A 
ATOM      7  C8  UNL d   1      -0.259  -0.786  -0.192  0.00  0.00     0.006 A 
ENDROOT
BRANCH   1   8
ATOM      8  C1  UNL d   1      -2.195   0.565  -1.082  0.00  0.00     0.054 C 
ATOM      9  C   UNL d   1      -2.401  -0.122  -2.424  0.00  0.00     0.018 C 
ENDBRANCH   1   8
TORSDOF 1
ENDMDL
