MODEL 1
REMARK minimizedAffinity -2.12396002
REMARK minimizedRMSD -1
REMARK  1 active torsions:
REMARK  status: ('A' for Active; 'I' for Inactive)
REMARK    1  A    between atoms: C1_2  and  C2_3 
ROOT
ATOM      1  C2  UNL d   1      -1.489   0.608  -0.428  0.00  0.00    -0.081 A 
ATOM      2  C3  UNL d   1      -1.186  -0.304   0.591  0.00  0.00     0.006 A 
ATOM      3  C4  UNL d   1       0.083  -0.316   1.176  0.00  0.00     0.002 A 
ATOM      4  C5  UNL d   1       1.066   0.588   0.758  0.00  0.00    -0.080 A 
ATOM      5  C6  UNL d   1       2.422   0.605   1.399  0.00  0.00     0.076 C 
ATOM      6  C7  UNL d   1       0.768   1.487  -0.272  0.00  0.00     0.002 A 
ATOM      7  C8  UNL d   1      -0.500   1.499  -0.857  0.00  0.00     0.006 A 
ENDROOT
BRANCH   1   8
ATOM      8  C1  UNL d   1      -2.876   0.667  -1.016  0.00  0.00     0.054 C 
ATOM      9  C   UNL d   1      -2.844   0.483  -2.526  0.00  0.00     0.018 C 
ENDBRANCH   1   8
TORSDOF 1
ENDMDL
