MODEL 1
REMARK minimizedAffinity 9.16165352
REMARK minimizedRMSD -1
REMARK  0 active torsions:
REMARK  status: ('A' for Active; 'I' for Inactive)
ROOT
ATOM      1  C   UNL d   1      -1.437  -1.470   1.650  0.00  0.00    -0.002 A 
ATOM      2  C1  UNL d   1      -0.434  -0.666   1.126  0.00  0.00     0.010 A 
ATOM      3  C2  UNL d   1      -0.019  -0.820  -0.198  0.00  0.00     0.041 A 
ATOM      4  C3  UNL d   1      -0.636  -1.804  -0.995  0.00  0.00    -0.075 A 
ATOM      5  S   UNL d   1      -0.291  -2.173  -2.644  0.00  0.00     0.015 SA
ATOM      6  C4  UNL d   1      -1.467  -3.405  -2.692  0.00  0.00     0.022 A 
ATOM      7  C5  UNL d   1      -2.116  -3.546  -1.489  0.00  0.00     0.026 A 
ATOM      8  C6  UNL d   1      -1.648  -2.625  -0.491  0.00  0.00    -0.082 A 
ATOM      9  C7  UNL d   1      -2.046  -2.445   0.856  0.00  0.00     0.045 A 
ENDROOT
TORSDOF 0
ENDMDL
