MODEL 1
REMARK minimizedAffinity -1.73972356
REMARK minimizedRMSD -1
REMARK  0 active torsions:
REMARK  status: ('A' for Active; 'I' for Inactive)
ROOT
ATOM      1  C   UNL d   1      -0.286   0.524  -0.283  0.00  0.00    -0.002 A 
ATOM      2  C1  UNL d   1       0.751  -0.257   0.208  0.00  0.00     0.010 A 
ATOM      3  C2  UNL d   1       1.868   0.335   0.799  0.00  0.00     0.041 A 
ATOM      4  C3  UNL d   1       1.927   1.740   0.890  0.00  0.00    -0.075 A 
ATOM      5  S   UNL d   1       3.197   2.685   1.573  0.00  0.00     0.015 SA
ATOM      6  C4  UNL d   1       2.393   4.149   1.230  0.00  0.00     0.022 A 
ATOM      7  C5  UNL d   1       1.185   3.940   0.608  0.00  0.00     0.026 A 
ATOM      8  C6  UNL d   1       0.896   2.548   0.403  0.00  0.00    -0.082 A 
ATOM      9  C7  UNL d   1      -0.224   1.917  -0.192  0.00  0.00     0.045 A 
ENDROOT
TORSDOF 0
ENDMDL
