MODEL 1
REMARK minimizedAffinity 13.7295065
REMARK minimizedRMSD -1
REMARK  0 active torsions:
REMARK  status: ('A' for Active; 'I' for Inactive)
ROOT
ATOM      1  C   UNL d   1       0.940   2.631   1.917  0.00  0.00    -0.002 A 
ATOM      2  C1  UNL d   1       0.901   4.014   2.026  0.00  0.00     0.010 A 
ATOM      3  C2  UNL d   1       1.817   4.808   1.332  0.00  0.00     0.041 A 
ATOM      4  C3  UNL d   1       2.781   4.182   0.517  0.00  0.00    -0.075 A 
ATOM      5  S   UNL d   1       4.002   4.951  -0.426  0.00  0.00     0.015 SA
ATOM      6  C4  UNL d   1       4.604   3.462  -0.996  0.00  0.00     0.022 A 
ATOM      7  C5  UNL d   1       3.903   2.394  -0.489  0.00  0.00     0.026 A 
ATOM      8  C6  UNL d   1       2.840   2.791   0.391  0.00  0.00    -0.082 A 
ATOM      9  C7  UNL d   1       1.898   2.014   1.109  0.00  0.00     0.045 A 
ENDROOT
TORSDOF 0
ENDMDL
