MODEL 1
REMARK minimizedAffinity -1.71111631
REMARK minimizedRMSD -1
REMARK  0 active torsions:
REMARK  status: ('A' for Active; 'I' for Inactive)
ROOT
ATOM      1  C   UNL d   1      -0.877  -2.396   1.377  0.00  0.00    -0.002 A 
ATOM      2  C1  UNL d   1      -0.686  -2.745   0.048  0.00  0.00     0.010 A 
ATOM      3  C2  UNL d   1      -0.284  -1.788  -0.887  0.00  0.00     0.041 A 
ATOM      4  C3  UNL d   1      -0.073  -0.463  -0.458  0.00  0.00    -0.075 A 
ATOM      5  S   UNL d   1       0.422   0.876  -1.424  0.00  0.00     0.015 SA
ATOM      6  C4  UNL d   1       0.392   1.942  -0.095  0.00  0.00     0.022 A 
ATOM      7  C5  UNL d   1       0.016   1.309   1.066  0.00  0.00     0.026 A 
ATOM      8  C6  UNL d   1      -0.258  -0.088   0.876  0.00  0.00    -0.082 A 
ATOM      9  C7  UNL d   1      -0.667  -1.080   1.799  0.00  0.00     0.045 A 
ENDROOT
TORSDOF 0
ENDMDL
