MODEL 1
REMARK minimizedAffinity 5.73740959
REMARK minimizedRMSD -1
REMARK  0 active torsions:
REMARK  status: ('A' for Active; 'I' for Inactive)
ROOT
ATOM      1  C   UNL d   1      -2.651   0.453   0.953  0.00  0.00    -0.002 A 
ATOM      2  C1  UNL d   1      -2.278   1.566   0.213  0.00  0.00     0.010 A 
ATOM      3  C2  UNL d   1      -1.211   1.498  -0.684  0.00  0.00     0.041 A 
ATOM      4  C3  UNL d   1      -0.518   0.280  -0.828  0.00  0.00    -0.075 A 
ATOM      5  S   UNL d   1       0.820  -0.038  -1.867  0.00  0.00     0.015 SA
ATOM      6  C4  UNL d   1       0.929  -1.660  -1.355  0.00  0.00     0.022 A 
ATOM      7  C5  UNL d   1      -0.025  -1.968  -0.414  0.00  0.00     0.026 A 
ATOM      8  C6  UNL d   1      -0.875  -0.855  -0.095  0.00  0.00    -0.082 A 
ATOM      9  C7  UNL d   1      -1.962  -0.754   0.807  0.00  0.00     0.045 A 
ENDROOT
TORSDOF 0
ENDMDL
