MODEL 1
REMARK minimizedAffinity -1.29638684
REMARK minimizedRMSD -1
REMARK  0 active torsions:
REMARK  status: ('A' for Active; 'I' for Inactive)
ROOT
ATOM      1  C   UNL d   1      -0.321  -0.156  -0.281  0.00  0.00    -0.002 A 
ATOM      2  C1  UNL d   1       0.760  -0.719   0.382  0.00  0.00     0.010 A 
ATOM      3  C2  UNL d   1       1.701   0.090   1.021  0.00  0.00     0.041 A 
ATOM      4  C3  UNL d   1       1.535   1.488   0.985  0.00  0.00    -0.075 A 
ATOM      5  S   UNL d   1       2.561   2.676   1.699  0.00  0.00     0.015 SA
ATOM      6  C4  UNL d   1       1.588   3.959   1.142  0.00  0.00     0.022 A 
ATOM      7  C5  UNL d   1       0.502   3.511   0.427  0.00  0.00     0.026 A 
ATOM      8  C6  UNL d   1       0.454   2.079   0.326  0.00  0.00    -0.082 A 
ATOM      9  C7  UNL d   1      -0.483   1.232  -0.314  0.00  0.00     0.045 A 
ENDROOT
TORSDOF 0
ENDMDL
