MODEL 1
REMARK minimizedAffinity 1.43622017
REMARK minimizedRMSD -1
REMARK  0 active torsions:
REMARK  status: ('A' for Active; 'I' for Inactive)
ROOT
ATOM      1  C   UNL d   1      -1.053  -0.511   1.940  0.00  0.00    -0.002 A 
ATOM      2  C1  UNL d   1      -1.265  -1.840   1.603  0.00  0.00     0.010 A 
ATOM      3  C2  UNL d   1      -0.993  -2.298   0.312  0.00  0.00     0.041 A 
ATOM      4  C3  UNL d   1      -0.497  -1.389  -0.643  0.00  0.00    -0.075 A 
ATOM      5  S   UNL d   1      -0.092  -1.725  -2.285  0.00  0.00     0.015 SA
ATOM      6  C4  UNL d   1       0.373  -0.112  -2.578  0.00  0.00     0.022 A 
ATOM      7  C5  UNL d   1       0.229   0.678  -1.462  0.00  0.00     0.026 A 
ATOM      8  C6  UNL d   1      -0.275  -0.046  -0.328  0.00  0.00    -0.082 A 
ATOM      9  C7  UNL d   1      -0.562   0.388   0.989  0.00  0.00     0.045 A 
ENDROOT
TORSDOF 0
ENDMDL
