MODEL 1
REMARK minimizedAffinity -5.314147
REMARK minimizedRMSD -1
REMARK  0 active torsions:
REMARK  status: ('A' for Active; 'I' for Inactive)
ROOT
ATOM      1  C   UNL d   1       0.363  -4.112  -1.822  0.00  0.00    -0.002 A 
ATOM      2  C1  UNL d   1       0.624  -3.112  -2.748  0.00  0.00     0.010 A 
ATOM      3  C2  UNL d   1       0.419  -1.770  -2.420  0.00  0.00     0.041 A 
ATOM      4  C3  UNL d   1      -0.054  -1.447  -1.133  0.00  0.00    -0.075 A 
ATOM      5  S   UNL d   1      -0.377   0.127  -0.509  0.00  0.00     0.015 SA
ATOM      6  C4  UNL d   1      -0.868  -0.491   1.002  0.00  0.00     0.022 A 
ATOM      7  C5  UNL d   1      -0.794  -1.863   1.046  0.00  0.00     0.026 A 
ATOM      8  C6  UNL d   1      -0.323  -2.437  -0.183  0.00  0.00    -0.082 A 
ATOM      9  C7  UNL d   1      -0.107  -3.788  -0.547  0.00  0.00     0.045 A 
ENDROOT
TORSDOF 0
ENDMDL
