MODEL 1
REMARK minimizedAffinity -2.25145125
REMARK minimizedRMSD -1
REMARK  0 active torsions:
REMARK  status: ('A' for Active; 'I' for Inactive)
ROOT
ATOM      1  C   UNL d   1      -0.799  -1.709   2.220  0.00  0.00    -0.002 A 
ATOM      2  C1  UNL d   1      -1.554  -1.993   1.091  0.00  0.00     0.010 A 
ATOM      3  C2  UNL d   1      -1.549  -1.125  -0.003  0.00  0.00     0.041 A 
ATOM      4  C3  UNL d   1      -0.762   0.042   0.057  0.00  0.00    -0.075 A 
ATOM      5  S   UNL d   1      -0.600   1.250  -1.163  0.00  0.00     0.015 SA
ATOM      6  C4  UNL d   1       0.477   2.169  -0.214  0.00  0.00     0.022 A 
ATOM      7  C5  UNL d   1       0.717   1.585   1.006  0.00  0.00     0.026 A 
ATOM      8  C6  UNL d   1       0.007   0.349   1.183  0.00  0.00    -0.082 A 
ATOM      9  C7  UNL d   1      -0.020  -0.550   2.276  0.00  0.00     0.045 A 
ENDROOT
TORSDOF 0
ENDMDL
