MODEL 1
REMARK minimizedAffinity -5.5521431
REMARK minimizedRMSD -1
REMARK  0 active torsions:
REMARK  status: ('A' for Active; 'I' for Inactive)
ROOT
ATOM      1  C   UNL d   1      -0.049  -3.753  -0.278  0.00  0.00    -0.002 A 
ATOM      2  C1  UNL d   1      -0.146  -3.597  -1.654  0.00  0.00     0.010 A 
ATOM      3  C2  UNL d   1      -0.106  -2.325  -2.229  0.00  0.00     0.041 A 
ATOM      4  C3  UNL d   1       0.036  -1.202  -1.390  0.00  0.00    -0.075 A 
ATOM      5  S   UNL d   1       0.110   0.452  -1.871  0.00  0.00     0.015 SA
ATOM      6  C4  UNL d   1       0.273   0.990  -0.262  0.00  0.00     0.022 A 
ATOM      7  C5  UNL d   1       0.272  -0.053   0.633  0.00  0.00     0.026 A 
ATOM      8  C6  UNL d   1       0.137  -1.334  -0.002  0.00  0.00    -0.082 A 
ATOM      9  C7  UNL d   1       0.092  -2.637   0.550  0.00  0.00     0.045 A 
ENDROOT
TORSDOF 0
ENDMDL
