MODEL 1
REMARK minimizedAffinity -2.92760587
REMARK minimizedRMSD -1
REMARK  0 active torsions:
REMARK  status: ('A' for Active; 'I' for Inactive)
ROOT
ATOM      1  C   UNL d   1      -0.237  -1.482   1.243  0.00  0.00    -0.002 A 
ATOM      2  C1  UNL d   1      -0.852  -1.736   0.025  0.00  0.00     0.010 A 
ATOM      3  C2  UNL d   1      -0.834  -0.781  -0.993  0.00  0.00     0.041 A 
ATOM      4  C3  UNL d   1      -0.179   0.445  -0.765  0.00  0.00    -0.075 A 
ATOM      5  S   UNL d   1      -0.027   1.764  -1.866  0.00  0.00     0.015 SA
ATOM      6  C4  UNL d   1       0.859   2.694  -0.747  0.00  0.00     0.022 A 
ATOM      7  C5  UNL d   1       1.044   2.031   0.443  0.00  0.00     0.026 A 
ATOM      8  C6  UNL d   1       0.449   0.724   0.452  0.00  0.00    -0.082 A 
ATOM      9  C7  UNL d   1       0.412  -0.265   1.465  0.00  0.00     0.045 A 
ENDROOT
TORSDOF 0
ENDMDL
