MODEL 1
REMARK minimizedAffinity -1.04364133
REMARK minimizedRMSD -1
REMARK  0 active torsions:
REMARK  status: ('A' for Active; 'I' for Inactive)
ROOT
ATOM      1  C   UNL d   1      -0.356  -3.330  -2.565  0.00  0.00    -0.002 A 
ATOM      2  C1  UNL d   1       0.092  -2.130  -3.100  0.00  0.00     0.010 A 
ATOM      3  C2  UNL d   1       0.126  -0.973  -2.320  0.00  0.00     0.041 A 
ATOM      4  C3  UNL d   1      -0.300  -1.042  -0.979  0.00  0.00    -0.075 A 
ATOM      5  S   UNL d   1      -0.345   0.246   0.165  0.00  0.00     0.015 SA
ATOM      6  C4  UNL d   1      -0.959  -0.765   1.392  0.00  0.00     0.022 A 
ATOM      7  C5  UNL d   1      -1.132  -2.058   0.957  0.00  0.00     0.026 A 
ATOM      8  C6  UNL d   1      -0.754  -2.239  -0.417  0.00  0.00    -0.082 A 
ATOM      9  C7  UNL d   1      -0.777  -3.395  -1.234  0.00  0.00     0.045 A 
ENDROOT
TORSDOF 0
ENDMDL
