MODEL 1
REMARK minimizedAffinity -3.52919149
REMARK minimizedRMSD -1
REMARK  1 active torsions:
REMARK  status: ('A' for Active; 'I' for Inactive)
REMARK    1  A    between atoms: N_2  and  C1_3 
ROOT
ATOM      1  C1  UNL d   1      -1.865  -5.632  -5.001  0.00  0.00     0.143 A 
ATOM      2  C2  UNL d   1      -3.220  -5.832  -5.286  0.00  0.00    -0.057 A 
ATOM      3  C3  UNL d   1      -4.160  -5.999  -4.261  0.00  0.00     0.033 A 
ATOM      4  C4  UNL d   1      -3.755  -5.998  -2.931  0.00  0.00    -0.042 A 
ATOM      5  C5  UNL d   1      -2.409  -5.826  -2.625  0.00  0.00     0.033 A 
ATOM      6  C6  UNL d   1      -1.477  -5.653  -3.653  0.00  0.00    -0.057 A 
ENDROOT
BRANCH   1   7
ATOM      7  N   UNL d   1      -0.868  -5.558  -5.977  0.00  0.00    -0.732 N 
ATOM      8  C   UNL d   1       0.529  -5.647  -5.612  0.00  0.00     0.284 C 
ATOM      9  H3  UNL d   1      -1.111  -6.074  -6.820  0.00  0.00     0.395 HD
ENDBRANCH   1   7
TORSDOF 1
ENDMDL
