MODEL 1
REMARK minimizedAffinity -2.1818006
REMARK minimizedRMSD -1
REMARK  1 active torsions:
REMARK  status: ('A' for Active; 'I' for Inactive)
REMARK    1  A    between atoms: N_2  and  C1_3 
ROOT
ATOM      1  C1  UNL d   1       2.513  -1.467   2.865  0.00  0.00     0.143 A 
ATOM      2  C2  UNL d   1       3.456  -1.093   1.902  0.00  0.00    -0.057 A 
ATOM      3  C3  UNL d   1       4.773  -0.778   2.259  0.00  0.00     0.033 A 
ATOM      4  C4  UNL d   1       5.163  -0.803   3.594  0.00  0.00    -0.042 A 
ATOM      5  C5  UNL d   1       4.235  -1.146   4.571  0.00  0.00     0.033 A 
ATOM      6  C6  UNL d   1       2.923  -1.467   4.207  0.00  0.00    -0.057 A 
ENDROOT
BRANCH   1   7
ATOM      7  N   UNL d   1       1.164  -1.696   2.584  0.00  0.00    -0.732 N 
ATOM      8  C   UNL d   1       0.497  -0.968   1.525  0.00  0.00     0.284 C 
ATOM      9  H3  UNL d   1       0.920  -2.683   2.627  0.00  0.00     0.395 HD
ENDBRANCH   1   7
TORSDOF 1
ENDMDL
