MODEL 1
REMARK minimizedAffinity 1.76174903
REMARK minimizedRMSD -1
REMARK  1 active torsions:
REMARK  status: ('A' for Active; 'I' for Inactive)
REMARK    1  A    between atoms: N_2  and  C1_3 
ROOT
ATOM      1  C1  UNL d   1      -1.612   0.689  -0.270  0.00  0.00     0.143 A 
ATOM      2  C2  UNL d   1      -2.925   0.503   0.175  0.00  0.00    -0.057 A 
ATOM      3  C3  UNL d   1      -4.009   0.585  -0.708  0.00  0.00     0.033 A 
ATOM      4  C4  UNL d   1      -3.799   0.883  -2.051  0.00  0.00    -0.042 A 
ATOM      5  C5  UNL d   1      -2.504   1.096  -2.510  0.00  0.00     0.033 A 
ATOM      6  C6  UNL d   1      -1.425   1.007  -1.624  0.00  0.00    -0.057 A 
ENDROOT
BRANCH   1   7
ATOM      7  N   UNL d   1      -0.501   0.718   0.577  0.00  0.00    -0.732 N 
ATOM      8  C   UNL d   1       0.567  -0.247   0.426  0.00  0.00     0.284 C 
ATOM      9  H3  UNL d   1      -0.181   1.666   0.766  0.00  0.00     0.395 HD
ENDBRANCH   1   7
TORSDOF 1
ENDMDL
