MODEL 1
REMARK minimizedAffinity 4.62257242
REMARK minimizedRMSD -1
REMARK  1 active torsions:
REMARK  status: ('A' for Active; 'I' for Inactive)
REMARK    1  A    between atoms: N_2  and  C1_3 
ROOT
ATOM      1  C1  UNL d   1       2.733  -0.850   0.824  0.00  0.00     0.143 A 
ATOM      2  C2  UNL d   1       2.707   0.107  -0.195  0.00  0.00    -0.057 A 
ATOM      3  C3  UNL d   1       1.496   0.571  -0.724  0.00  0.00     0.033 A 
ATOM      4  C4  UNL d   1       0.287   0.063  -0.261  0.00  0.00    -0.042 A 
ATOM      5  C5  UNL d   1       0.290  -0.907   0.735  0.00  0.00     0.033 A 
ATOM      6  C6  UNL d   1       1.502  -1.362   1.264  0.00  0.00    -0.057 A 
ENDROOT
BRANCH   1   7
ATOM      7  N   UNL d   1       3.906  -1.424   1.323  0.00  0.00    -0.732 N 
ATOM      8  C   UNL d   1       4.440  -1.014   2.604  0.00  0.00     0.284 C 
ATOM      9  H3  UNL d   1       3.949  -2.427   1.156  0.00  0.00     0.395 HD
ENDBRANCH   1   7
TORSDOF 1
ENDMDL
