MODEL 1
REMARK minimizedAffinity -0.894215584
REMARK minimizedRMSD -1
REMARK  1 active torsions:
REMARK  status: ('A' for Active; 'I' for Inactive)
REMARK    1  A    between atoms: N_2  and  C1_3 
ROOT
ATOM      1  C1  UNL d   1       1.950  -0.653   0.962  0.00  0.00     0.143 A 
ATOM      2  C2  UNL d   1       3.348  -0.638   0.917  0.00  0.00    -0.057 A 
ATOM      3  C3  UNL d   1       4.115  -0.939   2.049  0.00  0.00     0.033 A 
ATOM      4  C4  UNL d   1       3.494  -1.233   3.258  0.00  0.00    -0.042 A 
ATOM      5  C5  UNL d   1       2.106  -1.230   3.333  0.00  0.00     0.033 A 
ATOM      6  C6  UNL d   1       1.346  -0.935   2.197  0.00  0.00    -0.057 A 
ENDROOT
BRANCH   1   7
ATOM      7  N   UNL d   1       1.133  -0.267  -0.104  0.00  0.00    -0.732 N 
ATOM      8  C   UNL d   1      -0.044   0.543   0.126  0.00  0.00     0.284 C 
ATOM      9  H3  UNL d   1       1.668   0.001  -0.926  0.00  0.00     0.395 HD
ENDBRANCH   1   7
TORSDOF 1
ENDMDL
