MODEL 1
REMARK minimizedAffinity 3.39619827
REMARK minimizedRMSD -1
REMARK  1 active torsions:
REMARK  status: ('A' for Active; 'I' for Inactive)
REMARK    1  A    between atoms: N_2  and  C1_3 
ROOT
ATOM      1  C1  UNL d   1       2.912  -1.101   1.587  0.00  0.00     0.143 A 
ATOM      2  C2  UNL d   1       4.264  -1.053   1.232  0.00  0.00    -0.057 A 
ATOM      3  C3  UNL d   1       5.270  -1.001   2.205  0.00  0.00     0.033 A 
ATOM      4  C4  UNL d   1       4.937  -0.968   3.555  0.00  0.00    -0.042 A 
ATOM      5  C5  UNL d   1       3.599  -0.989   3.931  0.00  0.00     0.033 A 
ATOM      6  C6  UNL d   1       2.600  -1.047   2.955  0.00  0.00    -0.057 A 
ENDROOT
BRANCH   1   7
ATOM      7  N   UNL d   1       1.863  -1.053   0.665  0.00  0.00    -0.732 N 
ATOM      8  C   UNL d   1       1.810  -0.011  -0.338  0.00  0.00     0.284 C 
ATOM      9  H3  UNL d   1       1.607  -1.976   0.321  0.00  0.00     0.395 HD
ENDBRANCH   1   7
TORSDOF 1
ENDMDL
