MODEL 1
REMARK minimizedAffinity 8.5490284
REMARK minimizedRMSD -1
REMARK  1 active torsions:
REMARK  status: ('A' for Active; 'I' for Inactive)
REMARK    1  A    between atoms: N_2  and  C1_3 
ROOT
ATOM      1  C1  UNL d   1       2.988   2.987  -0.190  0.00  0.00     0.143 A 
ATOM      2  C2  UNL d   1       2.854   1.598  -0.284  0.00  0.00    -0.057 A 
ATOM      3  C3  UNL d   1       1.594   0.995  -0.379  0.00  0.00     0.033 A 
ATOM      4  C4  UNL d   1       0.440   1.772  -0.352  0.00  0.00    -0.042 A 
ATOM      5  C5  UNL d   1       0.549   3.153  -0.234  0.00  0.00     0.033 A 
ATOM      6  C6  UNL d   1       1.811   3.750  -0.146  0.00  0.00    -0.057 A 
ENDROOT
BRANCH   1   7
ATOM      7  N   UNL d   1       4.208   3.639   0.006  0.00  0.00    -0.732 N 
ATOM      8  C   UNL d   1       4.977   4.119  -1.122  0.00  0.00     0.284 C 
ATOM      9  H3  UNL d   1       4.183   4.281   0.795  0.00  0.00     0.395 HD
ENDBRANCH   1   7
TORSDOF 1
ENDMDL
