MODEL 1
REMARK minimizedAffinity 4.97152472
REMARK minimizedRMSD -1
REMARK  1 active torsions:
REMARK  status: ('A' for Active; 'I' for Inactive)
REMARK    1  A    between atoms: N_2  and  C1_3 
ROOT
ATOM      1  C1  UNL d   1      -2.952  -1.298  -0.055  0.00  0.00     0.143 A 
ATOM      2  C2  UNL d   1      -2.838  -2.691  -0.104  0.00  0.00    -0.057 A 
ATOM      3  C3  UNL d   1      -1.589  -3.321  -0.033  0.00  0.00     0.033 A 
ATOM      4  C4  UNL d   1      -0.426  -2.564   0.060  0.00  0.00    -0.042 A 
ATOM      5  C5  UNL d   1      -0.514  -1.176   0.085  0.00  0.00     0.033 A 
ATOM      6  C6  UNL d   1      -1.764  -0.554   0.020  0.00  0.00    -0.057 A 
ENDROOT
BRANCH   1   7
ATOM      7  N   UNL d   1      -4.156  -0.609  -0.221  0.00  0.00    -0.732 N 
ATOM      8  C   UNL d   1      -4.471   0.032  -1.479  0.00  0.00     0.284 C 
ATOM      9  H3  UNL d   1      -4.942  -1.093   0.208  0.00  0.00     0.395 HD
ENDBRANCH   1   7
TORSDOF 1
ENDMDL
