MODEL 1
REMARK minimizedAffinity 9.10334301
REMARK minimizedRMSD -1
REMARK  1 active torsions:
REMARK  status: ('A' for Active; 'I' for Inactive)
REMARK    1  A    between atoms: N_2  and  C1_3 
ROOT
ATOM      1  C1  UNL d   1       2.265  -0.874   0.592  0.00  0.00     0.143 A 
ATOM      2  C2  UNL d   1       2.198  -0.929  -0.804  0.00  0.00    -0.057 A 
ATOM      3  C3  UNL d   1       1.082  -0.444  -1.497  0.00  0.00     0.033 A 
ATOM      4  C4  UNL d   1      -0.003   0.079  -0.802  0.00  0.00    -0.042 A 
ATOM      5  C5  UNL d   1       0.031   0.121   0.588  0.00  0.00     0.033 A 
ATOM      6  C6  UNL d   1       1.151  -0.359   1.274  0.00  0.00    -0.057 A 
ENDROOT
BRANCH   1   7
ATOM      7  N   UNL d   1       3.304  -1.429   1.343  0.00  0.00    -0.732 N 
ATOM      8  C   UNL d   1       3.145  -1.660   2.763  0.00  0.00     0.284 C 
ATOM      9  H3  UNL d   1       3.780  -2.182   0.851  0.00  0.00     0.395 HD
ENDBRANCH   1   7
TORSDOF 1
ENDMDL
