MODEL 1
REMARK minimizedAffinity 5.49362993
REMARK minimizedRMSD -1
REMARK  1 active torsions:
REMARK  status: ('A' for Active; 'I' for Inactive)
REMARK    1  A    between atoms: N_2  and  C1_3 
ROOT
ATOM      1  C1  UNL d   1       3.382  -0.943   1.403  0.00  0.00     0.143 A 
ATOM      2  C2  UNL d   1       4.668  -0.396   1.340  0.00  0.00    -0.057 A 
ATOM      3  C3  UNL d   1       5.486  -0.333   2.474  0.00  0.00     0.033 A 
ATOM      4  C4  UNL d   1       5.020  -0.790   3.702  0.00  0.00    -0.042 A 
ATOM      5  C5  UNL d   1       3.735  -1.314   3.794  0.00  0.00     0.033 A 
ATOM      6  C6  UNL d   1       2.925  -1.381   2.656  0.00  0.00    -0.057 A 
ENDROOT
BRANCH   1   7
ATOM      7  N   UNL d   1       2.484  -0.944   0.332  0.00  0.00    -0.732 N 
ATOM      8  C   UNL d   1       2.242   0.263  -0.428  0.00  0.00     0.284 C 
ATOM      9  H3  UNL d   1       2.558  -1.785  -0.235  0.00  0.00     0.395 HD
ENDBRANCH   1   7
TORSDOF 1
ENDMDL
