MODEL 1
REMARK minimizedAffinity -0.823494196
REMARK minimizedRMSD -1
REMARK  1 active torsions:
REMARK  status: ('A' for Active; 'I' for Inactive)
REMARK    1  A    between atoms: N_2  and  C1_3 
ROOT
ATOM      1  C1  UNL d   1       1.812  -1.135   2.719  0.00  0.00     0.143 A 
ATOM      2  C2  UNL d   1       3.168  -1.287   2.407  0.00  0.00    -0.057 A 
ATOM      3  C3  UNL d   1       3.644  -1.066   1.109  0.00  0.00     0.033 A 
ATOM      4  C4  UNL d   1       2.764  -0.718   0.089  0.00  0.00    -0.042 A 
ATOM      5  C5  UNL d   1       1.409  -0.586   0.370  0.00  0.00     0.033 A 
ATOM      6  C6  UNL d   1       0.941  -0.801   1.670  0.00  0.00    -0.057 A 
ENDROOT
BRANCH   1   7
ATOM      7  N   UNL d   1       1.263  -1.435   3.967  0.00  0.00    -0.732 N 
ATOM      8  C   UNL d   1       1.904  -2.391   4.845  0.00  0.00     0.284 C 
ATOM      9  H3  UNL d   1       0.904  -0.610   4.442  0.00  0.00     0.395 HD
ENDBRANCH   1   7
TORSDOF 1
ENDMDL
