MODEL 1
REMARK minimizedAffinity -3.15607953
REMARK minimizedRMSD -1
REMARK  1 active torsions:
REMARK  status: ('A' for Active; 'I' for Inactive)
REMARK    1  A    between atoms: N_2  and  C1_3 
ROOT
ATOM      1  C1  UNL d   1      -3.645  -5.684  -0.410  0.00  0.00     0.143 A 
ATOM      2  C2  UNL d   1      -2.515  -4.943  -0.048  0.00  0.00    -0.057 A 
ATOM      3  C3  UNL d   1      -2.286  -4.570   1.282  0.00  0.00     0.033 A 
ATOM      4  C4  UNL d   1      -3.203  -4.908   2.273  0.00  0.00    -0.042 A 
ATOM      5  C5  UNL d   1      -4.346  -5.623   1.932  0.00  0.00     0.033 A 
ATOM      6  C6  UNL d   1      -4.565  -5.998   0.603  0.00  0.00    -0.057 A 
ENDROOT
BRANCH   1   7
ATOM      7  N   UNL d   1      -3.978  -6.000  -1.729  0.00  0.00    -0.732 N 
ATOM      8  C   UNL d   1      -5.359  -5.997  -2.162  0.00  0.00     0.284 C 
ATOM      9  H3  UNL d   1      -3.331  -5.593  -2.401  0.00  0.00     0.395 HD
ENDBRANCH   1   7
TORSDOF 1
ENDMDL
