MODEL 1
REMARK minimizedAffinity 13.8638487
REMARK minimizedRMSD -1
REMARK  3 active torsions:
REMARK  status: ('A' for Active; 'I' for Inactive)
REMARK    1  A    between atoms: C3'_2  and  C2'_3 
REMARK    2  A    between atoms: C2'_3  and  C1'_4 
REMARK    3  A    between atoms: C1'_4  and  C1_5 
ROOT
ATOM      1  C1  N4B d   1       1.097  -3.332   4.557  0.00  0.00    -0.075 A 
ATOM      2  C2  N4B d   1       1.859  -4.251   3.802  0.00  0.00     0.002 A 
ATOM      3  C3  N4B d   1       1.898  -5.574   4.168  0.00  0.00     0.002 A 
ATOM      4  C4  N4B d   1       1.202  -5.996   5.291  0.00  0.00    -0.004 A 
ATOM      5  C5  N4B d   1       0.449  -5.107   6.000  0.00  0.00     0.002 A 
ATOM      6  C6  N4B d   1       0.397  -3.775   5.641  0.00  0.00     0.002 A 
ENDROOT
BRANCH   1   7
ATOM      7  C1' N4B d   1       1.093  -1.860   4.246  0.00  0.00     0.057 C 
BRANCH   7   8
ATOM      8  C2' N4B d   1       1.838  -1.623   2.935  0.00  0.00     0.009 C 
BRANCH   8   9
ATOM      9  C3' N4B d   1       1.029  -0.776   1.967  0.00  0.00     0.004 C 
ATOM     10  C4' N4B d   1       1.293   0.692   2.121  0.00  0.00     0.003 C 
ENDBRANCH   8   9
ENDBRANCH   7   8
ENDBRANCH   1   7
TORSDOF 3
ENDMDL
