MODEL 1
REMARK minimizedAffinity 17.2758846
REMARK minimizedRMSD -1
REMARK  3 active torsions:
REMARK  status: ('A' for Active; 'I' for Inactive)
REMARK    1  A    between atoms: C3'_2  and  C2'_3 
REMARK    2  A    between atoms: C2'_3  and  C1'_4 
REMARK    3  A    between atoms: C1'_4  and  C1_5 
ROOT
ATOM      1  C1  N4B d   1      -5.949   2.326  -1.233  0.00  0.00    -0.075 A 
ATOM      2  C2  N4B d   1      -5.899   1.953   0.129  0.00  0.00     0.002 A 
ATOM      3  C3  N4B d   1      -5.887   2.919   1.105  0.00  0.00     0.002 A 
ATOM      4  C4  N4B d   1      -5.905   4.258   0.745  0.00  0.00    -0.004 A 
ATOM      5  C5  N4B d   1      -5.980   4.609  -0.571  0.00  0.00     0.002 A 
ATOM      6  C6  N4B d   1      -5.997   3.649  -1.563  0.00  0.00     0.002 A 
ENDROOT
BRANCH   1   7
ATOM      7  C1' N4B d   1      -5.878   1.308  -2.338  0.00  0.00     0.057 C 
BRANCH   7   8
ATOM      8  C2' N4B d   1      -4.718   1.657  -3.265  0.00  0.00     0.009 C 
BRANCH   8   9
ATOM      9  C3' N4B d   1      -3.486   0.816  -2.976  0.00  0.00     0.004 C 
ATOM     10  C4' N4B d   1      -3.723  -0.651  -3.180  0.00  0.00     0.003 C 
ENDBRANCH   8   9
ENDBRANCH   7   8
ENDBRANCH   1   7
TORSDOF 3
ENDMDL
