MODEL 1
REMARK minimizedAffinity 4.21238232
REMARK minimizedRMSD -1
REMARK  3 active torsions:
REMARK  status: ('A' for Active; 'I' for Inactive)
REMARK    1  A    between atoms: C3'_2  and  C2'_3 
REMARK    2  A    between atoms: C2'_3  and  C1'_4 
REMARK    3  A    between atoms: C1'_4  and  C1_5 
ROOT
ATOM      1  C1  N4B d   1       3.852  -5.936  -3.471  0.00  0.00    -0.075 A 
ATOM      2  C2  N4B d   1       4.675  -5.979  -4.618  0.00  0.00     0.002 A 
ATOM      3  C3  N4B d   1       4.110  -5.999  -5.869  0.00  0.00     0.002 A 
ATOM      4  C4  N4B d   1       2.729  -5.997  -5.998  0.00  0.00    -0.004 A 
ATOM      5  C5  N4B d   1       1.941  -5.930  -4.886  0.00  0.00     0.002 A 
ATOM      6  C6  N4B d   1       2.495  -5.905  -3.622  0.00  0.00     0.002 A 
ENDROOT
BRANCH   1   7
ATOM      7  C1' N4B d   1       4.422  -5.999  -2.081  0.00  0.00     0.057 C 
BRANCH   7   8
ATOM      8  C2' N4B d   1       3.587  -5.118  -1.156  0.00  0.00     0.009 C 
BRANCH   8   9
ATOM      9  C3' N4B d   1       2.393  -5.864  -0.585  0.00  0.00     0.004 C 
ATOM     10  C4' N4B d   1       2.158  -5.561   0.864  0.00  0.00     0.003 C 
ENDBRANCH   8   9
ENDBRANCH   7   8
ENDBRANCH   1   7
TORSDOF 3
ENDMDL
