MODEL 1
REMARK minimizedAffinity 5.94147587
REMARK minimizedRMSD -1
REMARK  3 active torsions:
REMARK  status: ('A' for Active; 'I' for Inactive)
REMARK    1  A    between atoms: C3'_2  and  C2'_3 
REMARK    2  A    between atoms: C2'_3  and  C1'_4 
REMARK    3  A    between atoms: C1'_4  and  C1_5 
ROOT
ATOM      1  C1  N4B d   1       1.622  -3.151   3.574  0.00  0.00    -0.075 A 
ATOM      2  C2  N4B d   1       1.817  -2.191   4.592  0.00  0.00     0.002 A 
ATOM      3  C3  N4B d   1       1.874  -0.856   4.275  0.00  0.00     0.002 A 
ATOM      4  C4  N4B d   1       1.758  -0.460   2.951  0.00  0.00    -0.004 A 
ATOM      5  C5  N4B d   1       1.544  -1.391   1.977  0.00  0.00     0.002 A 
ATOM      6  C6  N4B d   1       1.480  -2.736   2.282  0.00  0.00     0.002 A 
ENDROOT
BRANCH   1   7
ATOM      7  C1' N4B d   1       1.639  -4.627   3.861  0.00  0.00     0.057 C 
BRANCH   7   8
ATOM      8  C2' N4B d   1       2.281  -4.865   5.225  0.00  0.00     0.009 C 
BRANCH   8   9
ATOM      9  C3' N4B d   1       1.603  -5.993   5.983  0.00  0.00     0.004 C 
ATOM     10  C4' N4B d   1       0.109  -5.866   5.999  0.00  0.00     0.003 C 
ENDBRANCH   8   9
ENDBRANCH   7   8
ENDBRANCH   1   7
TORSDOF 3
ENDMDL
