MODEL 1
REMARK minimizedAffinity 7.45822525
REMARK minimizedRMSD -1
REMARK  3 active torsions:
REMARK  status: ('A' for Active; 'I' for Inactive)
REMARK    1  A    between atoms: C3'_2  and  C2'_3 
REMARK    2  A    between atoms: C2'_3  and  C1'_4 
REMARK    3  A    between atoms: C1'_4  and  C1_5 
ROOT
ATOM      1  C1  N4B d   1       3.819  -3.466   4.424  0.00  0.00    -0.075 A 
ATOM      2  C2  N4B d   1       4.719  -3.080   3.406  0.00  0.00     0.002 A 
ATOM      3  C3  N4B d   1       5.805  -2.296   3.712  0.00  0.00     0.002 A 
ATOM      4  C4  N4B d   1       5.999  -1.873   5.018  0.00  0.00    -0.004 A 
ATOM      5  C5  N4B d   1       5.139  -2.272   5.999  0.00  0.00     0.002 A 
ATOM      6  C6  N4B d   1       4.046  -3.063   5.707  0.00  0.00     0.002 A 
ENDROOT
BRANCH   1   7
ATOM      7  C1' N4B d   1       2.571  -4.251   4.124  0.00  0.00     0.057 C 
BRANCH   7   8
ATOM      8  C2' N4B d   1       1.765  -3.520   3.054  0.00  0.00     0.009 C 
BRANCH   8   9
ATOM      9  C3' N4B d   1       1.440  -2.094   3.464  0.00  0.00     0.004 C 
ATOM     10  C4' N4B d   1       1.764  -1.094   2.394  0.00  0.00     0.003 C 
ENDBRANCH   8   9
ENDBRANCH   7   8
ENDBRANCH   1   7
TORSDOF 3
ENDMDL
