MODEL 1
REMARK minimizedAffinity -2.41557455
REMARK minimizedRMSD -1
REMARK  0 active torsions:
REMARK  status: ('A' for Active; 'I' for Inactive)
ROOT
ATOM      1  C   UNL d   1       0.336  -1.012   2.897  0.00  0.00     0.078 C 
ATOM      2  C1  UNL d   1       0.055  -0.675   1.463  0.00  0.00    -0.077 A 
ATOM      3  C2  UNL d   1      -1.230  -0.304   1.048  0.00  0.00    -0.001 A 
ATOM      4  C3  UNL d   1      -1.479  -0.002  -0.292  0.00  0.00     0.003 A 
ATOM      5  C4  UNL d   1      -0.450  -0.070  -1.228  0.00  0.00    -0.005 A 
ATOM      6  C5  UNL d   1       0.832  -0.441  -0.825  0.00  0.00     0.003 A 
ATOM      7  C6  UNL d   1       1.083  -0.743   0.514  0.00  0.00    -0.001 A 
ENDROOT
TORSDOF 0
ENDMDL
