MODEL 1
REMARK minimizedAffinity -5.55314302
REMARK minimizedRMSD -1
REMARK  0 active torsions:
REMARK  status: ('A' for Active; 'I' for Inactive)
ROOT
ATOM      1  C   UNL d   1      -0.493   0.590  -0.727  0.00  0.00     0.078 C 
ATOM      2  C1  UNL d   1       0.110  -0.001   0.513  0.00  0.00    -0.077 A 
ATOM      3  C2  UNL d   1       1.498  -0.045   0.689  0.00  0.00    -0.001 A 
ATOM      4  C3  UNL d   1       2.046  -0.607   1.843  0.00  0.00     0.003 A 
ATOM      5  C4  UNL d   1       1.212  -1.131   2.829  0.00  0.00    -0.005 A 
ATOM      6  C5  UNL d   1      -0.170  -1.095   2.662  0.00  0.00     0.003 A 
ATOM      7  C6  UNL d   1      -0.720  -0.532   1.508  0.00  0.00    -0.001 A 
ENDROOT
TORSDOF 0
ENDMDL
