MODEL 1
REMARK minimizedAffinity -3.66082478
REMARK minimizedRMSD -1
REMARK  0 active torsions:
REMARK  status: ('A' for Active; 'I' for Inactive)
ROOT
ATOM      1  C   UNL d   1       1.513  -0.750   2.711  0.00  0.00     0.078 C 
ATOM      2  C1  UNL d   1       0.954  -0.416   1.360  0.00  0.00    -0.077 A 
ATOM      3  C2  UNL d   1       1.737  -0.532   0.206  0.00  0.00    -0.001 A 
ATOM      4  C3  UNL d   1       1.206  -0.209  -1.044  0.00  0.00     0.003 A 
ATOM      5  C4  UNL d   1      -0.110   0.235  -1.151  0.00  0.00    -0.005 A 
ATOM      6  C5  UNL d   1      -0.897   0.356  -0.007  0.00  0.00     0.003 A 
ATOM      7  C6  UNL d   1      -0.368   0.033   1.243  0.00  0.00    -0.001 A 
ENDROOT
TORSDOF 0
ENDMDL
