MODEL 1
REMARK minimizedAffinity -1.59696126
REMARK minimizedRMSD -1
REMARK  0 active torsions:
REMARK  status: ('A' for Active; 'I' for Inactive)
ROOT
ATOM      1  C   UNL d   1       1.102  -0.276  -1.070  0.00  0.00     0.078 C 
ATOM      2  C1  UNL d   1       0.328   0.829  -1.726  0.00  0.00    -0.077 A 
ATOM      3  C2  UNL d   1       0.984   1.896  -2.350  0.00  0.00    -0.001 A 
ATOM      4  C3  UNL d   1       0.252   2.923  -2.948  0.00  0.00     0.003 A 
ATOM      5  C4  UNL d   1      -1.141   2.892  -2.927  0.00  0.00    -0.005 A 
ATOM      6  C5  UNL d   1      -1.803   1.835  -2.306  0.00  0.00     0.003 A 
ATOM      7  C6  UNL d   1      -1.072   0.807  -1.707  0.00  0.00    -0.001 A 
ENDROOT
TORSDOF 0
ENDMDL
