MODEL 1
REMARK minimizedAffinity -3.73646975
REMARK minimizedRMSD -1
REMARK  0 active torsions:
REMARK  status: ('A' for Active; 'I' for Inactive)
ROOT
ATOM      1  C   UNL d   1       1.143  -0.479   3.095  0.00  0.00     0.078 C 
ATOM      2  C1  UNL d   1       0.628  -0.313   1.696  0.00  0.00    -0.077 A 
ATOM      3  C2  UNL d   1      -0.730  -0.077   1.451  0.00  0.00    -0.001 A 
ATOM      4  C3  UNL d   1      -1.197   0.066   0.144  0.00  0.00     0.003 A 
ATOM      5  C4  UNL d   1      -0.313  -0.027  -0.929  0.00  0.00    -0.005 A 
ATOM      6  C5  UNL d   1       1.040  -0.265  -0.695  0.00  0.00     0.003 A 
ATOM      7  C6  UNL d   1       1.509  -0.408   0.612  0.00  0.00    -0.001 A 
ENDROOT
TORSDOF 0
ENDMDL
