MODEL 1
REMARK minimizedAffinity -3.53526044
REMARK minimizedRMSD -1
REMARK  0 active torsions:
REMARK  status: ('A' for Active; 'I' for Inactive)
ROOT
ATOM      1  C   UNL d   1       1.192  -1.135   2.952  0.00  0.00     0.078 C 
ATOM      2  C1  UNL d   1       0.597  -0.637   1.669  0.00  0.00    -0.077 A 
ATOM      3  C2  UNL d   1       1.368  -0.551   0.502  0.00  0.00    -0.001 A 
ATOM      4  C3  UNL d   1       0.804  -0.076  -0.683  0.00  0.00     0.003 A 
ATOM      5  C4  UNL d   1      -0.532   0.319  -0.713  0.00  0.00    -0.005 A 
ATOM      6  C5  UNL d   1      -1.306   0.239   0.443  0.00  0.00     0.003 A 
ATOM      7  C6  UNL d   1      -0.744  -0.236   1.629  0.00  0.00    -0.001 A 
ENDROOT
TORSDOF 0
ENDMDL
