MODEL 1
REMARK minimizedAffinity -3.16185474
REMARK minimizedRMSD -1
REMARK  0 active torsions:
REMARK  status: ('A' for Active; 'I' for Inactive)
ROOT
ATOM      1  C   UNL d   1      -2.394  -0.526   1.487  0.00  0.00     0.078 C 
ATOM      2  C1  UNL d   1      -0.903  -0.389   1.559  0.00  0.00    -0.077 A 
ATOM      3  C2  UNL d   1      -0.192   0.288   0.560  0.00  0.00    -0.001 A 
ATOM      4  C3  UNL d   1       1.198   0.400   0.635  0.00  0.00     0.003 A 
ATOM      5  C4  UNL d   1       1.888  -0.164   1.706  0.00  0.00    -0.005 A 
ATOM      6  C5  UNL d   1       1.190  -0.841   2.703  0.00  0.00     0.003 A 
ATOM      7  C6  UNL d   1      -0.200  -0.954   2.630  0.00  0.00    -0.001 A 
ENDROOT
TORSDOF 0
ENDMDL
