MODEL 1
REMARK minimizedAffinity -4.31891108
REMARK minimizedRMSD -1
REMARK  0 active torsions:
REMARK  status: ('A' for Active; 'I' for Inactive)
ROOT
ATOM      1  C   UNL d   1       0.686  -1.503   3.401  0.00  0.00     0.078 C 
ATOM      2  C1  UNL d   1       0.443  -0.980   2.017  0.00  0.00    -0.077 A 
ATOM      3  C2  UNL d   1      -0.740  -0.302   1.699  0.00  0.00    -0.001 A 
ATOM      4  C3  UNL d   1      -0.957   0.171   0.404  0.00  0.00     0.003 A 
ATOM      5  C4  UNL d   1       0.004  -0.029  -0.584  0.00  0.00    -0.005 A 
ATOM      6  C5  UNL d   1       1.184  -0.705  -0.279  0.00  0.00     0.003 A 
ATOM      7  C6  UNL d   1       1.402  -1.178   1.016  0.00  0.00    -0.001 A 
ENDROOT
TORSDOF 0
ENDMDL
