MODEL 1
REMARK minimizedAffinity -0.520335317
REMARK minimizedRMSD -1
REMARK  1 active torsions:
REMARK  status: ('A' for Active; 'I' for Inactive)
REMARK    1  A    between atoms: C1_2  and  C2_3 
ROOT
ATOM      1  C2  UNL d   1       1.240   2.439  -0.967  0.00  0.00    -0.077 A 
ATOM      2  C3  UNL d   1       1.053   2.553   0.418  0.00  0.00     0.002 A 
ATOM      3  C4  UNL d   1       0.800   1.419   1.192  0.00  0.00     0.002 A 
ATOM      4  C5  UNL d   1       0.736   0.163   0.592  0.00  0.00    -0.004 A 
ATOM      5  C6  UNL d   1       0.919   0.040  -0.785  0.00  0.00     0.002 A 
ATOM      6  C7  UNL d   1       1.171   1.172  -1.561  0.00  0.00     0.002 A 
ENDROOT
BRANCH   1   7
ATOM      7  C1  UNL d   1       1.562   3.654  -1.796  0.00  0.00     0.055 C 
ATOM      8  C   UNL d   1       1.672   4.902  -0.931  0.00  0.00     0.019 C 
ENDBRANCH   1   7
TORSDOF 1
ENDMDL
