MODEL 1
REMARK minimizedAffinity -5.86097288
REMARK minimizedRMSD -1
REMARK  1 active torsions:
REMARK  status: ('A' for Active; 'I' for Inactive)
REMARK    1  A    between atoms: C1_2  and  C2_3 
ROOT
ATOM      1  C2  UNL d   1       1.215   1.458  -0.819  0.00  0.00    -0.077 A 
ATOM      2  C3  UNL d   1       0.902   2.062   0.407  0.00  0.00     0.002 A 
ATOM      3  C4  UNL d   1       1.060   3.439   0.577  0.00  0.00     0.002 A 
ATOM      4  C5  UNL d   1       1.528   4.223  -0.476  0.00  0.00    -0.004 A 
ATOM      5  C6  UNL d   1       1.844   3.631  -1.698  0.00  0.00     0.002 A 
ATOM      6  C7  UNL d   1       1.687   2.255  -1.869  0.00  0.00     0.002 A 
ENDROOT
BRANCH   1   7
ATOM      7  C1  UNL d   1       0.998  -0.019  -1.020  0.00  0.00     0.055 C 
ATOM      8  C   UNL d   1       2.065  -0.837  -0.306  0.00  0.00     0.019 C 
ENDBRANCH   1   7
TORSDOF 1
ENDMDL
