MODEL 1
REMARK minimizedAffinity -5.10177279
REMARK minimizedRMSD -1
REMARK  1 active torsions:
REMARK  status: ('A' for Active; 'I' for Inactive)
REMARK    1  A    between atoms: C1_2  and  C2_3 
ROOT
ATOM      1  C2  UNL d   1       1.087  -0.076  -1.062  0.00  0.00    -0.077 A 
ATOM      2  C3  UNL d   1       1.763   0.756  -1.965  0.00  0.00     0.002 A 
ATOM      3  C4  UNL d   1       2.049   2.081  -1.627  0.00  0.00     0.002 A 
ATOM      4  C5  UNL d   1       1.667   2.582  -0.385  0.00  0.00    -0.004 A 
ATOM      5  C6  UNL d   1       0.992   1.762   0.520  0.00  0.00     0.002 A 
ATOM      6  C7  UNL d   1       0.705   0.439   0.183  0.00  0.00     0.002 A 
ENDROOT
BRANCH   1   7
ATOM      7  C1  UNL d   1       0.822  -1.519  -1.406  0.00  0.00     0.055 C 
ATOM      8  C   UNL d   1       1.206  -2.441  -0.258  0.00  0.00     0.019 C 
ENDBRANCH   1   7
TORSDOF 1
ENDMDL
