MODEL 1
REMARK minimizedAffinity -3.81552482
REMARK minimizedRMSD -1
REMARK  1 active torsions:
REMARK  status: ('A' for Active; 'I' for Inactive)
REMARK    1  A    between atoms: C1_2  and  C2_3 
ROOT
ATOM      1  C2  UNL d   1       0.961   0.537  -1.167  0.00  0.00    -0.077 A 
ATOM      2  C3  UNL d   1       0.818   1.127   0.097  0.00  0.00     0.002 A 
ATOM      3  C4  UNL d   1       1.061   2.490   0.271  0.00  0.00     0.002 A 
ATOM      4  C5  UNL d   1       1.445   3.276  -0.814  0.00  0.00    -0.004 A 
ATOM      5  C6  UNL d   1       1.592   2.698  -2.074  0.00  0.00     0.002 A 
ATOM      6  C7  UNL d   1       1.350   1.335  -2.250  0.00  0.00     0.002 A 
ENDROOT
BRANCH   1   7
ATOM      7  C1  UNL d   1       0.651  -0.924  -1.368  0.00  0.00     0.055 C 
ATOM      8  C   UNL d   1       1.354  -1.786  -0.329  0.00  0.00     0.019 C 
ENDBRANCH   1   7
TORSDOF 1
ENDMDL
