MODEL 1
REMARK minimizedAffinity -4.11180782
REMARK minimizedRMSD -1
REMARK  1 active torsions:
REMARK  status: ('A' for Active; 'I' for Inactive)
REMARK    1  A    between atoms: C1_2  and  C2_3 
ROOT
ATOM      1  C2  UNL d   1       1.161  -0.777  -1.055  0.00  0.00    -0.077 A 
ATOM      2  C3  UNL d   1       2.002  -1.123   0.012  0.00  0.00     0.002 A 
ATOM      3  C4  UNL d   1       1.995  -2.422   0.524  0.00  0.00     0.002 A 
ATOM      4  C5  UNL d   1       1.153  -3.385  -0.027  0.00  0.00    -0.004 A 
ATOM      5  C6  UNL d   1       0.311  -3.050  -1.087  0.00  0.00     0.002 A 
ATOM      6  C7  UNL d   1       0.316  -1.752  -1.600  0.00  0.00     0.002 A 
ENDROOT
BRANCH   1   7
ATOM      7  C1  UNL d   1       1.203   0.611  -1.641  0.00  0.00     0.055 C 
ATOM      8  C   UNL d   1       0.515   1.617  -0.730  0.00  0.00     0.019 C 
ENDBRANCH   1   7
TORSDOF 1
ENDMDL
