MODEL 1
REMARK minimizedAffinity -4.46056128
REMARK minimizedRMSD -1
REMARK  1 active torsions:
REMARK  status: ('A' for Active; 'I' for Inactive)
REMARK    1  A    between atoms: C1_2  and  C2_3 
ROOT
ATOM      1  C2  UNL d   1       1.287  -0.442  -0.271  0.00  0.00    -0.077 A 
ATOM      2  C3  UNL d   1       0.664   0.179  -1.363  0.00  0.00     0.002 A 
ATOM      3  C4  UNL d   1       0.609   1.571  -1.447  0.00  0.00     0.002 A 
ATOM      4  C5  UNL d   1       1.178   2.355  -0.445  0.00  0.00    -0.004 A 
ATOM      5  C6  UNL d   1       1.798   1.747   0.646  0.00  0.00     0.002 A 
ATOM      6  C7  UNL d   1       1.853   0.355   0.733  0.00  0.00     0.002 A 
ENDROOT
BRANCH   1   7
ATOM      7  C1  UNL d   1       1.390  -1.943  -0.203  0.00  0.00     0.055 C 
ATOM      8  C   UNL d   1       0.229  -2.611  -0.924  0.00  0.00     0.019 C 
ENDBRANCH   1   7
TORSDOF 1
ENDMDL
