MODEL 1
REMARK minimizedAffinity -3.30058503
REMARK minimizedRMSD -1
REMARK  1 active torsions:
REMARK  status: ('A' for Active; 'I' for Inactive)
REMARK    1  A    between atoms: C1_2  and  C2_3 
ROOT
ATOM      1  C2  UNL d   1       0.808   0.371  -0.803  0.00  0.00    -0.077 A 
ATOM      2  C3  UNL d   1       0.786   0.787   0.536  0.00  0.00     0.002 A 
ATOM      3  C4  UNL d   1       0.924   2.139   0.858  0.00  0.00     0.002 A 
ATOM      4  C5  UNL d   1       1.082   3.085  -0.152  0.00  0.00    -0.004 A 
ATOM      5  C6  UNL d   1       1.108   2.681  -1.487  0.00  0.00     0.002 A 
ATOM      6  C7  UNL d   1       0.971   1.331  -1.811  0.00  0.00     0.002 A 
ENDROOT
BRANCH   1   7
ATOM      7  C1  UNL d   1       0.610  -1.080  -1.155  0.00  0.00     0.055 C 
ATOM      8  C   UNL d   1       1.031  -1.990  -0.010  0.00  0.00     0.019 C 
ENDBRANCH   1   7
TORSDOF 1
ENDMDL
