MODEL 1
REMARK minimizedAffinity -4.40841341
REMARK minimizedRMSD -1
REMARK  1 active torsions:
REMARK  status: ('A' for Active; 'I' for Inactive)
REMARK    1  A    between atoms: C1_2  and  C2_3 
ROOT
ATOM      1  C2  UNL d   1       1.680   0.478  -0.995  0.00  0.00    -0.077 A 
ATOM      2  C3  UNL d   1       2.816   0.830  -0.253  0.00  0.00     0.002 A 
ATOM      3  C4  UNL d   1       2.929   2.105   0.303  0.00  0.00     0.002 A 
ATOM      4  C5  UNL d   1       1.909   3.037   0.126  0.00  0.00    -0.004 A 
ATOM      5  C6  UNL d   1       0.776   2.698  -0.612  0.00  0.00     0.002 A 
ATOM      6  C7  UNL d   1       0.661   1.423  -1.169  0.00  0.00     0.002 A 
ENDROOT
BRANCH   1   7
ATOM      7  C1  UNL d   1       1.534  -0.913  -1.554  0.00  0.00     0.055 C 
ATOM      8  C   UNL d   1       1.939  -1.966  -0.532  0.00  0.00     0.019 C 
ENDBRANCH   1   7
TORSDOF 1
ENDMDL
