MODEL 1
REMARK minimizedAffinity -2.15929699
REMARK minimizedRMSD -1
REMARK  1 active torsions:
REMARK  status: ('A' for Active; 'I' for Inactive)
REMARK    1  A    between atoms: C1_2  and  C2_3 
ROOT
ATOM      1  C2  UNL d   1       1.479   3.061  -1.183  0.00  0.00    -0.077 A 
ATOM      2  C3  UNL d   1       1.247   1.916  -1.958  0.00  0.00     0.002 A 
ATOM      3  C4  UNL d   1       0.925   0.702  -1.346  0.00  0.00     0.002 A 
ATOM      4  C5  UNL d   1       0.829   0.624   0.041  0.00  0.00    -0.004 A 
ATOM      5  C6  UNL d   1       1.060   1.757   0.821  0.00  0.00     0.002 A 
ATOM      6  C7  UNL d   1       1.383   2.970   0.211  0.00  0.00     0.002 A 
ENDROOT
BRANCH   1   7
ATOM      7  C1  UNL d   1       1.778   4.381  -1.843  0.00  0.00     0.055 C 
ATOM      8  C   UNL d   1       1.723   5.526  -0.842  0.00  0.00     0.019 C 
ENDBRANCH   1   7
TORSDOF 1
ENDMDL
