MODEL 1
REMARK minimizedAffinity -4.40290117
REMARK minimizedRMSD -1
REMARK  1 active torsions:
REMARK  status: ('A' for Active; 'I' for Inactive)
REMARK    1  A    between atoms: C1_2  and  C2_3 
ROOT
ATOM      1  C2  UNL d   1       1.344   2.899  -1.077  0.00  0.00    -0.077 A 
ATOM      2  C3  UNL d   1       1.279   1.771  -1.906  0.00  0.00     0.002 A 
ATOM      3  C4  UNL d   1       1.207   0.491  -1.353  0.00  0.00     0.002 A 
ATOM      4  C5  UNL d   1       1.197   0.327   0.031  0.00  0.00    -0.004 A 
ATOM      5  C6  UNL d   1       1.263   1.443   0.864  0.00  0.00     0.002 A 
ATOM      6  C7  UNL d   1       1.336   2.723   0.313  0.00  0.00     0.002 A 
ENDROOT
BRANCH   1   7
ATOM      7  C1  UNL d   1       1.372   4.283  -1.671  0.00  0.00     0.055 C 
ATOM      8  C   UNL d   1       1.890   5.305  -0.670  0.00  0.00     0.019 C 
ENDBRANCH   1   7
TORSDOF 1
ENDMDL
