MODEL 1
REMARK minimizedAffinity -0.443895638
REMARK minimizedRMSD -1
REMARK  1 active torsions:
REMARK  status: ('A' for Active; 'I' for Inactive)
REMARK    1  A    between atoms: C1_2  and  C2_3 
ROOT
ATOM      1  C2  UNL d   1       1.548   2.844  -1.117  0.00  0.00    -0.077 A 
ATOM      2  C3  UNL d   1       1.649   2.666   0.269  0.00  0.00     0.002 A 
ATOM      3  C4  UNL d   1       1.395   1.418   0.842  0.00  0.00     0.002 A 
ATOM      4  C5  UNL d   1       1.043   0.338   0.035  0.00  0.00    -0.004 A 
ATOM      5  C6  UNL d   1       0.938   0.505  -1.345  0.00  0.00     0.002 A 
ATOM      6  C7  UNL d   1       1.190   1.752  -1.919  0.00  0.00     0.002 A 
ENDROOT
BRANCH   1   7
ATOM      7  C1  UNL d   1       1.869   4.176  -1.742  0.00  0.00     0.055 C 
ATOM      8  C   UNL d   1       2.117   5.239  -0.681  0.00  0.00     0.019 C 
ENDBRANCH   1   7
TORSDOF 1
ENDMDL
