MODEL 1
REMARK minimizedAffinity 0.00372110284
REMARK minimizedRMSD -1
REMARK  1 active torsions:
REMARK  status: ('A' for Active; 'I' for Inactive)
REMARK    1  A    between atoms: C1_2  and  C2_3 
ROOT
ATOM      1  C2  UNL d   1       1.307   2.282  -1.506  0.00  0.00    -0.077 A 
ATOM      2  C3  UNL d   1       0.983   1.099  -2.186  0.00  0.00     0.002 A 
ATOM      3  C4  UNL d   1       0.887  -0.110  -1.493  0.00  0.00     0.002 A 
ATOM      4  C5  UNL d   1       1.110  -0.146  -0.118  0.00  0.00    -0.004 A 
ATOM      5  C6  UNL d   1       1.435   1.025   0.566  0.00  0.00     0.002 A 
ATOM      6  C7  UNL d   1       1.532   2.233  -0.125  0.00  0.00     0.002 A 
ENDROOT
BRANCH   1   7
ATOM      7  C1  UNL d   1       1.362   3.595  -2.243  0.00  0.00     0.055 C 
ATOM      8  C   UNL d   1       2.155   4.634  -1.464  0.00  0.00     0.019 C 
ENDBRANCH   1   7
TORSDOF 1
ENDMDL
