MODEL 1
REMARK minimizedAffinity -4.65603733
REMARK minimizedRMSD -1
REMARK  1 active torsions:
REMARK  status: ('A' for Active; 'I' for Inactive)
REMARK    1  A    between atoms: C1_2  and  C2_3 
ROOT
ATOM      1  C2  UNL d   1       1.128   2.635  -1.398  0.00  0.00    -0.077 A 
ATOM      2  C3  UNL d   1       0.514   1.579  -2.084  0.00  0.00     0.002 A 
ATOM      3  C4  UNL d   1       0.299   0.354  -1.449  0.00  0.00     0.002 A 
ATOM      4  C5  UNL d   1       0.691   0.176  -0.124  0.00  0.00    -0.004 A 
ATOM      5  C6  UNL d   1       1.305   1.220   0.567  0.00  0.00     0.002 A 
ATOM      6  C7  UNL d   1       1.522   2.445  -0.067  0.00  0.00     0.002 A 
ENDROOT
BRANCH   1   7
ATOM      7  C1  UNL d   1       1.316   3.973  -2.065  0.00  0.00     0.055 C 
ATOM      8  C   UNL d   1       2.062   4.943  -1.161  0.00  0.00     0.019 C 
ENDBRANCH   1   7
TORSDOF 1
ENDMDL
