MODEL 1
REMARK minimizedAffinity 8.89343834
REMARK minimizedRMSD -1
REMARK  0 active torsions:
REMARK  status: ('A' for Active; 'I' for Inactive)
ROOT
ATOM      1  C   UNL d   1      -5.072  -1.979   3.333  0.00  0.00    -0.002 A 
ATOM      2  C1  UNL d   1      -4.452  -1.833   2.100  0.00  0.00     0.010 A 
ATOM      3  C2  UNL d   1      -3.393  -0.937   1.940  0.00  0.00     0.041 A 
ATOM      4  C3  UNL d   1      -2.962  -0.185   3.051  0.00  0.00    -0.075 A 
ATOM      5  S   UNL d   1      -1.685   0.972   3.091  0.00  0.00     0.015 SA
ATOM      6  C4  UNL d   1      -1.932   1.298   4.746  0.00  0.00     0.022 A 
ATOM      7  C5  UNL d   1      -2.960   0.551   5.271  0.00  0.00     0.026 A 
ATOM      8  C6  UNL d   1      -3.571  -0.316   4.303  0.00  0.00    -0.082 A 
ATOM      9  C7  UNL d   1      -4.643  -1.232   4.433  0.00  0.00     0.045 A 
ENDROOT
TORSDOF 0
ENDMDL
