MODEL 1
REMARK minimizedAffinity 22.9345684
REMARK minimizedRMSD -1
REMARK  0 active torsions:
REMARK  status: ('A' for Active; 'I' for Inactive)
ROOT
ATOM      1  C   UNL d   1       0.883  -2.212   3.320  0.00  0.00    -0.002 A 
ATOM      2  C1  UNL d   1      -0.123  -1.744   2.486  0.00  0.00     0.010 A 
ATOM      3  C2  UNL d   1       0.130  -0.715   1.576  0.00  0.00     0.041 A 
ATOM      4  C3  UNL d   1       1.424  -0.161   1.516  0.00  0.00    -0.075 A 
ATOM      5  S   UNL d   1       1.966   1.105   0.480  0.00  0.00     0.015 SA
ATOM      6  C4  UNL d   1       3.545   1.054   1.119  0.00  0.00     0.022 A 
ATOM      7  C5  UNL d   1       3.674   0.100   2.100  0.00  0.00     0.026 A 
ATOM      8  C6  UNL d   1       2.454  -0.617   2.345  0.00  0.00    -0.082 A 
ATOM      9  C7  UNL d   1       2.165  -1.660   3.258  0.00  0.00     0.045 A 
ENDROOT
TORSDOF 0
ENDMDL
