MODEL 1
REMARK minimizedAffinity 21.2359104
REMARK minimizedRMSD -1
REMARK  0 active torsions:
REMARK  status: ('A' for Active; 'I' for Inactive)
ROOT
ATOM      1  C   UNL d   1       5.972   3.351   1.630  0.00  0.00    -0.002 A 
ATOM      2  C1  UNL d   1       5.999   3.938   0.372  0.00  0.00     0.010 A 
ATOM      3  C2  UNL d   1       5.086   3.552  -0.611  0.00  0.00     0.041 A 
ATOM      4  C3  UNL d   1       4.135   2.559  -0.306  0.00  0.00    -0.075 A 
ATOM      5  S   UNL d   1       2.918   1.929  -1.352  0.00  0.00     0.015 SA
ATOM      6  C4  UNL d   1       2.332   0.867  -0.154  0.00  0.00     0.022 A 
ATOM      7  C5  UNL d   1       3.037   0.977   1.021  0.00  0.00     0.026 A 
ATOM      8  C6  UNL d   1       4.087   1.954   0.953  0.00  0.00    -0.082 A 
ATOM      9  C7  UNL d   1       5.027   2.366   1.929  0.00  0.00     0.045 A 
ENDROOT
TORSDOF 0
ENDMDL
