MODEL 1
REMARK minimizedAffinity 10.6568441
REMARK minimizedRMSD -1
REMARK  0 active torsions:
REMARK  status: ('A' for Active; 'I' for Inactive)
ROOT
ATOM      1  C   UNL d   1      -5.998  -4.696   5.995  0.00  0.00    -0.002 A 
ATOM      2  C1  UNL d   1      -5.712  -5.925   5.417  0.00  0.00     0.010 A 
ATOM      3  C2  UNL d   1      -5.165  -5.996   4.134  0.00  0.00     0.041 A 
ATOM      4  C3  UNL d   1      -4.906  -4.799   3.436  0.00  0.00    -0.075 A 
ATOM      5  S   UNL d   1      -4.239  -4.642   1.854  0.00  0.00     0.015 SA
ATOM      6  C4  UNL d   1      -4.317  -2.940   1.909  0.00  0.00     0.022 A 
ATOM      7  C5  UNL d   1      -4.838  -2.486   3.098  0.00  0.00     0.026 A 
ATOM      8  C6  UNL d   1      -5.185  -3.550   3.998  0.00  0.00    -0.082 A 
ATOM      9  C7  UNL d   1      -5.740  -3.512   5.300  0.00  0.00     0.045 A 
ENDROOT
TORSDOF 0
ENDMDL
