MODEL 1
REMARK minimizedAffinity 17.6891384
REMARK minimizedRMSD -1
REMARK  0 active torsions:
REMARK  status: ('A' for Active; 'I' for Inactive)
ROOT
ATOM      1  C   UNL d   1      -1.678  -0.206   2.819  0.00  0.00    -0.002 A 
ATOM      2  C1  UNL d   1      -1.624   0.302   4.109  0.00  0.00     0.010 A 
ATOM      3  C2  UNL d   1      -2.674   1.071   4.615  0.00  0.00     0.041 A 
ATOM      4  C3  UNL d   1      -3.792   1.320   3.795  0.00  0.00    -0.075 A 
ATOM      5  S   UNL d   1      -5.197   2.233   4.201  0.00  0.00     0.015 SA
ATOM      6  C4  UNL d   1      -5.903   1.968   2.673  0.00  0.00     0.022 A 
ATOM      7  C5  UNL d   1      -5.100   1.204   1.859  0.00  0.00     0.026 A 
ATOM      8  C6  UNL d   1      -3.871   0.817   2.493  0.00  0.00    -0.082 A 
ATOM      9  C7  UNL d   1      -2.789   0.043   2.009  0.00  0.00     0.045 A 
ENDROOT
TORSDOF 0
ENDMDL
