MODEL 1
REMARK minimizedAffinity 6.26031828
REMARK minimizedRMSD -1
REMARK  0 active torsions:
REMARK  status: ('A' for Active; 'I' for Inactive)
ROOT
ATOM      1  C   UNL d   1      -3.909   5.958  -1.280  0.00  0.00    -0.002 A 
ATOM      2  C1  UNL d   1      -5.214   5.982  -1.753  0.00  0.00     0.010 A 
ATOM      3  C2  UNL d   1      -5.472   5.996  -3.125  0.00  0.00     0.041 A 
ATOM      4  C3  UNL d   1      -4.387   5.985  -4.023  0.00  0.00    -0.075 A 
ATOM      5  S   UNL d   1      -4.463   5.998  -5.745  0.00  0.00     0.015 SA
ATOM      6  C4  UNL d   1      -2.765   5.972  -5.895  0.00  0.00     0.022 A 
ATOM      7  C5  UNL d   1      -2.140   5.954  -4.670  0.00  0.00     0.026 A 
ATOM      8  C6  UNL d   1      -3.064   5.960  -3.571  0.00  0.00    -0.082 A 
ATOM      9  C7  UNL d   1      -2.835   5.947  -2.174  0.00  0.00     0.045 A 
ENDROOT
TORSDOF 0
ENDMDL
