MODEL 1
REMARK minimizedAffinity 19.3205128
REMARK minimizedRMSD -1
REMARK  0 active torsions:
REMARK  status: ('A' for Active; 'I' for Inactive)
ROOT
ATOM      1  C   UNL d   1      -3.753   0.123   1.617  0.00  0.00    -0.002 A 
ATOM      2  C1  UNL d   1      -2.937   1.146   2.077  0.00  0.00     0.010 A 
ATOM      3  C2  UNL d   1      -1.554   0.969   2.160  0.00  0.00     0.041 A 
ATOM      4  C3  UNL d   1      -1.001  -0.266   1.769  0.00  0.00    -0.075 A 
ATOM      5  S   UNL d   1       0.665  -0.709   1.785  0.00  0.00     0.015 SA
ATOM      6  C4  UNL d   1       0.333  -2.268   1.181  0.00  0.00     0.022 A 
ATOM      7  C5  UNL d   1      -1.012  -2.462   0.967  0.00  0.00     0.026 A 
ATOM      8  C6  UNL d   1      -1.802  -1.311   1.302  0.00  0.00    -0.082 A 
ATOM      9  C7  UNL d   1      -3.200  -1.101   1.230  0.00  0.00     0.045 A 
ENDROOT
TORSDOF 0
ENDMDL
