MODEL 1
REMARK minimizedAffinity 23.5482712
REMARK minimizedRMSD -1
REMARK  0 active torsions:
REMARK  status: ('A' for Active; 'I' for Inactive)
ROOT
ATOM      1  C   UNL d   1      -3.872  -5.918  -5.811  0.00  0.00    -0.002 A 
ATOM      2  C1  UNL d   1      -4.393  -5.212  -4.736  0.00  0.00     0.010 A 
ATOM      3  C2  UNL d   1      -3.546  -4.575  -3.827  0.00  0.00     0.041 A 
ATOM      4  C3  UNL d   1      -2.152  -4.660  -4.019  0.00  0.00    -0.075 A 
ATOM      5  S   UNL d   1      -0.923  -3.960  -3.034  0.00  0.00     0.015 SA
ATOM      6  C4  UNL d   1       0.323  -4.581  -4.017  0.00  0.00     0.022 A 
ATOM      7  C5  UNL d   1      -0.169  -5.307  -5.075  0.00  0.00     0.026 A 
ATOM      8  C6  UNL d   1      -1.604  -5.365  -5.094  0.00  0.00    -0.082 A 
ATOM      9  C7  UNL d   1      -2.489  -6.000  -5.999  0.00  0.00     0.045 A 
ENDROOT
TORSDOF 0
ENDMDL
