MODEL 1
REMARK minimizedAffinity 8.77900982
REMARK minimizedRMSD -1
REMARK  0 active torsions:
REMARK  status: ('A' for Active; 'I' for Inactive)
ROOT
ATOM      1  C   UNL d   1      -5.998  -5.989   5.200  0.00  0.00    -0.002 A 
ATOM      2  C1  UNL d   1      -5.793  -4.873   6.000  0.00  0.00     0.010 A 
ATOM      3  C2  UNL d   1      -5.208  -3.720   5.473  0.00  0.00     0.041 A 
ATOM      4  C3  UNL d   1      -4.833  -3.705   4.115  0.00  0.00    -0.075 A 
ATOM      5  S   UNL d   1      -4.102  -2.403   3.253  0.00  0.00     0.015 SA
ATOM      6  C4  UNL d   1      -4.046  -3.296   1.803  0.00  0.00     0.022 A 
ATOM      7  C5  UNL d   1      -4.568  -4.559   1.955  0.00  0.00     0.026 A 
ATOM      8  C6  UNL d   1      -5.031  -4.815   3.290  0.00  0.00    -0.082 A 
ATOM      9  C7  UNL d   1      -5.624  -5.970   3.854  0.00  0.00     0.045 A 
ENDROOT
TORSDOF 0
ENDMDL
