MODEL 1
REMARK minimizedAffinity 8.51676559
REMARK minimizedRMSD -1
REMARK  0 active torsions:
REMARK  status: ('A' for Active; 'I' for Inactive)
ROOT
ATOM      1  C   UNL d   1       3.086  -4.514   4.701  0.00  0.00    -0.002 A 
ATOM      2  C1  UNL d   1       4.107  -3.607   4.947  0.00  0.00     0.010 A 
ATOM      3  C2  UNL d   1       4.065  -2.324   4.398  0.00  0.00     0.041 A 
ATOM      4  C3  UNL d   1       2.967  -1.963   3.593  0.00  0.00    -0.075 A 
ATOM      5  S   UNL d   1       2.701  -0.447   2.817  0.00  0.00     0.015 SA
ATOM      6  C4  UNL d   1       1.225  -0.967   2.141  0.00  0.00     0.022 A 
ATOM      7  C5  UNL d   1       0.927  -2.263   2.489  0.00  0.00     0.026 A 
ATOM      8  C6  UNL d   1       1.926  -2.859   3.332  0.00  0.00    -0.082 A 
ATOM      9  C7  UNL d   1       1.998  -4.153   3.901  0.00  0.00     0.045 A 
ENDROOT
TORSDOF 0
ENDMDL
