MODEL 1
REMARK minimizedAffinity 6.57995033
REMARK minimizedRMSD -1
REMARK  0 active torsions:
REMARK  status: ('A' for Active; 'I' for Inactive)
ROOT
ATOM      1  C   UNL d   1       2.124  -5.949  -5.490  0.00  0.00    -0.002 A 
ATOM      2  C1  UNL d   1       3.414  -5.985  -5.999  0.00  0.00     0.010 A 
ATOM      3  C2  UNL d   1       4.516  -5.999  -5.142  0.00  0.00     0.041 A 
ATOM      4  C3  UNL d   1       4.297  -5.978  -3.750  0.00  0.00    -0.075 A 
ATOM      5  S   UNL d   1       5.494  -5.990  -2.509  0.00  0.00     0.015 SA
ATOM      6  C4  UNL d   1       4.321  -5.949  -1.274  0.00  0.00     0.022 A 
ATOM      7  C5  UNL d   1       3.042  -5.926  -1.778  0.00  0.00     0.026 A 
ATOM      8  C6  UNL d   1       3.007  -5.943  -3.213  0.00  0.00    -0.082 A 
ATOM      9  C7  UNL d   1       1.911  -5.928  -4.109  0.00  0.00     0.045 A 
ENDROOT
TORSDOF 0
ENDMDL
