MODEL 1
REMARK minimizedAffinity 12.5091858
REMARK minimizedRMSD -1
REMARK  0 active torsions:
REMARK  status: ('A' for Active; 'I' for Inactive)
ROOT
ATOM      1  C   UNL d   1      -4.667   2.900   1.945  0.00  0.00    -0.002 A 
ATOM      2  C1  UNL d   1      -5.892   3.117   1.331  0.00  0.00     0.010 A 
ATOM      3  C2  UNL d   1      -5.993   3.144  -0.062  0.00  0.00     0.041 A 
ATOM      4  C3  UNL d   1      -4.831   2.945  -0.833  0.00  0.00    -0.075 A 
ATOM      5  S   UNL d   1      -4.715   2.935  -2.553  0.00  0.00     0.015 SA
ATOM      6  C4  UNL d   1      -3.037   2.642  -2.513  0.00  0.00     0.022 A 
ATOM      7  C5  UNL d   1      -2.560   2.552  -1.227  0.00  0.00     0.026 A 
ATOM      8  C6  UNL d   1      -3.586   2.724  -0.237  0.00  0.00    -0.082 A 
ATOM      9  C7  UNL d   1      -3.517   2.703   1.176  0.00  0.00     0.045 A 
ENDROOT
TORSDOF 0
ENDMDL
