MODEL 1
REMARK minimizedAffinity 5.05976963
REMARK minimizedRMSD -1
REMARK  0 active torsions:
REMARK  status: ('A' for Active; 'I' for Inactive)
ROOT
ATOM      1  C   UNL d   1       3.625  -5.983  -0.827  0.00  0.00    -0.002 A 
ATOM      2  C1  UNL d   1       4.852  -5.964  -1.474  0.00  0.00     0.010 A 
ATOM      3  C2  UNL d   1       4.919  -5.960  -2.869  0.00  0.00     0.041 A 
ATOM      4  C3  UNL d   1       3.721  -5.972  -3.609  0.00  0.00    -0.075 A 
ATOM      5  S   UNL d   1       3.559  -5.968  -5.325  0.00  0.00     0.015 SA
ATOM      6  C4  UNL d   1       1.857  -5.989  -5.240  0.00  0.00     0.022 A 
ATOM      7  C5  UNL d   1       1.406  -6.000  -3.941  0.00  0.00     0.026 A 
ATOM      8  C6  UNL d   1       2.473  -5.989  -2.980  0.00  0.00    -0.082 A 
ATOM      9  C7  UNL d   1       2.438  -5.995  -1.564  0.00  0.00     0.045 A 
ENDROOT
TORSDOF 0
ENDMDL
