MODEL 1
REMARK minimizedAffinity 9.21694183
REMARK minimizedRMSD -1
REMARK  0 active torsions:
REMARK  status: ('A' for Active; 'I' for Inactive)
ROOT
ATOM      1  C   UNL d   1       1.512  -5.999  -5.079  0.00  0.00    -0.002 A 
ATOM      2  C1  UNL d   1       2.726  -6.000  -5.751  0.00  0.00     0.010 A 
ATOM      3  C2  UNL d   1       3.930  -5.999  -5.043  0.00  0.00     0.041 A 
ATOM      4  C3  UNL d   1       3.892  -6.000  -3.635  0.00  0.00    -0.075 A 
ATOM      5  S   UNL d   1       5.239  -6.000  -2.559  0.00  0.00     0.015 SA
ATOM      6  C4  UNL d   1       4.235  -6.000  -1.182  0.00  0.00     0.022 A 
ATOM      7  C5  UNL d   1       2.901  -5.999  -1.517  0.00  0.00     0.026 A 
ATOM      8  C6  UNL d   1       2.682  -5.999  -2.936  0.00  0.00    -0.082 A 
ATOM      9  C7  UNL d   1       1.479  -5.999  -3.682  0.00  0.00     0.045 A 
ENDROOT
TORSDOF 0
ENDMDL
