MODEL 1
REMARK minimizedAffinity -2.02721906
REMARK minimizedRMSD -1
REMARK  0 active torsions:
REMARK  status: ('A' for Active; 'I' for Inactive)
ROOT
ATOM      1  C   UNL d   1       1.252  -1.686   3.127  0.00  0.00    -0.002 A 
ATOM      2  C1  UNL d   1       0.595  -2.274   2.055  0.00  0.00     0.010 A 
ATOM      3  C2  UNL d   1       0.758  -1.773   0.762  0.00  0.00     0.041 A 
ATOM      4  C3  UNL d   1       1.601  -0.662   0.562  0.00  0.00    -0.075 A 
ATOM      5  S   UNL d   1       1.952   0.121  -0.933  0.00  0.00     0.015 SA
ATOM      6  C4  UNL d   1       2.982   1.253  -0.184  0.00  0.00     0.022 A 
ATOM      7  C5  UNL d   1       3.068   1.053   1.173  0.00  0.00     0.026 A 
ATOM      8  C6  UNL d   1       2.274  -0.054   1.626  0.00  0.00    -0.082 A 
ATOM      9  C7  UNL d   1       2.087  -0.584   2.925  0.00  0.00     0.045 A 
ENDROOT
TORSDOF 0
ENDMDL
