MODEL 1
REMARK minimizedAffinity 6.26193523
REMARK minimizedRMSD -1
REMARK  0 active torsions:
REMARK  status: ('A' for Active; 'I' for Inactive)
ROOT
ATOM      1  C   UNL d   1      -2.596   2.219   0.941  0.00  0.00    -0.002 A 
ATOM      2  C1  UNL d   1      -3.349   3.299   0.500  0.00  0.00     0.010 A 
ATOM      3  C2  UNL d   1      -3.782   3.368  -0.826  0.00  0.00     0.041 A 
ATOM      4  C3  UNL d   1      -3.444   2.324  -1.709  0.00  0.00    -0.075 A 
ATOM      5  S   UNL d   1      -3.865   2.195  -3.375  0.00  0.00     0.015 SA
ATOM      6  C4  UNL d   1      -3.057   0.703  -3.541  0.00  0.00     0.022 A 
ATOM      7  C5  UNL d   1      -2.474   0.299  -2.363  0.00  0.00     0.026 A 
ATOM      8  C6  UNL d   1      -2.688   1.226  -1.288  0.00  0.00    -0.082 A 
ATOM      9  C7  UNL d   1      -2.263   1.185   0.062  0.00  0.00     0.045 A 
ENDROOT
TORSDOF 0
ENDMDL
