MODEL 1
REMARK minimizedAffinity 1.54935896
REMARK minimizedRMSD -1
REMARK  1 active torsions:
REMARK  status: ('A' for Active; 'I' for Inactive)
REMARK    1  A    between atoms: N_2  and  C1_3 
ROOT
ATOM      1  C1  UNL d   1       2.139   0.129  -0.754  0.00  0.00     0.143 A 
ATOM      2  C2  UNL d   1       1.073   0.474   0.084  0.00  0.00    -0.057 A 
ATOM      3  C3  UNL d   1       0.351   1.658  -0.112  0.00  0.00     0.033 A 
ATOM      4  C4  UNL d   1       0.701   2.533  -1.134  0.00  0.00    -0.042 A 
ATOM      5  C5  UNL d   1       1.773   2.222  -1.963  0.00  0.00     0.033 A 
ATOM      6  C6  UNL d   1       2.487   1.036  -1.767  0.00  0.00    -0.057 A 
ENDROOT
BRANCH   1   7
ATOM      7  N   UNL d   1       2.959  -0.984  -0.550  0.00  0.00    -0.732 N 
ATOM      8  C   UNL d   1       4.065  -0.925   0.381  0.00  0.00     0.284 C 
ATOM      9  H3  UNL d   1       2.431  -1.854  -0.515  0.00  0.00     0.395 HD
ENDBRANCH   1   7
TORSDOF 1
ENDMDL
