MODEL 1
REMARK minimizedAffinity -4.39604759
REMARK minimizedRMSD -1
REMARK  1 active torsions:
REMARK  status: ('A' for Active; 'I' for Inactive)
REMARK    1  A    between atoms: N_2  and  C1_3 
ROOT
ATOM      1  C1  UNL d   1       1.152   2.970  -0.943  0.00  0.00     0.143 A 
ATOM      2  C2  UNL d   1       1.057   1.885  -1.821  0.00  0.00    -0.057 A 
ATOM      3  C3  UNL d   1       1.079   0.567  -1.351  0.00  0.00     0.033 A 
ATOM      4  C4  UNL d   1       1.227   0.309   0.008  0.00  0.00    -0.042 A 
ATOM      5  C5  UNL d   1       1.348   1.371   0.897  0.00  0.00     0.033 A 
ATOM      6  C6  UNL d   1       1.318   2.686   0.422  0.00  0.00    -0.057 A 
ENDROOT
BRANCH   1   7
ATOM      7  N   UNL d   1       1.234   4.302  -1.358  0.00  0.00    -0.732 N 
ATOM      8  C   UNL d   1       1.951   5.278  -0.565  0.00  0.00     0.284 C 
ATOM      9  H3  UNL d   1       1.387   4.388  -2.360  0.00  0.00     0.395 HD
ENDBRANCH   1   7
TORSDOF 1
ENDMDL
