MODEL 1
REMARK minimizedAffinity -1.82897222
REMARK minimizedRMSD -1
REMARK  1 active torsions:
REMARK  status: ('A' for Active; 'I' for Inactive)
REMARK    1  A    between atoms: N_2  and  C1_3 
ROOT
ATOM      1  C1  UNL d   1       1.159   2.708  -1.194  0.00  0.00     0.143 A 
ATOM      2  C2  UNL d   1       1.345   1.610  -2.039  0.00  0.00    -0.057 A 
ATOM      3  C3  UNL d   1       1.253   0.298  -1.557  0.00  0.00     0.033 A 
ATOM      4  C4  UNL d   1       1.002   0.063  -0.209  0.00  0.00    -0.042 A 
ATOM      5  C5  UNL d   1       0.839   1.140   0.655  0.00  0.00     0.033 A 
ATOM      6  C6  UNL d   1       0.925   2.447   0.166  0.00  0.00    -0.057 A 
ENDROOT
BRANCH   1   7
ATOM      7  N   UNL d   1       1.335   4.036  -1.593  0.00  0.00    -0.732 N 
ATOM      8  C   UNL d   1       1.854   5.021  -0.668  0.00  0.00     0.284 C 
ATOM      9  H3  UNL d   1       1.712   4.111  -2.535  0.00  0.00     0.395 HD
ENDBRANCH   1   7
TORSDOF 1
ENDMDL
