MODEL 1
REMARK minimizedAffinity -2.52214885
REMARK minimizedRMSD -1
REMARK  1 active torsions:
REMARK  status: ('A' for Active; 'I' for Inactive)
REMARK    1  A    between atoms: N_2  and  C1_3 
ROOT
ATOM      1  C1  UNL d   1       1.125   2.336  -0.230  0.00  0.00     0.143 A 
ATOM      2  C2  UNL d   1       1.213   2.158  -1.615  0.00  0.00    -0.057 A 
ATOM      3  C3  UNL d   1       1.213   0.878  -2.183  0.00  0.00     0.033 A 
ATOM      4  C4  UNL d   1       1.154  -0.250  -1.371  0.00  0.00    -0.042 A 
ATOM      5  C5  UNL d   1       1.091  -0.097   0.009  0.00  0.00     0.033 A 
ATOM      6  C6  UNL d   1       1.084   1.184   0.570  0.00  0.00    -0.057 A 
ENDROOT
BRANCH   1   7
ATOM      7  N   UNL d   1       1.219   3.579   0.401  0.00  0.00    -0.732 N 
ATOM      8  C   UNL d   1       1.542   4.769  -0.357  0.00  0.00     0.284 C 
ATOM      9  H3  UNL d   1       0.493   3.716   1.100  0.00  0.00     0.395 HD
ENDBRANCH   1   7
TORSDOF 1
ENDMDL
