MODEL 1
REMARK minimizedAffinity -0.0696719885
REMARK minimizedRMSD -1
REMARK  1 active torsions:
REMARK  status: ('A' for Active; 'I' for Inactive)
REMARK    1  A    between atoms: N_2  and  C1_3 
ROOT
ATOM      1  C1  UNL d   1       1.735   2.645  -1.340  0.00  0.00     0.143 A 
ATOM      2  C2  UNL d   1       1.646   2.595   0.055  0.00  0.00    -0.057 A 
ATOM      3  C3  UNL d   1       1.264   1.422   0.717  0.00  0.00     0.033 A 
ATOM      4  C4  UNL d   1       0.935   0.282  -0.010  0.00  0.00    -0.042 A 
ATOM      5  C5  UNL d   1       0.992   0.316  -1.399  0.00  0.00     0.033 A 
ATOM      6  C6  UNL d   1       1.381   1.489  -2.053  0.00  0.00    -0.057 A 
ENDROOT
BRANCH   1   7
ATOM      7  N   UNL d   1       2.012   3.810  -2.061  0.00  0.00    -0.732 N 
ATOM      8  C   UNL d   1       2.027   5.098  -1.402  0.00  0.00     0.284 C 
ATOM      9  H3  UNL d   1       2.762   3.679  -2.736  0.00  0.00     0.395 HD
ENDBRANCH   1   7
TORSDOF 1
ENDMDL
