MODEL 1
REMARK minimizedAffinity -2.08968925
REMARK minimizedRMSD -1
REMARK  1 active torsions:
REMARK  status: ('A' for Active; 'I' for Inactive)
REMARK    1  A    between atoms: N_2  and  C1_3 
ROOT
ATOM      1  C1  UNL d   1       1.507   3.801  -0.364  0.00  0.00     0.143 A 
ATOM      2  C2  UNL d   1       1.167   2.948   0.691  0.00  0.00    -0.057 A 
ATOM      3  C3  UNL d   1       0.921   1.586   0.474  0.00  0.00     0.033 A 
ATOM      4  C4  UNL d   1       0.982   1.059  -0.811  0.00  0.00    -0.042 A 
ATOM      5  C5  UNL d   1       1.294   1.893  -1.879  0.00  0.00     0.033 A 
ATOM      6  C6  UNL d   1       1.545   3.250  -1.655  0.00  0.00    -0.057 A 
ENDROOT
BRANCH   1   7
ATOM      7  N   UNL d   1       1.667   5.182  -0.227  0.00  0.00    -0.732 N 
ATOM      8  C   UNL d   1       2.707   5.879  -0.953  0.00  0.00     0.284 C 
ATOM      9  H3  UNL d   1       0.777   5.675  -0.200  0.00  0.00     0.395 HD
ENDBRANCH   1   7
TORSDOF 1
ENDMDL
