MODEL 1
REMARK minimizedAffinity 1.8016566
REMARK minimizedRMSD -1
REMARK  1 active torsions:
REMARK  status: ('A' for Active; 'I' for Inactive)
REMARK    1  A    between atoms: N_2  and  C1_3 
ROOT
ATOM      1  C1  UNL d   1       1.757   4.452  -0.302  0.00  0.00     0.143 A 
ATOM      2  C2  UNL d   1       1.874   3.165  -0.836  0.00  0.00    -0.057 A 
ATOM      3  C3  UNL d   1       1.807   2.030  -0.018  0.00  0.00     0.033 A 
ATOM      4  C4  UNL d   1       1.650   2.165   1.357  0.00  0.00    -0.042 A 
ATOM      5  C5  UNL d   1       1.556   3.436   1.913  0.00  0.00     0.033 A 
ATOM      6  C6  UNL d   1       1.617   4.565   1.091  0.00  0.00    -0.057 A 
ENDROOT
BRANCH   1   7
ATOM      7  N   UNL d   1       1.914   5.622  -1.049  0.00  0.00    -0.732 N 
ATOM      8  C   UNL d   1       3.212   6.000  -1.563  0.00  0.00     0.284 C 
ATOM      9  H3  UNL d   1       1.148   5.771  -1.703  0.00  0.00     0.395 HD
ENDBRANCH   1   7
TORSDOF 1
ENDMDL
