MODEL 1
REMARK minimizedAffinity -1.42384183
REMARK minimizedRMSD -1
REMARK  1 active torsions:
REMARK  status: ('A' for Active; 'I' for Inactive)
REMARK    1  A    between atoms: N_2  and  C1_3 
ROOT
ATOM      1  C1  UNL d   1       1.227   1.129  -0.373  0.00  0.00     0.143 A 
ATOM      2  C2  UNL d   1       1.272   2.366   0.279  0.00  0.00    -0.057 A 
ATOM      3  C3  UNL d   1       1.308   3.566  -0.441  0.00  0.00     0.033 A 
ATOM      4  C4  UNL d   1       1.330   3.549  -1.832  0.00  0.00    -0.042 A 
ATOM      5  C5  UNL d   1       1.312   2.330  -2.501  0.00  0.00     0.033 A 
ATOM      6  C6  UNL d   1       1.269   1.136  -1.776  0.00  0.00    -0.057 A 
ENDROOT
BRANCH   1   7
ATOM      7  N   UNL d   1       1.290  -0.101   0.287  0.00  0.00    -0.732 N 
ATOM      8  C   UNL d   1       2.561  -0.645   0.713  0.00  0.00     0.284 C 
ATOM      9  H3  UNL d   1       0.539  -0.216   0.964  0.00  0.00     0.395 HD
ENDBRANCH   1   7
TORSDOF 1
ENDMDL
