MODEL 1
REMARK minimizedAffinity 3.57586312
REMARK minimizedRMSD -1
REMARK  1 active torsions:
REMARK  status: ('A' for Active; 'I' for Inactive)
REMARK    1  A    between atoms: N_2  and  C1_3 
ROOT
ATOM      1  C1  UNL d   1       1.374   2.122  -1.331  0.00  0.00     0.143 A 
ATOM      2  C2  UNL d   1       0.915   0.973  -1.983  0.00  0.00    -0.057 A 
ATOM      3  C3  UNL d   1       0.892  -0.269  -1.336  0.00  0.00     0.033 A 
ATOM      4  C4  UNL d   1       1.356  -0.388  -0.031  0.00  0.00    -0.042 A 
ATOM      5  C5  UNL d   1       1.841   0.736   0.629  0.00  0.00     0.033 A 
ATOM      6  C6  UNL d   1       1.855   1.974  -0.020  0.00  0.00    -0.057 A 
ENDROOT
BRANCH   1   7
ATOM      7  N   UNL d   1       1.514   3.366  -1.952  0.00  0.00    -0.732 N 
ATOM      8  C   UNL d   1       1.979   4.515  -1.205  0.00  0.00     0.284 C 
ATOM      9  H3  UNL d   1       1.908   3.290  -2.887  0.00  0.00     0.395 HD
ENDBRANCH   1   7
TORSDOF 1
ENDMDL
