MODEL 1
REMARK minimizedAffinity -2.83924246
REMARK minimizedRMSD -1
REMARK  1 active torsions:
REMARK  status: ('A' for Active; 'I' for Inactive)
REMARK    1  A    between atoms: N_2  and  C1_3 
ROOT
ATOM      1  C1  UNL d   1       1.174   2.265  -1.306  0.00  0.00     0.143 A 
ATOM      2  C2  UNL d   1       1.100   0.981  -1.858  0.00  0.00    -0.057 A 
ATOM      3  C3  UNL d   1       0.909  -0.147  -1.051  0.00  0.00     0.033 A 
ATOM      4  C4  UNL d   1       0.817  -0.013   0.330  0.00  0.00    -0.042 A 
ATOM      5  C5  UNL d   1       0.913   1.250   0.903  0.00  0.00     0.033 A 
ATOM      6  C6  UNL d   1       1.097   2.373   0.091  0.00  0.00    -0.057 A 
ENDROOT
BRANCH   1   7
ATOM      7  N   UNL d   1       1.461   3.414  -2.046  0.00  0.00    -0.732 N 
ATOM      8  C   UNL d   1       1.645   4.689  -1.385  0.00  0.00     0.284 C 
ATOM      9  H3  UNL d   1       2.122   3.237  -2.798  0.00  0.00     0.395 HD
ENDBRANCH   1   7
TORSDOF 1
ENDMDL
