MODEL 1
REMARK minimizedAffinity -2.73064232
REMARK minimizedRMSD -1
REMARK  1 active torsions:
REMARK  status: ('A' for Active; 'I' for Inactive)
REMARK    1  A    between atoms: N_2  and  C1_3 
ROOT
ATOM      1  C1  UNL d   1       1.281   3.264  -1.401  0.00  0.00     0.143 A 
ATOM      2  C2  UNL d   1       1.230   2.082  -2.148  0.00  0.00    -0.057 A 
ATOM      3  C3  UNL d   1       0.956   0.851  -1.540  0.00  0.00     0.033 A 
ATOM      4  C4  UNL d   1       0.758   0.776  -0.165  0.00  0.00    -0.042 A 
ATOM      5  C5  UNL d   1       0.829   1.934   0.600  0.00  0.00     0.033 A 
ATOM      6  C6  UNL d   1       1.096   3.162  -0.014  0.00  0.00    -0.057 A 
ENDROOT
BRANCH   1   7
ATOM      7  N   UNL d   1       1.645   4.504  -1.932  0.00  0.00    -0.732 N 
ATOM      8  C   UNL d   1       1.906   5.631  -1.062  0.00  0.00     0.284 C 
ATOM      9  H3  UNL d   1       2.298   4.418  -2.707  0.00  0.00     0.395 HD
ENDBRANCH   1   7
TORSDOF 1
ENDMDL
