MODEL 1
REMARK minimizedAffinity -3.09284806
REMARK minimizedRMSD -1
REMARK  1 active torsions:
REMARK  status: ('A' for Active; 'I' for Inactive)
REMARK    1  A    between atoms: N_2  and  C1_3 
ROOT
ATOM      1  C1  UNL d   1       1.185   2.185  -0.206  0.00  0.00     0.143 A 
ATOM      2  C2  UNL d   1       1.328   3.288   0.643  0.00  0.00    -0.057 A 
ATOM      3  C3  UNL d   1       1.514   4.578   0.133  0.00  0.00     0.033 A 
ATOM      4  C4  UNL d   1       1.588   4.786  -1.240  0.00  0.00    -0.042 A 
ATOM      5  C5  UNL d   1       1.474   3.701  -2.103  0.00  0.00     0.033 A 
ATOM      6  C6  UNL d   1       1.282   2.416  -1.587  0.00  0.00    -0.057 A 
ENDROOT
BRANCH   1   7
ATOM      7  N   UNL d   1       1.096   0.865   0.241  0.00  0.00    -0.732 N 
ATOM      8  C   UNL d   1       0.490  -0.155  -0.587  0.00  0.00     0.284 C 
ATOM      9  H3  UNL d   1       1.939   0.561   0.725  0.00  0.00     0.395 HD
ENDBRANCH   1   7
TORSDOF 1
ENDMDL
