MODEL 1
REMARK minimizedAffinity 3.91294384
REMARK minimizedRMSD -1
REMARK  1 active torsions:
REMARK  status: ('A' for Active; 'I' for Inactive)
REMARK    1  A    between atoms: N_2  and  C1_3 
ROOT
ATOM      1  C1  UNL d   1       1.566   3.628  -1.775  0.00  0.00     0.143 A 
ATOM      2  C2  UNL d   1       0.184   3.455  -1.900  0.00  0.00    -0.057 A 
ATOM      3  C3  UNL d   1      -0.382   2.179  -2.010  0.00  0.00     0.033 A 
ATOM      4  C4  UNL d   1       0.431   1.051  -2.026  0.00  0.00    -0.042 A 
ATOM      5  C5  UNL d   1       1.810   1.200  -1.929  0.00  0.00     0.033 A 
ATOM      6  C6  UNL d   1       2.368   2.476  -1.812  0.00  0.00    -0.057 A 
ENDROOT
BRANCH   1   7
ATOM      7  N   UNL d   1       2.197   4.875  -1.761  0.00  0.00    -0.732 N 
ATOM      8  C   UNL d   1       2.005   5.785  -0.652  0.00  0.00     0.284 C 
ATOM      9  H3  UNL d   1       3.154   4.829  -2.101  0.00  0.00     0.395 HD
ENDBRANCH   1   7
TORSDOF 1
ENDMDL
