MODEL 1
REMARK minimizedAffinity 16.480629
REMARK minimizedRMSD -1
REMARK  0 active torsions:
REMARK  status: ('A' for Active; 'I' for Inactive)
ROOT
ATOM      1  C1  DEN d   1      -5.096   0.549  -1.422  0.00  0.00     0.130 A 
ATOM      2  C2  DEN d   1      -4.171   0.161  -0.361  0.00  0.00    -0.031 A 
ATOM      3  C3  DEN d   1      -3.430  -1.033  -0.814  0.00  0.00     0.027 A 
ATOM      4  C4  DEN d   1      -3.621  -2.310  -3.047  0.00  0.00     0.027 A 
ATOM      5  C5  DEN d   1      -4.277  -2.364  -4.257  0.00  0.00    -0.003 A 
ATOM      6  C6  DEN d   1      -5.268  -1.478  -4.590  0.00  0.00     0.001 A 
ATOM      7  C7  DEN d   1      -5.600  -0.472  -3.721  0.00  0.00     0.017 A 
ATOM      8  C8  DEN d   1      -4.948  -0.417  -2.496  0.00  0.00    -0.094 A 
ATOM      9  C9  DEN d   1      -3.941  -1.314  -2.183  0.00  0.00    -0.072 A 
ENDROOT
TORSDOF 0
ENDMDL
