MODEL 1
REMARK minimizedAffinity 9.77602386
REMARK minimizedRMSD -1
REMARK  0 active torsions:
REMARK  status: ('A' for Active; 'I' for Inactive)
ROOT
ATOM      1  C1  DEN d   1       3.117  -2.622   3.264  0.00  0.00     0.130 A 
ATOM      2  C2  DEN d   1       3.295  -3.666   2.258  0.00  0.00    -0.031 A 
ATOM      3  C3  DEN d   1       2.044  -3.768   1.480  0.00  0.00     0.027 A 
ATOM      4  C4  DEN d   1      -0.137  -2.415   1.729  0.00  0.00     0.027 A 
ATOM      5  C5  DEN d   1      -0.769  -1.425   2.450  0.00  0.00    -0.003 A 
ATOM      6  C6  DEN d   1      -0.166  -0.794   3.506  0.00  0.00     0.001 A 
ATOM      7  C7  DEN d   1       1.122  -1.114   3.843  0.00  0.00     0.017 A 
ATOM      8  C8  DEN d   1       1.763  -2.116   3.125  0.00  0.00    -0.094 A 
ATOM      9  C9  DEN d   1       1.141  -2.733   2.053  0.00  0.00    -0.072 A 
ENDROOT
TORSDOF 0
ENDMDL
