MODEL 1
REMARK minimizedAffinity 7.6897006
REMARK minimizedRMSD -1
REMARK  0 active torsions:
REMARK  status: ('A' for Active; 'I' for Inactive)
ROOT
ATOM      1  C1  DEN d   1      -4.693   1.143  -1.157  0.00  0.00     0.130 A 
ATOM      2  C2  DEN d   1      -4.012   0.570   0.001  0.00  0.00    -0.031 A 
ATOM      3  C3  DEN d   1      -3.489  -0.756  -0.386  0.00  0.00     0.027 A 
ATOM      4  C4  DEN d   1      -3.663  -1.969  -2.656  0.00  0.00     0.027 A 
ATOM      5  C5  DEN d   1      -4.157  -1.885  -3.939  0.00  0.00    -0.003 A 
ATOM      6  C6  DEN d   1      -4.888  -0.810  -4.370  0.00  0.00     0.001 A 
ATOM      7  C7  DEN d   1      -5.107   0.246  -3.525  0.00  0.00     0.017 A 
ATOM      8  C8  DEN d   1      -4.618   0.165  -2.228  0.00  0.00    -0.094 A 
ATOM      9  C9  DEN d   1      -3.871  -0.924  -1.814  0.00  0.00    -0.072 A 
ENDROOT
TORSDOF 0
ENDMDL
