MODEL 1
REMARK minimizedAffinity 10.8592787
REMARK minimizedRMSD -1
REMARK  0 active torsions:
REMARK  status: ('A' for Active; 'I' for Inactive)
ROOT
ATOM      1  C1  DEN d   1       2.683  -4.441   2.464  0.00  0.00     0.130 A 
ATOM      2  C2  DEN d   1       2.337  -3.024   2.514  0.00  0.00    -0.031 A 
ATOM      3  C3  DEN d   1       2.901  -2.459   3.756  0.00  0.00     0.027 A 
ATOM      4  C4  DEN d   1       4.276  -3.636   5.595  0.00  0.00     0.027 A 
ATOM      5  C5  DEN d   1       4.813  -4.838   5.998  0.00  0.00    -0.003 A 
ATOM      6  C6  DEN d   1       4.651  -5.990   5.275  0.00  0.00     0.001 A 
ATOM      7  C7  DEN d   1       3.972  -5.955   4.086  0.00  0.00     0.017 A 
ATOM      8  C8  DEN d   1       3.421  -4.748   3.676  0.00  0.00    -0.094 A 
ATOM      9  C9  DEN d   1       3.606  -3.592   4.415  0.00  0.00    -0.072 A 
ENDROOT
TORSDOF 0
ENDMDL
