MODEL 1
REMARK minimizedAffinity 15.4204559
REMARK minimizedRMSD -1
REMARK  0 active torsions:
REMARK  status: ('A' for Active; 'I' for Inactive)
ROOT
ATOM      1  C1  DEN d   1      -2.697  -1.730  -1.756  0.00  0.00     0.130 A 
ATOM      2  C2  DEN d   1      -2.567  -0.564  -0.887  0.00  0.00    -0.031 A 
ATOM      3  C3  DEN d   1      -3.642   0.387  -1.235  0.00  0.00     0.027 A 
ATOM      4  C4  DEN d   1      -5.488   0.165  -3.023  0.00  0.00     0.027 A 
ATOM      5  C5  DEN d   1      -5.998  -0.642  -4.016  0.00  0.00    -0.003 A 
ATOM      6  C6  DEN d   1      -5.427  -1.843  -4.346  0.00  0.00     0.001 A 
ATOM      7  C7  DEN d   1      -4.339  -2.292  -3.646  0.00  0.00     0.017 A 
ATOM      8  C8  DEN d   1      -3.815  -1.481  -2.648  0.00  0.00    -0.094 A 
ATOM      9  C9  DEN d   1      -4.413  -0.276  -2.321  0.00  0.00    -0.072 A 
ENDROOT
TORSDOF 0
ENDMDL
