MODEL 1
REMARK minimizedAffinity 1.31207228
REMARK minimizedRMSD -1
REMARK  0 active torsions:
REMARK  status: ('A' for Active; 'I' for Inactive)
ROOT
ATOM      1  C1  DEN d   1       3.446  -4.875   4.741  0.00  0.00     0.130 A 
ATOM      2  C2  DEN d   1       4.674  -5.592   4.411  0.00  0.00    -0.031 A 
ATOM      3  C3  DEN d   1       4.939  -5.405   2.970  0.00  0.00     0.027 A 
ATOM      4  C4  DEN d   1       3.577  -4.077   1.229  0.00  0.00     0.027 A 
ATOM      5  C5  DEN d   1       2.451  -3.308   1.034  0.00  0.00    -0.003 A 
ATOM      6  C6  DEN d   1       1.567  -3.038   2.044  0.00  0.00     0.001 A 
ATOM      7  C7  DEN d   1       1.818  -3.503   3.308  0.00  0.00     0.017 A 
ATOM      8  C8  DEN d   1       2.948  -4.285   3.511  0.00  0.00    -0.094 A 
ATOM      9  C9  DEN d   1       3.836  -4.537   2.479  0.00  0.00    -0.072 A 
ENDROOT
TORSDOF 0
ENDMDL
