MODEL 1
REMARK minimizedAffinity 10.9665031
REMARK minimizedRMSD -1
REMARK  0 active torsions:
REMARK  status: ('A' for Active; 'I' for Inactive)
ROOT
ATOM      1  C1  DEN d   1       2.628  -3.800   0.783  0.00  0.00     0.130 A 
ATOM      2  C2  DEN d   1       3.113  -3.344   2.083  0.00  0.00    -0.031 A 
ATOM      3  C3  DEN d   1       4.516  -3.783   2.226  0.00  0.00     0.027 A 
ATOM      4  C4  DEN d   1       5.977  -5.115   0.569  0.00  0.00     0.027 A 
ATOM      5  C5  DEN d   1       5.999  -5.734  -0.661  0.00  0.00    -0.003 A 
ATOM      6  C6  DEN d   1       4.898  -5.782  -1.474  0.00  0.00     0.001 A 
ATOM      7  C7  DEN d   1       3.741  -5.160  -1.087  0.00  0.00     0.017 A 
ATOM      8  C8  DEN d   1       3.708  -4.539   0.155  0.00  0.00    -0.094 A 
ATOM      9  C9  DEN d   1       4.835  -4.492   0.958  0.00  0.00    -0.072 A 
ENDROOT
TORSDOF 0
ENDMDL
