MODEL 1
REMARK minimizedAffinity -0.245619223
REMARK minimizedRMSD -1
REMARK  0 active torsions:
REMARK  status: ('A' for Active; 'I' for Inactive)
ROOT
ATOM      1  C1  DEN d   1       1.985  -2.861   3.010  0.00  0.00     0.130 A 
ATOM      2  C2  DEN d   1       1.695  -3.336   1.660  0.00  0.00    -0.031 A 
ATOM      3  C3  DEN d   1       2.340  -4.654   1.491  0.00  0.00     0.027 A 
ATOM      4  C4  DEN d   1       3.748  -6.000   3.183  0.00  0.00     0.027 A 
ATOM      5  C5  DEN d   1       4.277  -5.999   4.455  0.00  0.00    -0.003 A 
ATOM      6  C6  DEN d   1       4.109  -4.947   5.315  0.00  0.00     0.001 A 
ATOM      7  C7  DEN d   1       3.356  -3.869   4.930  0.00  0.00     0.017 A 
ATOM      8  C8  DEN d   1       2.826  -3.859   3.647  0.00  0.00    -0.094 A 
ATOM      9  C9  DEN d   1       2.997  -4.938   2.796  0.00  0.00    -0.072 A 
ENDROOT
TORSDOF 0
ENDMDL
