MODEL 1
REMARK minimizedAffinity -1.9529649
REMARK minimizedRMSD -1
REMARK  0 active torsions:
REMARK  status: ('A' for Active; 'I' for Inactive)
ROOT
ATOM      1  C1  DEN d   1       3.378  -4.884   2.008  0.00  0.00     0.130 A 
ATOM      2  C2  DEN d   1       2.485  -3.728   1.988  0.00  0.00    -0.031 A 
ATOM      3  C3  DEN d   1       2.430  -3.170   3.354  0.00  0.00     0.027 A 
ATOM      4  C4  DEN d   1       3.639  -3.976   5.485  0.00  0.00     0.027 A 
ATOM      5  C5  DEN d   1       4.495  -4.924   6.000  0.00  0.00    -0.003 A 
ATOM      6  C6  DEN d   1       5.007  -5.938   5.234  0.00  0.00     0.001 A 
ATOM      7  C7  DEN d   1       4.704  -6.000   3.899  0.00  0.00     0.017 A 
ATOM      8  C8  DEN d   1       3.836  -5.051   3.375  0.00  0.00    -0.094 A 
ATOM      9  C9  DEN d   1       3.338  -4.027   4.163  0.00  0.00    -0.072 A 
ENDROOT
TORSDOF 0
ENDMDL
