MODEL 1
REMARK minimizedAffinity -3.74502921
REMARK minimizedRMSD -1
REMARK  0 active torsions:
REMARK  status: ('A' for Active; 'I' for Inactive)
ROOT
ATOM      1  C   UNL d   1      -0.043  -2.615   0.749  0.00  0.00     0.020 A 
ATOM      2  C1  UNL d   1       1.344  -2.689   0.628  0.00  0.00     0.020 A 
ATOM      3  C2  UNL d   1       2.078  -1.548   0.298  0.00  0.00     0.034 A 
ATOM      4  C3  UNL d   1       1.425  -0.328   0.088  0.00  0.00     0.017 A 
ATOM      5  C4  UNL d   1       0.033  -0.254   0.210  0.00  0.00     0.017 A 
ATOM      6  C5  UNL d   1      -0.697  -1.400   0.541  0.00  0.00     0.034 A 
ATOM      7 Cl   UNL d   1      -0.842   1.216  -0.034  0.00  0.00    -0.070 Cl
ATOM      8 Cl1  UNL d   1       2.396   1.043  -0.317  0.00  0.00    -0.070 Cl
ENDROOT
TORSDOF 0
ENDMDL
