MODEL 1
REMARK minimizedAffinity -4.13159895
REMARK minimizedRMSD -1
REMARK  0 active torsions:
REMARK  status: ('A' for Active; 'I' for Inactive)
ROOT
ATOM      1  C   UNL d   1      -0.293   1.616   0.338  0.00  0.00     0.020 A 
ATOM      2  C1  UNL d   1      -1.085   0.598   0.868  0.00  0.00     0.020 A 
ATOM      3  C2  UNL d   1      -0.620  -0.719   0.869  0.00  0.00     0.034 A 
ATOM      4  C3  UNL d   1       0.639  -1.021   0.339  0.00  0.00     0.017 A 
ATOM      5  C4  UNL d   1       1.433   0.001  -0.193  0.00  0.00     0.017 A 
ATOM      6  C5  UNL d   1       0.963   1.318  -0.191  0.00  0.00     0.034 A 
ATOM      7 Cl   UNL d   1       2.998  -0.295  -0.865  0.00  0.00    -0.070 Cl
ATOM      8 Cl1  UNL d   1       1.150  -2.672   0.373  0.00  0.00    -0.070 Cl
ENDROOT
TORSDOF 0
ENDMDL
