MODEL 1
REMARK minimizedAffinity -4.86690235
REMARK minimizedRMSD -1
REMARK  0 active torsions:
REMARK  status: ('A' for Active; 'I' for Inactive)
ROOT
ATOM      1  C   UNL d   1      -0.009   1.529   0.045  0.00  0.00     0.020 A 
ATOM      2  C1  UNL d   1       1.240   1.148  -0.445  0.00  0.00     0.020 A 
ATOM      3  C2  UNL d   1       1.744  -0.122  -0.160  0.00  0.00     0.034 A 
ATOM      4  C3  UNL d   1       0.999  -1.017   0.618  0.00  0.00     0.017 A 
ATOM      5  C4  UNL d   1      -0.254  -0.633   1.109  0.00  0.00     0.017 A 
ATOM      6  C5  UNL d   1      -0.754   0.640   0.820  0.00  0.00     0.034 A 
ATOM      7 Cl   UNL d   1      -1.232  -1.682   2.075  0.00  0.00    -0.070 Cl
ATOM      8 Cl1  UNL d   1       1.683  -2.572   0.931  0.00  0.00    -0.070 Cl
ENDROOT
TORSDOF 0
ENDMDL
