MODEL 1
REMARK minimizedAffinity -3.88697815
REMARK minimizedRMSD -1
REMARK  0 active torsions:
REMARK  status: ('A' for Active; 'I' for Inactive)
ROOT
ATOM      1  C   UNL d   1      -0.681   1.118   0.989  0.00  0.00     0.020 A 
ATOM      2  C1  UNL d   1      -1.487   0.026   1.308  0.00  0.00     0.020 A 
ATOM      3  C2  UNL d   1      -0.987  -1.272   1.179  0.00  0.00     0.034 A 
ATOM      4  C3  UNL d   1       0.322  -1.481   0.730  0.00  0.00     0.017 A 
ATOM      5  C4  UNL d   1       1.130  -0.384   0.410  0.00  0.00     0.017 A 
ATOM      6  C5  UNL d   1       0.625   0.914   0.541  0.00  0.00     0.034 A 
ATOM      7 Cl   UNL d   1       2.756  -0.562  -0.150  0.00  0.00    -0.070 Cl
ATOM      8 Cl1  UNL d   1       0.875  -3.112   0.595  0.00  0.00    -0.070 Cl
ENDROOT
TORSDOF 0
ENDMDL
