MODEL 1
REMARK minimizedAffinity -2.02379036
REMARK minimizedRMSD -1
REMARK  0 active torsions:
REMARK  status: ('A' for Active; 'I' for Inactive)
ROOT
ATOM      1  C   UNL d   1       2.223  -1.857  -0.459  0.00  0.00     0.020 A 
ATOM      2  C1  UNL d   1       1.666  -2.597   0.583  0.00  0.00     0.020 A 
ATOM      3  C2  UNL d   1       0.527  -2.127   1.241  0.00  0.00     0.034 A 
ATOM      4  C3  UNL d   1      -0.058  -0.915   0.859  0.00  0.00     0.017 A 
ATOM      5  C4  UNL d   1       0.503  -0.173  -0.187  0.00  0.00     0.017 A 
ATOM      6  C5  UNL d   1       1.643  -0.647  -0.843  0.00  0.00     0.034 A 
ATOM      7 Cl   UNL d   1      -0.163   1.332  -0.716  0.00  0.00    -0.070 Cl
ATOM      8 Cl1  UNL d   1      -1.465  -0.395   1.716  0.00  0.00    -0.070 Cl
ENDROOT
TORSDOF 0
ENDMDL
