MODEL 1
REMARK minimizedAffinity -4.56979895
REMARK minimizedRMSD -1
REMARK  0 active torsions:
REMARK  status: ('A' for Active; 'I' for Inactive)
ROOT
ATOM      1  C   UNL d   1       0.652  -2.281   1.057  0.00  0.00     0.020 A 
ATOM      2  C1  UNL d   1       1.129  -1.752  -0.141  0.00  0.00     0.020 A 
ATOM      3  C2  UNL d   1       0.608  -0.552  -0.631  0.00  0.00     0.034 A 
ATOM      4  C3  UNL d   1      -0.394   0.122   0.078  0.00  0.00     0.017 A 
ATOM      5  C4  UNL d   1      -0.872  -0.411   1.280  0.00  0.00     0.017 A 
ATOM      6  C5  UNL d   1      -0.347  -1.612   1.766  0.00  0.00     0.034 A 
ATOM      7 Cl   UNL d   1      -2.106   0.363   2.211  0.00  0.00    -0.070 Cl
ATOM      8 Cl1  UNL d   1      -0.992   1.600  -0.587  0.00  0.00    -0.070 Cl
ENDROOT
TORSDOF 0
ENDMDL
