MODEL 1
REMARK minimizedAffinity -4.6238184
REMARK minimizedRMSD -1
REMARK  0 active torsions:
REMARK  status: ('A' for Active; 'I' for Inactive)
ROOT
ATOM      1  C   UNL d   1       1.417   0.764  -0.733  0.00  0.00     0.020 A 
ATOM      2  C1  UNL d   1       0.085   1.027  -0.420  0.00  0.00     0.020 A 
ATOM      3  C2  UNL d   1      -0.646   0.116   0.346  0.00  0.00     0.034 A 
ATOM      4  C3  UNL d   1      -0.045  -1.063   0.801  0.00  0.00     0.017 A 
ATOM      5  C4  UNL d   1       1.293  -1.327   0.486  0.00  0.00     0.017 A 
ATOM      6  C5  UNL d   1       2.020  -0.411  -0.281  0.00  0.00     0.034 A 
ATOM      7 Cl   UNL d   1       2.104  -2.760   1.011  0.00  0.00    -0.070 Cl
ATOM      8 Cl1  UNL d   1      -1.008  -2.144   1.744  0.00  0.00    -0.070 Cl
ENDROOT
TORSDOF 0
ENDMDL
