MODEL 1
REMARK minimizedAffinity -2.7227087
REMARK minimizedRMSD -1
REMARK  0 active torsions:
REMARK  status: ('A' for Active; 'I' for Inactive)
ROOT
ATOM      1  C   UNL d   1       1.381  -2.265   0.726  0.00  0.00     0.020 A 
ATOM      2  C1  UNL d   1      -0.008  -2.173   0.800  0.00  0.00     0.020 A 
ATOM      3  C2  UNL d   1      -0.648  -0.979   0.458  0.00  0.00     0.034 A 
ATOM      4  C3  UNL d   1       0.102   0.126   0.039  0.00  0.00     0.017 A 
ATOM      5  C4  UNL d   1       1.496   0.032  -0.035  0.00  0.00     0.017 A 
ATOM      6  C5  UNL d   1       2.132  -1.165   0.309  0.00  0.00     0.034 A 
ATOM      7 Cl   UNL d   1       2.488   1.354  -0.543  0.00  0.00    -0.070 Cl
ATOM      8 Cl1  UNL d   1      -0.755   1.570  -0.369  0.00  0.00    -0.070 Cl
ENDROOT
TORSDOF 0
ENDMDL
