MODEL 1
REMARK minimizedAffinity -3.64205456
REMARK minimizedRMSD -1
REMARK  0 active torsions:
REMARK  status: ('A' for Active; 'I' for Inactive)
ROOT
ATOM      1  C   UNL d   1       1.449  -1.358   0.876  0.00  0.00     0.020 A 
ATOM      2  C1  UNL d   1       2.024  -0.768  -0.249  0.00  0.00     0.020 A 
ATOM      3  C2  UNL d   1       1.395   0.313  -0.869  0.00  0.00     0.034 A 
ATOM      4  C3  UNL d   1       0.187   0.808  -0.365  0.00  0.00     0.017 A 
ATOM      5  C4  UNL d   1      -0.390   0.216   0.764  0.00  0.00     0.017 A 
ATOM      6  C5  UNL d   1       0.245  -0.866   1.382  0.00  0.00     0.034 A 
ATOM      7 Cl   UNL d   1      -1.878   0.772   1.444  0.00  0.00    -0.070 Cl
ATOM      8 Cl1  UNL d   1      -0.535   2.148  -1.182  0.00  0.00    -0.070 Cl
ENDROOT
TORSDOF 0
ENDMDL
