MODEL 1
REMARK minimizedAffinity -4.20225048
REMARK minimizedRMSD -1
REMARK  0 active torsions:
REMARK  status: ('A' for Active; 'I' for Inactive)
ROOT
ATOM      1  C   UNL d   1       0.746   0.678  -1.034  0.00  0.00     0.020 A 
ATOM      2  C1  UNL d   1      -0.430   1.188  -0.486  0.00  0.00     0.020 A 
ATOM      3  C2  UNL d   1      -1.072   0.504   0.549  0.00  0.00     0.034 A 
ATOM      4  C3  UNL d   1      -0.537  -0.693   1.039  0.00  0.00     0.017 A 
ATOM      5  C4  UNL d   1       0.644  -1.204   0.488  0.00  0.00     0.017 A 
ATOM      6  C5  UNL d   1       1.282  -0.515  -0.548  0.00  0.00     0.034 A 
ATOM      7 Cl   UNL d   1       1.364  -2.675   1.040  0.00  0.00    -0.070 Cl
ATOM      8 Cl1  UNL d   1      -1.383  -1.486   2.321  0.00  0.00    -0.070 Cl
ENDROOT
TORSDOF 0
ENDMDL
