MODEL 1
REMARK minimizedAffinity -3.01491141
REMARK minimizedRMSD -1
REMARK  0 active torsions:
REMARK  status: ('A' for Active; 'I' for Inactive)
ROOT
ATOM      1  C   UNL d   1       1.504  -2.132   0.503  0.00  0.00     0.020 A 
ATOM      2  C1  UNL d   1       0.137  -2.173   0.779  0.00  0.00     0.020 A 
ATOM      3  C2  UNL d   1      -0.657  -1.050   0.541  0.00  0.00     0.034 A 
ATOM      4  C3  UNL d   1      -0.086   0.120   0.027  0.00  0.00     0.017 A 
ATOM      5  C4  UNL d   1       1.286   0.161  -0.249  0.00  0.00     0.017 A 
ATOM      6  C5  UNL d   1       2.076  -0.967  -0.009  0.00  0.00     0.034 A 
ATOM      7 Cl   UNL d   1       2.062   1.568  -0.885  0.00  0.00    -0.070 Cl
ATOM      8 Cl1  UNL d   1      -1.128   1.472  -0.243  0.00  0.00    -0.070 Cl
ENDROOT
TORSDOF 0
ENDMDL
