MODEL 1
REMARK minimizedAffinity -3.58248591
REMARK minimizedRMSD -1
REMARK  0 active torsions:
REMARK  status: ('A' for Active; 'I' for Inactive)
ROOT
ATOM      1  C   UNL d   1      -0.064   1.269  -0.510  0.00  0.00     0.020 A 
ATOM      2  C1  UNL d   1       1.165   0.816  -0.987  0.00  0.00     0.020 A 
ATOM      3  C2  UNL d   1       1.657  -0.426  -0.580  0.00  0.00     0.034 A 
ATOM      4  C3  UNL d   1       0.919  -1.220   0.306  0.00  0.00     0.017 A 
ATOM      5  C4  UNL d   1      -0.315  -0.763   0.784  0.00  0.00     0.017 A 
ATOM      6  C5  UNL d   1      -0.803   0.481   0.373  0.00  0.00     0.034 A 
ATOM      7 Cl   UNL d   1      -1.283  -1.686   1.880  0.00  0.00    -0.070 Cl
ATOM      8 Cl1  UNL d   1       1.587  -2.745   0.766  0.00  0.00    -0.070 Cl
ENDROOT
TORSDOF 0
ENDMDL
