MODEL 1
REMARK minimizedAffinity -4.01741171
REMARK minimizedRMSD -1
REMARK  0 active torsions:
REMARK  status: ('A' for Active; 'I' for Inactive)
ROOT
ATOM      1  C   UNL d   1      -1.139   0.030   1.125  0.00  0.00     0.020 A 
ATOM      2  C1  UNL d   1      -0.608   1.048   0.335  0.00  0.00     0.020 A 
ATOM      3  C2  UNL d   1       0.529   0.808  -0.441  0.00  0.00     0.034 A 
ATOM      4  C3  UNL d   1       1.138  -0.452  -0.427  0.00  0.00     0.017 A 
ATOM      5  C4  UNL d   1       0.603  -1.473   0.367  0.00  0.00     0.017 A 
ATOM      6  C5  UNL d   1      -0.535  -1.228   1.141  0.00  0.00     0.034 A 
ATOM      7 Cl   UNL d   1       1.298  -3.054   0.436  0.00  0.00    -0.070 Cl
ATOM      8 Cl1  UNL d   1       2.540  -0.678  -1.410  0.00  0.00    -0.070 Cl
ENDROOT
TORSDOF 0
ENDMDL
