MODEL 1
REMARK minimizedAffinity -4.83968449
REMARK minimizedRMSD -1
REMARK  0 active torsions:
REMARK  status: ('A' for Active; 'I' for Inactive)
ROOT
ATOM      1  C   UNL d   1       1.848  -1.044  -0.799  0.00  0.00     0.020 A 
ATOM      2  C1  UNL d   1       1.700  -2.144   0.045  0.00  0.00     0.020 A 
ATOM      3  C2  UNL d   1       0.638  -2.191   0.951  0.00  0.00     0.034 A 
ATOM      4  C3  UNL d   1      -0.281  -1.137   1.014  0.00  0.00     0.017 A 
ATOM      5  C4  UNL d   1      -0.132  -0.033   0.166  0.00  0.00     0.017 A 
ATOM      6  C5  UNL d   1       0.934   0.009  -0.739  0.00  0.00     0.034 A 
ATOM      7 Cl   UNL d   1      -1.225   1.305   0.185  0.00  0.00    -0.070 Cl
ATOM      8 Cl1  UNL d   1      -1.570  -1.262   2.157  0.00  0.00    -0.070 Cl
ENDROOT
TORSDOF 0
ENDMDL
