MODEL 1
REMARK minimizedAffinity -3.79803419
REMARK minimizedRMSD -1
REMARK  0 active torsions:
REMARK  status: ('A' for Active; 'I' for Inactive)
ROOT
ATOM      1  C   UNL d   1      -1.028   0.816   0.738  0.00  0.00     0.020 A 
ATOM      2  C1  UNL d   1      -1.471  -0.313   1.426  0.00  0.00     0.020 A 
ATOM      3  C2  UNL d   1      -0.679  -1.463   1.464  0.00  0.00     0.034 A 
ATOM      4  C3  UNL d   1       0.560  -1.486   0.813  0.00  0.00     0.017 A 
ATOM      5  C4  UNL d   1       1.003  -0.353   0.122  0.00  0.00     0.017 A 
ATOM      6  C5  UNL d   1       0.207   0.796   0.088  0.00  0.00     0.034 A 
ATOM      7 Cl   UNL d   1       2.520  -0.306  -0.705  0.00  0.00    -0.070 Cl
ATOM      8 Cl1  UNL d   1       1.487  -2.942   0.902  0.00  0.00    -0.070 Cl
ENDROOT
TORSDOF 0
ENDMDL
