MODEL 1
REMARK minimizedAffinity -3.50983238
REMARK minimizedRMSD -1
REMARK  0 active torsions:
REMARK  status: ('A' for Active; 'I' for Inactive)
ROOT
ATOM      1  C   UNL d   1       0.096  -1.825   1.437  0.00  0.00     0.020 A 
ATOM      2  C1  UNL d   1       1.478  -1.952   1.302  0.00  0.00     0.020 A 
ATOM      3  C2  UNL d   1       2.176  -1.103   0.439  0.00  0.00     0.034 A 
ATOM      4  C3  UNL d   1       1.492  -0.125  -0.292  0.00  0.00     0.017 A 
ATOM      5  C4  UNL d   1       0.105   0.001  -0.156  0.00  0.00     0.017 A 
ATOM      6  C5  UNL d   1      -0.589  -0.851   0.709  0.00  0.00     0.034 A 
ATOM      7 Cl   UNL d   1      -0.808   1.184  -1.024  0.00  0.00    -0.070 Cl
ATOM      8 Cl1  UNL d   1       2.419   0.889  -1.340  0.00  0.00    -0.070 Cl
ENDROOT
TORSDOF 0
ENDMDL
