MODEL 1
REMARK minimizedAffinity -3.04697657
REMARK minimizedRMSD -1
REMARK  0 active torsions:
REMARK  status: ('A' for Active; 'I' for Inactive)
ROOT
ATOM      1  C   UNL d   1       1.835  -1.938   0.166  0.00  0.00     0.020 A 
ATOM      2  C1  UNL d   1       1.958  -0.910  -0.767  0.00  0.00     0.020 A 
ATOM      3  C2  UNL d   1       1.029   0.133  -0.782  0.00  0.00     0.034 A 
ATOM      4  C3  UNL d   1      -0.026   0.150   0.138  0.00  0.00     0.017 A 
ATOM      5  C4  UNL d   1      -0.147  -0.883   1.074  0.00  0.00     0.017 A 
ATOM      6  C5  UNL d   1       0.785  -1.925   1.085  0.00  0.00     0.034 A 
ATOM      7 Cl   UNL d   1      -1.422  -0.931   2.241  0.00  0.00    -0.070 Cl
ATOM      8 Cl1  UNL d   1      -1.137   1.471   0.062  0.00  0.00    -0.070 Cl
ENDROOT
TORSDOF 0
ENDMDL
