MODEL 1
REMARK minimizedAffinity -1.74557281
REMARK minimizedRMSD -1
REMARK  0 active torsions:
REMARK  status: ('A' for Active; 'I' for Inactive)
ROOT
ATOM      1  C   UNL d   1      -0.052  -2.468   0.652  0.00  0.00     0.020 A 
ATOM      2  C1  UNL d   1       1.340  -2.508   0.566  0.00  0.00     0.020 A 
ATOM      3  C2  UNL d   1       2.050  -1.360   0.206  0.00  0.00     0.034 A 
ATOM      4  C3  UNL d   1       1.369  -0.169  -0.071  0.00  0.00     0.017 A 
ATOM      5  C4  UNL d   1      -0.028  -0.131   0.015  0.00  0.00     0.017 A 
ATOM      6  C5  UNL d   1      -0.734  -1.283   0.377  0.00  0.00     0.034 A 
ATOM      7 Cl   UNL d   1      -0.937   1.302  -0.311  0.00  0.00    -0.070 Cl
ATOM      8 Cl1  UNL d   1       2.311   1.211  -0.510  0.00  0.00    -0.070 Cl
ENDROOT
TORSDOF 0
ENDMDL
