MODEL 1
REMARK minimizedAffinity -2.4676137
REMARK minimizedRMSD -1
REMARK  0 active torsions:
REMARK  status: ('A' for Active; 'I' for Inactive)
ROOT
ATOM      1  C   UNL d   1       0.778   0.626  -1.110  0.00  0.00     0.020 A 
ATOM      2  C1  UNL d   1      -0.450   1.109  -0.658  0.00  0.00     0.020 A 
ATOM      3  C2  UNL d   1      -1.072   0.515   0.442  0.00  0.00     0.034 A 
ATOM      4  C3  UNL d   1      -0.467  -0.565   1.094  0.00  0.00     0.017 A 
ATOM      5  C4  UNL d   1       0.765  -1.049   0.640  0.00  0.00     0.017 A 
ATOM      6  C5  UNL d   1       1.384  -0.451  -0.462  0.00  0.00     0.034 A 
ATOM      7 Cl   UNL d   1       1.574  -2.379   1.394  0.00  0.00    -0.070 Cl
ATOM      8 Cl1  UNL d   1      -1.292  -1.251   2.449  0.00  0.00    -0.070 Cl
ENDROOT
TORSDOF 0
ENDMDL
