MODEL 1
REMARK minimizedAffinity -3.30529308
REMARK minimizedRMSD -1
REMARK  0 active torsions:
REMARK  status: ('A' for Active; 'I' for Inactive)
ROOT
ATOM      1  C   UNL d   1       1.653   0.333  -3.420  0.00  0.00     0.172 C 
ATOM      2  N   UNL d   1       0.459  -0.040  -4.140  0.00  0.00    -0.070 N 
ATOM      3  C1  UNL d   1      -0.301  -1.155  -3.905  0.00  0.00    -0.004 A 
ATOM      4  C2  UNL d   1      -1.349  -1.148  -4.800  0.00  0.00    -0.047 A 
ATOM      5  C3  UNL d   1      -1.214   0.010  -5.601  0.00  0.00    -0.047 A 
ATOM      6  C4  UNL d   1      -0.087   0.678  -5.171  0.00  0.00    -0.004 A 
ENDROOT
TORSDOF 0
ENDMDL
