MODEL 1
REMARK minimizedAffinity -2.0389936
REMARK minimizedRMSD -1
REMARK  0 active torsions:
REMARK  status: ('A' for Active; 'I' for Inactive)
ROOT
ATOM      1  C   UNL d   1       0.701  -0.917  -1.663  0.00  0.00     0.172 C 
ATOM      2  N   UNL d   1       0.713  -0.149  -2.886  0.00  0.00    -0.070 N 
ATOM      3  C1  UNL d   1       1.805   0.480  -3.423  0.00  0.00    -0.004 A 
ATOM      4  C2  UNL d   1       1.404   1.100  -4.587  0.00  0.00    -0.047 A 
ATOM      5  C3  UNL d   1       0.025   0.835  -4.755  0.00  0.00    -0.047 A 
ATOM      6  C4  UNL d   1      -0.378   0.060  -3.688  0.00  0.00    -0.004 A 
ENDROOT
TORSDOF 0
ENDMDL
