MODEL 1
REMARK minimizedAffinity -3.03970075
REMARK minimizedRMSD -1
REMARK  0 active torsions:
REMARK  status: ('A' for Active; 'I' for Inactive)
ROOT
ATOM      1  C   UNL d   1       0.396  -0.585  -0.643  0.00  0.00     0.172 C 
ATOM      2  N   UNL d   1      -0.099   0.105   0.525  0.00  0.00    -0.070 N 
ATOM      3  C1  UNL d   1      -1.418   0.266   0.858  0.00  0.00    -0.004 A 
ATOM      4  C2  UNL d   1      -1.471   0.976   2.037  0.00  0.00    -0.047 A 
ATOM      5  C3  UNL d   1      -0.139   1.253   2.426  0.00  0.00    -0.047 A 
ATOM      6  C4  UNL d   1       0.690   0.702   1.472  0.00  0.00    -0.004 A 
ENDROOT
TORSDOF 0
ENDMDL
