MODEL 1
REMARK minimizedAffinity -3.65705967
REMARK minimizedRMSD -1
REMARK  0 active torsions:
REMARK  status: ('A' for Active; 'I' for Inactive)
ROOT
ATOM      1  C   UNL d   1       0.353  -0.505  -1.884  0.00  0.00     0.172 C 
ATOM      2  N   UNL d   1       0.296   0.079  -3.203  0.00  0.00    -0.070 N 
ATOM      3  C1  UNL d   1      -0.793   0.073  -4.033  0.00  0.00    -0.004 A 
ATOM      4  C2  UNL d   1      -0.443   0.729  -5.193  0.00  0.00    -0.047 A 
ATOM      5  C3  UNL d   1       0.903   1.143  -5.057  0.00  0.00    -0.047 A 
ATOM      6  C4  UNL d   1       1.336   0.727  -3.815  0.00  0.00    -0.004 A 
ENDROOT
TORSDOF 0
ENDMDL
