MODEL 1
REMARK minimizedAffinity -2.6141367
REMARK minimizedRMSD -1
REMARK  1 active torsions:
REMARK  status: ('A' for Active; 'I' for Inactive)
REMARK    1  A    between atoms: C3_4  and  O_7 
ROOT
ATOM      1  C   UNL d   1       1.621  -2.390   1.914  0.00  0.00    -0.033 A 
ATOM      2  C1  UNL d   1       0.236  -2.341   1.745  0.00  0.00     0.039 A 
ATOM      3  C2  UNL d   1      -0.350  -1.265   1.075  0.00  0.00    -0.080 A 
ATOM      4  C3  UNL d   1       0.460  -0.247   0.579  0.00  0.00     0.150 A 
ATOM      5  C4  UNL d   1       1.841  -0.291   0.741  0.00  0.00    -0.007 A 
ATOM      6  C5  UNL d   1       2.423  -1.366   1.411  0.00  0.00     0.039 A 
ENDROOT
BRANCH   4   7
ATOM      7  O   UNL d   1      -0.066   0.826  -0.077  0.00  0.00    -0.526 OA
ATOM      8  H5  UNL d   1      -1.034   0.736  -0.089  0.00  0.00     0.418 HD
ENDBRANCH   4   7
TORSDOF 1
ENDMDL
