MODEL 1
REMARK minimizedAffinity -4.54344893
REMARK minimizedRMSD -1
REMARK  1 active torsions:
REMARK  status: ('A' for Active; 'I' for Inactive)
REMARK    1  A    between atoms: C3_4  and  O_7 
ROOT
ATOM      1  C   UNL d   1      -0.383  -0.024   0.205  0.00  0.00    -0.033 A 
ATOM      2  C1  UNL d   1       0.289  -1.245   0.118  0.00  0.00     0.039 A 
ATOM      3  C2  UNL d   1       1.682  -1.284   0.194  0.00  0.00    -0.080 A 
ATOM      4  C3  UNL d   1       2.391  -0.097   0.357  0.00  0.00     0.150 A 
ATOM      5  C4  UNL d   1       1.728   1.122   0.448  0.00  0.00    -0.007 A 
ATOM      6  C5  UNL d   1       0.336   1.159   0.371  0.00  0.00     0.039 A 
ENDROOT
BRANCH   4   7
ATOM      7  O   UNL d   1       3.752  -0.085   0.432  0.00  0.00    -0.526 OA
ATOM      8  H5  UNL d   1       4.075  -0.995   0.325  0.00  0.00     0.418 HD
ENDBRANCH   4   7
TORSDOF 1
ENDMDL
