MODEL 1
REMARK minimizedAffinity -2.19971728
REMARK minimizedRMSD -1
REMARK  1 active torsions:
REMARK  status: ('A' for Active; 'I' for Inactive)
REMARK    1  A    between atoms: C3_4  and  O_7 
ROOT
ATOM      1  C   UNL d   1       3.355  -0.480   0.829  0.00  0.00    -0.033 A 
ATOM      2  C1  UNL d   1       2.742   0.547   1.548  0.00  0.00     0.039 A 
ATOM      3  C2  UNL d   1       1.469   0.993   1.186  0.00  0.00    -0.080 A 
ATOM      4  C3  UNL d   1       0.821   0.403   0.105  0.00  0.00     0.150 A 
ATOM      5  C4  UNL d   1       1.423  -0.624  -0.614  0.00  0.00    -0.007 A 
ATOM      6  C5  UNL d   1       2.695  -1.067  -0.251  0.00  0.00     0.039 A 
ENDROOT
BRANCH   4   7
ATOM      7  O   UNL d   1      -0.420   0.807  -0.288  0.00  0.00    -0.526 OA
ATOM      8  H5  UNL d   1      -0.700   1.543   0.282  0.00  0.00     0.418 HD
ENDBRANCH   4   7
TORSDOF 1
ENDMDL
