MODEL 1
REMARK minimizedAffinity -5.0876832
REMARK minimizedRMSD -1
REMARK  1 active torsions:
REMARK  status: ('A' for Active; 'I' for Inactive)
REMARK    1  A    between atoms: C3_4  and  O_7 
ROOT
ATOM      1  C   UNL d   1      -0.437  -0.048   0.101  0.00  0.00    -0.033 A 
ATOM      2  C1  UNL d   1       0.159  -1.210   0.593  0.00  0.00     0.039 A 
ATOM      3  C2  UNL d   1       1.547  -1.280   0.731  0.00  0.00    -0.080 A 
ATOM      4  C3  UNL d   1       2.325  -0.182   0.375  0.00  0.00     0.150 A 
ATOM      5  C4  UNL d   1       1.737   0.981  -0.112  0.00  0.00    -0.007 A 
ATOM      6  C5  UNL d   1       0.351   1.048  -0.250  0.00  0.00     0.039 A 
ENDROOT
BRANCH   4   7
ATOM      7  O   UNL d   1       3.684  -0.205   0.488  0.00  0.00    -0.526 OA
ATOM      8  H5  UNL d   1       3.951  -1.082   0.810  0.00  0.00     0.418 HD
ENDBRANCH   4   7
TORSDOF 1
ENDMDL
