MODEL 1
REMARK minimizedAffinity -4.58064508
REMARK minimizedRMSD -1
REMARK  1 active torsions:
REMARK  status: ('A' for Active; 'I' for Inactive)
REMARK    1  A    between atoms: C3_4  and  O_7 
ROOT
ATOM      1  C   UNL d   1      -0.386   0.400  -0.008  0.00  0.00    -0.033 A 
ATOM      2  C1  UNL d   1       0.119  -0.901  -0.008  0.00  0.00     0.039 A 
ATOM      3  C2  UNL d   1       1.484  -1.122   0.188  0.00  0.00    -0.080 A 
ATOM      4  C3  UNL d   1       2.331  -0.035   0.386  0.00  0.00     0.150 A 
ATOM      5  C4  UNL d   1       1.834   1.264   0.391  0.00  0.00    -0.007 A 
ATOM      6  C5  UNL d   1       0.471   1.483   0.194  0.00  0.00     0.039 A 
ENDROOT
BRANCH   4   7
ATOM      7  O   UNL d   1       3.670  -0.201   0.577  0.00  0.00    -0.526 OA
ATOM      8  H5  UNL d   1       3.874  -1.149   0.519  0.00  0.00     0.418 HD
ENDBRANCH   4   7
TORSDOF 1
ENDMDL
