MODEL 1
REMARK minimizedAffinity -2.7538054
REMARK minimizedRMSD -1
REMARK  1 active torsions:
REMARK  status: ('A' for Active; 'I' for Inactive)
REMARK    1  A    between atoms: C3_4  and  O_7 
ROOT
ATOM      1  C   UNL d   1      -0.896   0.046   0.397  0.00  0.00    -0.033 A 
ATOM      2  C1  UNL d   1      -0.123   1.145   0.014  0.00  0.00     0.039 A 
ATOM      3  C2  UNL d   1       1.269   1.088   0.110  0.00  0.00    -0.080 A 
ATOM      4  C3  UNL d   1       1.875  -0.070   0.588  0.00  0.00     0.150 A 
ATOM      5  C4  UNL d   1       1.111  -1.169   0.967  0.00  0.00    -0.007 A 
ATOM      6  C5  UNL d   1      -0.279  -1.111   0.872  0.00  0.00     0.039 A 
ENDROOT
BRANCH   4   7
ATOM      7  O   UNL d   1       3.229  -0.170   0.704  0.00  0.00    -0.526 OA
ATOM      8  H5  UNL d   1       3.625   0.675   0.432  0.00  0.00     0.418 HD
ENDBRANCH   4   7
TORSDOF 1
ENDMDL
