MODEL 1
REMARK minimizedAffinity 5.0053916
REMARK minimizedRMSD -1
REMARK  0 active torsions:
REMARK  status: ('A' for Active; 'I' for Inactive)
ROOT
ATOM      1  N1  IND d   1      -2.832   5.990  -2.296  0.00  0.00    -0.196 N 
ATOM      2  C2  IND d   1      -3.972   5.986  -3.051  0.00  0.00     0.054 A 
ATOM      3  C3  IND d   1      -3.664   6.000  -4.367  0.00  0.00    -0.031 A 
ATOM      4  C4  IND d   1      -1.358   5.926  -5.510  0.00  0.00     0.051 A 
ATOM      5  C5  IND d   1      -0.020   5.957  -5.237  0.00  0.00    -0.031 A 
ATOM      6  C6  IND d   1       0.460   5.999  -3.943  0.00  0.00     0.015 A 
ATOM      7  C7  IND d   1      -0.385   5.999  -2.870  0.00  0.00    -0.016 A 
ATOM      8  C8  IND d   1      -1.745   5.975  -3.143  0.00  0.00    -0.047 A 
ATOM      9  C9  IND d   1      -2.239   5.976  -4.455  0.00  0.00    -0.096 A 
ATOM     10  HN1 IND d   1      -2.799   5.999  -1.437  0.00  0.00     0.298 HD
ENDROOT
TORSDOF 0
ENDMDL
