MODEL 1
REMARK minimizedAffinity -2.98789382
REMARK minimizedRMSD -1
REMARK  0 active torsions:
REMARK  status: ('A' for Active; 'I' for Inactive)
ROOT
ATOM      1  N1  IND d   1      -1.500   5.935  -6.000  0.00  0.00    -0.196 N 
ATOM      2  C2  IND d   1      -0.152   5.948  -5.772  0.00  0.00     0.054 A 
ATOM      3  C3  IND d   1       0.100   5.999  -4.445  0.00  0.00    -0.031 A 
ATOM      4  C4  IND d   1      -1.545   5.963  -2.465  0.00  0.00     0.051 A 
ATOM      5  C5  IND d   1      -2.880   5.991  -2.173  0.00  0.00    -0.031 A 
ATOM      6  C6  IND d   1      -3.842   5.999  -3.162  0.00  0.00     0.015 A 
ATOM      7  C7  IND d   1      -3.505   5.968  -4.485  0.00  0.00    -0.016 A 
ATOM      8  C8  IND d   1      -2.150   5.947  -4.785  0.00  0.00    -0.047 A 
ATOM      9  C9  IND d   1      -1.168   5.982  -3.787  0.00  0.00    -0.096 A 
ATOM     10  HN1 IND d   1      -1.878   5.921  -6.772  0.00  0.00     0.298 HD
ENDROOT
TORSDOF 0
ENDMDL
