MODEL 1
REMARK minimizedAffinity -3.00129533
REMARK minimizedRMSD -1
REMARK  0 active torsions:
REMARK  status: ('A' for Active; 'I' for Inactive)
ROOT
ATOM      1  N1  IND d   1       1.372   5.999  -3.793  0.00  0.00    -0.196 N 
ATOM      2  C2  IND d   1       1.871   5.976  -5.065  0.00  0.00     0.054 A 
ATOM      3  C3  IND d   1       0.864   5.933  -5.966  0.00  0.00    -0.031 A 
ATOM      4  C4  IND d   1      -1.680   5.994  -5.578  0.00  0.00     0.051 A 
ATOM      5  C5  IND d   1      -2.619   5.979  -4.585  0.00  0.00    -0.031 A 
ATOM      6  C6  IND d   1      -2.269   5.972  -3.250  0.00  0.00     0.015 A 
ATOM      7  C7  IND d   1      -0.960   5.991  -2.857  0.00  0.00    -0.016 A 
ATOM      8  C8  IND d   1      -0.004   6.000  -3.863  0.00  0.00    -0.047 A 
ATOM      9  C9  IND d   1      -0.353   5.964  -5.219  0.00  0.00    -0.096 A 
ATOM     10  HN1 IND d   1       1.838   6.010  -3.071  0.00  0.00     0.298 HD
ENDROOT
TORSDOF 0
ENDMDL
