MODEL 1
REMARK minimizedAffinity -0.205609679
REMARK minimizedRMSD -1
REMARK  0 active torsions:
REMARK  status: ('A' for Active; 'I' for Inactive)
ROOT
ATOM      1  N1  IND d   1      -2.164   5.961  -2.284  0.00  0.00    -0.196 N 
ATOM      2  C2  IND d   1      -3.477   5.966  -2.665  0.00  0.00     0.054 A 
ATOM      3  C3  IND d   1      -3.576   6.000  -4.013  0.00  0.00    -0.031 A 
ATOM      4  C4  IND d   1      -1.715   5.947  -5.791  0.00  0.00     0.051 A 
ATOM      5  C5  IND d   1      -0.355   5.976  -5.929  0.00  0.00    -0.031 A 
ATOM      6  C6  IND d   1       0.488   6.000  -4.837  0.00  0.00     0.015 A 
ATOM      7  C7  IND d   1       0.001   5.983  -3.560  0.00  0.00    -0.016 A 
ATOM      8  C8  IND d   1      -1.379   5.960  -3.417  0.00  0.00    -0.047 A 
ATOM      9  C9  IND d   1      -2.241   5.979  -4.521  0.00  0.00    -0.096 A 
ATOM     10  HN1 IND d   1      -1.877   5.958  -1.474  0.00  0.00     0.298 HD
ENDROOT
TORSDOF 0
ENDMDL
