MODEL 1
REMARK minimizedAffinity -1.11508119
REMARK minimizedRMSD -1
REMARK  0 active torsions:
REMARK  status: ('A' for Active; 'I' for Inactive)
ROOT
ATOM      1  N1  IND d   1      -0.989   5.920  -2.576  0.00  0.00    -0.196 N 
ATOM      2  C2  IND d   1      -2.239   5.937  -3.129  0.00  0.00     0.054 A 
ATOM      3  C3  IND d   1      -2.156   5.997  -4.477  0.00  0.00    -0.031 A 
ATOM      4  C4  IND d   1      -0.074   5.972  -5.991  0.00  0.00     0.051 A 
ATOM      5  C5  IND d   1       1.292   6.000  -5.945  0.00  0.00    -0.031 A 
ATOM      6  C6  IND d   1       1.981   5.999  -4.749  0.00  0.00     0.015 A 
ATOM      7  C7  IND d   1       1.327   5.960  -3.550  0.00  0.00    -0.016 A 
ATOM      8  C8  IND d   1      -0.059   5.939  -3.593  0.00  0.00    -0.047 A 
ATOM      9  C9  IND d   1      -0.765   5.982  -4.802  0.00  0.00    -0.096 A 
ATOM     10  HN1 IND d   1      -0.812   5.900  -1.735  0.00  0.00     0.298 HD
ENDROOT
TORSDOF 0
ENDMDL
