MODEL 1
REMARK minimizedAffinity -3.09918642
REMARK minimizedRMSD -1
REMARK  0 active torsions:
REMARK  status: ('A' for Active; 'I' for Inactive)
ROOT
ATOM      1  N1  IND d   1       2.195   5.943  -5.995  0.00  0.00    -0.196 N 
ATOM      2  C2  IND d   1       1.253   5.922  -5.005  0.00  0.00     0.054 A 
ATOM      3  C3  IND d   1       1.846   5.899  -3.790  0.00  0.00    -0.031 A 
ATOM      4  C4  IND d   1       4.348   5.994  -3.191  0.00  0.00     0.051 A 
ATOM      5  C5  IND d   1       5.592   5.985  -3.757  0.00  0.00    -0.031 A 
ATOM      6  C6  IND d   1       5.771   5.964  -5.125  0.00  0.00     0.015 A 
ATOM      7  C7  IND d   1       4.708   5.962  -5.982  0.00  0.00    -0.016 A 
ATOM      8  C8  IND d   1       3.443   5.964  -5.412  0.00  0.00    -0.047 A 
ATOM      9  C9  IND d   1       3.255   5.943  -4.024  0.00  0.00    -0.096 A 
ATOM     10  HN1 IND d   1       2.035   5.942  -6.840  0.00  0.00     0.298 HD
ENDROOT
TORSDOF 0
ENDMDL
