MODEL 1
REMARK minimizedAffinity -2.88053679
REMARK minimizedRMSD -1
REMARK  0 active torsions:
REMARK  status: ('A' for Active; 'I' for Inactive)
ROOT
ATOM      1  N1  IND d   1       5.087   5.998  -5.218  0.00  0.00    -0.196 N 
ATOM      2  C2  IND d   1       5.770   5.270  -4.284  0.00  0.00     0.054 A 
ATOM      3  C3  IND d   1       4.944   4.386  -3.680  0.00  0.00    -0.031 A 
ATOM      4  C4  IND d   1       2.460   3.892  -4.140  0.00  0.00     0.051 A 
ATOM      5  C5  IND d   1       1.394   4.326  -4.876  0.00  0.00    -0.031 A 
ATOM      6  C6  IND d   1       1.507   5.359  -5.785  0.00  0.00     0.015 A 
ATOM      7  C7  IND d   1       2.699   5.991  -5.999  0.00  0.00    -0.016 A 
ATOM      8  C8  IND d   1       3.782   5.558  -5.248  0.00  0.00    -0.047 A 
ATOM      9  C9  IND d   1       3.664   4.538  -4.294  0.00  0.00    -0.096 A 
ATOM     10  HN1 IND d   1       5.417   6.625  -5.704  0.00  0.00     0.298 HD
ENDROOT
TORSDOF 0
ENDMDL
