MODEL 1
REMARK minimizedAffinity 1.5165627
REMARK minimizedRMSD -1
REMARK  0 active torsions:
REMARK  status: ('A' for Active; 'I' for Inactive)
ROOT
ATOM      1  N1  IND d   1       1.943   5.930  -4.024  0.00  0.00    -0.196 N 
ATOM      2  C2  IND d   1       2.029   5.927  -5.389  0.00  0.00     0.054 A 
ATOM      3  C3  IND d   1       0.794   5.914  -5.939  0.00  0.00    -0.031 A 
ATOM      4  C4  IND d   1      -1.508   5.999  -4.790  0.00  0.00     0.051 A 
ATOM      5  C5  IND d   1      -2.099   5.976  -3.558  0.00  0.00    -0.031 A 
ATOM      6  C6  IND d   1      -1.358   5.938  -2.395  0.00  0.00     0.015 A 
ATOM      7  C7  IND d   1       0.008   5.933  -2.420  0.00  0.00    -0.016 A 
ATOM      8  C8  IND d   1       0.611   5.950  -3.670  0.00  0.00    -0.047 A 
ATOM      9  C9  IND d   1      -0.136   5.946  -4.855  0.00  0.00    -0.096 A 
ATOM     10  HN1 IND d   1       2.607   5.921  -3.479  0.00  0.00     0.298 HD
ENDROOT
TORSDOF 0
ENDMDL
