MODEL 1
REMARK minimizedAffinity 0.755898297
REMARK minimizedRMSD -1
REMARK  0 active torsions:
REMARK  status: ('A' for Active; 'I' for Inactive)
ROOT
ATOM      1  N1  IND d   1      -3.092   5.984  -2.031  0.00  0.00    -0.196 N 
ATOM      2  C2  IND d   1      -4.120   5.983  -2.933  0.00  0.00     0.054 A 
ATOM      3  C3  IND d   1      -3.637   6.000  -4.196  0.00  0.00    -0.031 A 
ATOM      4  C4  IND d   1      -1.198   5.928  -5.016  0.00  0.00     0.051 A 
ATOM      5  C5  IND d   1       0.092   5.958  -4.564  0.00  0.00    -0.031 A 
ATOM      6  C6  IND d   1       0.392   5.996  -3.218  0.00  0.00     0.015 A 
ATOM      7  C7  IND d   1      -0.590   5.994  -2.269  0.00  0.00    -0.016 A 
ATOM      8  C8  IND d   1      -1.901   5.971  -2.724  0.00  0.00    -0.047 A 
ATOM      9  C9  IND d   1      -2.213   5.975  -4.089  0.00  0.00    -0.096 A 
ATOM     10  HN1 IND d   1      -3.175   5.992  -1.176  0.00  0.00     0.298 HD
ENDROOT
TORSDOF 0
ENDMDL
