MODEL 1
REMARK minimizedAffinity 12.7865067
REMARK minimizedRMSD -1
REMARK  0 active torsions:
REMARK  status: ('A' for Active; 'I' for Inactive)
ROOT
ATOM      1  N1  IND d   1      -0.766  -0.001  -6.000  0.00  0.00    -0.196 N 
ATOM      2  C2  IND d   1      -1.135  -1.317  -6.000  0.00  0.00     0.054 A 
ATOM      3  C3  IND d   1      -0.379  -2.018  -5.124  0.00  0.00    -0.031 A 
ATOM      4  C4  IND d   1       1.450  -1.188  -3.514  0.00  0.00     0.051 A 
ATOM      5  C5  IND d   1       2.163  -0.072  -3.176  0.00  0.00    -0.031 A 
ATOM      6  C6  IND d   1       1.929   1.150  -3.773  0.00  0.00     0.015 A 
ATOM      7  C7  IND d   1       0.962   1.304  -4.726  0.00  0.00    -0.016 A 
ATOM      8  C8  IND d   1       0.241   0.172  -5.076  0.00  0.00    -0.047 A 
ATOM      9  C9  IND d   1       0.502  -1.080  -4.504  0.00  0.00    -0.096 A 
ATOM     10  HN1 IND d   1      -1.105   0.615  -6.494  0.00  0.00     0.298 HD
ENDROOT
TORSDOF 0
ENDMDL
