MODEL 1
REMARK minimizedAffinity 1.37660849
REMARK minimizedRMSD -1
REMARK  0 active torsions:
REMARK  status: ('A' for Active; 'I' for Inactive)
ROOT
ATOM      1  N1  IND d   1      -1.854   5.968  -3.299  0.00  0.00    -0.196 N 
ATOM      2  C2  IND d   1      -2.750   5.971  -4.332  0.00  0.00     0.054 A 
ATOM      3  C3  IND d   1      -2.101   6.000  -5.517  0.00  0.00    -0.031 A 
ATOM      4  C4  IND d   1       0.427   5.942  -6.000  0.00  0.00     0.051 A 
ATOM      5  C5  IND d   1       1.644   5.972  -5.378  0.00  0.00    -0.031 A 
ATOM      6  C6  IND d   1       1.759   6.000  -4.003  0.00  0.00     0.015 A 
ATOM      7  C7  IND d   1       0.657   5.988  -3.195  0.00  0.00    -0.016 A 
ATOM      8  C8  IND d   1      -0.580   5.964  -3.824  0.00  0.00    -0.047 A 
ATOM      9  C9  IND d   1      -0.704   5.979  -5.219  0.00  0.00    -0.096 A 
ATOM     10  HN1 IND d   1      -2.053   5.969  -2.463  0.00  0.00     0.298 HD
ENDROOT
TORSDOF 0
ENDMDL
