MODEL 1
REMARK minimizedAffinity 5.92050791
REMARK minimizedRMSD -1
REMARK  0 active torsions:
REMARK  status: ('A' for Active; 'I' for Inactive)
ROOT
ATOM      1  N1  IND d   1       0.081   1.047   2.242  0.00  0.00    -0.196 N 
ATOM      2  C2  IND d   1      -0.420  -0.219   2.115  0.00  0.00     0.054 A 
ATOM      3  C3  IND d   1      -0.533  -0.551   0.810  0.00  0.00    -0.031 A 
ATOM      4  C4  IND d   1       0.139   0.789  -1.283  0.00  0.00     0.051 A 
ATOM      5  C5  IND d   1       0.607   2.012  -1.675  0.00  0.00    -0.031 A 
ATOM      6  C6  IND d   1       0.933   2.994  -0.763  0.00  0.00     0.015 A 
ATOM      7  C7  IND d   1       0.813   2.786   0.582  0.00  0.00    -0.016 A 
ATOM      8  C8  IND d   1       0.332   1.548   0.983  0.00  0.00    -0.047 A 
ATOM      9  C9  IND d   1      -0.041   0.562   0.061  0.00  0.00    -0.096 A 
ATOM     10  HN1 IND d   1       0.218   1.460   2.984  0.00  0.00     0.298 HD
ENDROOT
TORSDOF 0
ENDMDL
