MODEL 1
REMARK minimizedAffinity 3.90032268
REMARK minimizedRMSD -1
REMARK  0 active torsions:
REMARK  status: ('A' for Active; 'I' for Inactive)
ROOT
ATOM      1  N1  IND d   1       1.690   5.974  -6.000  0.00  0.00    -0.196 N 
ATOM      2  C2  IND d   1       0.751   5.041  -5.658  0.00  0.00     0.054 A 
ATOM      3  C3  IND d   1       1.349   3.918  -5.200  0.00  0.00    -0.031 A 
ATOM      4  C4  IND d   1       3.849   3.432  -4.828  0.00  0.00     0.051 A 
ATOM      5  C5  IND d   1       5.092   3.965  -5.028  0.00  0.00    -0.031 A 
ATOM      6  C6  IND d   1       5.267   5.222  -5.570  0.00  0.00     0.015 A 
ATOM      7  C7  IND d   1       4.202   6.000  -5.924  0.00  0.00    -0.016 A 
ATOM      8  C8  IND d   1       2.939   5.459  -5.729  0.00  0.00    -0.047 A 
ATOM      9  C9  IND d   1       2.755   4.167  -5.219  0.00  0.00    -0.096 A 
ATOM     10  HN1 IND d   1       1.528   6.752  -6.329  0.00  0.00     0.298 HD
ENDROOT
TORSDOF 0
ENDMDL
