MODEL 1
REMARK minimizedAffinity -2.02835798
REMARK minimizedRMSD -1
REMARK  0 active torsions:
REMARK  status: ('A' for Active; 'I' for Inactive)
ROOT
ATOM      1  N1  IND d   1      -3.548   5.994  -3.704  0.00  0.00    -0.196 N 
ATOM      2  C2  IND d   1      -3.381   5.997  -2.347  0.00  0.00     0.054 A 
ATOM      3  C3  IND d   1      -2.067   5.962  -2.034  0.00  0.00    -0.031 A 
ATOM      4  C4  IND d   1      -0.014   6.000  -3.588  0.00  0.00     0.051 A 
ATOM      5  C5  IND d   1       0.339   5.961  -4.907  0.00  0.00    -0.031 A 
ATOM      6  C6  IND d   1      -0.605   5.934  -5.914  0.00  0.00     0.015 A 
ATOM      7  C7  IND d   1      -1.943   5.956  -5.637  0.00  0.00    -0.016 A 
ATOM      8  C8  IND d   1      -2.305   5.988  -4.298  0.00  0.00    -0.047 A 
ATOM      9  C9  IND d   1      -1.352   5.973  -3.271  0.00  0.00    -0.096 A 
ATOM     10  HN1 IND d   1      -4.302   5.996  -4.117  0.00  0.00     0.298 HD
ENDROOT
TORSDOF 0
ENDMDL
