MODEL 1
REMARK minimizedAffinity 11.913331
REMARK minimizedRMSD -1
REMARK  0 active torsions:
REMARK  status: ('A' for Active; 'I' for Inactive)
ROOT
ATOM      1  N1  IND d   1       0.923   5.992  -3.667  0.00  0.00    -0.196 N 
ATOM      2  C2  IND d   1       1.655   5.967  -4.821  0.00  0.00     0.054 A 
ATOM      3  C3  IND d   1       0.836   5.927  -5.897  0.00  0.00    -0.031 A 
ATOM      4  C4  IND d   1      -1.735   6.000  -5.998  0.00  0.00     0.051 A 
ATOM      5  C5  IND d   1      -2.845   5.989  -5.202  0.00  0.00    -0.031 A 
ATOM      6  C6  IND d   1      -2.755   5.981  -3.825  0.00  0.00     0.015 A 
ATOM      7  C7  IND d   1      -1.545   5.995  -3.190  0.00  0.00    -0.016 A 
ATOM      8  C8  IND d   1      -0.415   5.999  -3.996  0.00  0.00    -0.047 A 
ATOM      9  C9  IND d   1      -0.501   5.964  -5.394  0.00  0.00    -0.096 A 
ATOM     10  HN1 IND d   1       1.244   6.002  -2.869  0.00  0.00     0.298 HD
ENDROOT
TORSDOF 0
ENDMDL
