MODEL 1
REMARK minimizedAffinity 0.289398909
REMARK minimizedRMSD -1
REMARK  0 active torsions:
REMARK  status: ('A' for Active; 'I' for Inactive)
ROOT
ATOM      1  N1  IND d   1      -1.125   5.355  -5.425  0.00  0.00    -0.196 N 
ATOM      2  C2  IND d   1       0.205   5.668  -5.455  0.00  0.00     0.054 A 
ATOM      3  C3  IND d   1       0.638   6.000  -4.218  0.00  0.00    -0.031 A 
ATOM      4  C4  IND d   1      -0.639   5.999  -1.983  0.00  0.00     0.051 A 
ATOM      5  C5  IND d   1      -1.888   5.820  -1.456  0.00  0.00    -0.031 A 
ATOM      6  C6  IND d   1      -2.967   5.468  -2.241  0.00  0.00     0.015 A 
ATOM      7  C7  IND d   1      -2.835   5.268  -3.586  0.00  0.00    -0.016 A 
ATOM      8  C8  IND d   1      -1.570   5.456  -4.126  0.00  0.00    -0.047 A 
ATOM      9  C9  IND d   1      -0.480   5.855  -3.341  0.00  0.00    -0.096 A 
ATOM     10  HN1 IND d   1      -1.603   5.132  -6.104  0.00  0.00     0.298 HD
ENDROOT
TORSDOF 0
ENDMDL
