MODEL 1
REMARK minimizedAffinity 2.64836097
REMARK minimizedRMSD -1
REMARK  0 active torsions:
REMARK  status: ('A' for Active; 'I' for Inactive)
ROOT
ATOM      1  N1  IND d   1       0.787  -1.771  -2.451  0.00  0.00    -0.196 N 
ATOM      2  C2  IND d   1       0.727  -1.402  -1.137  0.00  0.00     0.054 A 
ATOM      3  C3  IND d   1      -0.558  -1.223  -0.757  0.00  0.00    -0.031 A 
ATOM      4  C4  IND d   1      -2.725  -1.581  -2.100  0.00  0.00     0.051 A 
ATOM      5  C5  IND d   1      -3.178  -1.882  -3.354  0.00  0.00    -0.031 A 
ATOM      6  C6  IND d   1      -2.315  -2.169  -4.391  0.00  0.00     0.015 A 
ATOM      7  C7  IND d   1      -0.961  -2.178  -4.210  0.00  0.00    -0.016 A 
ATOM      8  C8  IND d   1      -0.497  -1.866  -2.940  0.00  0.00    -0.047 A 
ATOM      9  C9  IND d   1      -1.367  -1.532  -1.893  0.00  0.00    -0.096 A 
ATOM     10  HN1 IND d   1       1.507  -1.919  -2.898  0.00  0.00     0.298 HD
ENDROOT
TORSDOF 0
ENDMDL
