MODEL 1
REMARK minimizedAffinity 10.3296938
REMARK minimizedRMSD -1
REMARK  0 active torsions:
REMARK  status: ('A' for Active; 'I' for Inactive)
ROOT
ATOM      1  N1  IND d   1      -3.341   5.976  -4.512  0.00  0.00    -0.196 N 
ATOM      2  C2  IND d   1      -2.033   5.976  -4.909  0.00  0.00     0.054 A 
ATOM      3  C3  IND d   1      -1.215   5.998  -3.833  0.00  0.00    -0.031 A 
ATOM      4  C4  IND d   1      -1.804   5.933  -1.328  0.00  0.00     0.051 A 
ATOM      5  C5  IND d   1      -2.868   5.963  -0.471  0.00  0.00    -0.031 A 
ATOM      6  C6  IND d   1      -4.170   5.998  -0.926  0.00  0.00     0.015 A 
ATOM      7  C7  IND d   1      -4.459   5.991  -2.261  0.00  0.00    -0.016 A 
ATOM      8  C8  IND d   1      -3.381   5.968  -3.135  0.00  0.00    -0.047 A 
ATOM      9  C9  IND d   1      -2.056   5.975  -2.679  0.00  0.00    -0.096 A 
ATOM     10  HN1 IND d   1      -4.024   5.981  -5.034  0.00  0.00     0.298 HD
ENDROOT
TORSDOF 0
ENDMDL
