MODEL 1
REMARK minimizedAffinity 5.67751312
REMARK minimizedRMSD -1
REMARK  0 active torsions:
REMARK  status: ('A' for Active; 'I' for Inactive)
ROOT
ATOM      1  N1  IND d   1       2.233   3.070  -3.474  0.00  0.00    -0.196 N 
ATOM      2  C2  IND d   1       1.857   3.115  -4.788  0.00  0.00     0.054 A 
ATOM      3  C3  IND d   1       2.848   3.639  -5.543  0.00  0.00    -0.031 A 
ATOM      4  C4  IND d   1       5.208   4.398  -4.848  0.00  0.00     0.051 A 
ATOM      5  C5  IND d   1       6.000   4.583  -3.750  0.00  0.00    -0.031 A 
ATOM      6  C6  IND d   1       5.569   4.264  -2.478  0.00  0.00     0.015 A 
ATOM      7  C7  IND d   1       4.329   3.735  -2.258  0.00  0.00    -0.016 A 
ATOM      8  C8  IND d   1       3.519   3.553  -3.370  0.00  0.00    -0.047 A 
ATOM      9  C9  IND d   1       3.935   3.914  -4.658  0.00  0.00    -0.096 A 
ATOM     10  HN1 IND d   1       1.748   2.788  -2.823  0.00  0.00     0.298 HD
ENDROOT
TORSDOF 0
ENDMDL
