MODEL 1
REMARK minimizedAffinity -4.31505632
REMARK minimizedRMSD -1
REMARK  0 active torsions:
REMARK  status: ('A' for Active; 'I' for Inactive)
ROOT
ATOM      1  C4' PXY d   1      -0.109  -4.637  -0.547  0.00  0.00     0.077 C 
ATOM      2  C1' PXY d   1       0.217   1.023   0.582  0.00  0.00     0.077 C 
ATOM      3  C1  PXY d   1       0.134  -0.464   0.298  0.00  0.00    -0.082 A 
ATOM      4  C2  PXY d   1       0.342  -0.908  -0.931  0.00  0.00     0.003 A 
ATOM      5  C3  PXY d   1       0.240  -2.246  -1.211  0.00  0.00     0.003 A 
ATOM      6  C4  PXY d   1      -0.026  -3.145  -0.213  0.00  0.00    -0.082 A 
ATOM      7  C5  PXY d   1      -0.230  -2.701   1.046  0.00  0.00     0.003 A 
ATOM      8  C6  PXY d   1      -0.162  -1.334   1.301  0.00  0.00     0.003 A 
ENDROOT
TORSDOF 0
ENDMDL
