MODEL 1
REMARK minimizedAffinity -2.43051839
REMARK minimizedRMSD -1
REMARK  0 active torsions:
REMARK  status: ('A' for Active; 'I' for Inactive)
ROOT
ATOM      1  C4' PXY d   1      -1.786  -0.065   2.142  0.00  0.00     0.077 C 
ATOM      2  C1' PXY d   1       1.760  -1.502  -2.191  0.00  0.00     0.077 C 
ATOM      3  C1  PXY d   1       0.825  -1.137  -1.055  0.00  0.00    -0.082 A 
ATOM      4  C2  PXY d   1       0.520   0.132  -0.841  0.00  0.00     0.003 A 
ATOM      5  C3  PXY d   1      -0.299   0.483   0.202  0.00  0.00     0.003 A 
ATOM      6  C4  PXY d   1      -0.854  -0.481   1.001  0.00  0.00    -0.082 A 
ATOM      7  C5  PXY d   1      -0.556  -1.779   0.782  0.00  0.00     0.003 A 
ATOM      8  C6  PXY d   1       0.310  -2.111  -0.256  0.00  0.00     0.003 A 
ENDROOT
TORSDOF 0
ENDMDL
