MODEL 1
REMARK minimizedAffinity -3.96409273
REMARK minimizedRMSD -1
REMARK  0 active torsions:
REMARK  status: ('A' for Active; 'I' for Inactive)
ROOT
ATOM      1  C4' PXY d   1       0.703   2.213   0.058  0.00  0.00     0.077 C 
ATOM      2  C1' PXY d   1      -0.627  -3.396   0.492  0.00  0.00     0.077 C 
ATOM      3  C1  PXY d   1      -0.268  -1.928   0.372  0.00  0.00    -0.082 A 
ATOM      4  C2  PXY d   1      -0.751  -1.062   1.248  0.00  0.00     0.003 A 
ATOM      5  C3  PXY d   1      -0.461   0.274   1.135  0.00  0.00     0.003 A 
ATOM      6  C4  PXY d   1       0.374   0.720   0.146  0.00  0.00    -0.082 A 
ATOM      7  C5  PXY d   1       0.880  -0.159  -0.745  0.00  0.00     0.003 A 
ATOM      8  C6  PXY d   1       0.541  -1.504  -0.637  0.00  0.00     0.003 A 
ENDROOT
TORSDOF 0
ENDMDL
