MODEL 1
REMARK minimizedAffinity -1.01668894
REMARK minimizedRMSD -1
REMARK  0 active torsions:
REMARK  status: ('A' for Active; 'I' for Inactive)
ROOT
ATOM      1  C4' PXY d   1      -2.196   0.203   2.678  0.00  0.00     0.077 C 
ATOM      2  C1' PXY d   1       0.849  -0.356  -2.204  0.00  0.00     0.077 C 
ATOM      3  C1  PXY d   1       0.046  -0.222  -0.925  0.00  0.00    -0.082 A 
ATOM      4  C2  PXY d   1      -0.362   0.974  -0.531  0.00  0.00     0.003 A 
ATOM      5  C3  PXY d   1      -1.061   1.117   0.640  0.00  0.00     0.003 A 
ATOM      6  C4  PXY d   1      -1.391   0.019   1.388  0.00  0.00    -0.082 A 
ATOM      7  C5  PXY d   1      -0.988  -1.205   0.987  0.00  0.00     0.003 A 
ATOM      8  C6  PXY d   1      -0.244  -1.325  -0.183  0.00  0.00     0.003 A 
ENDROOT
TORSDOF 0
ENDMDL
