MODEL 1
REMARK minimizedAffinity -2.51576471
REMARK minimizedRMSD -1
REMARK  0 active torsions:
REMARK  status: ('A' for Active; 'I' for Inactive)
ROOT
ATOM      1  C4' PXY d   1       0.386  -1.095  -2.266  0.00  0.00     0.077 C 
ATOM      2  C1' PXY d   1      -1.904  -1.378   3.033  0.00  0.00     0.077 C 
ATOM      3  C1  PXY d   1      -1.296  -1.314   1.646  0.00  0.00    -0.082 A 
ATOM      4  C2  PXY d   1      -1.316  -0.174   0.975  0.00  0.00     0.003 A 
ATOM      5  C3  PXY d   1      -0.799  -0.106  -0.293  0.00  0.00     0.003 A 
ATOM      6  C4  PXY d   1      -0.208  -1.203  -0.859  0.00  0.00    -0.082 A 
ATOM      7  C5  PXY d   1      -0.173  -2.367  -0.177  0.00  0.00     0.003 A 
ATOM      8  C6  PXY d   1      -0.741  -2.426   1.093  0.00  0.00     0.003 A 
ENDROOT
TORSDOF 0
ENDMDL
