MODEL 1
REMARK minimizedAffinity -4.04493475
REMARK minimizedRMSD -1
REMARK  0 active torsions:
REMARK  status: ('A' for Active; 'I' for Inactive)
ROOT
ATOM      1  C4' PXY d   1      -0.251  -3.065   0.559  0.00  0.00     0.077 C 
ATOM      2  C1' PXY d   1       0.337   2.642  -0.147  0.00  0.00     0.077 C 
ATOM      3  C1  PXY d   1       0.185   1.144   0.026  0.00  0.00    -0.082 A 
ATOM      4  C2  PXY d   1      -0.534   0.670   1.030  0.00  0.00     0.003 A 
ATOM      5  C3  PXY d   1      -0.656  -0.682   1.219  0.00  0.00     0.003 A 
ATOM      6  C4  PXY d   1      -0.078  -1.559   0.341  0.00  0.00    -0.082 A 
ATOM      7  C5  PXY d   1       0.649  -1.084  -0.693  0.00  0.00     0.003 A 
ATOM      8  C6  PXY d   1       0.794   0.292  -0.843  0.00  0.00     0.003 A 
ENDROOT
TORSDOF 0
ENDMDL
