MODEL 1
REMARK minimizedAffinity -4.18218708
REMARK minimizedRMSD -1
REMARK  0 active torsions:
REMARK  status: ('A' for Active; 'I' for Inactive)
ROOT
ATOM      1  C4' PXY d   1       0.014   2.396   0.302  0.00  0.00     0.077 C 
ATOM      2  C1' PXY d   1      -0.117  -3.382   0.372  0.00  0.00     0.077 C 
ATOM      3  C1  PXY d   1      -0.071  -1.867   0.346  0.00  0.00    -0.082 A 
ATOM      4  C2  PXY d   1      -0.696  -1.178   1.288  0.00  0.00     0.003 A 
ATOM      5  C3  PXY d   1      -0.692   0.193   1.262  0.00  0.00     0.003 A 
ATOM      6  C4  PXY d   1       0.003   0.865   0.293  0.00  0.00    -0.082 A 
ATOM      7  C5  PXY d   1       0.652   0.169  -0.665  0.00  0.00     0.003 A 
ATOM      8  C6  PXY d   1       0.601  -1.221  -0.645  0.00  0.00     0.003 A 
ENDROOT
TORSDOF 0
ENDMDL
