MODEL 1
REMARK minimizedAffinity -4.77193165
REMARK minimizedRMSD -1
REMARK  0 active torsions:
REMARK  status: ('A' for Active; 'I' for Inactive)
ROOT
ATOM      1  C4' PXY d   1       0.581  -2.544  -2.637  0.00  0.00     0.077 C 
ATOM      2  C1' PXY d   1      -0.718  -0.587   2.645  0.00  0.00     0.077 C 
ATOM      3  C1  PXY d   1      -0.372  -1.111   1.265  0.00  0.00    -0.082 A 
ATOM      4  C2  PXY d   1      -0.232  -0.263   0.259  0.00  0.00     0.003 A 
ATOM      5  C3  PXY d   1       0.049  -0.722  -1.002  0.00  0.00     0.003 A 
ATOM      6  C4  PXY d   1       0.241  -2.059  -1.225  0.00  0.00    -0.082 A 
ATOM      7  C5  PXY d   1       0.111  -2.930  -0.202  0.00  0.00     0.003 A 
ATOM      8  C6  PXY d   1      -0.216  -2.447   1.062  0.00  0.00     0.003 A 
ENDROOT
TORSDOF 0
ENDMDL
