MODEL 1
REMARK minimizedAffinity -3.54742861
REMARK minimizedRMSD -1
REMARK  0 active torsions:
REMARK  status: ('A' for Active; 'I' for Inactive)
ROOT
ATOM      1  C4' PXY d   1       0.501   2.848   0.363  0.00  0.00     0.077 C 
ATOM      2  C1' PXY d   1      -1.561  -2.552   0.393  0.00  0.00     0.077 C 
ATOM      3  C1  PXY d   1      -1.011  -1.139   0.376  0.00  0.00    -0.082 A 
ATOM      4  C2  PXY d   1      -1.173  -0.362   1.434  0.00  0.00     0.003 A 
ATOM      5  C3  PXY d   1      -0.711   0.929   1.424  0.00  0.00     0.003 A 
ATOM      6  C4  PXY d   1      -0.029   1.412   0.339  0.00  0.00    -0.082 A 
ATOM      7  C5  PXY d   1       0.150   0.621  -0.740  0.00  0.00     0.003 A 
ATOM      8  C6  PXY d   1      -0.364  -0.672  -0.726  0.00  0.00     0.003 A 
ENDROOT
TORSDOF 0
ENDMDL
