MODEL 1
REMARK minimizedAffinity -3.27459025
REMARK minimizedRMSD -1
REMARK  0 active torsions:
REMARK  status: ('A' for Active; 'I' for Inactive)
ROOT
ATOM      1  C4' PXY d   1       0.072   2.223  -0.066  0.00  0.00     0.077 C 
ATOM      2  C1' PXY d   1      -0.216  -3.505   0.661  0.00  0.00     0.077 C 
ATOM      3  C1  PXY d   1      -0.131  -2.004   0.462  0.00  0.00    -0.082 A 
ATOM      4  C2  PXY d   1      -0.619  -1.193   1.386  0.00  0.00     0.003 A 
ATOM      5  C3  PXY d   1      -0.578   0.166   1.208  0.00  0.00     0.003 A 
ATOM      6  C4  PXY d   1       0.016   0.701   0.096  0.00  0.00    -0.082 A 
ATOM      7  C5  PXY d   1       0.526  -0.119  -0.846  0.00  0.00     0.003 A 
ATOM      8  C6  PXY d   1       0.438  -1.497  -0.666  0.00  0.00     0.003 A 
ENDROOT
TORSDOF 0
ENDMDL
