MODEL 1
REMARK minimizedAffinity -5.04101753
REMARK minimizedRMSD -1
REMARK  0 active torsions:
REMARK  status: ('A' for Active; 'I' for Inactive)
ROOT
ATOM      1  C4' PXY d   1       0.104   2.063   0.355  0.00  0.00     0.077 C 
ATOM      2  C1' PXY d   1      -0.119  -3.676  -0.302  0.00  0.00     0.077 C 
ATOM      3  C1  PXY d   1      -0.070  -2.171  -0.121  0.00  0.00    -0.082 A 
ATOM      4  C2  PXY d   1       0.452  -1.415  -1.073  0.00  0.00     0.003 A 
ATOM      5  C3  PXY d   1       0.532  -0.055  -0.912  0.00  0.00     0.003 A 
ATOM      6  C4  PXY d   1       0.026   0.541   0.212  0.00  0.00    -0.082 A 
ATOM      7  C5  PXY d   1      -0.518  -0.223   1.182  0.00  0.00     0.003 A 
ATOM      8  C6  PXY d   1      -0.553  -1.605   1.018  0.00  0.00     0.003 A 
ENDROOT
TORSDOF 0
ENDMDL
