MODEL 1
REMARK minimizedAffinity -4.04192591
REMARK minimizedRMSD -1
REMARK  0 active torsions:
REMARK  status: ('A' for Active; 'I' for Inactive)
ROOT
ATOM      1  C4' PXY d   1      -0.215  -4.447  -0.443  0.00  0.00     0.077 C 
ATOM      2  C1' PXY d   1      -0.205   1.330  -0.243  0.00  0.00     0.077 C 
ATOM      3  C1  PXY d   1      -0.213  -0.186  -0.283  0.00  0.00    -0.082 A 
ATOM      4  C2  PXY d   1       0.617  -0.823  -1.093  0.00  0.00     0.003 A 
ATOM      5  C3  PXY d   1       0.601  -2.192  -1.166  0.00  0.00     0.003 A 
ATOM      6  C4  PXY d   1      -0.236  -2.919  -0.362  0.00  0.00    -0.082 A 
ATOM      7  C5  PXY d   1      -1.078  -2.276   0.475  0.00  0.00     0.003 A 
ATOM      8  C6  PXY d   1      -1.075  -0.885   0.504  0.00  0.00     0.003 A 
ENDROOT
TORSDOF 0
ENDMDL
