MODEL 1
REMARK minimizedAffinity -0.0450043567
REMARK minimizedRMSD -1
REMARK  0 active torsions:
REMARK  status: ('A' for Active; 'I' for Inactive)
ROOT
ATOM      1  C4' PXY d   1       1.132   2.723   0.141  0.00  0.00     0.077 C 
ATOM      2  C1' PXY d   1      -1.260  -2.527   0.489  0.00  0.00     0.077 C 
ATOM      3  C1  PXY d   1      -0.634  -1.151   0.385  0.00  0.00    -0.082 A 
ATOM      4  C2  PXY d   1       0.169  -0.723   1.345  0.00  0.00     0.003 A 
ATOM      5  C3  PXY d   1       0.718   0.532   1.282  0.00  0.00     0.003 A 
ATOM      6  C4  PXY d   1       0.485   1.337   0.200  0.00  0.00    -0.082 A 
ATOM      7  C5  PXY d   1      -0.325   0.903  -0.789  0.00  0.00     0.003 A 
ATOM      8  C6  PXY d   1      -0.905  -0.357  -0.687  0.00  0.00     0.003 A 
ENDROOT
TORSDOF 0
ENDMDL
