MODEL 1
REMARK minimizedAffinity -3.47650552
REMARK minimizedRMSD -1
REMARK  0 active torsions:
REMARK  status: ('A' for Active; 'I' for Inactive)
ROOT
ATOM      1  C4' PXY d   1       0.795   2.941   0.258  0.00  0.00     0.077 C 
ATOM      2  C1' PXY d   1      -1.435  -2.391   0.175  0.00  0.00     0.077 C 
ATOM      3  C1  PXY d   1      -0.845  -0.995   0.185  0.00  0.00    -0.082 A 
ATOM      4  C2  PXY d   1      -0.650  -0.375   1.338  0.00  0.00     0.003 A 
ATOM      5  C3  PXY d   1      -0.147   0.900   1.364  0.00  0.00     0.003 A 
ATOM      6  C4  PXY d   1       0.210   1.527   0.200  0.00  0.00    -0.082 A 
ATOM      7  C5  PXY d   1       0.025   0.897  -0.979  0.00  0.00     0.003 A 
ATOM      8  C6  PXY d   1      -0.526  -0.381  -0.986  0.00  0.00     0.003 A 
ENDROOT
TORSDOF 0
ENDMDL
