MODEL 1
REMARK minimizedAffinity -4.20704031
REMARK minimizedRMSD -1
REMARK  0 active torsions:
REMARK  status: ('A' for Active; 'I' for Inactive)
ROOT
ATOM      1  C4' PXY d   1      -0.079   1.951   0.156  0.00  0.00     0.077 C 
ATOM      2  C1' PXY d   1       0.180  -3.792  -0.448  0.00  0.00     0.077 C 
ATOM      3  C1  PXY d   1       0.120  -2.285  -0.300  0.00  0.00    -0.082 A 
ATOM      4  C2  PXY d   1      -0.239  -1.756   0.859  0.00  0.00     0.003 A 
ATOM      5  C3  PXY d   1      -0.328  -0.395   1.001  0.00  0.00     0.003 A 
ATOM      6  C4  PXY d   1       0.004   0.434  -0.037  0.00  0.00    -0.082 A 
ATOM      7  C5  PXY d   1       0.381  -0.098  -1.219  0.00  0.00     0.003 A 
ATOM      8  C6  PXY d   1       0.426  -1.483  -1.355  0.00  0.00     0.003 A 
ENDROOT
TORSDOF 0
ENDMDL
