MODEL 1
REMARK minimizedAffinity -5.84678221
REMARK minimizedRMSD -1
REMARK  0 active torsions:
REMARK  status: ('A' for Active; 'I' for Inactive)
ROOT
ATOM      1  C4' PXY d   1      -0.128   1.723   0.318  0.00  0.00     0.077 C 
ATOM      2  C1' PXY d   1       0.030  -3.792  -1.408  0.00  0.00     0.077 C 
ATOM      3  C1  PXY d   1      -0.021  -2.349  -0.947  0.00  0.00    -0.082 A 
ATOM      4  C2  PXY d   1       0.445  -1.393  -1.736  0.00  0.00     0.003 A 
ATOM      5  C3  PXY d   1       0.435  -0.086  -1.322  0.00  0.00     0.003 A 
ATOM      6  C4  PXY d   1      -0.105   0.253  -0.110  0.00  0.00    -0.082 A 
ATOM      7  C5  PXY d   1      -0.593  -0.715   0.695  0.00  0.00     0.003 A 
ATOM      8  C6  PXY d   1      -0.536  -2.040   0.274  0.00  0.00     0.003 A 
ENDROOT
TORSDOF 0
ENDMDL
