MODEL 1
REMARK minimizedAffinity -3.82005906
REMARK minimizedRMSD -1
REMARK  0 active torsions:
REMARK  status: ('A' for Active; 'I' for Inactive)
ROOT
ATOM      1  C4' PXY d   1       1.533   2.326   0.009  0.00  0.00     0.077 C 
ATOM      2  C1' PXY d   1      -1.408  -2.616   0.600  0.00  0.00     0.077 C 
ATOM      3  C1  PXY d   1      -0.632  -1.324   0.434  0.00  0.00    -0.082 A 
ATOM      4  C2  PXY d   1      -0.355  -0.586   1.496  0.00  0.00     0.003 A 
ATOM      5  C3  PXY d   1       0.319   0.600   1.360  0.00  0.00     0.003 A 
ATOM      6  C4  PXY d   1       0.759   1.010   0.130  0.00  0.00    -0.082 A 
ATOM      7  C5  PXY d   1       0.490   0.257  -0.957  0.00  0.00     0.003 A 
ATOM      8  C6  PXY d   1      -0.230  -0.924  -0.803  0.00  0.00     0.003 A 
ENDROOT
TORSDOF 0
ENDMDL
