MODEL 1
REMARK minimizedAffinity -6.04898071
REMARK minimizedRMSD -1
REMARK  0 active torsions:
REMARK  status: ('A' for Active; 'I' for Inactive)
ROOT
ATOM      1  C4' PXY d   1       0.417  -2.237  -2.768  0.00  0.00     0.077 C 
ATOM      2  C1' PXY d   1      -1.272  -0.841   2.581  0.00  0.00     0.077 C 
ATOM      3  C1  PXY d   1      -0.825  -1.219   1.183  0.00  0.00    -0.082 A 
ATOM      4  C2  PXY d   1      -0.552  -0.268   0.304  0.00  0.00     0.003 A 
ATOM      5  C3  PXY d   1      -0.177  -0.591  -0.974  0.00  0.00     0.003 A 
ATOM      6  C4  PXY d   1      -0.028  -1.902  -1.342  0.00  0.00    -0.082 A 
ATOM      7  C5  PXY d   1      -0.295  -2.878  -0.448  0.00  0.00     0.003 A 
ATOM      8  C6  PXY d   1      -0.714  -2.529   0.832  0.00  0.00     0.003 A 
ENDROOT
TORSDOF 0
ENDMDL
