MODEL 1
REMARK minimizedAffinity -5.30720663
REMARK minimizedRMSD -1
REMARK  0 active torsions:
REMARK  status: ('A' for Active; 'I' for Inactive)
ROOT
ATOM      1  C4' PXY d   1       0.437  -2.492  -3.106  0.00  0.00     0.077 C 
ATOM      2  C1' PXY d   1      -0.910  -0.380   2.104  0.00  0.00     0.077 C 
ATOM      3  C1  PXY d   1      -0.554  -0.945   0.743  0.00  0.00    -0.082 A 
ATOM      4  C2  PXY d   1      -0.200  -0.126  -0.234  0.00  0.00     0.003 A 
ATOM      5  C3  PXY d   1       0.094  -0.618  -1.480  0.00  0.00     0.003 A 
ATOM      6  C4  PXY d   1       0.078  -1.967  -1.713  0.00  0.00    -0.082 A 
ATOM      7  C5  PXY d   1      -0.271  -2.810  -0.719  0.00  0.00     0.003 A 
ATOM      8  C6  PXY d   1      -0.606  -2.288   0.527  0.00  0.00     0.003 A 
ENDROOT
TORSDOF 0
ENDMDL
