MODEL 1
REMARK minimizedAffinity 26.4310532
REMARK minimizedRMSD -1
REMARK  0 active torsions:
REMARK  status: ('A' for Active; 'I' for Inactive)
ROOT
ATOM      1  C   UNL d   1      -2.158   1.493  -2.030  0.00  0.00     0.124 A 
ATOM      2  C1  UNL d   1      -2.879   2.149  -3.019  0.00  0.00     0.062 A 
ATOM      3  C2  UNL d   1      -3.976   1.530  -3.611  0.00  0.00     0.162 A 
ATOM      4  C3  UNL d   1      -4.360   0.248  -3.216  0.00  0.00    -0.034 A 
ATOM      5  C4  UNL d   1      -3.629  -0.405  -2.222  0.00  0.00     0.162 A 
ATOM      6  C5  UNL d   1      -2.533   0.218  -1.633  0.00  0.00     0.062 A 
ATOM      7  F   UNL d   1      -1.837  -0.417  -0.679  0.00  0.00    -0.097 F 
ATOM      8  F1  UNL d   1      -3.970  -1.638  -1.819  0.00  0.00    -0.096 F 
ATOM      9  I   UNL d   1      -5.999  -0.681  -4.100  0.00  0.00    -0.060 I 
ATOM     10  F2  UNL d   1      -4.655   2.186  -4.564  0.00  0.00    -0.096 F 
ATOM     11  F3  UNL d   1      -2.518   3.381  -3.405  0.00  0.00    -0.097 F 
ATOM     12  F4  UNL d   1      -1.102   2.091  -1.463  0.00  0.00    -0.092 F 
ENDROOT
TORSDOF 0
ENDMDL
