MODEL 1
REMARK minimizedAffinity 17.4572487
REMARK minimizedRMSD -1
REMARK  0 active torsions:
REMARK  status: ('A' for Active; 'I' for Inactive)
ROOT
ATOM      1  C   UNL d   1      -2.223   1.968  -2.594  0.00  0.00     0.124 A 
ATOM      2  C1  UNL d   1      -2.930   2.519  -3.653  0.00  0.00     0.062 A 
ATOM      3  C2  UNL d   1      -4.008   1.835  -4.208  0.00  0.00     0.162 A 
ATOM      4  C3  UNL d   1      -4.386   0.590  -3.703  0.00  0.00    -0.034 A 
ATOM      5  C4  UNL d   1      -3.669   0.042  -2.638  0.00  0.00     0.162 A 
ATOM      6  C5  UNL d   1      -2.593   0.730  -2.087  0.00  0.00     0.062 A 
ATOM      7  F   UNL d   1      -1.911   0.196  -1.064  0.00  0.00    -0.097 F 
ATOM      8  F1  UNL d   1      -4.006  -1.152  -2.128  0.00  0.00    -0.096 F 
ATOM      9  I   UNL d   1      -5.996  -0.437  -4.529  0.00  0.00    -0.060 I 
ATOM     10  F2  UNL d   1      -4.673   2.391  -5.231  0.00  0.00    -0.096 F 
ATOM     11  F3  UNL d   1      -2.574   3.715  -4.145  0.00  0.00    -0.097 F 
ATOM     12  F4  UNL d   1      -1.186   2.629  -2.063  0.00  0.00    -0.092 F 
ENDROOT
TORSDOF 0
ENDMDL
