MODEL 1
REMARK minimizedAffinity 22.4843636
REMARK minimizedRMSD -1
REMARK  0 active torsions:
REMARK  status: ('A' for Active; 'I' for Inactive)
ROOT
ATOM      1  C   UNL d   1      -3.010   4.796  -4.163  0.00  0.00     0.124 A 
ATOM      2  C1  UNL d   1      -2.199   3.679  -4.018  0.00  0.00     0.062 A 
ATOM      3  C2  UNL d   1      -2.597   2.452  -4.542  0.00  0.00     0.162 A 
ATOM      4  C3  UNL d   1      -3.813   2.336  -5.216  0.00  0.00    -0.034 A 
ATOM      5  C4  UNL d   1      -4.624   3.463  -5.357  0.00  0.00     0.162 A 
ATOM      6  C5  UNL d   1      -4.221   4.687  -4.832  0.00  0.00     0.062 A 
ATOM      7  F   UNL d   1      -5.006   5.765  -4.972  0.00  0.00    -0.097 F 
ATOM      8  F1  UNL d   1      -5.798   3.387  -5.999  0.00  0.00    -0.096 F 
ATOM      9  I   UNL d   1      -4.411   0.503  -6.000  0.00  0.00    -0.060 I 
ATOM     10  F2  UNL d   1      -1.793   1.390  -4.387  0.00  0.00    -0.096 F 
ATOM     11  F3  UNL d   1      -1.029   3.781  -3.372  0.00  0.00    -0.097 F 
ATOM     12  F4  UNL d   1      -2.625   5.975  -3.657  0.00  0.00    -0.092 F 
ENDROOT
TORSDOF 0
ENDMDL
