MODEL 1
REMARK minimizedAffinity 14.2956657
REMARK minimizedRMSD -1
REMARK  0 active torsions:
REMARK  status: ('A' for Active; 'I' for Inactive)
ROOT
ATOM      1  C   UNL d   1      -2.206   2.949  -2.966  0.00  0.00     0.124 A 
ATOM      2  C1  UNL d   1      -3.122   3.352  -3.928  0.00  0.00     0.062 A 
ATOM      3  C2  UNL d   1      -4.206   2.539  -4.247  0.00  0.00     0.162 A 
ATOM      4  C3  UNL d   1      -4.381   1.314  -3.602  0.00  0.00    -0.034 A 
ATOM      5  C4  UNL d   1      -3.455   0.915  -2.636  0.00  0.00     0.162 A 
ATOM      6  C5  UNL d   1      -2.373   1.731  -2.321  0.00  0.00     0.062 A 
ATOM      7  F   UNL d   1      -1.489   1.340  -1.392  0.00  0.00    -0.097 F 
ATOM      8  F1  UNL d   1      -3.593  -0.256  -1.997  0.00  0.00    -0.096 F 
ATOM      9  I   UNL d   1      -6.000   0.096  -4.076  0.00  0.00    -0.060 I 
ATOM     10  F2  UNL d   1      -5.075   2.953  -5.180  0.00  0.00    -0.096 F 
ATOM     11  F3  UNL d   1      -2.962   4.527  -4.553  0.00  0.00    -0.097 F 
ATOM     12  F4  UNL d   1      -1.163   3.732  -2.662  0.00  0.00    -0.092 F 
ENDROOT
TORSDOF 0
ENDMDL
