MODEL 1
REMARK minimizedAffinity 11.8339291
REMARK minimizedRMSD -1
REMARK  0 active torsions:
REMARK  status: ('A' for Active; 'I' for Inactive)
ROOT
ATOM      1  C   UNL d   1      -0.226  -1.496   3.237  0.00  0.00     0.124 A 
ATOM      2  C1  UNL d   1       0.842  -0.794   2.697  0.00  0.00     0.062 A 
ATOM      3  C2  UNL d   1       1.706  -1.414   1.798  0.00  0.00     0.162 A 
ATOM      4  C3  UNL d   1       1.504  -2.745   1.433  0.00  0.00    -0.034 A 
ATOM      5  C4  UNL d   1       0.428  -3.445   1.982  0.00  0.00     0.162 A 
ATOM      6  C5  UNL d   1      -0.432  -2.821   2.879  0.00  0.00     0.062 A 
ATOM      7  F   UNL d   1      -1.464  -3.501   3.400  0.00  0.00    -0.097 F 
ATOM      8  F1  UNL d   1       0.205  -4.726   1.653  0.00  0.00    -0.096 F 
ATOM      9  I   UNL d   1       2.793  -3.677   0.091  0.00  0.00    -0.060 I 
ATOM     10  F2  UNL d   1       2.730  -0.711   1.292  0.00  0.00    -0.096 F 
ATOM     11  F3  UNL d   1       1.044   0.486   3.041  0.00  0.00    -0.097 F 
ATOM     12  F4  UNL d   1      -1.055  -0.897   4.101  0.00  0.00    -0.092 F 
ENDROOT
TORSDOF 0
ENDMDL
