MODEL 1
REMARK minimizedAffinity 19.1223812
REMARK minimizedRMSD -1
REMARK  0 active torsions:
REMARK  status: ('A' for Active; 'I' for Inactive)
ROOT
ATOM      1  C   UNL d   1       0.403   4.415   3.626  0.00  0.00     0.124 A 
ATOM      2  C1  UNL d   1       1.263   3.622   2.879  0.00  0.00     0.062 A 
ATOM      3  C2  UNL d   1       2.622   3.589   3.178  0.00  0.00     0.162 A 
ATOM      4  C3  UNL d   1       3.130   4.351   4.230  0.00  0.00    -0.034 A 
ATOM      5  C4  UNL d   1       2.259   5.148   4.976  0.00  0.00     0.162 A 
ATOM      6  C5  UNL d   1       0.901   5.177   4.673  0.00  0.00     0.062 A 
ATOM      7  F   UNL d   1       0.072   5.944   5.396  0.00  0.00    -0.097 F 
ATOM      8  F1  UNL d   1       2.713   5.893   5.994  0.00  0.00    -0.096 F 
ATOM      9  I   UNL d   1       5.161   4.305   4.680  0.00  0.00    -0.060 I 
ATOM     10  F2  UNL d   1       3.430   2.813   2.440  0.00  0.00    -0.096 F 
ATOM     11  F3  UNL d   1       0.784   2.885   1.867  0.00  0.00    -0.097 F 
ATOM     12  F4  UNL d   1      -0.904   4.445   3.336  0.00  0.00    -0.092 F 
ENDROOT
TORSDOF 0
ENDMDL
