MODEL 1
REMARK minimizedAffinity 20.0242405
REMARK minimizedRMSD -1
REMARK  0 active torsions:
REMARK  status: ('A' for Active; 'I' for Inactive)
ROOT
ATOM      1  C   UNL d   1       2.633  -2.859   0.617  0.00  0.00     0.124 A 
ATOM      2  C1  UNL d   1       2.391  -4.129   0.112  0.00  0.00     0.062 A 
ATOM      3  C2  UNL d   1       3.351  -4.766  -0.669  0.00  0.00     0.162 A 
ATOM      4  C3  UNL d   1       4.562  -4.134  -0.950  0.00  0.00    -0.034 A 
ATOM      5  C4  UNL d   1       4.798  -2.856  -0.440  0.00  0.00     0.162 A 
ATOM      6  C5  UNL d   1       3.836  -2.224   0.340  0.00  0.00     0.062 A 
ATOM      7  F   UNL d   1       4.071  -0.997   0.827  0.00  0.00    -0.097 F 
ATOM      8  F1  UNL d   1       5.952  -2.220  -0.691  0.00  0.00    -0.096 F 
ATOM      9  I   UNL d   1       5.999  -5.084  -2.118  0.00  0.00    -0.060 I 
ATOM     10  F2  UNL d   1       3.090  -5.993  -1.144  0.00  0.00    -0.096 F 
ATOM     11  F3  UNL d   1       1.230  -4.744   0.377  0.00  0.00    -0.097 F 
ATOM     12  F4  UNL d   1       1.708  -2.247   1.368  0.00  0.00    -0.092 F 
ENDROOT
TORSDOF 0
ENDMDL
