MODEL 1
REMARK minimizedAffinity 19.3721752
REMARK minimizedRMSD -1
REMARK  0 active torsions:
REMARK  status: ('A' for Active; 'I' for Inactive)
ROOT
ATOM      1  C   UNL d   1       1.799  -3.966   0.874  0.00  0.00     0.124 A 
ATOM      2  C1  UNL d   1       1.788  -2.580   0.939  0.00  0.00     0.062 A 
ATOM      3  C2  UNL d   1       2.984  -1.869   0.914  0.00  0.00     0.162 A 
ATOM      4  C3  UNL d   1       4.202  -2.543   0.824  0.00  0.00    -0.034 A 
ATOM      5  C4  UNL d   1       4.205  -3.938   0.760  0.00  0.00     0.162 A 
ATOM      6  C5  UNL d   1       3.006  -4.644   0.785  0.00  0.00     0.062 A 
ATOM      7  F   UNL d   1       3.018  -5.983   0.722  0.00  0.00    -0.097 F 
ATOM      8  F1  UNL d   1       5.357  -4.618   0.673  0.00  0.00    -0.096 F 
ATOM      9  I   UNL d   1       5.993  -1.484   0.788  0.00  0.00    -0.060 I 
ATOM     10  F2  UNL d   1       2.944  -0.530   0.978  0.00  0.00    -0.096 F 
ATOM     11  F3  UNL d   1       0.622  -1.923   1.026  0.00  0.00    -0.097 F 
ATOM     12  F4  UNL d   1       0.646  -4.648   0.898  0.00  0.00    -0.092 F 
ENDROOT
TORSDOF 0
ENDMDL
