MODEL 1
REMARK minimizedAffinity 25.0009365
REMARK minimizedRMSD -1
REMARK  0 active torsions:
REMARK  status: ('A' for Active; 'I' for Inactive)
ROOT
ATOM      1  C   UNL d   1      -2.308   1.836  -2.543  0.00  0.00     0.124 A 
ATOM      2  C1  UNL d   1      -0.996   2.048  -2.142  0.00  0.00     0.062 A 
ATOM      3  C2  UNL d   1      -0.326   1.080  -1.399  0.00  0.00     0.162 A 
ATOM      4  C3  UNL d   1      -0.967  -0.110  -1.053  0.00  0.00    -0.034 A 
ATOM      5  C4  UNL d   1      -2.287  -0.315  -1.459  0.00  0.00     0.162 A 
ATOM      6  C5  UNL d   1      -2.952   0.655  -2.201  0.00  0.00     0.062 A 
ATOM      7  F   UNL d   1      -4.219   0.449  -2.588  0.00  0.00    -0.097 F 
ATOM      8  F1  UNL d   1      -2.933  -1.447  -1.143  0.00  0.00    -0.096 F 
ATOM      9  I   UNL d   1       0.031  -1.559   0.058  0.00  0.00    -0.060 I 
ATOM     10  F2  UNL d   1       0.941   1.311  -1.025  0.00  0.00    -0.096 F 
ATOM     11  F3  UNL d   1      -0.372   3.188  -2.471  0.00  0.00    -0.097 F 
ATOM     12  F4  UNL d   1      -2.950   2.769  -3.257  0.00  0.00    -0.092 F 
ENDROOT
TORSDOF 0
ENDMDL
