MODEL 1
REMARK minimizedAffinity 27.0594311
REMARK minimizedRMSD -1
REMARK  0 active torsions:
REMARK  status: ('A' for Active; 'I' for Inactive)
ROOT
ATOM      1  C   UNL d   1      -5.166  -1.777  -3.960  0.00  0.00     0.124 A 
ATOM      2  C1  UNL d   1      -4.474  -1.570  -2.775  0.00  0.00     0.062 A 
ATOM      3  C2  UNL d   1      -3.948  -0.316  -2.481  0.00  0.00     0.162 A 
ATOM      4  C3  UNL d   1      -4.112   0.743  -3.374  0.00  0.00    -0.034 A 
ATOM      5  C4  UNL d   1      -4.807   0.527  -4.565  0.00  0.00     0.162 A 
ATOM      6  C5  UNL d   1      -5.332  -0.728  -4.854  0.00  0.00     0.062 A 
ATOM      7  F   UNL d   1      -5.999  -0.926  -6.000  0.00  0.00    -0.097 F 
ATOM      8  F1  UNL d   1      -4.983   1.523  -5.446  0.00  0.00    -0.096 F 
ATOM      9  I   UNL d   1      -3.326   2.620  -2.938  0.00  0.00    -0.060 I 
ATOM     10  F2  UNL d   1      -3.284  -0.145  -1.328  0.00  0.00    -0.096 F 
ATOM     11  F3  UNL d   1      -4.312  -2.582  -1.910  0.00  0.00    -0.097 F 
ATOM     12  F4  UNL d   1      -5.670  -2.985  -4.241  0.00  0.00    -0.092 F 
ENDROOT
TORSDOF 0
ENDMDL
