MODEL 1
REMARK minimizedAffinity 25.5403881
REMARK minimizedRMSD -1
REMARK  0 active torsions:
REMARK  status: ('A' for Active; 'I' for Inactive)
ROOT
ATOM      1  C   UNL d   1       2.588  -2.312   0.699  0.00  0.00     0.124 A 
ATOM      2  C1  UNL d   1       1.946  -3.515   0.440  0.00  0.00     0.062 A 
ATOM      3  C2  UNL d   1       0.644  -3.723   0.886  0.00  0.00     0.162 A 
ATOM      4  C3  UNL d   1      -0.026  -2.726   1.594  0.00  0.00    -0.034 A 
ATOM      5  C4  UNL d   1       0.627  -1.519   1.852  0.00  0.00     0.162 A 
ATOM      6  C5  UNL d   1       1.928  -1.315   1.404  0.00  0.00     0.062 A 
ATOM      7  F   UNL d   1       2.547  -0.152   1.655  0.00  0.00    -0.097 F 
ATOM      8  F1  UNL d   1       0.012  -0.539   2.530  0.00  0.00    -0.096 F 
ATOM      9  I   UNL d   1      -1.972  -3.034   2.263  0.00  0.00    -0.060 I 
ATOM     10  F2  UNL d   1       0.048  -4.896   0.621  0.00  0.00    -0.096 F 
ATOM     11  F3  UNL d   1       2.581  -4.479  -0.241  0.00  0.00    -0.097 F 
ATOM     12  F4  UNL d   1       3.841  -2.114   0.269  0.00  0.00    -0.092 F 
ENDROOT
TORSDOF 0
ENDMDL
