MODEL 1
REMARK minimizedAffinity 15.8516302
REMARK minimizedRMSD -1
REMARK  0 active torsions:
REMARK  status: ('A' for Active; 'I' for Inactive)
ROOT
ATOM      1  C   UNL d   1       2.614  -2.854   0.463  0.00  0.00     0.124 A 
ATOM      2  C1  UNL d   1       1.975  -4.070   0.264  0.00  0.00     0.062 A 
ATOM      3  C2  UNL d   1       0.705  -4.287   0.789  0.00  0.00     0.162 A 
ATOM      4  C3  UNL d   1       0.064  -3.286   1.518  0.00  0.00    -0.034 A 
ATOM      5  C4  UNL d   1       0.713  -2.065   1.714  0.00  0.00     0.162 A 
ATOM      6  C5  UNL d   1       1.983  -1.853   1.188  0.00  0.00     0.062 A 
ATOM      7  F   UNL d   1       2.599  -0.678   1.381  0.00  0.00    -0.097 F 
ATOM      8  F1  UNL d   1       0.125  -1.081   2.410  0.00  0.00    -0.096 F 
ATOM      9  I   UNL d   1      -1.836  -3.606   2.304  0.00  0.00    -0.060 I 
ATOM     10  F2  UNL d   1       0.111  -5.472   0.581  0.00  0.00    -0.096 F 
ATOM     11  F3  UNL d   1       2.584  -5.039  -0.435  0.00  0.00    -0.097 F 
ATOM     12  F4  UNL d   1       3.837  -2.648  -0.042  0.00  0.00    -0.092 F 
ENDROOT
TORSDOF 0
ENDMDL
