MODEL 1
REMARK minimizedAffinity 14.1467333
REMARK minimizedRMSD -1
REMARK  0 active torsions:
REMARK  status: ('A' for Active; 'I' for Inactive)
ROOT
ATOM      1  C   UNL d   1      -2.957   1.175  -2.306  0.00  0.00     0.124 A 
ATOM      2  C1  UNL d   1      -3.996   1.416  -3.194  0.00  0.00     0.062 A 
ATOM      3  C2  UNL d   1      -3.837   2.341  -4.222  0.00  0.00     0.162 A 
ATOM      4  C3  UNL d   1      -2.633   3.030  -4.369  0.00  0.00    -0.034 A 
ATOM      5  C4  UNL d   1      -1.593   2.783  -3.471  0.00  0.00     0.162 A 
ATOM      6  C5  UNL d   1      -1.757   1.858  -2.445  0.00  0.00     0.062 A 
ATOM      7  F   UNL d   1      -0.752   1.626  -1.587  0.00  0.00    -0.097 F 
ATOM      8  F1  UNL d   1      -0.423   3.428  -3.583  0.00  0.00    -0.096 F 
ATOM      9  I   UNL d   1      -2.391   4.414  -5.905  0.00  0.00    -0.060 I 
ATOM     10  F2  UNL d   1      -4.857   2.554  -5.066  0.00  0.00    -0.096 F 
ATOM     11  F3  UNL d   1      -5.156   0.758  -3.061  0.00  0.00    -0.097 F 
ATOM     12  F4  UNL d   1      -3.113   0.285  -1.317  0.00  0.00    -0.092 F 
ENDROOT
TORSDOF 0
ENDMDL
