MODEL 1
REMARK minimizedAffinity 17.3467846
REMARK minimizedRMSD -1
REMARK  0 active torsions:
REMARK  status: ('A' for Active; 'I' for Inactive)
ROOT
ATOM      1  C   UNL d   1      -3.365   1.353  -3.587  0.00  0.00     0.124 A 
ATOM      2  C1  UNL d   1      -3.047   2.069  -4.733  0.00  0.00     0.062 A 
ATOM      3  C2  UNL d   1      -1.781   2.629  -4.881  0.00  0.00     0.162 A 
ATOM      4  C3  UNL d   1      -0.823   2.474  -3.879  0.00  0.00    -0.034 A 
ATOM      5  C4  UNL d   1      -1.150   1.754  -2.729  0.00  0.00     0.162 A 
ATOM      6  C5  UNL d   1      -2.416   1.196  -2.586  0.00  0.00     0.062 A 
ATOM      7  F   UNL d   1      -2.721   0.505  -1.478  0.00  0.00    -0.097 F 
ATOM      8  F1  UNL d   1      -0.252   1.586  -1.747  0.00  0.00    -0.096 F 
ATOM      9  I   UNL d   1       1.071   3.310  -4.096  0.00  0.00    -0.060 I 
ATOM     10  F2  UNL d   1      -1.502   3.315  -5.999  0.00  0.00    -0.096 F 
ATOM     11  F3  UNL d   1      -3.962   2.222  -5.701  0.00  0.00    -0.097 F 
ATOM     12  F4  UNL d   1      -4.583   0.816  -3.447  0.00  0.00    -0.092 F 
ENDROOT
TORSDOF 0
ENDMDL
