MODEL 1
REMARK minimizedAffinity -1.4274534
REMARK minimizedRMSD -1
REMARK  0 active torsions:
REMARK  status: ('A' for Active; 'I' for Inactive)
ROOT
ATOM      1  N1  IND d   1      -1.781  -1.111  -0.275  0.00  0.00    -0.196 N 
ATOM      2  C2  IND d   1      -1.972  -0.221  -1.295  0.00  0.00     0.054 A 
ATOM      3  C3  IND d   1      -0.892   0.581  -1.428  0.00  0.00    -0.031 A 
ATOM      4  C4  IND d   1       1.340   0.544  -0.146  0.00  0.00     0.051 A 
ATOM      5  C5  IND d   1       1.971  -0.066   0.902  0.00  0.00    -0.031 A 
ATOM      6  C6  IND d   1       1.372  -1.078   1.624  0.00  0.00     0.015 A 
ATOM      7  C7  IND d   1       0.119  -1.527   1.316  0.00  0.00    -0.016 A 
ATOM      8  C8  IND d   1      -0.527  -0.905   0.257  0.00  0.00    -0.047 A 
ATOM      9  C9  IND d   1       0.059   0.151  -0.452  0.00  0.00    -0.096 A 
ATOM     10  HN1 IND d   1      -2.349  -1.700  -0.011  0.00  0.00     0.298 HD
ENDROOT
TORSDOF 0
ENDMDL
