MODEL 1
REMARK minimizedAffinity -3.04682732
REMARK minimizedRMSD -1
REMARK  0 active torsions:
REMARK  status: ('A' for Active; 'I' for Inactive)
ROOT
ATOM      1  N1  IND d   1       1.229  -0.188   0.040  0.00  0.00    -0.196 N 
ATOM      2  C2  IND d   1       1.076  -1.162   0.987  0.00  0.00     0.054 A 
ATOM      3  C3  IND d   1      -0.199  -1.609   1.000  0.00  0.00    -0.031 A 
ATOM      4  C4  IND d   1      -2.177  -0.957  -0.514  0.00  0.00     0.051 A 
ATOM      5  C5  IND d   1      -2.534  -0.084  -1.503  0.00  0.00    -0.031 A 
ATOM      6  C6  IND d   1      -1.636   0.815  -2.042  0.00  0.00     0.015 A 
ATOM      7  C7  IND d   1      -0.339   0.867  -1.616  0.00  0.00    -0.016 A 
ATOM      8  C8  IND d   1       0.026  -0.013  -0.607  0.00  0.00    -0.047 A 
ATOM      9  C9  IND d   1      -0.892  -0.898  -0.028  0.00  0.00    -0.096 A 
ATOM     10  HN1 IND d   1       1.955   0.243  -0.124  0.00  0.00     0.298 HD
ENDROOT
TORSDOF 0
ENDMDL
