MODEL 1
REMARK minimizedAffinity -0.494303524
REMARK minimizedRMSD -1
REMARK  0 active torsions:
REMARK  status: ('A' for Active; 'I' for Inactive)
ROOT
ATOM      1  N1  IND d   1      -1.975  -2.056   0.378  0.00  0.00    -0.196 N 
ATOM      2  C2  IND d   1      -2.918  -1.705  -0.547  0.00  0.00     0.054 A 
ATOM      3  C3  IND d   1      -2.462  -0.698  -1.325  0.00  0.00    -0.031 A 
ATOM      4  C4  IND d   1      -0.160   0.456  -1.322  0.00  0.00     0.051 A 
ATOM      5  C5  IND d   1       1.021   0.503  -0.636  0.00  0.00    -0.031 A 
ATOM      6  C6  IND d   1       1.269  -0.320   0.444  0.00  0.00     0.015 A 
ATOM      7  C7  IND d   1       0.346  -1.232   0.872  0.00  0.00    -0.016 A 
ATOM      8  C8  IND d   1      -0.857  -1.277   0.182  0.00  0.00    -0.047 A 
ATOM      9  C9  IND d   1      -1.131  -0.415  -0.888  0.00  0.00    -0.096 A 
ATOM     10  HN1 IND d   1      -2.066  -2.662   0.982  0.00  0.00     0.298 HD
ENDROOT
TORSDOF 0
ENDMDL
