MODEL 1
REMARK minimizedAffinity -2.1500001
REMARK minimizedRMSD -1
REMARK  0 active torsions:
REMARK  status: ('A' for Active; 'I' for Inactive)
ROOT
ATOM      1  N1  IND d   1       1.574  -0.534   1.004  0.00  0.00    -0.196 N 
ATOM      2  C2  IND d   1       0.276  -0.914   0.804  0.00  0.00     0.054 A 
ATOM      3  C3  IND d   1      -0.470   0.145   0.417  0.00  0.00    -0.031 A 
ATOM      4  C4  IND d   1       0.252   2.572  -0.049  0.00  0.00     0.051 A 
ATOM      5  C5  IND d   1       1.330   3.409   0.030  0.00  0.00    -0.031 A 
ATOM      6  C6  IND d   1       2.569   2.965   0.444  0.00  0.00     0.015 A 
ATOM      7  C7  IND d   1       2.781   1.659   0.784  0.00  0.00    -0.016 A 
ATOM      8  C8  IND d   1       1.688   0.808   0.712  0.00  0.00    -0.047 A 
ATOM      9  C9  IND d   1       0.417   1.262   0.334  0.00  0.00    -0.096 A 
ATOM     10  HN1 IND d   1       2.211  -1.046   1.269  0.00  0.00     0.298 HD
ENDROOT
TORSDOF 0
ENDMDL
