MODEL 1
REMARK minimizedAffinity -1.20549989
REMARK minimizedRMSD -1
REMARK  0 active torsions:
REMARK  status: ('A' for Active; 'I' for Inactive)
ROOT
ATOM      1  N1  IND d   1      -1.457  -1.471   0.785  0.00  0.00    -0.196 N 
ATOM      2  C2  IND d   1      -2.553  -1.586  -0.024  0.00  0.00     0.054 A 
ATOM      3  C3  IND d   1      -2.397  -0.835  -1.137  0.00  0.00    -0.031 A 
ATOM      4  C4  IND d   1      -0.382   0.583  -1.885  0.00  0.00     0.051 A 
ATOM      5  C5  IND d   1       0.839   1.026  -1.462  0.00  0.00    -0.031 A 
ATOM      6  C6  IND d   1       1.370   0.649  -0.245  0.00  0.00     0.015 A 
ATOM      7  C7  IND d   1       0.700  -0.197   0.593  0.00  0.00    -0.016 A 
ATOM      8  C8  IND d   1      -0.543  -0.643   0.170  0.00  0.00    -0.047 A 
ATOM      9  C9  IND d   1      -1.106  -0.231  -1.045  0.00  0.00    -0.096 A 
ATOM     10  HN1 IND d   1      -1.355  -1.852   1.549  0.00  0.00     0.298 HD
ENDROOT
TORSDOF 0
ENDMDL
