MODEL 1
REMARK minimizedAffinity 0.00344363973
REMARK minimizedRMSD -1
REMARK  0 active torsions:
REMARK  status: ('A' for Active; 'I' for Inactive)
ROOT
ATOM      1  N1  IND d   1      -0.990  -2.389   1.105  0.00  0.00    -0.196 N 
ATOM      2  C2  IND d   1       0.082  -2.662   1.909  0.00  0.00     0.054 A 
ATOM      3  C3  IND d   1       1.074  -1.772   1.689  0.00  0.00    -0.031 A 
ATOM      4  C4  IND d   1       1.118   0.275   0.128  0.00  0.00     0.051 A 
ATOM      5  C5  IND d   1       0.386   0.913  -0.834  0.00  0.00    -0.031 A 
ATOM      6  C6  IND d   1      -0.869   0.474  -1.204  0.00  0.00     0.015 A 
ATOM      7  C7  IND d   1      -1.445  -0.616  -0.616  0.00  0.00    -0.016 A 
ATOM      8  C8  IND d   1      -0.702  -1.269   0.356  0.00  0.00    -0.047 A 
ATOM      9  C9  IND d   1       0.590  -0.854   0.706  0.00  0.00    -0.096 A 
ATOM     10  HN1 IND d   1      -1.720  -2.841   1.072  0.00  0.00     0.298 HD
ENDROOT
TORSDOF 0
ENDMDL
