MODEL 1
REMARK minimizedAffinity -2.5806005
REMARK minimizedRMSD -1
REMARK  0 active torsions:
REMARK  status: ('A' for Active; 'I' for Inactive)
ROOT
ATOM      1  N1  IND d   1       0.740  -0.926   1.070  0.00  0.00    -0.196 N 
ATOM      2  C2  IND d   1       0.224  -0.650  -0.165  0.00  0.00     0.054 A 
ATOM      3  C3  IND d   1       0.604   0.582  -0.570  0.00  0.00    -0.031 A 
ATOM      4  C4  IND d   1       2.156   2.278   0.588  0.00  0.00     0.051 A 
ATOM      5  C5  IND d   1       2.843   2.491   1.750  0.00  0.00    -0.031 A 
ATOM      6  C6  IND d   1       2.867   1.555   2.765  0.00  0.00     0.015 A 
ATOM      7  C7  IND d   1       2.211   0.363   2.649  0.00  0.00    -0.016 A 
ATOM      8  C8  IND d   1       1.507   0.146   1.473  0.00  0.00    -0.047 A 
ATOM      9  C9  IND d   1       1.444   1.109   0.458  0.00  0.00    -0.096 A 
ATOM     10  HN1 IND d   1       0.609  -1.647   1.520  0.00  0.00     0.298 HD
ENDROOT
TORSDOF 0
ENDMDL
