MODEL 1
REMARK minimizedAffinity -1.08851683
REMARK minimizedRMSD -1
REMARK  0 active torsions:
REMARK  status: ('A' for Active; 'I' for Inactive)
ROOT
ATOM      1  N1  IND d   1       2.968   0.277   1.097  0.00  0.00    -0.196 N 
ATOM      2  C2  IND d   1       2.982   1.454   0.401  0.00  0.00     0.054 A 
ATOM      3  C3  IND d   1       1.787   1.662  -0.196  0.00  0.00    -0.031 A 
ATOM      4  C4  IND d   1      -0.365   0.254  -0.081  0.00  0.00     0.051 A 
ATOM      5  C5  IND d   1      -0.855  -0.927   0.402  0.00  0.00    -0.031 A 
ATOM      6  C6  IND d   1      -0.081  -1.783   1.159  0.00  0.00     0.015 A 
ATOM      7  C7  IND d   1       1.214  -1.483   1.472  0.00  0.00    -0.016 A 
ATOM      8  C8  IND d   1       1.718  -0.288   0.977  0.00  0.00    -0.047 A 
ATOM      9  C9  IND d   1       0.950   0.564   0.173  0.00  0.00    -0.096 A 
ATOM     10  HN1 IND d   1       3.629  -0.054   1.536  0.00  0.00     0.298 HD
ENDROOT
TORSDOF 0
ENDMDL
