MODEL 1
REMARK minimizedAffinity -1.45583034
REMARK minimizedRMSD -1
REMARK  0 active torsions:
REMARK  status: ('A' for Active; 'I' for Inactive)
ROOT
ATOM      1  N1  IND d   1       0.272   0.717   1.224  0.00  0.00    -0.196 N 
ATOM      2  C2  IND d   1       0.546  -0.328   0.386  0.00  0.00     0.054 A 
ATOM      3  C3  IND d   1       1.736  -0.139  -0.227  0.00  0.00    -0.031 A 
ATOM      4  C4  IND d   1       3.446   1.762   0.072  0.00  0.00     0.051 A 
ATOM      5  C5  IND d   1       3.624   2.962   0.701  0.00  0.00    -0.031 A 
ATOM      6  C6  IND d   1       2.675   3.484   1.556  0.00  0.00     0.015 A 
ATOM      7  C7  IND d   1       1.513   2.817   1.824  0.00  0.00    -0.016 A 
ATOM      8  C8  IND d   1       1.326   1.602   1.181  0.00  0.00    -0.047 A 
ATOM      9  C9  IND d   1       2.267   1.087   0.279  0.00  0.00    -0.096 A 
ATOM     10  HN1 IND d   1      -0.440   0.806   1.698  0.00  0.00     0.298 HD
ENDROOT
TORSDOF 0
ENDMDL
