MODEL 1
REMARK minimizedAffinity -4.2572937
REMARK minimizedRMSD -1
REMARK  0 active torsions:
REMARK  status: ('A' for Active; 'I' for Inactive)
ROOT
ATOM      1  N1  IND d   1      -1.068   0.902  -1.438  0.00  0.00    -0.196 N 
ATOM      2  C2  IND d   1      -2.151   0.093  -1.644  0.00  0.00     0.054 A 
ATOM      3  C3  IND d   1      -2.024  -1.052  -0.937  0.00  0.00    -0.031 A 
ATOM      4  C4  IND d   1      -0.172  -1.766   0.702  0.00  0.00     0.051 A 
ATOM      5  C5  IND d   1       1.044  -1.376   1.190  0.00  0.00    -0.031 A 
ATOM      6  C6  IND d   1       1.629  -0.182   0.821  0.00  0.00     0.015 A 
ATOM      7  C7  IND d   1       1.011   0.676  -0.045  0.00  0.00    -0.016 A 
ATOM      8  C8  IND d   1      -0.220   0.281  -0.547  0.00  0.00    -0.047 A 
ATOM      9  C9  IND d   1      -0.799  -0.950  -0.209  0.00  0.00    -0.096 A 
ATOM     10  HN1 IND d   1      -0.937   1.669  -1.804  0.00  0.00     0.298 HD
ENDROOT
TORSDOF 0
ENDMDL
