MODEL 1
REMARK minimizedAffinity -0.92369324
REMARK minimizedRMSD -1
REMARK  0 active torsions:
REMARK  status: ('A' for Active; 'I' for Inactive)
ROOT
ATOM      1  N1  IND d   1       1.224   0.011   1.089  0.00  0.00    -0.196 N 
ATOM      2  C2  IND d   1       1.827   1.134   0.597  0.00  0.00     0.054 A 
ATOM      3  C3  IND d   1       1.196   1.554  -0.523  0.00  0.00    -0.031 A 
ATOM      4  C4  IND d   1      -0.907   0.609  -1.667  0.00  0.00     0.051 A 
ATOM      5  C5  IND d   1      -1.791  -0.432  -1.606  0.00  0.00    -0.031 A 
ATOM      6  C6  IND d   1      -1.715  -1.397  -0.622  0.00  0.00     0.015 A 
ATOM      7  C7  IND d   1      -0.755  -1.349   0.348  0.00  0.00    -0.016 A 
ATOM      8  C8  IND d   1       0.148  -0.298   0.286  0.00  0.00    -0.047 A 
ATOM      9  C9  IND d   1       0.102   0.660  -0.735  0.00  0.00    -0.096 A 
ATOM     10  HN1 IND d   1       1.474  -0.430   1.784  0.00  0.00     0.298 HD
ENDROOT
TORSDOF 0
ENDMDL
