MODEL 1
REMARK minimizedAffinity 1.83358431
REMARK minimizedRMSD -1
REMARK  0 active torsions:
REMARK  status: ('A' for Active; 'I' for Inactive)
ROOT
ATOM      1  N1  IND d   1      -1.975  -1.694   0.679  0.00  0.00    -0.196 N 
ATOM      2  C2  IND d   1      -2.815  -1.538  -0.388  0.00  0.00     0.054 A 
ATOM      3  C3  IND d   1      -2.266  -0.707  -1.302  0.00  0.00    -0.031 A 
ATOM      4  C4  IND d   1       0.044   0.429  -1.300  0.00  0.00     0.051 A 
ATOM      5  C5  IND d   1       1.153   0.615  -0.522  0.00  0.00    -0.031 A 
ATOM      6  C6  IND d   1       1.279   0.027   0.720  0.00  0.00     0.015 A 
ATOM      7  C7  IND d   1       0.302  -0.782   1.228  0.00  0.00    -0.016 A 
ATOM      8  C8  IND d   1      -0.828  -0.968   0.444  0.00  0.00    -0.047 A 
ATOM      9  C9  IND d   1      -0.980  -0.339  -0.799  0.00  0.00    -0.096 A 
ATOM     10  HN1 IND d   1      -2.135  -2.167   1.379  0.00  0.00     0.298 HD
ENDROOT
TORSDOF 0
ENDMDL
