MODEL 1
REMARK minimizedAffinity -2.11322188
REMARK minimizedRMSD -1
REMARK  0 active torsions:
REMARK  status: ('A' for Active; 'I' for Inactive)
ROOT
ATOM      1  N1  IND d   1      -1.394   0.023  -1.378  0.00  0.00    -0.196 N 
ATOM      2  C2  IND d   1      -2.462  -0.818  -1.225  0.00  0.00     0.054 A 
ATOM      3  C3  IND d   1      -2.171  -1.788  -0.329  0.00  0.00    -0.031 A 
ATOM      4  C4  IND d   1      -0.044  -2.128   1.081  0.00  0.00     0.051 A 
ATOM      5  C5  IND d   1       1.218  -1.637   1.263  0.00  0.00    -0.031 A 
ATOM      6  C6  IND d   1       1.682  -0.543   0.561  0.00  0.00     0.015 A 
ATOM      7  C7  IND d   1       0.894   0.109  -0.344  0.00  0.00    -0.016 A 
ATOM      8  C8  IND d   1      -0.386  -0.391  -0.536  0.00  0.00    -0.047 A 
ATOM      9  C9  IND d   1      -0.848  -1.527   0.142  0.00  0.00    -0.096 A 
ATOM     10  HN1 IND d   1      -1.359   0.696  -1.911  0.00  0.00     0.298 HD
ENDROOT
TORSDOF 0
ENDMDL
