MODEL 1
REMARK minimizedAffinity -2.83499765
REMARK minimizedRMSD -1
REMARK  0 active torsions:
REMARK  status: ('A' for Active; 'I' for Inactive)
ROOT
ATOM      1  N1  IND d   1       0.603   2.619   1.433  0.00  0.00    -0.196 N 
ATOM      2  C2  IND d   1       1.958   2.568   1.606  0.00  0.00     0.054 A 
ATOM      3  C3  IND d   1       2.484   1.543   0.898  0.00  0.00    -0.031 A 
ATOM      4  C4  IND d   1       1.320  -0.115  -0.691  0.00  0.00     0.051 A 
ATOM      5  C5  IND d   1       0.085  -0.487  -1.143  0.00  0.00    -0.031 A 
ATOM      6  C6  IND d   1      -1.063   0.172  -0.754  0.00  0.00     0.015 A 
ATOM      7  C7  IND d   1      -1.018   1.240   0.097  0.00  0.00    -0.016 A 
ATOM      8  C8  IND d   1       0.234   1.616   0.563  0.00  0.00    -0.047 A 
ATOM      9  C9  IND d   1       1.398   0.925   0.205  0.00  0.00    -0.096 A 
ATOM     10  HN1 IND d   1       0.071   3.183   1.805  0.00  0.00     0.298 HD
ENDROOT
TORSDOF 0
ENDMDL
