MODEL 1
REMARK minimizedAffinity 0.563870788
REMARK minimizedRMSD -1
REMARK  0 active torsions:
REMARK  status: ('A' for Active; 'I' for Inactive)
ROOT
ATOM      1  N1  IND d   1       1.468  -0.227   0.455  0.00  0.00    -0.196 N 
ATOM      2  C2  IND d   1       0.248  -0.043  -0.134  0.00  0.00     0.054 A 
ATOM      3  C3  IND d   1      -0.039   1.276  -0.217  0.00  0.00    -0.031 A 
ATOM      4  C4  IND d   1       1.391   3.307   0.458  0.00  0.00     0.051 A 
ATOM      5  C5  IND d   1       2.565   3.642   1.072  0.00  0.00    -0.031 A 
ATOM      6  C6  IND d   1       3.452   2.684   1.519  0.00  0.00     0.015 A 
ATOM      7  C7  IND d   1       3.203   1.351   1.357  0.00  0.00    -0.016 A 
ATOM      8  C8  IND d   1       2.009   1.008   0.740  0.00  0.00    -0.047 A 
ATOM      9  C9  IND d   1       1.084   1.974   0.323  0.00  0.00    -0.096 A 
ATOM     10  HN1 IND d   1       1.835  -0.987   0.621  0.00  0.00     0.298 HD
ENDROOT
TORSDOF 0
ENDMDL
