MODEL 1
REMARK minimizedAffinity 1.01103163
REMARK minimizedRMSD -1
REMARK  0 active torsions:
REMARK  status: ('A' for Active; 'I' for Inactive)
ROOT
ATOM      1  C   UNL d   1       1.647  -0.358  -0.157  0.00  0.00     0.124 A 
ATOM      2  C1  UNL d   1       0.815  -1.319  -0.716  0.00  0.00     0.062 A 
ATOM      3  C2  UNL d   1      -0.567  -1.173  -0.648  0.00  0.00     0.162 A 
ATOM      4  C3  UNL d   1      -1.128  -0.062  -0.018  0.00  0.00    -0.034 A 
ATOM      5  C4  UNL d   1      -0.285   0.900   0.543  0.00  0.00     0.162 A 
ATOM      6  C5  UNL d   1       1.096   0.750   0.472  0.00  0.00     0.062 A 
ATOM      7  F   UNL d   1       1.898   1.679   1.012  0.00  0.00    -0.097 F 
ATOM      8  F1  UNL d   1      -0.790   1.981   1.155  0.00  0.00    -0.096 F 
ATOM      9  I   UNL d   1      -3.194   0.160   0.086  0.00  0.00    -0.060 I 
ATOM     10  F2  UNL d   1      -1.346  -2.117  -1.196  0.00  0.00    -0.096 F 
ATOM     11  F3  UNL d   1       1.345  -2.391  -1.323  0.00  0.00    -0.097 F 
ATOM     12  F4  UNL d   1       2.977  -0.501  -0.223  0.00  0.00    -0.092 F 
ENDROOT
TORSDOF 0
ENDMDL
