MODEL 1
REMARK minimizedAffinity -2.99508739
REMARK minimizedRMSD -1
REMARK  0 active torsions:
REMARK  status: ('A' for Active; 'I' for Inactive)
ROOT
ATOM      1  C   UNL d   1       2.795  -0.432   0.150  0.00  0.00     0.124 A 
ATOM      2  C1  UNL d   1       1.820  -1.419   0.131  0.00  0.00     0.062 A 
ATOM      3  C2  UNL d   1       0.472  -1.071   0.105  0.00  0.00     0.162 A 
ATOM      4  C3  UNL d   1       0.092   0.271   0.095  0.00  0.00    -0.034 A 
ATOM      5  C4  UNL d   1       1.079   1.258   0.114  0.00  0.00     0.162 A 
ATOM      6  C5  UNL d   1       2.424   0.905   0.141  0.00  0.00     0.062 A 
ATOM      7  F   UNL d   1       3.365   1.861   0.158  0.00  0.00    -0.097 F 
ATOM      8  F1  UNL d   1       0.748   2.558   0.105  0.00  0.00    -0.096 F 
ATOM      9  I   UNL d   1      -1.922   0.795   0.055  0.00  0.00    -0.060 I 
ATOM     10  F2  UNL d   1      -0.449  -2.046   0.087  0.00  0.00    -0.096 F 
ATOM     11  F3  UNL d   1       2.176  -2.711   0.141  0.00  0.00    -0.097 F 
ATOM     12  F4  UNL d   1       4.091  -0.769   0.176  0.00  0.00    -0.092 F 
ENDROOT
TORSDOF 0
ENDMDL
