MODEL 1
REMARK minimizedAffinity -1.63939679
REMARK minimizedRMSD -1
REMARK  0 active torsions:
REMARK  status: ('A' for Active; 'I' for Inactive)
ROOT
ATOM      1  C   UNL d   1      -1.136   1.016  -1.082  0.00  0.00     0.124 A 
ATOM      2  C1  UNL d   1      -0.138   1.618  -0.328  0.00  0.00     0.062 A 
ATOM      3  C2  UNL d   1       0.825   0.839   0.307  0.00  0.00     0.162 A 
ATOM      4  C3  UNL d   1       0.796  -0.551   0.190  0.00  0.00    -0.034 A 
ATOM      5  C4  UNL d   1      -0.212  -1.149  -0.568  0.00  0.00     0.162 A 
ATOM      6  C5  UNL d   1      -1.173  -0.366  -1.201  0.00  0.00     0.062 A 
ATOM      7  F   UNL d   1      -2.137  -0.949  -1.928  0.00  0.00    -0.097 F 
ATOM      8  F1  UNL d   1      -0.271  -2.482  -0.701  0.00  0.00    -0.096 F 
ATOM      9  I   UNL d   1       2.234  -1.718   1.138  0.00  0.00    -0.060 I 
ATOM     10  F2  UNL d   1       1.779   1.447   1.028  0.00  0.00    -0.096 F 
ATOM     11  F3  UNL d   1      -0.101   2.953  -0.211  0.00  0.00    -0.097 F 
ATOM     12  F4  UNL d   1      -2.063   1.767  -1.691  0.00  0.00    -0.092 F 
ENDROOT
TORSDOF 0
ENDMDL
