MODEL 1
REMARK minimizedAffinity -2.80368662
REMARK minimizedRMSD -1
REMARK  0 active torsions:
REMARK  status: ('A' for Active; 'I' for Inactive)
ROOT
ATOM      1  C   UNL d   1       1.908   1.357   0.572  0.00  0.00     0.124 A 
ATOM      2  C1  UNL d   1       2.411   0.106   0.903  0.00  0.00     0.062 A 
ATOM      3  C2  UNL d   1       1.703  -1.044   0.566  0.00  0.00     0.162 A 
ATOM      4  C3  UNL d   1       0.484  -0.949  -0.106  0.00  0.00    -0.034 A 
ATOM      5  C4  UNL d   1      -0.015   0.312  -0.435  0.00  0.00     0.162 A 
ATOM      6  C5  UNL d   1       0.696   1.459  -0.096  0.00  0.00     0.062 A 
ATOM      7  F   UNL d   1       0.209   2.666  -0.417  0.00  0.00    -0.097 F 
ATOM      8  F1  UNL d   1      -1.183   0.440  -1.082  0.00  0.00    -0.096 F 
ATOM      9  I   UNL d   1      -0.577  -2.667  -0.612  0.00  0.00    -0.060 I 
ATOM     10  F2  UNL d   1       2.212  -2.240   0.898  0.00  0.00    -0.096 F 
ATOM     11  F3  UNL d   1       3.581   0.005   1.549  0.00  0.00    -0.097 F 
ATOM     12  F4  UNL d   1       2.591   2.462   0.898  0.00  0.00    -0.092 F 
ENDROOT
TORSDOF 0
ENDMDL
