MODEL 1
REMARK minimizedAffinity -3.00400424
REMARK minimizedRMSD -1
REMARK  0 active torsions:
REMARK  status: ('A' for Active; 'I' for Inactive)
ROOT
ATOM      1  C   UNL d   1       0.347  -1.251  -0.250  0.00  0.00     0.124 A 
ATOM      2  C1  UNL d   1       1.678  -1.578  -0.036  0.00  0.00     0.062 A 
ATOM      3  C2  UNL d   1       2.631  -0.574   0.114  0.00  0.00     0.162 A 
ATOM      4  C3  UNL d   1       2.254   0.768   0.051  0.00  0.00    -0.034 A 
ATOM      5  C4  UNL d   1       0.913   1.089  -0.166  0.00  0.00     0.162 A 
ATOM      6  C5  UNL d   1      -0.035   0.082  -0.315  0.00  0.00     0.062 A 
ATOM      7  F   UNL d   1      -1.321   0.400  -0.522  0.00  0.00    -0.097 F 
ATOM      8  F1  UNL d   1       0.517   2.369  -0.232  0.00  0.00    -0.096 F 
ATOM      9  I   UNL d   1       3.675   2.272   0.274  0.00  0.00    -0.060 I 
ATOM     10  F2  UNL d   1       3.910  -0.919   0.320  0.00  0.00    -0.096 F 
ATOM     11  F3  UNL d   1       2.050  -2.865   0.027  0.00  0.00    -0.097 F 
ATOM     12  F4  UNL d   1      -0.567  -2.219  -0.395  0.00  0.00    -0.092 F 
ENDROOT
TORSDOF 0
ENDMDL
