MODEL 1
REMARK minimizedAffinity -2.49569178
REMARK minimizedRMSD -1
REMARK  0 active torsions:
REMARK  status: ('A' for Active; 'I' for Inactive)
ROOT
ATOM      1  C   UNL d   1       1.361   0.286   0.888  0.00  0.00     0.124 A 
ATOM      2  C1  UNL d   1       0.197   0.732   0.278  0.00  0.00     0.062 A 
ATOM      3  C2  UNL d   1      -0.446  -0.062  -0.667  0.00  0.00     0.162 A 
ATOM      4  C3  UNL d   1       0.073  -1.311  -1.008  0.00  0.00    -0.034 A 
ATOM      5  C4  UNL d   1       1.245  -1.752  -0.391  0.00  0.00     0.162 A 
ATOM      6  C5  UNL d   1       1.884  -0.955   0.553  0.00  0.00     0.062 A 
ATOM      7  F   UNL d   1       3.009  -1.387   1.142  0.00  0.00    -0.097 F 
ATOM      8  F1  UNL d   1       1.771  -2.948  -0.694  0.00  0.00    -0.096 F 
ATOM      9  I   UNL d   1      -0.886  -2.501  -2.421  0.00  0.00    -0.060 I 
ATOM     10  F2  UNL d   1      -1.570   0.394  -1.241  0.00  0.00    -0.096 F 
ATOM     11  F3  UNL d   1      -0.310   1.932   0.598  0.00  0.00    -0.097 F 
ATOM     12  F4  UNL d   1       1.979   1.053   1.796  0.00  0.00    -0.092 F 
ENDROOT
TORSDOF 0
ENDMDL
