MODEL 1
REMARK minimizedAffinity 9.04909706
REMARK minimizedRMSD -1
REMARK  0 active torsions:
REMARK  status: ('A' for Active; 'I' for Inactive)
ROOT
ATOM      1  C   UNL d   1      -2.358  -3.988  -2.998  0.00  0.00     0.124 A 
ATOM      2  C1  UNL d   1      -2.106  -4.805  -4.092  0.00  0.00     0.062 A 
ATOM      3  C2  UNL d   1      -3.142  -5.165  -4.949  0.00  0.00     0.162 A 
ATOM      4  C3  UNL d   1      -4.439  -4.707  -4.717  0.00  0.00    -0.034 A 
ATOM      5  C4  UNL d   1      -4.684  -3.887  -3.615  0.00  0.00     0.162 A 
ATOM      6  C5  UNL d   1      -3.646  -3.530  -2.761  0.00  0.00     0.062 A 
ATOM      7  F   UNL d   1      -3.890  -2.741  -1.705  0.00  0.00    -0.097 F 
ATOM      8  F1  UNL d   1      -5.919  -3.429  -3.362  0.00  0.00    -0.096 F 
ATOM      9  I   UNL d   1      -5.990  -5.243  -5.997  0.00  0.00    -0.060 I 
ATOM     10  F2  UNL d   1      -2.870  -5.956  -5.998  0.00  0.00    -0.096 F 
ATOM     11  F3  UNL d   1      -0.863  -5.250  -4.323  0.00  0.00    -0.097 F 
ATOM     12  F4  UNL d   1      -1.359  -3.644  -2.174  0.00  0.00    -0.092 F 
ENDROOT
TORSDOF 0
ENDMDL
