MODEL 1
REMARK minimizedAffinity 9.01026154
REMARK minimizedRMSD -1
REMARK  0 active torsions:
REMARK  status: ('A' for Active; 'I' for Inactive)
ROOT
ATOM      1  C   UNL d   1      -4.021  -1.927  -2.872  0.00  0.00     0.124 A 
ATOM      2  C1  UNL d   1      -4.813  -1.938  -4.012  0.00  0.00     0.062 A 
ATOM      3  C2  UNL d   1      -4.737  -3.003  -4.906  0.00  0.00     0.162 A 
ATOM      4  C3  UNL d   1      -3.866  -4.065  -4.663  0.00  0.00    -0.034 A 
ATOM      5  C4  UNL d   1      -3.073  -4.046  -3.515  0.00  0.00     0.162 A 
ATOM      6  C5  UNL d   1      -3.152  -2.980  -2.625  0.00  0.00     0.062 A 
ATOM      7  F   UNL d   1      -2.387  -2.970  -1.524  0.00  0.00    -0.097 F 
ATOM      8  F1  UNL d   1      -2.225  -5.051  -3.251  0.00  0.00    -0.096 F 
ATOM      9  I   UNL d   1      -3.750  -5.658  -5.997  0.00  0.00    -0.060 I 
ATOM     10  F2  UNL d   1      -5.514  -2.988  -6.000  0.00  0.00    -0.096 F 
ATOM     11  F3  UNL d   1      -5.653  -0.922  -4.254  0.00  0.00    -0.097 F 
ATOM     12  F4  UNL d   1      -4.096  -0.901  -2.014  0.00  0.00    -0.092 F 
ENDROOT
TORSDOF 0
ENDMDL
