MODEL 1
REMARK minimizedAffinity 4.42651033
REMARK minimizedRMSD -1
REMARK  0 active torsions:
REMARK  status: ('A' for Active; 'I' for Inactive)
ROOT
ATOM      1  C   UNL d   1      -1.889  -4.932  -4.003  0.00  0.00     0.124 A 
ATOM      2  C1  UNL d   1      -2.826  -5.098  -5.013  0.00  0.00     0.062 A 
ATOM      3  C2  UNL d   1      -4.000  -4.350  -5.009  0.00  0.00     0.162 A 
ATOM      4  C3  UNL d   1      -4.244  -3.429  -3.990  0.00  0.00    -0.034 A 
ATOM      5  C4  UNL d   1      -3.297  -3.268  -2.977  0.00  0.00     0.162 A 
ATOM      6  C5  UNL d   1      -2.125  -4.018  -2.986  0.00  0.00     0.062 A 
ATOM      7  F   UNL d   1      -1.221  -3.857  -2.009  0.00  0.00    -0.097 F 
ATOM      8  F1  UNL d   1      -3.499  -2.391  -1.983  0.00  0.00    -0.096 F 
ATOM      9  I   UNL d   1      -5.998  -2.308  -3.980  0.00  0.00    -0.060 I 
ATOM     10  F2  UNL d   1      -4.888  -4.531  -5.998  0.00  0.00    -0.096 F 
ATOM     11  F3  UNL d   1      -2.601  -5.982  -5.996  0.00  0.00    -0.097 F 
ATOM     12  F4  UNL d   1      -0.761  -5.654  -4.009  0.00  0.00    -0.092 F 
ENDROOT
TORSDOF 0
ENDMDL
