MODEL 1
REMARK minimizedAffinity 5.61514854
REMARK minimizedRMSD -1
REMARK  0 active torsions:
REMARK  status: ('A' for Active; 'I' for Inactive)
ROOT
ATOM      1  C   UNL d   1      -1.982  -4.125  -2.989  0.00  0.00     0.124 A 
ATOM      2  C1  UNL d   1      -3.204  -3.511  -2.752  0.00  0.00     0.062 A 
ATOM      3  C2  UNL d   1      -4.277  -3.732  -3.610  0.00  0.00     0.162 A 
ATOM      4  C3  UNL d   1      -4.134  -4.572  -4.714  0.00  0.00    -0.034 A 
ATOM      5  C4  UNL d   1      -2.901  -5.185  -4.947  0.00  0.00     0.162 A 
ATOM      6  C5  UNL d   1      -1.832  -4.961  -4.087  0.00  0.00     0.062 A 
ATOM      7  F   UNL d   1      -0.652  -5.555  -4.318  0.00  0.00    -0.097 F 
ATOM      8  F1  UNL d   1      -2.729  -5.999  -6.000  0.00  0.00    -0.096 F 
ATOM      9  I   UNL d   1      -5.736  -4.905  -6.000  0.00  0.00    -0.060 I 
ATOM     10  F2  UNL d   1      -5.446  -3.126  -3.355  0.00  0.00    -0.096 F 
ATOM     11  F3  UNL d   1      -3.351  -2.702  -1.692  0.00  0.00    -0.097 F 
ATOM     12  F4  UNL d   1      -0.951  -3.910  -2.163  0.00  0.00    -0.092 F 
ENDROOT
TORSDOF 0
ENDMDL
