MODEL 1
REMARK minimizedAffinity 13.0609894
REMARK minimizedRMSD -1
REMARK  0 active torsions:
REMARK  status: ('A' for Active; 'I' for Inactive)
ROOT
ATOM      1  C   UNL d   1      -4.464  -2.092  -2.831  0.00  0.00     0.124 A 
ATOM      2  C1  UNL d   1      -3.730  -3.242  -2.575  0.00  0.00     0.062 A 
ATOM      3  C2  UNL d   1      -3.756  -4.303  -3.475  0.00  0.00     0.162 A 
ATOM      4  C3  UNL d   1      -4.519  -4.220  -4.640  0.00  0.00    -0.034 A 
ATOM      5  C4  UNL d   1      -5.256  -3.061  -4.889  0.00  0.00     0.162 A 
ATOM      6  C5  UNL d   1      -5.226  -2.002  -3.987  0.00  0.00     0.062 A 
ATOM      7  F   UNL d   1      -5.936  -0.892  -4.235  0.00  0.00    -0.097 F 
ATOM      8  F1  UNL d   1      -6.000  -2.947  -6.000  0.00  0.00    -0.096 F 
ATOM      9  I   UNL d   1      -4.561  -5.805  -5.988  0.00  0.00    -0.060 I 
ATOM     10  F2  UNL d   1      -3.037  -5.402  -3.202  0.00  0.00    -0.096 F 
ATOM     11  F3  UNL d   1      -2.994  -3.331  -1.458  0.00  0.00    -0.097 F 
ATOM     12  F4  UNL d   1      -4.438  -1.072  -1.963  0.00  0.00    -0.092 F 
ENDROOT
TORSDOF 0
ENDMDL
