MODEL 1
REMARK minimizedAffinity 11.5608883
REMARK minimizedRMSD -1
REMARK  0 active torsions:
REMARK  status: ('A' for Active; 'I' for Inactive)
ROOT
ATOM      1  C   UNL d   1      -3.394  -4.836  -4.005  0.00  0.00     0.124 A 
ATOM      2  C1  UNL d   1      -3.189  -3.882  -3.019  0.00  0.00     0.062 A 
ATOM      3  C2  UNL d   1      -3.929  -2.703  -3.020  0.00  0.00     0.162 A 
ATOM      4  C3  UNL d   1      -4.883  -2.472  -4.012  0.00  0.00    -0.034 A 
ATOM      5  C4  UNL d   1      -5.083  -3.436  -5.001  0.00  0.00     0.162 A 
ATOM      6  C5  UNL d   1      -4.341  -4.613  -4.995  0.00  0.00     0.062 A 
ATOM      7  F   UNL d   1      -4.541  -5.534  -5.949  0.00  0.00    -0.097 F 
ATOM      8  F1  UNL d   1      -5.992  -3.246  -5.969  0.00  0.00    -0.096 F 
ATOM      9  I   UNL d   1      -5.991  -0.711  -4.017  0.00  0.00    -0.060 I 
ATOM     10  F2  UNL d   1      -3.709  -1.798  -2.055  0.00  0.00    -0.096 F 
ATOM     11  F3  UNL d   1      -2.274  -4.095  -2.062  0.00  0.00    -0.097 F 
ATOM     12  F4  UNL d   1      -2.680  -5.969  -4.002  0.00  0.00    -0.092 F 
ENDROOT
TORSDOF 0
ENDMDL
