MODEL 1
REMARK minimizedAffinity 8.38346577
REMARK minimizedRMSD -1
REMARK  0 active torsions:
REMARK  status: ('A' for Active; 'I' for Inactive)
ROOT
ATOM      1  C   UNL d   1      -0.258  -1.769   1.192  0.00  0.00     0.124 A 
ATOM      2  C1  UNL d   1      -0.368  -0.502   0.636  0.00  0.00     0.062 A 
ATOM      3  C2  UNL d   1      -1.539  -0.122  -0.013  0.00  0.00     0.162 A 
ATOM      4  C3  UNL d   1      -2.610  -1.010  -0.109  0.00  0.00    -0.034 A 
ATOM      5  C4  UNL d   1      -2.491  -2.283   0.451  0.00  0.00     0.162 A 
ATOM      6  C5  UNL d   1      -1.319  -2.658   1.099  0.00  0.00     0.062 A 
ATOM      7  F   UNL d   1      -1.214  -3.883   1.636  0.00  0.00    -0.097 F 
ATOM      8  F1  UNL d   1      -3.502  -3.162   0.377  0.00  0.00    -0.096 F 
ATOM      9  I   UNL d   1      -4.363  -0.447  -1.079  0.00  0.00    -0.060 I 
ATOM     10  F2  UNL d   1      -1.619   1.109  -0.541  0.00  0.00    -0.096 F 
ATOM     11  F3  UNL d   1       0.656   0.359   0.724  0.00  0.00    -0.097 F 
ATOM     12  F4  UNL d   1       0.871  -2.132   1.815  0.00  0.00    -0.092 F 
ENDROOT
TORSDOF 0
ENDMDL
