MODEL 1
REMARK minimizedAffinity 20.2986069
REMARK minimizedRMSD -1
REMARK  0 active torsions:
REMARK  status: ('A' for Active; 'I' for Inactive)
ROOT
ATOM      1  C   UNL d   1      -1.453  -4.832  -4.004  0.00  0.00     0.124 A 
ATOM      2  C1  UNL d   1      -1.782  -3.945  -2.988  0.00  0.00     0.062 A 
ATOM      3  C2  UNL d   1      -3.024  -3.318  -2.980  0.00  0.00     0.162 A 
ATOM      4  C3  UNL d   1      -3.949  -3.576  -3.991  0.00  0.00    -0.034 A 
ATOM      5  C4  UNL d   1      -3.612  -4.469  -5.011  0.00  0.00     0.162 A 
ATOM      6  C5  UNL d   1      -2.368  -5.093  -5.014  0.00  0.00     0.062 A 
ATOM      7  F   UNL d   1      -2.053  -5.949  -5.997  0.00  0.00    -0.097 F 
ATOM      8  F1  UNL d   1      -4.477  -4.740  -5.999  0.00  0.00    -0.096 F 
ATOM      9  I   UNL d   1      -5.808  -2.641  -3.983  0.00  0.00    -0.060 I 
ATOM     10  F2  UNL d   1      -3.314  -2.466  -1.985  0.00  0.00    -0.096 F 
ATOM     11  F3  UNL d   1      -0.899  -3.691  -2.011  0.00  0.00    -0.097 F 
ATOM     12  F4  UNL d   1      -0.257  -5.433  -4.009  0.00  0.00    -0.092 F 
ENDROOT
TORSDOF 0
ENDMDL
