MODEL 1
REMARK minimizedAffinity 8.85068607
REMARK minimizedRMSD -1
REMARK  0 active torsions:
REMARK  status: ('A' for Active; 'I' for Inactive)
ROOT
ATOM      1  C   UNL d   1      -1.561  -4.473  -3.215  0.00  0.00     0.124 A 
ATOM      2  C1  UNL d   1      -2.570  -3.693  -2.667  0.00  0.00     0.062 A 
ATOM      3  C2  UNL d   1      -3.838  -3.686  -3.241  0.00  0.00     0.162 A 
ATOM      4  C3  UNL d   1      -4.105  -4.462  -4.369  0.00  0.00    -0.034 A 
ATOM      5  C4  UNL d   1      -3.084  -5.242  -4.915  0.00  0.00     0.162 A 
ATOM      6  C5  UNL d   1      -1.818  -5.246  -4.338  0.00  0.00     0.062 A 
ATOM      7  F   UNL d   1      -0.844  -5.999  -4.869  0.00  0.00    -0.097 F 
ATOM      8  F1  UNL d   1      -3.306  -5.999  -6.000  0.00  0.00    -0.096 F 
ATOM      9  I   UNL d   1      -6.000  -4.453  -5.230  0.00  0.00    -0.060 I 
ATOM     10  F2  UNL d   1      -4.795  -2.924  -2.690  0.00  0.00    -0.096 F 
ATOM     11  F3  UNL d   1      -2.323  -2.945  -1.583  0.00  0.00    -0.097 F 
ATOM     12  F4  UNL d   1      -0.341  -4.477  -2.662  0.00  0.00    -0.092 F 
ENDROOT
TORSDOF 0
ENDMDL
