MODEL 1
REMARK minimizedAffinity 21.0562134
REMARK minimizedRMSD -1
REMARK  0 active torsions:
REMARK  status: ('A' for Active; 'I' for Inactive)
ROOT
ATOM      1  C   UNL d   1      -3.563  -2.326  -2.803  0.00  0.00     0.124 A 
ATOM      2  C1  UNL d   1      -4.444  -1.739  -3.702  0.00  0.00     0.062 A 
ATOM      3  C2  UNL d   1      -5.140  -2.525  -4.615  0.00  0.00     0.162 A 
ATOM      4  C3  UNL d   1      -4.959  -3.908  -4.635  0.00  0.00    -0.034 A 
ATOM      5  C4  UNL d   1      -4.072  -4.492  -3.729  0.00  0.00     0.162 A 
ATOM      6  C5  UNL d   1      -3.378  -3.702  -2.818  0.00  0.00     0.062 A 
ATOM      7  F   UNL d   1      -2.528  -4.271  -1.951  0.00  0.00    -0.097 F 
ATOM      8  F1  UNL d   1      -3.874  -5.818  -3.721  0.00  0.00    -0.096 F 
ATOM      9  I   UNL d   1      -5.998  -5.087  -5.999  0.00  0.00    -0.060 I 
ATOM     10  F2  UNL d   1      -5.984  -1.931  -5.471  0.00  0.00    -0.096 F 
ATOM     11  F3  UNL d   1      -4.624  -0.410  -3.690  0.00  0.00    -0.097 F 
ATOM     12  F4  UNL d   1      -2.894  -1.568  -1.926  0.00  0.00    -0.092 F 
ENDROOT
TORSDOF 0
ENDMDL
