MODEL 1
REMARK minimizedAffinity 11.3302193
REMARK minimizedRMSD -1
REMARK  0 active torsions:
REMARK  status: ('A' for Active; 'I' for Inactive)
ROOT
ATOM      1  C   UNL d   1      -2.059  -3.776  -3.176  0.00  0.00     0.124 A 
ATOM      2  C1  UNL d   1      -3.297  -3.190  -2.955  0.00  0.00     0.062 A 
ATOM      3  C2  UNL d   1      -4.383  -3.525  -3.759  0.00  0.00     0.162 A 
ATOM      4  C3  UNL d   1      -4.236  -4.452  -4.791  0.00  0.00    -0.034 A 
ATOM      5  C4  UNL d   1      -2.987  -5.036  -5.008  0.00  0.00     0.162 A 
ATOM      6  C5  UNL d   1      -1.905  -4.699  -4.202  0.00  0.00     0.062 A 
ATOM      7  F   UNL d   1      -0.709  -5.266  -4.417  0.00  0.00    -0.097 F 
ATOM      8  F1  UNL d   1      -2.811  -5.931  -5.991  0.00  0.00    -0.096 F 
ATOM      9  I   UNL d   1      -5.858  -4.955  -5.994  0.00  0.00    -0.060 I 
ATOM     10  F2  UNL d   1      -5.569  -2.943  -3.523  0.00  0.00    -0.096 F 
ATOM     11  F3  UNL d   1      -3.448  -2.298  -1.966  0.00  0.00    -0.097 F 
ATOM     12  F4  UNL d   1      -1.015  -3.452  -2.402  0.00  0.00    -0.092 F 
ENDROOT
TORSDOF 0
ENDMDL
