MODEL 1
REMARK minimizedAffinity 11.8944836
REMARK minimizedRMSD -1
REMARK  0 active torsions:
REMARK  status: ('A' for Active; 'I' for Inactive)
ROOT
ATOM      1  C   UNL d   1      -1.972   3.325  -2.767  0.00  0.00     0.124 A 
ATOM      2  C1  UNL d   1      -1.997   3.372  -1.380  0.00  0.00     0.062 A 
ATOM      3  C2  UNL d   1      -1.183   2.523  -0.636  0.00  0.00     0.162 A 
ATOM      4  C3  UNL d   1      -0.335   1.621  -1.277  0.00  0.00    -0.034 A 
ATOM      5  C4  UNL d   1      -0.315   1.579  -2.672  0.00  0.00     0.162 A 
ATOM      6  C5  UNL d   1      -1.131   2.429  -3.412  0.00  0.00     0.062 A 
ATOM      7  F   UNL d   1      -1.104   2.382  -4.752  0.00  0.00    -0.097 F 
ATOM      8  F1  UNL d   1       0.489   0.723  -3.321  0.00  0.00    -0.096 F 
ATOM      9  I   UNL d   1       0.885   0.350  -0.168  0.00  0.00    -0.060 I 
ATOM     10  F2  UNL d   1      -1.229   2.590   0.703  0.00  0.00    -0.096 F 
ATOM     11  F3  UNL d   1      -2.810   4.236  -0.755  0.00  0.00    -0.097 F 
ATOM     12  F4  UNL d   1      -2.757   4.142  -3.481  0.00  0.00    -0.092 F 
ENDROOT
TORSDOF 0
ENDMDL
