MODEL 1
REMARK minimizedAffinity 10.2485952
REMARK minimizedRMSD -1
REMARK  0 active torsions:
REMARK  status: ('A' for Active; 'I' for Inactive)
ROOT
ATOM      1  C   UNL d   1      -2.140  -4.260  -3.007  0.00  0.00     0.124 A 
ATOM      2  C1  UNL d   1      -2.154  -5.120  -4.097  0.00  0.00     0.062 A 
ATOM      3  C2  UNL d   1      -3.251  -5.149  -4.952  0.00  0.00     0.162 A 
ATOM      4  C3  UNL d   1      -4.345  -4.314  -4.722  0.00  0.00    -0.034 A 
ATOM      5  C4  UNL d   1      -4.325  -3.453  -3.624  0.00  0.00     0.162 A 
ATOM      6  C5  UNL d   1      -3.225  -3.428  -2.772  0.00  0.00     0.062 A 
ATOM      7  F   UNL d   1      -3.214  -2.596  -1.720  0.00  0.00    -0.097 F 
ATOM      8  F1  UNL d   1      -5.359  -2.637  -3.374  0.00  0.00    -0.096 F 
ATOM      9  I   UNL d   1      -5.988  -4.355  -5.999  0.00  0.00    -0.060 I 
ATOM     10  F2  UNL d   1      -3.237  -5.990  -5.997  0.00  0.00    -0.096 F 
ATOM     11  F3  UNL d   1      -1.107  -5.926  -4.326  0.00  0.00    -0.097 F 
ATOM     12  F4  UNL d   1      -1.083  -4.235  -2.185  0.00  0.00    -0.092 F 
ENDROOT
TORSDOF 0
ENDMDL
