MODEL 1
REMARK minimizedAffinity 11.4775162
REMARK minimizedRMSD -1
REMARK  0 active torsions:
REMARK  status: ('A' for Active; 'I' for Inactive)
ROOT
ATOM      1  C   UNL d   1      -2.321  -4.384  -2.782  0.00  0.00     0.124 A 
ATOM      2  C1  UNL d   1      -3.559  -3.807  -2.535  0.00  0.00     0.062 A 
ATOM      3  C2  UNL d   1      -4.600  -3.965  -3.446  0.00  0.00     0.162 A 
ATOM      4  C3  UNL d   1      -4.407  -4.705  -4.613  0.00  0.00    -0.034 A 
ATOM      5  C4  UNL d   1      -3.159  -5.281  -4.855  0.00  0.00     0.162 A 
ATOM      6  C5  UNL d   1      -2.122  -5.120  -3.942  0.00  0.00     0.062 A 
ATOM      7  F   UNL d   1      -0.927  -5.678  -4.182  0.00  0.00    -0.097 F 
ATOM      8  F1  UNL d   1      -2.939  -5.998  -5.967  0.00  0.00    -0.096 F 
ATOM      9  I   UNL d   1      -5.960  -4.944  -5.978  0.00  0.00    -0.060 I 
ATOM     10  F2  UNL d   1      -5.785  -3.397  -3.182  0.00  0.00    -0.096 F 
ATOM     11  F3  UNL d   1      -3.754  -3.095  -1.416  0.00  0.00    -0.097 F 
ATOM     12  F4  UNL d   1      -1.322  -4.229  -1.904  0.00  0.00    -0.092 F 
ENDROOT
TORSDOF 0
ENDMDL
