MODEL 1
REMARK minimizedAffinity 15.0412016
REMARK minimizedRMSD -1
REMARK  0 active torsions:
REMARK  status: ('A' for Active; 'I' for Inactive)
ROOT
ATOM      1  C   UNL d   1      -4.124  -3.709  -2.845  0.00  0.00     0.124 A 
ATOM      2  C1  UNL d   1      -4.646  -4.283  -3.996  0.00  0.00     0.062 A 
ATOM      3  C2  UNL d   1      -3.808  -4.937  -4.895  0.00  0.00     0.162 A 
ATOM      4  C3  UNL d   1      -2.438  -5.020  -4.646  0.00  0.00    -0.034 A 
ATOM      5  C4  UNL d   1      -1.920  -4.438  -3.488  0.00  0.00     0.162 A 
ATOM      6  C5  UNL d   1      -2.762  -3.786  -2.593  0.00  0.00     0.062 A 
ATOM      7  F   UNL d   1      -2.255  -3.231  -1.482  0.00  0.00    -0.097 F 
ATOM      8  F1  UNL d   1      -0.607  -4.499  -3.218  0.00  0.00    -0.096 F 
ATOM      9  I   UNL d   1      -1.181  -5.995  -5.988  0.00  0.00    -0.060 I 
ATOM     10  F2  UNL d   1      -4.340  -5.483  -5.998  0.00  0.00    -0.096 F 
ATOM     11  F3  UNL d   1      -5.962  -4.209  -4.243  0.00  0.00    -0.097 F 
ATOM     12  F4  UNL d   1      -4.933  -3.080  -1.983  0.00  0.00    -0.092 F 
ENDROOT
TORSDOF 0
ENDMDL
