MODEL 1
REMARK minimizedAffinity 9.98436451
REMARK minimizedRMSD -1
REMARK  0 active torsions:
REMARK  status: ('A' for Active; 'I' for Inactive)
ROOT
ATOM      1  C   UNL d   1      -2.252  -4.037  -2.915  0.00  0.00     0.124 A 
ATOM      2  C1  UNL d   1      -2.002  -4.853  -4.010  0.00  0.00     0.062 A 
ATOM      3  C2  UNL d   1      -3.031  -5.177  -4.890  0.00  0.00     0.162 A 
ATOM      4  C3  UNL d   1      -4.319  -4.684  -4.679  0.00  0.00    -0.034 A 
ATOM      5  C4  UNL d   1      -4.562  -3.865  -3.575  0.00  0.00     0.162 A 
ATOM      6  C5  UNL d   1      -3.531  -3.544  -2.699  0.00  0.00     0.062 A 
ATOM      7  F   UNL d   1      -3.774  -2.755  -1.642  0.00  0.00    -0.097 F 
ATOM      8  F1  UNL d   1      -5.788  -3.374  -3.343  0.00  0.00    -0.096 F 
ATOM      9  I   UNL d   1      -5.859  -5.167  -5.993  0.00  0.00    -0.060 I 
ATOM     10  F2  UNL d   1      -2.761  -5.968  -5.939  0.00  0.00    -0.096 F 
ATOM     11  F3  UNL d   1      -0.768  -5.331  -4.220  0.00  0.00    -0.097 F 
ATOM     12  F4  UNL d   1      -1.261  -3.727  -2.069  0.00  0.00    -0.092 F 
ENDROOT
TORSDOF 0
ENDMDL
