MODEL 1
REMARK minimizedAffinity 7.97286272
REMARK minimizedRMSD -1
REMARK  2 active torsions:
REMARK  status: ('A' for Active; 'I' for Inactive)
REMARK    1  A    between atoms: C1_2  and  C2_3 
REMARK    2  A    between atoms: C2_3  and  C3_4 
ROOT
ATOM      1  C3  UNL d   1      -1.614  -0.718   1.517  0.00  0.00    -0.075 A 
ATOM      2  C4  UNL d   1      -2.733  -0.780   2.360  0.00  0.00     0.002 A 
ATOM      3  C5  UNL d   1      -3.828  -1.579   2.027  0.00  0.00     0.002 A 
ATOM      4  C6  UNL d   1      -3.823  -2.315   0.845  0.00  0.00    -0.004 A 
ATOM      5  C7  UNL d   1      -2.723  -2.249  -0.008  0.00  0.00     0.002 A 
ATOM      6  C8  UNL d   1      -1.625  -1.454   0.325  0.00  0.00     0.002 A 
ENDROOT
BRANCH   1   7
ATOM      7  C2  UNL d   1      -0.414   0.120   1.886  0.00  0.00     0.056 C 
BRANCH   7   8
ATOM      8  C1  UNL d   1       0.853  -0.694   2.168  0.00  0.00     0.007 C 
ATOM      9  C   UNL d   1       1.495  -0.361   3.508  0.00  0.00     0.009 C 
ENDBRANCH   7   8
ENDBRANCH   1   7
TORSDOF 2
ENDMDL
