MODEL 1
REMARK minimizedAffinity 7.01922798
REMARK minimizedRMSD -1
REMARK  2 active torsions:
REMARK  status: ('A' for Active; 'I' for Inactive)
REMARK    1  A    between atoms: C1_2  and  C2_3 
REMARK    2  A    between atoms: C2_3  and  C3_4 
ROOT
ATOM      1  C3  UNL d   1       1.870  -0.841  -4.724  0.00  0.00    -0.075 A 
ATOM      2  C4  UNL d   1       1.501  -2.049  -5.334  0.00  0.00     0.002 A 
ATOM      3  C5  UNL d   1       0.156  -2.395  -5.466  0.00  0.00     0.002 A 
ATOM      4  C6  UNL d   1      -0.835  -1.544  -4.983  0.00  0.00    -0.004 A 
ATOM      5  C7  UNL d   1      -0.480  -0.349  -4.360  0.00  0.00     0.002 A 
ATOM      6  C8  UNL d   1       0.865   0.001  -4.231  0.00  0.00     0.002 A 
ENDROOT
BRANCH   1   7
ATOM      7  C2  UNL d   1       3.323  -0.448  -4.605  0.00  0.00     0.056 C 
BRANCH   7   8
ATOM      8  C1  UNL d   1       3.760   0.635  -5.597  0.00  0.00     0.007 C 
ATOM      9  C   UNL d   1       5.271   0.812  -5.666  0.00  0.00     0.009 C 
ENDBRANCH   7   8
ENDBRANCH   1   7
TORSDOF 2
ENDMDL
