MODEL 1
REMARK minimizedAffinity 6.58056641
REMARK minimizedRMSD -1
REMARK  2 active torsions:
REMARK  status: ('A' for Active; 'I' for Inactive)
REMARK    1  A    between atoms: C1_2  and  C2_3 
REMARK    2  A    between atoms: C2_3  and  C3_4 
ROOT
ATOM      1  C3  UNL d   1      -0.252   0.342   2.451  0.00  0.00    -0.075 A 
ATOM      2  C4  UNL d   1      -0.509   1.720   2.471  0.00  0.00     0.002 A 
ATOM      3  C5  UNL d   1      -1.788   2.206   2.198  0.00  0.00     0.002 A 
ATOM      4  C6  UNL d   1      -2.821   1.322   1.892  0.00  0.00    -0.004 A 
ATOM      5  C7  UNL d   1      -2.573  -0.048   1.854  0.00  0.00     0.002 A 
ATOM      6  C8  UNL d   1      -1.295  -0.537   2.131  0.00  0.00     0.002 A 
ENDROOT
BRANCH   1   7
ATOM      7  C2  UNL d   1       1.123  -0.192   2.775  0.00  0.00     0.056 C 
BRANCH   7   8
ATOM      8  C1  UNL d   1       1.132  -1.285   3.849  0.00  0.00     0.007 C 
ATOM      9  C   UNL d   1       2.002  -0.939   5.050  0.00  0.00     0.009 C 
ENDBRANCH   7   8
ENDBRANCH   1   7
TORSDOF 2
ENDMDL
