MODEL 1
REMARK minimizedAffinity 12.8207264
REMARK minimizedRMSD -1
REMARK  2 active torsions:
REMARK  status: ('A' for Active; 'I' for Inactive)
REMARK    1  A    between atoms: C1_2  and  C2_3 
REMARK    2  A    between atoms: C2_3  and  C3_4 
ROOT
ATOM      1  C3  UNL d   1       4.636   3.168   2.298  0.00  0.00    -0.075 A 
ATOM      2  C4  UNL d   1       3.833   3.516   1.202  0.00  0.00     0.002 A 
ATOM      3  C5  UNL d   1       3.297   4.800   1.096  0.00  0.00     0.002 A 
ATOM      4  C6  UNL d   1       3.546   5.746   2.087  0.00  0.00    -0.004 A 
ATOM      5  C7  UNL d   1       4.328   5.407   3.189  0.00  0.00     0.002 A 
ATOM      6  C8  UNL d   1       4.870   4.124   3.296  0.00  0.00     0.002 A 
ENDROOT
BRANCH   1   7
ATOM      7  C2  UNL d   1       5.243   1.790   2.404  0.00  0.00     0.056 C 
BRANCH   7   8
ATOM      8  C1  UNL d   1       6.000   1.344   1.149  0.00  0.00     0.007 C 
ATOM      9  C   UNL d   1       6.000   2.392   0.044  0.00  0.00     0.009 C 
ENDBRANCH   7   8
ENDBRANCH   1   7
TORSDOF 2
ENDMDL
