MODEL 1
REMARK minimizedAffinity 12.8455381
REMARK minimizedRMSD -1
REMARK  2 active torsions:
REMARK  status: ('A' for Active; 'I' for Inactive)
REMARK    1  A    between atoms: C1_2  and  C2_3 
REMARK    2  A    between atoms: C2_3  and  C3_4 
ROOT
ATOM      1  C3  UNL d   1      -5.318   2.256  -1.150  0.00  0.00    -0.075 A 
ATOM      2  C4  UNL d   1      -5.714   1.667  -2.360  0.00  0.00     0.002 A 
ATOM      3  C5  UNL d   1      -5.190   0.435  -2.753  0.00  0.00     0.002 A 
ATOM      4  C6  UNL d   1      -4.259  -0.218  -1.948  0.00  0.00    -0.004 A 
ATOM      5  C7  UNL d   1      -3.846   0.366  -0.752  0.00  0.00     0.002 A 
ATOM      6  C8  UNL d   1      -4.372   1.596  -0.354  0.00  0.00     0.002 A 
ENDROOT
BRANCH   1   7
ATOM      7  C2  UNL d   1      -5.904   3.575  -0.705  0.00  0.00     0.056 C 
BRANCH   7   8
ATOM      8  C1  UNL d   1      -5.111   4.799  -1.176  0.00  0.00     0.007 C 
ATOM      9  C   UNL d   1      -5.997   5.977  -1.558  0.00  0.00     0.009 C 
ENDBRANCH   7   8
ENDBRANCH   1   7
TORSDOF 2
ENDMDL
