MODEL 1
REMARK minimizedAffinity 5.63858986
REMARK minimizedRMSD -1
REMARK  2 active torsions:
REMARK  status: ('A' for Active; 'I' for Inactive)
REMARK    1  A    between atoms: C1_2  and  C2_3 
REMARK    2  A    between atoms: C2_3  and  C3_4 
ROOT
ATOM      1  C3  UNL d   1       3.342  -3.389   5.084  0.00  0.00    -0.075 A 
ATOM      2  C4  UNL d   1       2.103  -3.983   4.806  0.00  0.00     0.002 A 
ATOM      3  C5  UNL d   1       1.188  -3.352   3.963  0.00  0.00     0.002 A 
ATOM      4  C6  UNL d   1       1.495  -2.117   3.397  0.00  0.00    -0.004 A 
ATOM      5  C7  UNL d   1       2.716  -1.509   3.680  0.00  0.00     0.002 A 
ATOM      6  C8  UNL d   1       3.635  -2.140   4.520  0.00  0.00     0.002 A 
ENDROOT
BRANCH   1   7
ATOM      7  C2  UNL d   1       4.349  -4.080   5.972  0.00  0.00     0.056 C 
BRANCH   7   8
ATOM      8  C1  UNL d   1       4.589  -5.551   5.614  0.00  0.00     0.007 C 
ATOM      9  C   UNL d   1       5.999  -5.823   5.107  0.00  0.00     0.009 C 
ENDBRANCH   7   8
ENDBRANCH   1   7
TORSDOF 2
ENDMDL
