MODEL 1
REMARK minimizedAffinity 2.04357982
REMARK minimizedRMSD -1
REMARK  2 active torsions:
REMARK  status: ('A' for Active; 'I' for Inactive)
REMARK    1  A    between atoms: C1_2  and  C2_3 
REMARK    2  A    between atoms: C2_3  and  C3_4 
ROOT
ATOM      1  C3  UNL d   1       2.907  -5.044   5.513  0.00  0.00    -0.075 A 
ATOM      2  C4  UNL d   1       1.711  -5.593   6.000  0.00  0.00     0.002 A 
ATOM      3  C5  UNL d   1       0.480  -5.141   5.526  0.00  0.00     0.002 A 
ATOM      4  C6  UNL d   1       0.426  -4.130   4.569  0.00  0.00    -0.004 A 
ATOM      5  C7  UNL d   1       1.607  -3.566   4.091  0.00  0.00     0.002 A 
ATOM      6  C8  UNL d   1       2.841  -4.019   4.560  0.00  0.00     0.002 A 
ENDROOT
BRANCH   1   7
ATOM      7  C2  UNL d   1       4.244  -5.550   6.000  0.00  0.00     0.056 C 
BRANCH   7   8
ATOM      8  C1  UNL d   1       5.441  -5.002   5.216  0.00  0.00     0.007 C 
ATOM      9  C   UNL d   1       5.999  -5.992   4.202  0.00  0.00     0.009 C 
ENDBRANCH   7   8
ENDBRANCH   1   7
TORSDOF 2
ENDMDL
