MODEL 1
REMARK minimizedAffinity 12.9668074
REMARK minimizedRMSD -1
REMARK  2 active torsions:
REMARK  status: ('A' for Active; 'I' for Inactive)
REMARK    1  A    between atoms: C1_2  and  C2_3 
REMARK    2  A    between atoms: C2_3  and  C3_4 
ROOT
ATOM      1  C3  UNL d   1       3.243  -3.751   5.034  0.00  0.00    -0.075 A 
ATOM      2  C4  UNL d   1       2.050  -4.102   5.683  0.00  0.00     0.002 A 
ATOM      3  C5  UNL d   1       0.815  -3.803   5.106  0.00  0.00     0.002 A 
ATOM      4  C6  UNL d   1       0.757  -3.143   3.880  0.00  0.00    -0.004 A 
ATOM      5  C7  UNL d   1       1.936  -2.775   3.235  0.00  0.00     0.002 A 
ATOM      6  C8  UNL d   1       3.172  -3.076   3.808  0.00  0.00     0.002 A 
ENDROOT
BRANCH   1   7
ATOM      7  C2  UNL d   1       4.582  -4.098   5.639  0.00  0.00     0.056 C 
BRANCH   7   8
ATOM      8  C1  UNL d   1       4.893  -5.598   5.648  0.00  0.00     0.007 C 
ATOM      9  C   UNL d   1       5.999  -5.988   4.676  0.00  0.00     0.009 C 
ENDBRANCH   7   8
ENDBRANCH   1   7
TORSDOF 2
ENDMDL
