MODEL 1
REMARK minimizedAffinity 1.62482059
REMARK minimizedRMSD -1
REMARK  1 active torsions:
REMARK  status: ('A' for Active; 'I' for Inactive)
REMARK    1  A    between atoms: C3_4  and  O_7 
ROOT
ATOM      1  C   UNL d   1      -5.980   0.108  -5.492  0.00  0.00    -0.033 A 
ATOM      2  C1  UNL d   1      -5.996   1.483  -5.729  0.00  0.00     0.039 A 
ATOM      3  C2  UNL d   1      -5.998   2.378  -4.657  0.00  0.00    -0.080 A 
ATOM      4  C3  UNL d   1      -5.984   1.885  -3.355  0.00  0.00     0.150 A 
ATOM      5  C4  UNL d   1      -5.964   0.516  -3.112  0.00  0.00    -0.007 A 
ATOM      6  C5  UNL d   1      -5.963  -0.376  -4.183  0.00  0.00     0.039 A 
ENDROOT
BRANCH   4   7
ATOM      7  O   UNL d   1      -5.990   2.719  -2.277  0.00  0.00    -0.526 OA
ATOM      8  H5  UNL d   1      -6.033   3.636  -2.597  0.00  0.00     0.418 HD
ENDBRANCH   4   7
TORSDOF 1
ENDMDL
