MODEL 1
REMARK minimizedAffinity 3.87391281
REMARK minimizedRMSD -1
REMARK  1 active torsions:
REMARK  status: ('A' for Active; 'I' for Inactive)
REMARK    1  A    between atoms: C3_4  and  O_7 
ROOT
ATOM      1  C   UNL d   1      -5.942  -0.731  -5.075  0.00  0.00    -0.033 A 
ATOM      2  C1  UNL d   1      -5.942   0.447  -5.825  0.00  0.00     0.039 A 
ATOM      3  C2  UNL d   1      -5.945   1.686  -5.183  0.00  0.00    -0.080 A 
ATOM      4  C3  UNL d   1      -5.946   1.735  -3.792  0.00  0.00     0.150 A 
ATOM      5  C4  UNL d   1      -5.942   0.566  -3.038  0.00  0.00    -0.007 A 
ATOM      6  C5  UNL d   1      -5.941  -0.671  -3.681  0.00  0.00     0.039 A 
ENDROOT
BRANCH   4   7
ATOM      7  O   UNL d   1      -5.954   2.921  -3.120  0.00  0.00    -0.526 OA
ATOM      8  H5  UNL d   1      -5.985   3.643  -3.770  0.00  0.00     0.418 HD
ENDBRANCH   4   7
TORSDOF 1
ENDMDL
