MODEL 1
REMARK minimizedAffinity 0.0785431489
REMARK minimizedRMSD -1
REMARK  1 active torsions:
REMARK  status: ('A' for Active; 'I' for Inactive)
REMARK    1  A    between atoms: C3_4  and  O_7 
ROOT
ATOM      1  C   UNL d   1      -1.223   5.294  -5.641  0.00  0.00    -0.033 A 
ATOM      2  C1  UNL d   1      -0.073   5.999  -5.999  0.00  0.00     0.039 A 
ATOM      3  C2  UNL d   1       1.124   5.780  -5.315  0.00  0.00    -0.080 A 
ATOM      4  C3  UNL d   1       1.158   4.854  -4.276  0.00  0.00     0.150 A 
ATOM      5  C4  UNL d   1       0.017   4.144  -3.916  0.00  0.00    -0.007 A 
ATOM      6  C5  UNL d   1      -1.178   4.365  -4.600  0.00  0.00     0.039 A 
ENDROOT
BRANCH   4   7
ATOM      7  O   UNL d   1       2.302   4.609  -3.576  0.00  0.00    -0.526 OA
ATOM      8  H5  UNL d   1       3.001   5.192  -3.916  0.00  0.00     0.418 HD
ENDBRANCH   4   7
TORSDOF 1
ENDMDL
