MODEL 1
REMARK minimizedAffinity 0.380764425
REMARK minimizedRMSD -1
REMARK  1 active torsions:
REMARK  status: ('A' for Active; 'I' for Inactive)
REMARK    1  A    between atoms: C3_4  and  O_7 
ROOT
ATOM      1  C   UNL d   1      -0.149   5.764  -5.995  0.00  0.00    -0.033 A 
ATOM      2  C1  UNL d   1      -0.970   5.456  -4.908  0.00  0.00     0.039 A 
ATOM      3  C2  UNL d   1      -0.457   4.744  -3.822  0.00  0.00    -0.080 A 
ATOM      4  C3  UNL d   1       0.878   4.347  -3.835  0.00  0.00     0.150 A 
ATOM      5  C4  UNL d   1       1.702   4.653  -4.913  0.00  0.00    -0.007 A 
ATOM      6  C5  UNL d   1       1.187   5.363  -5.996  0.00  0.00     0.039 A 
ENDROOT
BRANCH   4   7
ATOM      7  O   UNL d   1       1.422   3.646  -2.800  0.00  0.00    -0.526 OA
ATOM      8  H5  UNL d   1       0.728   3.482  -2.140  0.00  0.00     0.418 HD
ENDBRANCH   4   7
TORSDOF 1
ENDMDL
