MODEL 1
REMARK minimizedAffinity 0.676334321
REMARK minimizedRMSD -1
REMARK  1 active torsions:
REMARK  status: ('A' for Active; 'I' for Inactive)
REMARK    1  A    between atoms: C3_4  and  O_7 
ROOT
ATOM      1  C   UNL d   1      -1.765  -5.973  -4.722  0.00  0.00    -0.033 A 
ATOM      2  C1  UNL d   1      -2.503  -5.971  -3.537  0.00  0.00     0.039 A 
ATOM      3  C2  UNL d   1      -3.899  -5.979  -3.581  0.00  0.00    -0.080 A 
ATOM      4  C3  UNL d   1      -4.543  -5.991  -4.815  0.00  0.00     0.150 A 
ATOM      5  C4  UNL d   1      -3.814  -5.997  -6.000  0.00  0.00    -0.007 A 
ATOM      6  C5  UNL d   1      -2.421  -5.988  -5.954  0.00  0.00     0.039 A 
ENDROOT
BRANCH   4   7
ATOM      7  O   UNL d   1      -5.903  -5.995  -4.909  0.00  0.00    -0.526 OA
ATOM      8  H5  UNL d   1      -6.274  -5.960  -4.011  0.00  0.00     0.418 HD
ENDBRANCH   4   7
TORSDOF 1
ENDMDL
