MODEL 1
REMARK minimizedAffinity 8.77971363
REMARK minimizedRMSD -1
REMARK  1 active torsions:
REMARK  status: ('A' for Active; 'I' for Inactive)
REMARK    1  A    between atoms: C3_4  and  O_7 
ROOT
ATOM      1  C   UNL d   1      -0.109  -1.501   2.539  0.00  0.00    -0.033 A 
ATOM      2  C1  UNL d   1      -1.415  -1.440   2.050  0.00  0.00     0.039 A 
ATOM      3  C2  UNL d   1      -1.892  -2.439   1.199  0.00  0.00    -0.080 A 
ATOM      4  C3  UNL d   1      -1.054  -3.493   0.846  0.00  0.00     0.150 A 
ATOM      5  C4  UNL d   1       0.248  -3.562   1.332  0.00  0.00    -0.007 A 
ATOM      6  C5  UNL d   1       0.722  -2.564   2.181  0.00  0.00     0.039 A 
ENDROOT
BRANCH   4   7
ATOM      7  O   UNL d   1      -1.473  -4.488   0.014  0.00  0.00    -0.526 OA
ATOM      8  H5  UNL d   1      -2.382  -4.293  -0.266  0.00  0.00     0.418 HD
ENDBRANCH   4   7
TORSDOF 1
ENDMDL
