MODEL 1
REMARK minimizedAffinity -0.389504135
REMARK minimizedRMSD -1
REMARK  1 active torsions:
REMARK  status: ('A' for Active; 'I' for Inactive)
REMARK    1  A    between atoms: C3_4  and  O_7 
ROOT
ATOM      1  C   UNL d   1      -0.012   5.981  -5.968  0.00  0.00    -0.033 A 
ATOM      2  C1  UNL d   1      -0.828   5.946  -4.836  0.00  0.00     0.039 A 
ATOM      3  C2  UNL d   1      -0.461   5.173  -3.732  0.00  0.00    -0.080 A 
ATOM      4  C3  UNL d   1       0.723   4.442  -3.773  0.00  0.00     0.150 A 
ATOM      5  C4  UNL d   1       1.542   4.475  -4.897  0.00  0.00    -0.007 A 
ATOM      6  C5  UNL d   1       1.174   5.246  -5.998  0.00  0.00     0.039 A 
ENDROOT
BRANCH   4   7
ATOM      7  O   UNL d   1       1.120   3.669  -2.723  0.00  0.00    -0.526 OA
ATOM      8  H5  UNL d   1       0.441   3.721  -2.029  0.00  0.00     0.418 HD
ENDBRANCH   4   7
TORSDOF 1
ENDMDL
