MODEL 1
REMARK minimizedAffinity -1.58423972
REMARK minimizedRMSD -1
REMARK  1 active torsions:
REMARK  status: ('A' for Active; 'I' for Inactive)
REMARK    1  A    between atoms: C3_4  and  O_7 
ROOT
ATOM      1  C   UNL d   1      -5.986  -1.275  -4.344  0.00  0.00    -0.033 A 
ATOM      2  C1  UNL d   1      -5.994  -1.014  -2.973  0.00  0.00     0.039 A 
ATOM      3  C2  UNL d   1      -6.000   0.304  -2.511  0.00  0.00    -0.080 A 
ATOM      4  C3  UNL d   1      -5.998   1.350  -3.430  0.00  0.00     0.150 A 
ATOM      5  C4  UNL d   1      -5.993   1.097  -4.798  0.00  0.00    -0.007 A 
ATOM      6  C5  UNL d   1      -5.987  -0.220  -5.257  0.00  0.00     0.039 A 
ENDROOT
BRANCH   4   7
ATOM      7  O   UNL d   1      -5.998   2.652  -3.027  0.00  0.00    -0.526 OA
ATOM      8  H5  UNL d   1      -5.972   2.674  -2.056  0.00  0.00     0.418 HD
ENDBRANCH   4   7
TORSDOF 1
ENDMDL
