MODEL 1
REMARK minimizedAffinity 2.00528026
REMARK minimizedRMSD -1
REMARK  1 active torsions:
REMARK  status: ('A' for Active; 'I' for Inactive)
REMARK    1  A    between atoms: C3_4  and  O_7 
ROOT
ATOM      1  C   UNL d   1      -4.619  -1.342   0.580  0.00  0.00    -0.033 A 
ATOM      2  C1  UNL d   1      -5.027  -0.321   1.441  0.00  0.00     0.039 A 
ATOM      3  C2  UNL d   1      -4.290  -0.041   2.593  0.00  0.00    -0.080 A 
ATOM      4  C3  UNL d   1      -3.148  -0.787   2.872  0.00  0.00     0.150 A 
ATOM      5  C4  UNL d   1      -2.734  -1.803   2.017  0.00  0.00    -0.007 A 
ATOM      6  C5  UNL d   1      -3.471  -2.081   0.867  0.00  0.00     0.039 A 
ENDROOT
BRANCH   4   7
ATOM      7  O   UNL d   1      -2.400  -0.554   3.988  0.00  0.00    -0.526 OA
ATOM      8  H5  UNL d   1      -2.822   0.156   4.499  0.00  0.00     0.418 HD
ENDBRANCH   4   7
TORSDOF 1
ENDMDL
