MODEL 1
REMARK minimizedAffinity -4.00470591
REMARK minimizedRMSD -1
REMARK  0 active torsions:
REMARK  status: ('A' for Active; 'I' for Inactive)
ROOT
ATOM      1  O1  BZF d   1       0.876  -0.758   1.516  0.00  0.00    -0.204 OA
ATOM      2  C2  BZF d   1       0.335  -1.950   1.076  0.00  0.00     0.174 A 
ATOM      3  C3  BZF d   1      -0.220  -1.802  -0.144  0.00  0.00    -0.012 A 
ATOM      4  C3A BZF d   1       0.069  -0.453  -0.527  0.00  0.00    -0.107 A 
ATOM      5  C4  BZF d   1      -0.207   0.285  -1.642  0.00  0.00     0.055 A 
ATOM      6  C5  BZF d   1       0.151   1.596  -1.671  0.00  0.00    -0.016 A 
ATOM      7  C6  BZF d   1       0.781   2.200  -0.603  0.00  0.00     0.022 A 
ATOM      8  C7  BZF d   1       1.079   1.507   0.523  0.00  0.00     0.029 A 
ATOM      9  C7A BZF d   1       0.748   0.174   0.542  0.00  0.00     0.058 A 
ENDROOT
TORSDOF 0
ENDMDL
