MODEL 1
REMARK minimizedAffinity -4.67959642
REMARK minimizedRMSD -1
REMARK  0 active torsions:
REMARK  status: ('A' for Active; 'I' for Inactive)
ROOT
ATOM      1  O1  BZF d   1      -1.854   0.067   0.568  0.00  0.00    -0.204 OA
ATOM      2  C2  BZF d   1      -1.170   1.150   0.051  0.00  0.00     0.174 A 
ATOM      3  C3  BZF d   1       0.065   0.788  -0.352  0.00  0.00    -0.012 A 
ATOM      4  C3A BZF d   1       0.126  -0.627  -0.153  0.00  0.00    -0.107 A 
ATOM      5  C4  BZF d   1       1.090  -1.567  -0.381  0.00  0.00     0.055 A 
ATOM      6  C5  BZF d   1       0.860  -2.853  -0.008  0.00  0.00    -0.016 A 
ATOM      7  C6  BZF d   1      -0.319  -3.234   0.598  0.00  0.00     0.022 A 
ATOM      8  C7  BZF d   1      -1.308  -2.338   0.840  0.00  0.00     0.029 A 
ATOM      9  C7A BZF d   1      -1.091  -1.044   0.435  0.00  0.00     0.058 A 
ENDROOT
TORSDOF 0
ENDMDL
