MODEL 1
REMARK minimizedAffinity -3.83864522
REMARK minimizedRMSD -1
REMARK  0 active torsions:
REMARK  status: ('A' for Active; 'I' for Inactive)
ROOT
ATOM      1  O1  BZF d   1       0.136   0.832  -0.294  0.00  0.00    -0.204 OA
ATOM      2  C2  BZF d   1       0.850   0.466  -1.418  0.00  0.00     0.174 A 
ATOM      3  C3  BZF d   1       0.864  -0.875  -1.561  0.00  0.00    -0.012 A 
ATOM      4  C3A BZF d   1       0.035  -1.374  -0.507  0.00  0.00    -0.107 A 
ATOM      5  C4  BZF d   1      -0.353  -2.628  -0.132  0.00  0.00     0.055 A 
ATOM      6  C5  BZF d   1      -1.109  -2.779   0.988  0.00  0.00    -0.016 A 
ATOM      7  C6  BZF d   1      -1.489  -1.699   1.758  0.00  0.00     0.022 A 
ATOM      8  C7  BZF d   1      -1.132  -0.435   1.423  0.00  0.00     0.029 A 
ATOM      9  C7A BZF d   1      -0.397  -0.277   0.274  0.00  0.00     0.058 A 
ENDROOT
TORSDOF 0
ENDMDL
