MODEL 1
REMARK minimizedAffinity -4.28230333
REMARK minimizedRMSD -1
REMARK  0 active torsions:
REMARK  status: ('A' for Active; 'I' for Inactive)
ROOT
ATOM      1  O1  BZF d   1      -1.291  -2.154   1.462  0.00  0.00    -0.204 OA
ATOM      2  C2  BZF d   1      -1.475  -1.125   2.365  0.00  0.00     0.174 A 
ATOM      3  C3  BZF d   1      -0.992   0.034   1.875  0.00  0.00    -0.012 A 
ATOM      4  C3A BZF d   1      -0.557  -0.271   0.546  0.00  0.00    -0.107 A 
ATOM      5  C4  BZF d   1       0.000   0.474  -0.454  0.00  0.00     0.055 A 
ATOM      6  C5  BZF d   1       0.375  -0.142  -1.606  0.00  0.00    -0.016 A 
ATOM      7  C6  BZF d   1       0.212  -1.500  -1.789  0.00  0.00     0.022 A 
ATOM      8  C7  BZF d   1      -0.341  -2.279  -0.828  0.00  0.00     0.029 A 
ATOM      9  C7A BZF d   1      -0.751  -1.654   0.324  0.00  0.00     0.058 A 
ENDROOT
TORSDOF 0
ENDMDL
