MODEL 1
REMARK minimizedAffinity -4.68276596
REMARK minimizedRMSD -1
REMARK  0 active torsions:
REMARK  status: ('A' for Active; 'I' for Inactive)
ROOT
ATOM      1  O1  BZF d   1       0.301  -0.406  -1.201  0.00  0.00    -0.204 OA
ATOM      2  C2  BZF d   1       0.374   0.973  -1.170  0.00  0.00     0.174 A 
ATOM      3  C3  BZF d   1      -0.088   1.451   0.004  0.00  0.00    -0.012 A 
ATOM      4  C3A BZF d   1      -0.388   0.293   0.789  0.00  0.00    -0.107 A 
ATOM      5  C4  BZF d   1      -0.867   0.116   2.056  0.00  0.00     0.055 A 
ATOM      6  C5  BZF d   1      -1.118  -1.144   2.497  0.00  0.00    -0.016 A 
ATOM      7  C6  BZF d   1      -0.906  -2.249   1.698  0.00  0.00     0.022 A 
ATOM      8  C7  BZF d   1      -0.428  -2.124   0.436  0.00  0.00     0.029 A 
ATOM      9  C7A BZF d   1      -0.142  -0.854  -0.001  0.00  0.00     0.058 A 
ENDROOT
TORSDOF 0
ENDMDL
