MODEL 1
REMARK minimizedAffinity -5.2514329
REMARK minimizedRMSD -1
REMARK  0 active torsions:
REMARK  status: ('A' for Active; 'I' for Inactive)
ROOT
ATOM      1  O1  BZF d   1       0.181   1.053  -1.107  0.00  0.00    -0.204 OA
ATOM      2  C2  BZF d   1       0.541   2.190  -0.409  0.00  0.00     0.174 A 
ATOM      3  C3  BZF d   1       0.548   1.954   0.919  0.00  0.00    -0.012 A 
ATOM      4  C3A BZF d   1       0.259   0.559   1.055  0.00  0.00    -0.107 A 
ATOM      5  C4  BZF d   1       0.143  -0.276   2.129  0.00  0.00     0.055 A 
ATOM      6  C5  BZF d   1      -0.220  -1.569   1.925  0.00  0.00    -0.016 A 
ATOM      7  C6  BZF d   1      -0.481  -2.059   0.662  0.00  0.00     0.022 A 
ATOM      8  C7  BZF d   1      -0.375  -1.271  -0.435  0.00  0.00     0.029 A 
ATOM      9  C7A BZF d   1       0.025   0.028  -0.235  0.00  0.00     0.058 A 
ENDROOT
TORSDOF 0
ENDMDL
