MODEL 1
REMARK minimizedAffinity -5.72794914
REMARK minimizedRMSD -1
REMARK  0 active torsions:
REMARK  status: ('A' for Active; 'I' for Inactive)
ROOT
ATOM      1  O1  BZF d   1       0.783  -1.110   1.798  0.00  0.00    -0.204 OA
ATOM      2  C2  BZF d   1      -0.538  -1.468   1.616  0.00  0.00     0.174 A 
ATOM      3  C3  BZF d   1      -1.182  -0.555   0.860  0.00  0.00    -0.012 A 
ATOM      4  C3A BZF d   1      -0.178   0.388   0.473  0.00  0.00    -0.107 A 
ATOM      5  C4  BZF d   1      -0.196   1.516  -0.296  0.00  0.00     0.055 A 
ATOM      6  C5  BZF d   1       0.940   2.252  -0.417  0.00  0.00    -0.016 A 
ATOM      7  C6  BZF d   1       2.109   1.892   0.221  0.00  0.00     0.022 A 
ATOM      8  C7  BZF d   1       2.178   0.778   0.990  0.00  0.00     0.029 A 
ATOM      9  C7A BZF d   1       1.040   0.015   1.088  0.00  0.00     0.058 A 
ENDROOT
TORSDOF 0
ENDMDL
