MODEL 1
REMARK minimizedAffinity -2.24139619
REMARK minimizedRMSD -1
REMARK  0 active torsions:
REMARK  status: ('A' for Active; 'I' for Inactive)
ROOT
ATOM      1  O1  BZF d   1       0.396  -1.340  -2.422  0.00  0.00    -0.204 OA
ATOM      2  C2  BZF d   1       0.049  -2.622  -2.801  0.00  0.00     0.174 A 
ATOM      3  C3  BZF d   1      -0.451  -3.312  -1.756  0.00  0.00    -0.012 A 
ATOM      4  C3A BZF d   1      -0.500  -2.374  -0.676  0.00  0.00    -0.107 A 
ATOM      5  C4  BZF d   1      -0.917  -2.458   0.622  0.00  0.00     0.055 A 
ATOM      6  C5  BZF d   1      -0.763  -1.381   1.436  0.00  0.00    -0.016 A 
ATOM      7  C6  BZF d   1      -0.192  -0.208   0.988  0.00  0.00     0.022 A 
ATOM      8  C7  BZF d   1       0.233  -0.076  -0.292  0.00  0.00     0.029 A 
ATOM      9  C7A BZF d   1       0.048  -1.151  -1.126  0.00  0.00     0.058 A 
ENDROOT
TORSDOF 0
ENDMDL
