MODEL 1
REMARK minimizedAffinity -5.7388649
REMARK minimizedRMSD -1
REMARK  0 active torsions:
REMARK  status: ('A' for Active; 'I' for Inactive)
ROOT
ATOM      1  O1  BZF d   1      -0.542  -0.037  -0.079  0.00  0.00    -0.204 OA
ATOM      2  C2  BZF d   1      -1.188  -0.354   1.100  0.00  0.00     0.174 A 
ATOM      3  C3  BZF d   1      -1.238  -1.691   1.274  0.00  0.00    -0.012 A 
ATOM      4  C3A BZF d   1      -0.501  -2.241   0.178  0.00  0.00    -0.107 A 
ATOM      5  C4  BZF d   1      -0.182  -3.516  -0.194  0.00  0.00     0.055 A 
ATOM      6  C5  BZF d   1       0.488  -3.716  -1.359  0.00  0.00    -0.016 A 
ATOM      7  C6  BZF d   1       0.851  -2.666  -2.178  0.00  0.00     0.022 A 
ATOM      8  C7  BZF d   1       0.561  -1.384  -1.849  0.00  0.00     0.029 A 
ATOM      9  C7A BZF d   1      -0.087  -1.176  -0.656  0.00  0.00     0.058 A 
ENDROOT
TORSDOF 0
ENDMDL
