MODEL 1
REMARK minimizedAffinity -4.64527178
REMARK minimizedRMSD -1
REMARK  0 active torsions:
REMARK  status: ('A' for Active; 'I' for Inactive)
ROOT
ATOM      1  O1  BZF d   1      -0.287   1.320   1.156  0.00  0.00    -0.204 OA
ATOM      2  C2  BZF d   1       0.149   1.765  -0.077  0.00  0.00     0.174 A 
ATOM      3  C3  BZF d   1       0.350   0.728  -0.916  0.00  0.00    -0.012 A 
ATOM      4  C3A BZF d   1      -0.069  -0.431  -0.189  0.00  0.00    -0.107 A 
ATOM      5  C4  BZF d   1      -0.125  -1.761  -0.494  0.00  0.00     0.055 A 
ATOM      6  C5  BZF d   1      -0.515  -2.642   0.464  0.00  0.00    -0.016 A 
ATOM      7  C6  BZF d   1      -0.850  -2.230   1.737  0.00  0.00     0.022 A 
ATOM      8  C7  BZF d   1      -0.814  -0.921   2.085  0.00  0.00     0.029 A 
ATOM      9  C7A BZF d   1      -0.453  -0.024   1.110  0.00  0.00     0.058 A 
ENDROOT
TORSDOF 0
ENDMDL
