MODEL 1
REMARK minimizedAffinity -2.16378951
REMARK minimizedRMSD -1
REMARK  0 active torsions:
REMARK  status: ('A' for Active; 'I' for Inactive)
ROOT
ATOM      1  O1  BZF d   1      -1.093  -2.820   1.313  0.00  0.00    -0.204 OA
ATOM      2  C2  BZF d   1      -0.407  -3.750   0.556  0.00  0.00     0.174 A 
ATOM      3  C3  BZF d   1       0.489  -3.145  -0.250  0.00  0.00    -0.012 A 
ATOM      4  C3A BZF d   1       0.419  -1.756   0.087  0.00  0.00    -0.107 A 
ATOM      5  C4  BZF d   1       1.080  -0.647  -0.360  0.00  0.00     0.055 A 
ATOM      6  C5  BZF d   1       0.724   0.573   0.123  0.00  0.00    -0.016 A 
ATOM      7  C6  BZF d   1      -0.288   0.721   1.047  0.00  0.00     0.022 A 
ATOM      8  C7  BZF d   1      -0.969  -0.350   1.524  0.00  0.00     0.029 A 
ATOM      9  C7A BZF d   1      -0.590  -1.587   1.063  0.00  0.00     0.058 A 
ENDROOT
TORSDOF 0
ENDMDL
