MODEL 1
REMARK minimizedAffinity -3.07076144
REMARK minimizedRMSD -1
REMARK  0 active torsions:
REMARK  status: ('A' for Active; 'I' for Inactive)
ROOT
ATOM      1  O1  BZF d   1      -0.041   1.642   0.565  0.00  0.00    -0.204 OA
ATOM      2  C2  BZF d   1       0.259   2.083  -0.709  0.00  0.00     0.174 A 
ATOM      3  C3  BZF d   1       0.409   1.042  -1.553  0.00  0.00    -0.012 A 
ATOM      4  C3A BZF d   1       0.098  -0.119  -0.776  0.00  0.00    -0.107 A 
ATOM      5  C4  BZF d   1       0.054  -1.454  -1.060  0.00  0.00     0.055 A 
ATOM      6  C5  BZF d   1      -0.214  -2.334  -0.060  0.00  0.00    -0.016 A 
ATOM      7  C6  BZF d   1      -0.436  -1.914   1.236  0.00  0.00     0.022 A 
ATOM      8  C7  BZF d   1      -0.406  -0.600   1.565  0.00  0.00     0.029 A 
ATOM      9  C7A BZF d   1      -0.169   0.294   0.549  0.00  0.00     0.058 A 
ENDROOT
TORSDOF 0
ENDMDL
