MODEL 1
REMARK minimizedAffinity -2.23304582
REMARK minimizedRMSD -1
REMARK  0 active torsions:
REMARK  status: ('A' for Active; 'I' for Inactive)
ROOT
ATOM      1  O1  BZF d   1      -0.258   0.815  -0.919  0.00  0.00    -0.204 OA
ATOM      2  C2  BZF d   1       0.191   0.482  -2.181  0.00  0.00     0.174 A 
ATOM      3  C3  BZF d   1       0.603  -0.802  -2.219  0.00  0.00    -0.012 A 
ATOM      4  C3A BZF d   1       0.312  -1.328  -0.920  0.00  0.00    -0.107 A 
ATOM      5  C4  BZF d   1       0.477  -2.557  -0.347  0.00  0.00     0.055 A 
ATOM      6  C5  BZF d   1       0.158  -2.722   0.964  0.00  0.00    -0.016 A 
ATOM      7  C6  BZF d   1      -0.324  -1.681   1.731  0.00  0.00     0.022 A 
ATOM      8  C7  BZF d   1      -0.509  -0.446   1.204  0.00  0.00     0.029 A 
ATOM      9  C7A BZF d   1      -0.218  -0.284  -0.128  0.00  0.00     0.058 A 
ENDROOT
TORSDOF 0
ENDMDL
