MODEL 1
REMARK minimizedAffinity -5.33047676
REMARK minimizedRMSD -1
REMARK  0 active torsions:
REMARK  status: ('A' for Active; 'I' for Inactive)
ROOT
ATOM      1  O1  BZF d   1       0.599   0.365  -1.878  0.00  0.00    -0.204 OA
ATOM      2  C2  BZF d   1       0.290   1.543  -1.225  0.00  0.00     0.174 A 
ATOM      3  C3  BZF d   1      -0.209   1.293   0.003  0.00  0.00    -0.012 A 
ATOM      4  C3A BZF d   1      -0.125  -0.127   0.161  0.00  0.00    -0.107 A 
ATOM      5  C4  BZF d   1      -0.453  -0.979   1.177  0.00  0.00     0.055 A 
ATOM      6  C5  BZF d   1      -0.316  -2.317   0.986  0.00  0.00    -0.016 A 
ATOM      7  C6  BZF d   1       0.140  -2.838  -0.207  0.00  0.00     0.022 A 
ATOM      8  C7  BZF d   1       0.483  -2.032  -1.242  0.00  0.00     0.029 A 
ATOM      9  C7A BZF d   1       0.376  -0.677  -1.041  0.00  0.00     0.058 A 
ENDROOT
TORSDOF 0
ENDMDL
