MODEL 1
REMARK minimizedAffinity -3.83927631
REMARK minimizedRMSD -1
REMARK  0 active torsions:
REMARK  status: ('A' for Active; 'I' for Inactive)
ROOT
ATOM      1  O1  BZF d   1       1.665   1.694   1.768  0.00  0.00    -0.204 OA
ATOM      2  C2  BZF d   1       1.709   2.986   1.281  0.00  0.00     0.174 A 
ATOM      3  C3  BZF d   1       1.208   3.043   0.031  0.00  0.00    -0.012 A 
ATOM      4  C3A BZF d   1       0.741   1.719  -0.249  0.00  0.00    -0.107 A 
ATOM      5  C4  BZF d   1       0.128   1.148  -1.327  0.00  0.00     0.055 A 
ATOM      6  C5  BZF d   1      -0.130  -0.186  -1.310  0.00  0.00    -0.016 A 
ATOM      7  C6  BZF d   1       0.216  -0.979  -0.235  0.00  0.00     0.022 A 
ATOM      8  C7  BZF d   1       0.821  -0.456   0.860  0.00  0.00     0.029 A 
ATOM      9  C7A BZF d   1       1.054   0.898   0.859  0.00  0.00     0.058 A 
ENDROOT
TORSDOF 0
ENDMDL
