MODEL 1
REMARK minimizedAffinity -2.18936324
REMARK minimizedRMSD -1
REMARK  0 active torsions:
REMARK  status: ('A' for Active; 'I' for Inactive)
ROOT
ATOM      1  O1  BZF d   1       0.564  -0.617  -1.980  0.00  0.00    -0.204 OA
ATOM      2  C2  BZF d   1       0.536   0.762  -1.902  0.00  0.00     0.174 A 
ATOM      3  C3  BZF d   1       0.008   1.164  -0.728  0.00  0.00    -0.012 A 
ATOM      4  C3A BZF d   1      -0.228  -0.039   0.010  0.00  0.00    -0.107 A 
ATOM      5  C4  BZF d   1      -0.728  -0.293   1.255  0.00  0.00     0.055 A 
ATOM      6  C5  BZF d   1      -0.898  -1.583   1.648  0.00  0.00    -0.016 A 
ATOM      7  C6  BZF d   1      -0.585  -2.641   0.820  0.00  0.00     0.022 A 
ATOM      8  C7  BZF d   1      -0.082  -2.439  -0.422  0.00  0.00     0.029 A 
ATOM      9  C7A BZF d   1       0.122  -1.137  -0.809  0.00  0.00     0.058 A 
ENDROOT
TORSDOF 0
ENDMDL
