MODEL 1
REMARK minimizedAffinity -3.66672778
REMARK minimizedRMSD -1
REMARK  0 active torsions:
REMARK  status: ('A' for Active; 'I' for Inactive)
ROOT
ATOM      1  O1  BZF d   1       0.560   1.452   1.343  0.00  0.00    -0.204 OA
ATOM      2  C2  BZF d   1       0.673   2.003   0.081  0.00  0.00     0.174 A 
ATOM      3  C3  BZF d   1       0.482   1.065  -0.869  0.00  0.00    -0.012 A 
ATOM      4  C3A BZF d   1       0.143  -0.129  -0.157  0.00  0.00    -0.107 A 
ATOM      5  C4  BZF d   1      -0.175  -1.398  -0.549  0.00  0.00     0.055 A 
ATOM      6  C5  BZF d   1      -0.382  -2.349   0.399  0.00  0.00    -0.016 A 
ATOM      7  C6  BZF d   1      -0.274  -2.069   1.745  0.00  0.00     0.022 A 
ATOM      8  C7  BZF d   1       0.034  -0.824   2.183  0.00  0.00     0.029 A 
ATOM      9  C7A BZF d   1       0.211   0.148   1.228  0.00  0.00     0.058 A 
ENDROOT
TORSDOF 0
ENDMDL
