MODEL 1
REMARK minimizedAffinity -4.39024878
REMARK minimizedRMSD -1
REMARK  0 active torsions:
REMARK  status: ('A' for Active; 'I' for Inactive)
ROOT
ATOM      1  C   UNL d   1      -2.466   2.712  -3.364  0.00  0.00    -0.002 A 
ATOM      2  C1  UNL d   1      -1.137   2.939  -3.695  0.00  0.00     0.010 A 
ATOM      3  C2  UNL d   1      -0.113   2.278  -3.014  0.00  0.00     0.041 A 
ATOM      4  C3  UNL d   1      -0.449   1.374  -1.988  0.00  0.00    -0.075 A 
ATOM      5  S   UNL d   1       0.638   0.450  -1.019  0.00  0.00     0.015 SA
ATOM      6  C4  UNL d   1      -0.636  -0.269  -0.144  0.00  0.00     0.022 A 
ATOM      7  C5  UNL d   1      -1.866   0.174  -0.567  0.00  0.00     0.026 A 
ATOM      8  C6  UNL d   1      -1.779   1.128  -1.637  0.00  0.00    -0.082 A 
ATOM      9  C7  UNL d   1      -2.795   1.814  -2.344  0.00  0.00     0.045 A 
ENDROOT
TORSDOF 0
ENDMDL
