MODEL 1
REMARK minimizedAffinity -0.227424636
REMARK minimizedRMSD -1
REMARK  0 active torsions:
REMARK  status: ('A' for Active; 'I' for Inactive)
ROOT
ATOM      1  C   UNL d   1      -1.350  -0.072   1.862  0.00  0.00    -0.002 A 
ATOM      2  C1  UNL d   1      -0.362  -0.727   2.584  0.00  0.00     0.010 A 
ATOM      3  C2  UNL d   1       0.783  -1.207   1.946  0.00  0.00     0.041 A 
ATOM      4  C3  UNL d   1       0.922  -1.014   0.558  0.00  0.00    -0.075 A 
ATOM      5  S   UNL d   1       2.239  -1.515  -0.435  0.00  0.00     0.015 SA
ATOM      6  C4  UNL d   1       1.523  -0.870  -1.840  0.00  0.00     0.022 A 
ATOM      7  C5  UNL d   1       0.308  -0.284  -1.577  0.00  0.00     0.026 A 
ATOM      8  C6  UNL d   1      -0.058  -0.356  -0.191  0.00  0.00    -0.082 A 
ATOM      9  C7  UNL d   1      -1.209   0.118   0.485  0.00  0.00     0.045 A 
ENDROOT
TORSDOF 0
ENDMDL
