MODEL 1
REMARK minimizedAffinity -3.01258874
REMARK minimizedRMSD -1
REMARK  0 active torsions:
REMARK  status: ('A' for Active; 'I' for Inactive)
ROOT
ATOM      1  C   UNL d   1      -1.863  -0.299   1.131  0.00  0.00    -0.002 A 
ATOM      2  C1  UNL d   1      -0.481  -0.344   1.254  0.00  0.00     0.010 A 
ATOM      3  C2  UNL d   1       0.337   0.270   0.303  0.00  0.00     0.041 A 
ATOM      4  C3  UNL d   1      -0.263   0.937  -0.783  0.00  0.00    -0.075 A 
ATOM      5  S   UNL d   1       0.538   1.761  -2.068  0.00  0.00     0.015 SA
ATOM      6  C4  UNL d   1      -0.934   2.193  -2.810  0.00  0.00     0.022 A 
ATOM      7  C5  UNL d   1      -2.021   1.728  -2.108  0.00  0.00     0.026 A 
ATOM      8  C6  UNL d   1      -1.652   0.997  -0.928  0.00  0.00    -0.082 A 
ATOM      9  C7  UNL d   1      -2.454   0.364   0.052  0.00  0.00     0.045 A 
ENDROOT
TORSDOF 0
ENDMDL
