MODEL 1
REMARK minimizedAffinity -1.55244279
REMARK minimizedRMSD -1
REMARK  0 active torsions:
REMARK  status: ('A' for Active; 'I' for Inactive)
ROOT
ATOM      1  C   UNL d   1      -0.509  -0.841  -0.084  0.00  0.00    -0.002 A 
ATOM      2  C1  UNL d   1      -0.075   0.218   0.700  0.00  0.00     0.010 A 
ATOM      3  C2  UNL d   1      -0.100   1.524   0.207  0.00  0.00     0.041 A 
ATOM      4  C3  UNL d   1      -0.575   1.750  -1.100  0.00  0.00    -0.075 A 
ATOM      5  S   UNL d   1      -0.699   3.265  -1.914  0.00  0.00     0.015 SA
ATOM      6  C4  UNL d   1      -1.332   2.542  -3.321  0.00  0.00     0.022 A 
ATOM      7  C5  UNL d   1      -1.452   1.178  -3.191  0.00  0.00     0.026 A 
ATOM      8  C6  UNL d   1      -1.019   0.700  -1.908  0.00  0.00    -0.082 A 
ATOM      9  C7  UNL d   1      -0.979  -0.613  -1.380  0.00  0.00     0.045 A 
ENDROOT
TORSDOF 0
ENDMDL
