MODEL 1
REMARK minimizedAffinity 1.93702495
REMARK minimizedRMSD -1
REMARK  0 active torsions:
REMARK  status: ('A' for Active; 'I' for Inactive)
ROOT
ATOM      1  C   UNL d   1      -0.104  -0.578   2.677  0.00  0.00    -0.002 A 
ATOM      2  C1  UNL d   1       0.887  -1.377   2.124  0.00  0.00     0.010 A 
ATOM      3  C2  UNL d   1       1.116  -1.373   0.746  0.00  0.00     0.041 A 
ATOM      4  C3  UNL d   1       0.325  -0.543  -0.073  0.00  0.00    -0.075 A 
ATOM      5  S   UNL d   1       0.427  -0.373  -1.786  0.00  0.00     0.015 SA
ATOM      6  C4  UNL d   1      -0.842   0.764  -1.823  0.00  0.00     0.022 A 
ATOM      7  C5  UNL d   1      -1.343   1.020  -0.568  0.00  0.00     0.026 A 
ATOM      8  C6  UNL d   1      -0.678   0.271   0.461  0.00  0.00    -0.082 A 
ATOM      9  C7  UNL d   1      -0.886   0.244   1.861  0.00  0.00     0.045 A 
ENDROOT
TORSDOF 0
ENDMDL
