MODEL 1
REMARK minimizedAffinity 2.481812
REMARK minimizedRMSD -1
REMARK  0 active torsions:
REMARK  status: ('A' for Active; 'I' for Inactive)
ROOT
ATOM      1  C   UNL d   1       1.005  -2.042   2.442  0.00  0.00    -0.002 A 
ATOM      2  C1  UNL d   1       1.718  -1.984   1.253  0.00  0.00     0.010 A 
ATOM      3  C2  UNL d   1       1.354  -1.084   0.250  0.00  0.00     0.041 A 
ATOM      4  C3  UNL d   1       0.251  -0.234   0.465  0.00  0.00    -0.075 A 
ATOM      5  S   UNL d   1      -0.378   0.949  -0.621  0.00  0.00     0.015 SA
ATOM      6  C4  UNL d   1      -1.607   1.404   0.468  0.00  0.00     0.022 A 
ATOM      7  C5  UNL d   1      -1.554   0.682   1.637  0.00  0.00     0.026 A 
ATOM      8  C6  UNL d   1      -0.482  -0.273   1.655  0.00  0.00    -0.082 A 
ATOM      9  C7  UNL d   1      -0.088  -1.198   2.652  0.00  0.00     0.045 A 
ENDROOT
TORSDOF 0
ENDMDL
