MODEL 1
REMARK minimizedAffinity -0.328441769
REMARK minimizedRMSD -1
REMARK  0 active torsions:
REMARK  status: ('A' for Active; 'I' for Inactive)
ROOT
ATOM      1  N1  IND d   1       0.936   0.545   1.470  0.00  0.00    -0.196 N 
ATOM      2  C2  IND d   1       0.953   1.815   1.975  0.00  0.00     0.054 A 
ATOM      3  C3  IND d   1       1.073   2.717   0.975  0.00  0.00    -0.031 A 
ATOM      4  C4  IND d   1       1.155   2.336  -1.570  0.00  0.00     0.051 A 
ATOM      5  C5  IND d   1       1.208   1.345  -2.509  0.00  0.00    -0.031 A 
ATOM      6  C6  IND d   1       1.169   0.010  -2.164  0.00  0.00     0.015 A 
ATOM      7  C7  IND d   1       1.064  -0.386  -0.860  0.00  0.00    -0.016 A 
ATOM      8  C8  IND d   1       1.018   0.618   0.097  0.00  0.00    -0.047 A 
ATOM      9  C9  IND d   1       1.099   1.974  -0.245  0.00  0.00    -0.096 A 
ATOM     10  HN1 IND d   1       0.884  -0.178   1.933  0.00  0.00     0.298 HD
ENDROOT
TORSDOF 0
ENDMDL
