MODEL 1
REMARK minimizedAffinity -3.16653323
REMARK minimizedRMSD -1
REMARK  0 active torsions:
REMARK  status: ('A' for Active; 'I' for Inactive)
ROOT
ATOM      1  N1  IND d   1       1.324   3.337  -1.751  0.00  0.00    -0.196 N 
ATOM      2  C2  IND d   1       1.025   4.095  -0.653  0.00  0.00     0.054 A 
ATOM      3  C3  IND d   1       0.891   3.310   0.439  0.00  0.00    -0.031 A 
ATOM      4  C4  IND d   1       1.220   0.767   0.675  0.00  0.00     0.051 A 
ATOM      5  C5  IND d   1       1.463  -0.360  -0.058  0.00  0.00    -0.031 A 
ATOM      6  C6  IND d   1       1.679  -0.311  -1.420  0.00  0.00     0.015 A 
ATOM      7  C7  IND d   1       1.672   0.873  -2.101  0.00  0.00    -0.016 A 
ATOM      8  C8  IND d   1       1.418   2.019  -1.361  0.00  0.00    -0.047 A 
ATOM      9  C9  IND d   1       1.156   1.972   0.014  0.00  0.00    -0.096 A 
ATOM     10  HN1 IND d   1       1.435   3.633  -2.550  0.00  0.00     0.298 HD
ENDROOT
TORSDOF 0
ENDMDL
