MODEL 1
REMARK minimizedAffinity -0.290556818
REMARK minimizedRMSD -1
REMARK  0 active torsions:
REMARK  status: ('A' for Active; 'I' for Inactive)
ROOT
ATOM      1  N1  IND d   1       1.469  -1.129  -1.775  0.00  0.00    -0.196 N 
ATOM      2  C2  IND d   1       1.328  -2.028  -0.755  0.00  0.00     0.054 A 
ATOM      3  C3  IND d   1       1.092  -1.384   0.411  0.00  0.00    -0.031 A 
ATOM      4  C4  IND d   1       0.797   1.135   0.857  0.00  0.00     0.051 A 
ATOM      5  C5  IND d   1       0.875   2.353   0.244  0.00  0.00    -0.031 A 
ATOM      6  C6  IND d   1       1.157   2.476  -1.101  0.00  0.00     0.015 A 
ATOM      7  C7  IND d   1       1.362   1.379  -1.889  0.00  0.00    -0.016 A 
ATOM      8  C8  IND d   1       1.292   0.140  -1.269  0.00  0.00    -0.047 A 
ATOM      9  C9  IND d   1       1.047   0.011   0.105  0.00  0.00    -0.096 A 
ATOM     10  HN1 IND d   1       1.640  -1.323  -2.595  0.00  0.00     0.298 HD
ENDROOT
TORSDOF 0
ENDMDL
