MODEL 1
REMARK minimizedAffinity 1.3922236
REMARK minimizedRMSD -1
REMARK  0 active torsions:
REMARK  status: ('A' for Active; 'I' for Inactive)
ROOT
ATOM      1  N1  IND d   1       1.025   2.424   1.460  0.00  0.00    -0.196 N 
ATOM      2  C2  IND d   1       0.741   3.620   0.864  0.00  0.00     0.054 A 
ATOM      3  C3  IND d   1       0.832   3.509  -0.480  0.00  0.00    -0.031 A 
ATOM      4  C4  IND d   1       1.333   1.434  -1.920  0.00  0.00     0.051 A 
ATOM      5  C5  IND d   1       1.694   0.120  -1.825  0.00  0.00    -0.031 A 
ATOM      6  C6  IND d   1       1.852  -0.508  -0.606  0.00  0.00     0.015 A 
ATOM      7  C7  IND d   1       1.642   0.156   0.569  0.00  0.00    -0.016 A 
ATOM      8  C8  IND d   1       1.281   1.493   0.477  0.00  0.00    -0.047 A 
ATOM      9  C9  IND d   1       1.162   2.147  -0.756  0.00  0.00    -0.096 A 
ATOM     10  HN1 IND d   1       1.042   2.277   2.307  0.00  0.00     0.298 HD
ENDROOT
TORSDOF 0
ENDMDL
