MODEL 1
REMARK minimizedAffinity -1.43490267
REMARK minimizedRMSD -1
REMARK  0 active torsions:
REMARK  status: ('A' for Active; 'I' for Inactive)
ROOT
ATOM      1  N1  IND d   1       1.444   0.961  -2.449  0.00  0.00    -0.196 N 
ATOM      2  C2  IND d   1       1.629  -0.328  -2.032  0.00  0.00     0.054 A 
ATOM      3  C3  IND d   1       1.503  -0.411  -0.689  0.00  0.00    -0.031 A 
ATOM      4  C4  IND d   1       0.898   1.423   1.013  0.00  0.00     0.051 A 
ATOM      5  C5  IND d   1       0.672   2.767   1.114  0.00  0.00    -0.031 A 
ATOM      6  C6  IND d   1       0.690   3.594   0.010  0.00  0.00     0.015 A 
ATOM      7  C7  IND d   1       0.924   3.104  -1.244  0.00  0.00    -0.016 A 
ATOM      8  C8  IND d   1       1.161   1.740  -1.349  0.00  0.00    -0.047 A 
ATOM      9  C9  IND d   1       1.186   0.903  -0.226  0.00  0.00    -0.096 A 
ATOM     10  HN1 IND d   1       1.497   1.238  -3.261  0.00  0.00     0.298 HD
ENDROOT
TORSDOF 0
ENDMDL
