MODEL 1
REMARK minimizedAffinity 6.35885572
REMARK minimizedRMSD -1
REMARK  0 active torsions:
REMARK  status: ('A' for Active; 'I' for Inactive)
ROOT
ATOM      1  N1  IND d   1       1.839   2.136  -2.597  0.00  0.00    -0.196 N 
ATOM      2  C2  IND d   1       1.404   3.419  -2.412  0.00  0.00     0.054 A 
ATOM      3  C3  IND d   1       0.873   3.561  -1.177  0.00  0.00    -0.031 A 
ATOM      4  C4  IND d   1       0.707   1.851   0.740  0.00  0.00     0.051 A 
ATOM      5  C5  IND d   1       0.937   0.536   1.033  0.00  0.00    -0.031 A 
ATOM      6  C6  IND d   1       1.492  -0.330   0.113  0.00  0.00     0.015 A 
ATOM      7  C7  IND d   1       1.851   0.092  -1.136  0.00  0.00    -0.016 A 
ATOM      8  C8  IND d   1       1.613   1.425  -1.439  0.00  0.00    -0.047 A 
ATOM      9  C9  IND d   1       1.011   2.298  -0.524  0.00  0.00    -0.096 A 
ATOM     10  HN1 IND d   1       2.193   1.825  -3.316  0.00  0.00     0.298 HD
ENDROOT
TORSDOF 0
ENDMDL
