MODEL 1
REMARK minimizedAffinity 0.963428497
REMARK minimizedRMSD -1
REMARK  0 active torsions:
REMARK  status: ('A' for Active; 'I' for Inactive)
ROOT
ATOM      1  N1  IND d   1       1.198   3.501   0.307  0.00  0.00    -0.196 N 
ATOM      2  C2  IND d   1       0.951   4.236  -0.820  0.00  0.00     0.054 A 
ATOM      3  C3  IND d   1       0.824   3.423  -1.892  0.00  0.00    -0.031 A 
ATOM      4  C4  IND d   1       0.884   0.852  -2.013  0.00  0.00     0.051 A 
ATOM      5  C5  IND d   1       1.118  -0.257  -1.249  0.00  0.00    -0.031 A 
ATOM      6  C6  IND d   1       1.393  -0.168   0.100  0.00  0.00     0.015 A 
ATOM      7  C7  IND d   1       1.434   1.038   0.741  0.00  0.00    -0.016 A 
ATOM      8  C8  IND d   1       1.204   2.166  -0.033  0.00  0.00    -0.047 A 
ATOM      9  C9  IND d   1       0.966   2.085  -1.411  0.00  0.00    -0.096 A 
ATOM     10  HN1 IND d   1       1.328   3.820   1.095  0.00  0.00     0.298 HD
ENDROOT
TORSDOF 0
ENDMDL
