MODEL 1
REMARK minimizedAffinity 14.5034542
REMARK minimizedRMSD -1
REMARK  0 active torsions:
REMARK  status: ('A' for Active; 'I' for Inactive)
ROOT
ATOM      1  N1  IND d   1       2.571  -0.701   0.261  0.00  0.00    -0.196 N 
ATOM      2  C2  IND d   1       3.163  -0.040   1.301  0.00  0.00     0.054 A 
ATOM      3  C3  IND d   1       2.929   1.289   1.207  0.00  0.00    -0.031 A 
ATOM      4  C4  IND d   1       1.516   2.583  -0.512  0.00  0.00     0.051 A 
ATOM      5  C5  IND d   1       0.809   2.416  -1.670  0.00  0.00    -0.031 A 
ATOM      6  C6  IND d   1       0.647   1.176  -2.253  0.00  0.00     0.015 A 
ATOM      7  C7  IND d   1       1.180   0.050  -1.692  0.00  0.00    -0.016 A 
ATOM      8  C8  IND d   1       1.905   0.217  -0.520  0.00  0.00    -0.047 A 
ATOM      9  C9  IND d   1       2.108   1.478   0.053  0.00  0.00    -0.096 A 
ATOM     10  HN1 IND d   1       2.609  -1.549   0.120  0.00  0.00     0.298 HD
ENDROOT
TORSDOF 0
ENDMDL
