MODEL 1
REMARK minimizedAffinity 1.63600719
REMARK minimizedRMSD -1
REMARK  0 active torsions:
REMARK  status: ('A' for Active; 'I' for Inactive)
ROOT
ATOM      1  N1  IND d   1       0.805   3.542  -0.746  0.00  0.00    -0.196 N 
ATOM      2  C2  IND d   1       0.358   3.535   0.546  0.00  0.00     0.054 A 
ATOM      3  C3  IND d   1       0.406   2.282   1.054  0.00  0.00    -0.031 A 
ATOM      4  C4  IND d   1       1.276   0.113  -0.025  0.00  0.00     0.051 A 
ATOM      5  C5  IND d   1       1.751  -0.388  -1.204  0.00  0.00    -0.031 A 
ATOM      6  C6  IND d   1       1.941   0.411  -2.313  0.00  0.00     0.015 A 
ATOM      7  C7  IND d   1       1.673   1.750  -2.279  0.00  0.00    -0.016 A 
ATOM      8  C8  IND d   1       1.184   2.262  -1.085  0.00  0.00    -0.047 A 
ATOM      9  C9  IND d   1       0.949   1.447   0.030  0.00  0.00    -0.096 A 
ATOM     10  HN1 IND d   1       0.842   4.230  -1.260  0.00  0.00     0.298 HD
ENDROOT
TORSDOF 0
ENDMDL
