MODEL 1
REMARK minimizedAffinity 2.87574744
REMARK minimizedRMSD -1
REMARK  0 active torsions:
REMARK  status: ('A' for Active; 'I' for Inactive)
ROOT
ATOM      1  N1  IND d   1       1.753   2.621  -2.494  0.00  0.00    -0.196 N 
ATOM      2  C2  IND d   1       1.014   3.656  -1.993  0.00  0.00     0.054 A 
ATOM      3  C3  IND d   1       0.373   3.274  -0.865  0.00  0.00    -0.031 A 
ATOM      4  C4  IND d   1       0.476   1.031   0.394  0.00  0.00     0.051 A 
ATOM      5  C5  IND d   1       0.988  -0.233   0.303  0.00  0.00    -0.031 A 
ATOM      6  C6  IND d   1       1.800  -0.617  -0.744  0.00  0.00     0.015 A 
ATOM      7  C7  IND d   1       2.141   0.256  -1.738  0.00  0.00    -0.016 A 
ATOM      8  C8  IND d   1       1.617   1.538  -1.653  0.00  0.00    -0.047 A 
ATOM      9  C9  IND d   1       0.758   1.921  -0.615  0.00  0.00    -0.096 A 
ATOM     10  HN1 IND d   1       2.224   2.643  -3.213  0.00  0.00     0.298 HD
ENDROOT
TORSDOF 0
ENDMDL
