MODEL 1
REMARK minimizedAffinity -3.74756217
REMARK minimizedRMSD -1
REMARK  0 active torsions:
REMARK  status: ('A' for Active; 'I' for Inactive)
ROOT
ATOM      1  N1  IND d   1       1.117   3.918   0.176  0.00  0.00    -0.196 N 
ATOM      2  C2  IND d   1       1.107   4.225  -1.156  0.00  0.00     0.054 A 
ATOM      3  C3  IND d   1       1.013   3.098  -1.898  0.00  0.00    -0.031 A 
ATOM      4  C4  IND d   1       0.761   0.653  -1.132  0.00  0.00     0.051 A 
ATOM      5  C5  IND d   1       0.755  -0.130  -0.012  0.00  0.00    -0.031 A 
ATOM      6  C6  IND d   1       0.869   0.408   1.254  0.00  0.00     0.015 A 
ATOM      7  C7  IND d   1       0.982   1.755   1.448  0.00  0.00    -0.016 A 
ATOM      8  C8  IND d   1       0.996   2.553   0.312  0.00  0.00    -0.047 A 
ATOM      9  C9  IND d   1       0.923   2.009  -0.977  0.00  0.00    -0.096 A 
ATOM     10  HN1 IND d   1       1.187   4.483   0.820  0.00  0.00     0.298 HD
ENDROOT
TORSDOF 0
ENDMDL
