MODEL 1
REMARK minimizedAffinity 2.62201929
REMARK minimizedRMSD -1
REMARK  0 active torsions:
REMARK  status: ('A' for Active; 'I' for Inactive)
ROOT
ATOM      1  N1  IND d   1       1.177   3.723  -1.050  0.00  0.00    -0.196 N 
ATOM      2  C2  IND d   1       0.599   3.661  -2.288  0.00  0.00     0.054 A 
ATOM      3  C3  IND d   1       0.273   2.384  -2.591  0.00  0.00    -0.031 A 
ATOM      4  C4  IND d   1       0.503   0.254  -1.164  0.00  0.00     0.051 A 
ATOM      5  C5  IND d   1       1.008  -0.198   0.023  0.00  0.00    -0.031 A 
ATOM      6  C6  IND d   1       1.603   0.652   0.933  0.00  0.00     0.015 A 
ATOM      7  C7  IND d   1       1.708   1.993   0.693  0.00  0.00    -0.016 A 
ATOM      8  C8  IND d   1       1.203   2.454  -0.515  0.00  0.00    -0.047 A 
ATOM      9  C9  IND d   1       0.636   1.590  -1.460  0.00  0.00    -0.096 A 
ATOM     10  HN1 IND d   1       1.474   4.435  -0.670  0.00  0.00     0.298 HD
ENDROOT
TORSDOF 0
ENDMDL
