MODEL 1
REMARK minimizedAffinity -3.97894621
REMARK minimizedRMSD -1
REMARK  0 active torsions:
REMARK  status: ('A' for Active; 'I' for Inactive)
ROOT
ATOM      1  N1  IND d   1       1.527   3.320  -1.761  0.00  0.00    -0.196 N 
ATOM      2  C2  IND d   1       1.153   4.373  -0.974  0.00  0.00     0.054 A 
ATOM      3  C3  IND d   1       0.759   3.934   0.243  0.00  0.00    -0.031 A 
ATOM      4  C4  IND d   1       0.744   1.541   1.192  0.00  0.00     0.051 A 
ATOM      5  C5  IND d   1       0.963   0.239   0.837  0.00  0.00    -0.031 A 
ATOM      6  C6  IND d   1       1.393  -0.108  -0.428  0.00  0.00     0.015 A 
ATOM      7  C7  IND d   1       1.631   0.837  -1.384  0.00  0.00    -0.016 A 
ATOM      8  C8  IND d   1       1.403   2.159  -1.029  0.00  0.00    -0.047 A 
ATOM      9  C9  IND d   1       0.926   2.515   0.239  0.00  0.00    -0.096 A 
ATOM     10  HN1 IND d   1       1.795   3.373  -2.576  0.00  0.00     0.298 HD
ENDROOT
TORSDOF 0
ENDMDL
