MODEL 1
REMARK minimizedAffinity -2.42745996
REMARK minimizedRMSD -1
REMARK  0 active torsions:
REMARK  status: ('A' for Active; 'I' for Inactive)
ROOT
ATOM      1  N1  IND d   1       1.172   0.500  -1.860  0.00  0.00    -0.196 N 
ATOM      2  C2  IND d   1       0.978  -0.458  -0.904  0.00  0.00     0.054 A 
ATOM      3  C3  IND d   1       0.843   0.115   0.314  0.00  0.00    -0.031 A 
ATOM      4  C4  IND d   1       0.807   2.608   0.955  0.00  0.00     0.051 A 
ATOM      5  C5  IND d   1       0.982   3.857   0.430  0.00  0.00    -0.031 A 
ATOM      6  C6  IND d   1       1.231   4.056  -0.913  0.00  0.00     0.015 A 
ATOM      7  C7  IND d   1       1.304   3.008  -1.787  0.00  0.00    -0.016 A 
ATOM      8  C8  IND d   1       1.134   1.737  -1.256  0.00  0.00    -0.047 A 
ATOM      9  C9  IND d   1       0.923   1.527   0.113  0.00  0.00    -0.096 A 
ATOM     10  HN1 IND d   1       1.297   0.353  -2.698  0.00  0.00     0.298 HD
ENDROOT
TORSDOF 0
ENDMDL
