MODEL 1
REMARK minimizedAffinity 6.11665535
REMARK minimizedRMSD -1
REMARK  0 active torsions:
REMARK  status: ('A' for Active; 'I' for Inactive)
ROOT
ATOM      1  N1  IND d   1       1.200   2.418  -2.395  0.00  0.00    -0.196 N 
ATOM      2  C2  IND d   1       1.010   3.701  -1.962  0.00  0.00     0.054 A 
ATOM      3  C3  IND d   1       0.901   3.731  -0.614  0.00  0.00    -0.031 A 
ATOM      4  C4  IND d   1       1.105   1.810   1.087  0.00  0.00     0.051 A 
ATOM      5  C5  IND d   1       1.241   0.452   1.167  0.00  0.00    -0.031 A 
ATOM      6  C6  IND d   1       1.376  -0.335   0.042  0.00  0.00     0.015 A 
ATOM      7  C7  IND d   1       1.391   0.210  -1.211  0.00  0.00    -0.016 A 
ATOM      8  C8  IND d   1       1.246   1.587  -1.297  0.00  0.00    -0.047 A 
ATOM      9  C9  IND d   1       1.066   2.387  -0.161  0.00  0.00    -0.096 A 
ATOM     10  HN1 IND d   1       1.277   2.172  -3.215  0.00  0.00     0.298 HD
ENDROOT
TORSDOF 0
ENDMDL
