MODEL 1
REMARK minimizedAffinity 2.71059465
REMARK minimizedRMSD -1
REMARK  0 active torsions:
REMARK  status: ('A' for Active; 'I' for Inactive)
ROOT
ATOM      1  N1  IND d   1       0.505   0.886   1.544  0.00  0.00    -0.196 N 
ATOM      2  C2  IND d   1       0.211   2.190   1.829  0.00  0.00     0.054 A 
ATOM      3  C3  IND d   1       0.412   2.967   0.741  0.00  0.00    -0.031 A 
ATOM      4  C4  IND d   1       1.124   2.293  -1.640  0.00  0.00     0.051 A 
ATOM      5  C5  IND d   1       1.540   1.220  -2.377  0.00  0.00    -0.031 A 
ATOM      6  C6  IND d   1       1.632  -0.045  -1.834  0.00  0.00     0.015 A 
ATOM      7  C7  IND d   1       1.298  -0.288  -0.532  0.00  0.00    -0.016 A 
ATOM      8  C8  IND d   1       0.882   0.801   0.222  0.00  0.00    -0.047 A 
ATOM      9  C9  IND d   1       0.828   2.095  -0.312  0.00  0.00    -0.096 A 
ATOM     10  HN1 IND d   1       0.463   0.229   2.097  0.00  0.00     0.298 HD
ENDROOT
TORSDOF 0
ENDMDL
