MODEL 1
REMARK minimizedAffinity 1.44143057
REMARK minimizedRMSD -1
REMARK  0 active torsions:
REMARK  status: ('A' for Active; 'I' for Inactive)
ROOT
ATOM      1  N1  IND d   1      -3.306  -0.005   5.129  0.00  0.00    -0.196 N 
ATOM      2  C2  IND d   1      -2.345   0.428   6.000  0.00  0.00     0.054 A 
ATOM      3  C3  IND d   1      -1.655   1.460   5.464  0.00  0.00    -0.031 A 
ATOM      4  C4  IND d   1      -2.003   2.668   3.217  0.00  0.00     0.051 A 
ATOM      5  C5  IND d   1      -2.735   2.610   2.065  0.00  0.00    -0.031 A 
ATOM      6  C6  IND d   1      -3.717   1.659   1.872  0.00  0.00     0.015 A 
ATOM      7  C7  IND d   1      -4.012   0.735   2.834  0.00  0.00    -0.016 A 
ATOM      8  C8  IND d   1      -3.265   0.787   4.003  0.00  0.00    -0.047 A 
ATOM      9  C9  IND d   1      -2.239   1.722   4.187  0.00  0.00    -0.096 A 
ATOM     10  HN1 IND d   1      -3.845  -0.661   5.263  0.00  0.00     0.298 HD
ENDROOT
TORSDOF 0
ENDMDL
