MODEL 1
REMARK minimizedAffinity 5.17444134
REMARK minimizedRMSD -1
REMARK  0 active torsions:
REMARK  status: ('A' for Active; 'I' for Inactive)
ROOT
ATOM      1  N1  IND d   1       1.777   0.617   1.472  0.00  0.00    -0.196 N 
ATOM      2  C2  IND d   1       1.375   1.806   2.013  0.00  0.00     0.054 A 
ATOM      3  C3  IND d   1       0.838   2.599   1.058  0.00  0.00    -0.031 A 
ATOM      4  C4  IND d   1       0.426   2.107  -1.435  0.00  0.00     0.051 A 
ATOM      5  C5  IND d   1       0.658   1.168  -2.400  0.00  0.00    -0.031 A 
ATOM      6  C6  IND d   1       1.284  -0.029  -2.118  0.00  0.00     0.015 A 
ATOM      7  C7  IND d   1       1.695  -0.336  -0.851  0.00  0.00    -0.016 A 
ATOM      8  C8  IND d   1       1.467   0.618   0.130  0.00  0.00    -0.047 A 
ATOM      9  C9  IND d   1       0.870   1.852  -0.159  0.00  0.00    -0.096 A 
ATOM     10  HN1 IND d   1       2.159  -0.025   1.899  0.00  0.00     0.298 HD
ENDROOT
TORSDOF 0
ENDMDL
