MODEL 1
REMARK minimizedAffinity -5.69505119
REMARK minimizedRMSD -1
REMARK  3 active torsions:
REMARK  status: ('A' for Active; 'I' for Inactive)
REMARK    1  A    between atoms: C3'_2  and  C2'_3 
REMARK    2  A    between atoms: C2'_3  and  C1'_4 
REMARK    3  A    between atoms: C1'_4  and  C1_5 
ROOT
ATOM      1  C1  N4B d   1      -1.005   0.114   0.567  0.00  0.00    -0.075 A 
ATOM      2  C2  N4B d   1      -1.728   0.163   1.779  0.00  0.00     0.002 A 
ATOM      3  C3  N4B d   1      -1.738   1.315   2.526  0.00  0.00     0.002 A 
ATOM      4  C4  N4B d   1      -1.020   2.420   2.093  0.00  0.00    -0.004 A 
ATOM      5  C5  N4B d   1      -0.345   2.372   0.908  0.00  0.00     0.002 A 
ATOM      6  C6  N4B d   1      -0.330   1.222   0.145  0.00  0.00     0.002 A 
ENDROOT
BRANCH   1   7
ATOM      7  C1' N4B d   1      -0.895  -1.150  -0.241  0.00  0.00     0.057 C 
BRANCH   7   8
ATOM      8  C2' N4B d   1       0.048  -2.118   0.469  0.00  0.00     0.009 C 
BRANCH   8   9
ATOM      9  C3' N4B d   1       1.361  -2.282  -0.277  0.00  0.00     0.004 C 
ATOM     10  C4' N4B d   1       1.316  -1.715  -1.665  0.00  0.00     0.003 C 
ENDBRANCH   8   9
ENDBRANCH   7   8
ENDBRANCH   1   7
TORSDOF 3
ENDMDL
