MODEL 1
REMARK minimizedAffinity -2.92462111
REMARK minimizedRMSD -1
REMARK  3 active torsions:
REMARK  status: ('A' for Active; 'I' for Inactive)
REMARK    1  A    between atoms: C3'_2  and  C2'_3 
REMARK    2  A    between atoms: C2'_3  and  C1'_4 
REMARK    3  A    between atoms: C1'_4  and  C1_5 
ROOT
ATOM      1  C1  N4B d   1      -0.766   0.419   0.551  0.00  0.00    -0.075 A 
ATOM      2  C2  N4B d   1      -1.566   0.404   1.714  0.00  0.00     0.002 A 
ATOM      3  C3  N4B d   1      -1.670   1.532   2.491  0.00  0.00     0.002 A 
ATOM      4  C4  N4B d   1      -0.970   2.675   2.137  0.00  0.00    -0.004 A 
ATOM      5  C5  N4B d   1      -0.219   2.690   0.998  0.00  0.00     0.002 A 
ATOM      6  C6  N4B d   1      -0.109   1.565   0.205  0.00  0.00     0.002 A 
ENDROOT
BRANCH   1   7
ATOM      7  C1' N4B d   1      -0.553  -0.814  -0.283  0.00  0.00     0.057 C 
BRANCH   7   8
ATOM      8  C2' N4B d   1       0.883  -1.298  -0.105  0.00  0.00     0.009 C 
BRANCH   8   9
ATOM      9  C3' N4B d   1       1.626  -1.370  -1.428  0.00  0.00     0.004 C 
ATOM     10  C4' N4B d   1       0.850  -2.086  -2.493  0.00  0.00     0.003 C 
ENDBRANCH   8   9
ENDBRANCH   7   8
ENDBRANCH   1   7
TORSDOF 3
ENDMDL
