MODEL 1
REMARK minimizedAffinity -4.72319269
REMARK minimizedRMSD -1
REMARK  3 active torsions:
REMARK  status: ('A' for Active; 'I' for Inactive)
REMARK    1  A    between atoms: C3'_2  and  C2'_3 
REMARK    2  A    between atoms: C2'_3  and  C1'_4 
REMARK    3  A    between atoms: C1'_4  and  C1_5 
ROOT
ATOM      1  C1  N4B d   1      -0.127   0.429   0.142  0.00  0.00    -0.075 A 
ATOM      2  C2  N4B d   1       0.380   1.509  -0.614  0.00  0.00     0.002 A 
ATOM      3  C3  N4B d   1       1.390   1.298  -1.520  0.00  0.00     0.002 A 
ATOM      4  C4  N4B d   1       1.920   0.025  -1.673  0.00  0.00    -0.004 A 
ATOM      5  C5  N4B d   1       1.408  -1.017  -0.957  0.00  0.00     0.002 A 
ATOM      6  C6  N4B d   1       0.390  -0.820  -0.046  0.00  0.00     0.002 A 
ENDROOT
BRANCH   1   7
ATOM      7  C1' N4B d   1      -1.172   0.626   1.206  0.00  0.00     0.057 C 
BRANCH   7   8
ATOM      8  C2' N4B d   1      -0.799   1.837   2.056  0.00  0.00     0.009 C 
BRANCH   8   9
ATOM      9  C3' N4B d   1      -1.234   1.673   3.502  0.00  0.00     0.004 C 
ATOM     10  C4' N4B d   1      -2.377   0.715   3.659  0.00  0.00     0.003 C 
ENDBRANCH   8   9
ENDBRANCH   7   8
ENDBRANCH   1   7
TORSDOF 3
ENDMDL
