MODEL 1
REMARK minimizedAffinity -5.4850173
REMARK minimizedRMSD -1
REMARK  3 active torsions:
REMARK  status: ('A' for Active; 'I' for Inactive)
REMARK    1  A    between atoms: C3'_2  and  C2'_3 
REMARK    2  A    between atoms: C2'_3  and  C1'_4 
REMARK    3  A    between atoms: C1'_4  and  C1_5 
ROOT
ATOM      1  C1  N4B d   1      -1.429   0.777   0.418  0.00  0.00    -0.075 A 
ATOM      2  C2  N4B d   1      -1.728   1.812  -0.495  0.00  0.00     0.002 A 
ATOM      3  C3  N4B d   1      -0.854   2.102  -1.514  0.00  0.00     0.002 A 
ATOM      4  C4  N4B d   1       0.328   1.386  -1.628  0.00  0.00    -0.004 A 
ATOM      5  C5  N4B d   1       0.597   0.371  -0.757  0.00  0.00     0.002 A 
ATOM      6  C6  N4B d   1      -0.273   0.066   0.269  0.00  0.00     0.002 A 
ENDROOT
BRANCH   1   7
ATOM      7  C1' N4B d   1      -2.312   0.480   1.599  0.00  0.00     0.057 C 
BRANCH   7   8
ATOM      8  C2' N4B d   1      -1.471   0.504   2.872  0.00  0.00     0.009 C 
BRANCH   8   9
ATOM      9  C3' N4B d   1      -1.781   1.714   3.736  0.00  0.00     0.004 C 
ATOM     10  C4' N4B d   1      -2.301   2.876   2.942  0.00  0.00     0.003 C 
ENDBRANCH   8   9
ENDBRANCH   7   8
ENDBRANCH   1   7
TORSDOF 3
ENDMDL
