MODEL 1
REMARK minimizedAffinity 0.817406356
REMARK minimizedRMSD -1
REMARK  3 active torsions:
REMARK  status: ('A' for Active; 'I' for Inactive)
REMARK    1  A    between atoms: C3'_2  and  C2'_3 
REMARK    2  A    between atoms: C2'_3  and  C1'_4 
REMARK    3  A    between atoms: C1'_4  and  C1_5 
ROOT
ATOM      1  C1  N4B d   1       4.920   2.046   3.924  0.00  0.00    -0.075 A 
ATOM      2  C2  N4B d   1       5.706   2.400   5.042  0.00  0.00     0.002 A 
ATOM      3  C3  N4B d   1       6.000   1.461   6.000  0.00  0.00     0.002 A 
ATOM      4  C4  N4B d   1       5.506   0.172   5.870  0.00  0.00    -0.004 A 
ATOM      5  C5  N4B d   1       4.768  -0.169   4.774  0.00  0.00     0.002 A 
ATOM      6  C6  N4B d   1       4.468   0.764   3.802  0.00  0.00     0.002 A 
ENDROOT
BRANCH   1   7
ATOM      7  C1' N4B d   1       4.500   3.060   2.895  0.00  0.00     0.057 C 
BRANCH   7   8
ATOM      8  C2' N4B d   1       4.086   2.336   1.618  0.00  0.00     0.009 C 
BRANCH   8   9
ATOM      9  C3' N4B d   1       3.526   3.292   0.578  0.00  0.00     0.004 C 
ATOM     10  C4' N4B d   1       2.200   3.869   0.974  0.00  0.00     0.003 C 
ENDBRANCH   8   9
ENDBRANCH   7   8
ENDBRANCH   1   7
TORSDOF 3
ENDMDL
