MODEL 1
REMARK minimizedAffinity -5.00747681
REMARK minimizedRMSD -1
REMARK  3 active torsions:
REMARK  status: ('A' for Active; 'I' for Inactive)
REMARK    1  A    between atoms: C3'_2  and  C2'_3 
REMARK    2  A    between atoms: C2'_3  and  C1'_4 
REMARK    3  A    between atoms: C1'_4  and  C1_5 
ROOT
ATOM      1  C1  N4B d   1      -0.920   0.184   0.548  0.00  0.00    -0.075 A 
ATOM      2  C2  N4B d   1      -1.742  -0.090   1.662  0.00  0.00     0.002 A 
ATOM      3  C3  N4B d   1      -2.016   0.900   2.574  0.00  0.00     0.002 A 
ATOM      4  C4  N4B d   1      -1.466   2.161   2.402  0.00  0.00    -0.004 A 
ATOM      5  C5  N4B d   1      -0.693   2.425   1.309  0.00  0.00     0.002 A 
ATOM      6  C6  N4B d   1      -0.413   1.441   0.383  0.00  0.00     0.002 A 
ENDROOT
BRANCH   1   7
ATOM      7  C1' N4B d   1      -0.522  -0.888  -0.429  0.00  0.00     0.057 C 
BRANCH   7   8
ATOM      8  C2' N4B d   1       0.374  -1.902   0.277  0.00  0.00     0.009 C 
BRANCH   8   9
ATOM      9  C3' N4B d   1       1.819  -1.796  -0.178  0.00  0.00     0.004 C 
ATOM     10  C4' N4B d   1       1.957  -1.181  -1.538  0.00  0.00     0.003 C 
ENDBRANCH   8   9
ENDBRANCH   7   8
ENDBRANCH   1   7
TORSDOF 3
ENDMDL
