MODEL 1
REMARK minimizedAffinity -1.95773065
REMARK minimizedRMSD -1
REMARK  3 active torsions:
REMARK  status: ('A' for Active; 'I' for Inactive)
REMARK    1  A    between atoms: C3'_2  and  C2'_3 
REMARK    2  A    between atoms: C2'_3  and  C1'_4 
REMARK    3  A    between atoms: C1'_4  and  C1_5 
ROOT
ATOM      1  C1  N4B d   1      -0.786   0.226   0.895  0.00  0.00    -0.075 A 
ATOM      2  C2  N4B d   1      -1.500  -0.108   2.067  0.00  0.00     0.002 A 
ATOM      3  C3  N4B d   1      -1.488   0.743   3.144  0.00  0.00     0.002 A 
ATOM      4  C4  N4B d   1      -0.757   1.920   3.081  0.00  0.00    -0.004 A 
ATOM      5  C5  N4B d   1      -0.091   2.248   1.936  0.00  0.00     0.002 A 
ATOM      6  C6  N4B d   1      -0.097   1.403   0.844  0.00  0.00     0.002 A 
ENDROOT
BRANCH   1   7
ATOM      7  C1' N4B d   1      -0.699  -0.713  -0.277  0.00  0.00     0.057 C 
BRANCH   7   8
ATOM      8  C2' N4B d   1      -0.145  -2.054   0.196  0.00  0.00     0.009 C 
BRANCH   8   9
ATOM      9  C3' N4B d   1       1.356  -1.999   0.427  0.00  0.00     0.004 C 
ATOM     10  C4' N4B d   1       2.125  -1.693  -0.823  0.00  0.00     0.003 C 
ENDBRANCH   8   9
ENDBRANCH   7   8
ENDBRANCH   1   7
TORSDOF 3
ENDMDL
