MODEL 1
REMARK minimizedAffinity -6.20759106
REMARK minimizedRMSD -1
REMARK  3 active torsions:
REMARK  status: ('A' for Active; 'I' for Inactive)
REMARK    1  A    between atoms: C3'_2  and  C2'_3 
REMARK    2  A    between atoms: C2'_3  and  C1'_4 
REMARK    3  A    between atoms: C1'_4  and  C1_5 
ROOT
ATOM      1  C1  N4B d   1       0.481   0.314   0.416  0.00  0.00    -0.075 A 
ATOM      2  C2  N4B d   1      -0.029  -0.998   0.291  0.00  0.00     0.002 A 
ATOM      3  C3  N4B d   1       0.720  -1.969  -0.327  0.00  0.00     0.002 A 
ATOM      4  C4  N4B d   1       1.967  -1.650  -0.843  0.00  0.00    -0.004 A 
ATOM      5  C5  N4B d   1       2.463  -0.387  -0.695  0.00  0.00     0.002 A 
ATOM      6  C6  N4B d   1       1.723   0.598  -0.073  0.00  0.00     0.002 A 
ENDROOT
BRANCH   1   7
ATOM      7  C1' N4B d   1      -0.336   1.430   1.008  0.00  0.00     0.057 C 
BRANCH   7   8
ATOM      8  C2' N4B d   1      -1.817   1.090   0.878  0.00  0.00     0.009 C 
BRANCH   8   9
ATOM      9  C3' N4B d   1      -2.549   1.223   2.202  0.00  0.00     0.004 C 
ATOM     10  C4' N4B d   1      -1.637   1.588   3.335  0.00  0.00     0.003 C 
ENDBRANCH   8   9
ENDBRANCH   7   8
ENDBRANCH   1   7
TORSDOF 3
ENDMDL
