MODEL 1
REMARK minimizedAffinity 8.06285858
REMARK minimizedRMSD -1
REMARK  0 active torsions:
REMARK  status: ('A' for Active; 'I' for Inactive)
ROOT
ATOM      1  C   UNL d   1      -0.996  -1.514  -0.990  0.00  0.00     0.124 A 
ATOM      2  C1  UNL d   1      -1.188  -0.229  -1.477  0.00  0.00     0.062 A 
ATOM      3  C2  UNL d   1      -0.734   0.870  -0.753  0.00  0.00     0.162 A 
ATOM      4  C3  UNL d   1      -0.082   0.688   0.467  0.00  0.00    -0.034 A 
ATOM      5  C4  UNL d   1       0.106  -0.608   0.951  0.00  0.00     0.162 A 
ATOM      6  C5  UNL d   1      -0.350  -1.703   0.223  0.00  0.00     0.062 A 
ATOM      7  F   UNL d   1      -0.163  -2.944   0.696  0.00  0.00    -0.097 F 
ATOM      8  F1  UNL d   1       0.729  -0.819   2.120  0.00  0.00    -0.096 F 
ATOM      9  I   UNL d   1       0.598   2.327   1.553  0.00  0.00    -0.060 I 
ATOM     10  F2  UNL d   1      -0.934   2.100  -1.248  0.00  0.00    -0.096 F 
ATOM     11  F3  UNL d   1      -1.814  -0.044  -2.649  0.00  0.00    -0.097 F 
ATOM     12  F4  UNL d   1      -1.435  -2.569  -1.689  0.00  0.00    -0.092 F 
ENDROOT
TORSDOF 0
ENDMDL
