MODEL 1
REMARK minimizedAffinity -2.49754286
REMARK minimizedRMSD -1
REMARK  0 active torsions:
REMARK  status: ('A' for Active; 'I' for Inactive)
ROOT
ATOM      1  C   UNL d   1      -5.691  -0.511   2.364  0.00  0.00     0.124 A 
ATOM      2  C1  UNL d   1      -5.834  -1.862   2.080  0.00  0.00     0.062 A 
ATOM      3  C2  UNL d   1      -5.860  -2.795   3.112  0.00  0.00     0.162 A 
ATOM      4  C3  UNL d   1      -5.744  -2.381   4.439  0.00  0.00    -0.034 A 
ATOM      5  C4  UNL d   1      -5.599  -1.020   4.716  0.00  0.00     0.162 A 
ATOM      6  C5  UNL d   1      -5.574  -0.091   3.681  0.00  0.00     0.062 A 
ATOM      7  F   UNL d   1      -5.435   1.214   3.957  0.00  0.00    -0.097 F 
ATOM      8  F1  UNL d   1      -5.484  -0.587   5.981  0.00  0.00    -0.096 F 
ATOM      9  I   UNL d   1      -5.782  -3.773   5.986  0.00  0.00    -0.060 I 
ATOM     10  F2  UNL d   1      -6.000  -4.095   2.809  0.00  0.00    -0.096 F 
ATOM     11  F3  UNL d   1      -5.947  -2.271   0.808  0.00  0.00    -0.097 F 
ATOM     12  F4  UNL d   1      -5.665   0.384   1.368  0.00  0.00    -0.092 F 
ENDROOT
TORSDOF 0
ENDMDL
