MODEL 1
REMARK minimizedAffinity 9.17940712
REMARK minimizedRMSD -1
REMARK  0 active torsions:
REMARK  status: ('A' for Active; 'I' for Inactive)
ROOT
ATOM      1  C   UNL d   1       1.010   2.611   2.707  0.00  0.00     0.124 A 
ATOM      2  C1  UNL d   1       0.659   1.278   2.866  0.00  0.00     0.062 A 
ATOM      3  C2  UNL d   1       0.163   0.552   1.787  0.00  0.00     0.162 A 
ATOM      4  C3  UNL d   1       0.017   1.157   0.539  0.00  0.00    -0.034 A 
ATOM      5  C4  UNL d   1       0.371   2.499   0.387  0.00  0.00     0.162 A 
ATOM      6  C5  UNL d   1       0.866   3.220   1.469  0.00  0.00     0.062 A 
ATOM      7  F   UNL d   1       1.205   4.509   1.314  0.00  0.00    -0.097 F 
ATOM      8  F1  UNL d   1       0.243   3.112  -0.799  0.00  0.00    -0.096 F 
ATOM      9  I   UNL d   1      -0.724   0.075  -1.078  0.00  0.00    -0.060 I 
ATOM     10  F2  UNL d   1      -0.168  -0.735   1.968  0.00  0.00    -0.096 F 
ATOM     11  F3  UNL d   1       0.796   0.687   4.061  0.00  0.00    -0.097 F 
ATOM     12  F4  UNL d   1       1.486   3.308   3.748  0.00  0.00    -0.092 F 
ENDROOT
TORSDOF 0
ENDMDL
