MODEL 1
REMARK minimizedAffinity 4.73979616
REMARK minimizedRMSD -1
REMARK  0 active torsions:
REMARK  status: ('A' for Active; 'I' for Inactive)
ROOT
ATOM      1  C   UNL d   1       2.414  -1.440   3.656  0.00  0.00     0.124 A 
ATOM      2  C1  UNL d   1       3.123  -1.288   2.472  0.00  0.00     0.062 A 
ATOM      3  C2  UNL d   1       2.543  -0.638   1.387  0.00  0.00     0.162 A 
ATOM      4  C3  UNL d   1       1.246  -0.133   1.480  0.00  0.00    -0.034 A 
ATOM      5  C4  UNL d   1       0.539  -0.290   2.673  0.00  0.00     0.162 A 
ATOM      6  C5  UNL d   1       1.123  -0.941   3.755  0.00  0.00     0.062 A 
ATOM      7  F   UNL d   1       0.436  -1.087   4.897  0.00  0.00    -0.097 F 
ATOM      8  F1  UNL d   1      -0.710   0.182   2.797  0.00  0.00    -0.096 F 
ATOM      9  I   UNL d   1       0.375   0.839  -0.141  0.00  0.00    -0.060 I 
ATOM     10  F2  UNL d   1       3.252  -0.505   0.256  0.00  0.00    -0.096 F 
ATOM     11  F3  UNL d   1       4.371  -1.769   2.373  0.00  0.00    -0.097 F 
ATOM     12  F4  UNL d   1       2.974  -2.066   4.698  0.00  0.00    -0.092 F 
ENDROOT
TORSDOF 0
ENDMDL
