MODEL 1
REMARK minimizedAffinity -0.00832109712
REMARK minimizedRMSD -1
REMARK  0 active torsions:
REMARK  status: ('A' for Active; 'I' for Inactive)
ROOT
ATOM      1  C   UNL d   1       2.444   4.880   2.392  0.00  0.00     0.124 A 
ATOM      2  C1  UNL d   1       1.708   4.891   1.216  0.00  0.00     0.062 A 
ATOM      3  C2  UNL d   1       1.010   3.755   0.816  0.00  0.00     0.162 A 
ATOM      4  C3  UNL d   1       1.044   2.598   1.595  0.00  0.00    -0.034 A 
ATOM      5  C4  UNL d   1       1.787   2.594   2.776  0.00  0.00     0.162 A 
ATOM      6  C5  UNL d   1       2.483   3.732   3.171  0.00  0.00     0.062 A 
ATOM      7  F   UNL d   1       3.194   3.720   4.308  0.00  0.00    -0.097 F 
ATOM      8  F1  UNL d   1       1.842   1.499   3.548  0.00  0.00    -0.096 F 
ATOM      9  I   UNL d   1       0.001   0.897   1.000  0.00  0.00    -0.060 I 
ATOM     10  F2  UNL d   1       0.306   3.794  -0.325  0.00  0.00    -0.096 F 
ATOM     11  F3  UNL d   1       1.669   5.999   0.461  0.00  0.00    -0.097 F 
ATOM     12  F4  UNL d   1       3.115   5.974   2.774  0.00  0.00    -0.092 F 
ENDROOT
TORSDOF 0
ENDMDL
