MODEL 1
REMARK minimizedAffinity 4.70327568
REMARK minimizedRMSD -1
REMARK  0 active torsions:
REMARK  status: ('A' for Active; 'I' for Inactive)
ROOT
ATOM      1  C   UNL d   1       1.160  -0.334   0.386  0.00  0.00     0.124 A 
ATOM      2  C1  UNL d   1       0.355   0.752   0.701  0.00  0.00     0.062 A 
ATOM      3  C2  UNL d   1       0.801   1.717   1.600  0.00  0.00     0.162 A 
ATOM      4  C3  UNL d   1       2.060   1.600   2.190  0.00  0.00    -0.034 A 
ATOM      5  C4  UNL d   1       2.863   0.505   1.869  0.00  0.00     0.162 A 
ATOM      6  C5  UNL d   1       2.413  -0.456   0.970  0.00  0.00     0.062 A 
ATOM      7  F   UNL d   1       3.192  -1.505   0.667  0.00  0.00    -0.097 F 
ATOM      8  F1  UNL d   1       4.079   0.362   2.418  0.00  0.00    -0.096 F 
ATOM      9  I   UNL d   1       2.731   3.040   3.535  0.00  0.00    -0.060 I 
ATOM     10  F2  UNL d   1       0.002   2.756   1.886  0.00  0.00    -0.096 F 
ATOM     11  F3  UNL d   1      -0.856   0.873   0.139  0.00  0.00    -0.097 F 
ATOM     12  F4  UNL d   1       0.728  -1.261  -0.478  0.00  0.00    -0.092 F 
ENDROOT
TORSDOF 0
ENDMDL
