MODEL 1
REMARK minimizedAffinity 4.29669762
REMARK minimizedRMSD -1
REMARK  0 active torsions:
REMARK  status: ('A' for Active; 'I' for Inactive)
ROOT
ATOM      1  C   UNL d   1       0.570   0.864   1.973  0.00  0.00     0.124 A 
ATOM      2  C1  UNL d   1      -0.599   1.308   1.369  0.00  0.00     0.062 A 
ATOM      3  C2  UNL d   1      -0.895   0.939   0.061  0.00  0.00     0.162 A 
ATOM      4  C3  UNL d   1      -0.022   0.119  -0.654  0.00  0.00    -0.034 A 
ATOM      5  C4  UNL d   1       1.152  -0.323  -0.041  0.00  0.00     0.162 A 
ATOM      6  C5  UNL d   1       1.444   0.049   1.267  0.00  0.00     0.062 A 
ATOM      7  F   UNL d   1       2.573  -0.381   1.848  0.00  0.00    -0.097 F 
ATOM      8  F1  UNL d   1       2.014  -1.112  -0.700  0.00  0.00    -0.096 F 
ATOM      9  I   UNL d   1      -0.461  -0.435  -2.611  0.00  0.00    -0.060 I 
ATOM     10  F2  UNL d   1      -2.031   1.383  -0.497  0.00  0.00    -0.096 F 
ATOM     11  F3  UNL d   1      -1.445   2.096   2.049  0.00  0.00    -0.097 F 
ATOM     12  F4  UNL d   1       0.853   1.222   3.232  0.00  0.00    -0.092 F 
ENDROOT
TORSDOF 0
ENDMDL
