MODEL 1
REMARK minimizedAffinity -1.21091914
REMARK minimizedRMSD -1
REMARK  0 active torsions:
REMARK  status: ('A' for Active; 'I' for Inactive)
ROOT
ATOM      1  C4' PXY d   1      -4.861   4.741   0.206  0.00  0.00     0.077 C 
ATOM      2  C1' PXY d   1      -6.000   5.072   5.863  0.00  0.00     0.077 C 
ATOM      3  C1  PXY d   1      -5.692   4.976   4.382  0.00  0.00    -0.082 A 
ATOM      4  C2  PXY d   1      -5.968   5.999   3.589  0.00  0.00     0.003 A 
ATOM      5  C3  PXY d   1      -5.726   5.917   2.242  0.00  0.00     0.003 A 
ATOM      6  C4  PXY d   1      -5.146   4.797   1.709  0.00  0.00    -0.082 A 
ATOM      7  C5  PXY d   1      -4.851   3.753   2.513  0.00  0.00     0.003 A 
ATOM      8  C6  PXY d   1      -5.143   3.840   3.871  0.00  0.00     0.003 A 
ENDROOT
TORSDOF 0
ENDMDL
