MODEL 1
REMARK minimizedAffinity 1.41054511
REMARK minimizedRMSD -1
REMARK  0 active torsions:
REMARK  status: ('A' for Active; 'I' for Inactive)
ROOT
ATOM      1  C4' PXY d   1      -3.072  -1.711   2.546  0.00  0.00     0.077 C 
ATOM      2  C1' PXY d   1      -1.298   0.193  -2.616  0.00  0.00     0.077 C 
ATOM      3  C1  PXY d   1      -1.767  -0.294  -1.259  0.00  0.00    -0.082 A 
ATOM      4  C2  PXY d   1      -1.293  -1.430  -0.772  0.00  0.00     0.003 A 
ATOM      5  C3  PXY d   1      -1.729  -1.901   0.440  0.00  0.00     0.003 A 
ATOM      6  C4  PXY d   1      -2.621  -1.176   1.184  0.00  0.00    -0.082 A 
ATOM      7  C5  PXY d   1      -3.101  -0.012   0.699  0.00  0.00     0.003 A 
ATOM      8  C6  PXY d   1      -2.676   0.429  -0.551  0.00  0.00     0.003 A 
ENDROOT
TORSDOF 0
ENDMDL
