MODEL 1
REMARK minimizedAffinity -1.08218837
REMARK minimizedRMSD -1
REMARK  0 active torsions:
REMARK  status: ('A' for Active; 'I' for Inactive)
ROOT
ATOM      1  C4' PXY d   1      -5.707   5.938   1.679  0.00  0.00     0.077 C 
ATOM      2  C1' PXY d   1      -3.973   2.512   6.000  0.00  0.00     0.077 C 
ATOM      3  C1  PXY d   1      -4.415   3.412   4.863  0.00  0.00    -0.082 A 
ATOM      4  C2  PXY d   1      -5.568   4.056   4.949  0.00  0.00     0.003 A 
ATOM      5  C3  PXY d   1      -5.999   4.848   3.916  0.00  0.00     0.003 A 
ATOM      6  C4  PXY d   1      -5.216   5.027   2.807  0.00  0.00    -0.082 A 
ATOM      7  C5  PXY d   1      -4.033   4.382   2.716  0.00  0.00     0.003 A 
ATOM      8  C6  PXY d   1      -3.634   3.549   3.758  0.00  0.00     0.003 A 
ENDROOT
TORSDOF 0
ENDMDL
