MODEL 1
REMARK minimizedAffinity 11.3387241
REMARK minimizedRMSD -1
REMARK  0 active torsions:
REMARK  status: ('A' for Active; 'I' for Inactive)
ROOT
ATOM      1  C4' PXY d   1       4.954   0.525   2.960  0.00  0.00     0.077 C 
ATOM      2  C1' PXY d   1      -0.222   2.316   4.809  0.00  0.00     0.077 C 
ATOM      3  C1  PXY d   1       1.133   1.834   4.327  0.00  0.00    -0.082 A 
ATOM      4  C2  PXY d   1       2.144   2.685   4.260  0.00  0.00     0.003 A 
ATOM      5  C3  PXY d   1       3.367   2.274   3.797  0.00  0.00     0.003 A 
ATOM      6  C4  PXY d   1       3.572   0.965   3.449  0.00  0.00    -0.082 A 
ATOM      7  C5  PXY d   1       2.548   0.089   3.525  0.00  0.00     0.003 A 
ATOM      8  C6  PXY d   1       1.303   0.535   3.959  0.00  0.00     0.003 A 
ENDROOT
TORSDOF 0
ENDMDL
