MODEL 1
REMARK minimizedAffinity -1.12110937
REMARK minimizedRMSD -1
REMARK  0 active torsions:
REMARK  status: ('A' for Active; 'I' for Inactive)
ROOT
ATOM      1  C4' PXY d   1      -3.026  -1.462   2.937  0.00  0.00     0.077 C 
ATOM      2  C1' PXY d   1      -4.377   4.139   2.477  0.00  0.00     0.077 C 
ATOM      3  C1  PXY d   1      -4.032   2.667   2.589  0.00  0.00    -0.082 A 
ATOM      4  C2  PXY d   1      -3.455   2.213   3.690  0.00  0.00     0.003 A 
ATOM      5  C3  PXY d   1      -3.107   0.890   3.795  0.00  0.00     0.003 A 
ATOM      6  C4  PXY d   1      -3.401   0.014   2.784  0.00  0.00    -0.082 A 
ATOM      7  C5  PXY d   1      -3.998   0.469   1.662  0.00  0.00     0.003 A 
ATOM      8  C6  PXY d   1      -4.306   1.822   1.558  0.00  0.00     0.003 A 
ENDROOT
TORSDOF 0
ENDMDL
