MODEL 1
REMARK minimizedAffinity 5.57827902
REMARK minimizedRMSD -1
REMARK  0 active torsions:
REMARK  status: ('A' for Active; 'I' for Inactive)
ROOT
ATOM      1  C4' PXY d   1      -1.093   1.744  -5.961  0.00  0.00     0.077 C 
ATOM      2  C1' PXY d   1       3.376  -0.987  -3.515  0.00  0.00     0.077 C 
ATOM      3  C1  PXY d   1       2.196  -0.276  -4.148  0.00  0.00    -0.082 A 
ATOM      4  C2  PXY d   1       2.253   0.081  -5.420  0.00  0.00     0.003 A 
ATOM      5  C3  PXY d   1       1.208   0.753  -6.000  0.00  0.00     0.003 A 
ATOM      6  C4  PXY d   1       0.071   1.016  -5.283  0.00  0.00    -0.082 A 
ATOM      7  C5  PXY d   1       0.001   0.645  -3.987  0.00  0.00     0.003 A 
ATOM      8  C6  PXY d   1       1.089   0.000  -3.406  0.00  0.00     0.003 A 
ENDROOT
TORSDOF 0
ENDMDL
