MODEL 1
REMARK minimizedAffinity 7.4940362
REMARK minimizedRMSD -1
REMARK  0 active torsions:
REMARK  status: ('A' for Active; 'I' for Inactive)
ROOT
ATOM      1  C4' PXY d   1       1.410  -1.859   5.330  0.00  0.00     0.077 C 
ATOM      2  C1' PXY d   1       3.001   2.987   2.609  0.00  0.00     0.077 C 
ATOM      3  C1  PXY d   1       2.581   1.711   3.311  0.00  0.00    -0.082 A 
ATOM      4  C2  PXY d   1       2.162   1.761   4.565  0.00  0.00     0.003 A 
ATOM      5  C3  PXY d   1       1.809   0.613   5.225  0.00  0.00     0.003 A 
ATOM      6  C4  PXY d   1       1.835  -0.594   4.579  0.00  0.00    -0.082 A 
ATOM      7  C5  PXY d   1       2.251  -0.653   3.296  0.00  0.00     0.003 A 
ATOM      8  C6  PXY d   1       2.644   0.519   2.656  0.00  0.00     0.003 A 
ENDROOT
TORSDOF 0
ENDMDL
