MODEL 1
REMARK minimizedAffinity -2.85467219
REMARK minimizedRMSD -1
REMARK  0 active torsions:
REMARK  status: ('A' for Active; 'I' for Inactive)
ROOT
ATOM      1  C4' PXY d   1      -5.990   2.896   5.987  0.00  0.00     0.077 C 
ATOM      2  C1' PXY d   1      -4.895   5.983   1.223  0.00  0.00     0.077 C 
ATOM      3  C1  PXY d   1      -5.178   5.183   2.480  0.00  0.00    -0.082 A 
ATOM      4  C2  PXY d   1      -5.206   3.861   2.422  0.00  0.00     0.003 A 
ATOM      5  C3  PXY d   1      -5.492   3.124   3.542  0.00  0.00     0.003 A 
ATOM      6  C4  PXY d   1      -5.699   3.744   4.745  0.00  0.00    -0.082 A 
ATOM      7  C5  PXY d   1      -5.662   5.091   4.815  0.00  0.00     0.003 A 
ATOM      8  C6  PXY d   1      -5.411   5.823   3.658  0.00  0.00     0.003 A 
ENDROOT
TORSDOF 0
ENDMDL
