MODEL 1
REMARK minimizedAffinity 0.628994465
REMARK minimizedRMSD -1
REMARK  0 active torsions:
REMARK  status: ('A' for Active; 'I' for Inactive)
ROOT
ATOM      1  C4' PXY d   1      -5.999   2.991   5.949  0.00  0.00     0.077 C 
ATOM      2  C1' PXY d   1      -5.979   5.902   0.955  0.00  0.00     0.077 C 
ATOM      3  C1  PXY d   1      -5.979   5.149   2.271  0.00  0.00    -0.082 A 
ATOM      4  C2  PXY d   1      -5.967   3.826   2.267  0.00  0.00     0.003 A 
ATOM      5  C3  PXY d   1      -6.000   3.129   3.448  0.00  0.00     0.003 A 
ATOM      6  C4  PXY d   1      -5.990   3.793   4.645  0.00  0.00    -0.082 A 
ATOM      7  C5  PXY d   1      -5.991   5.143   4.657  0.00  0.00     0.003 A 
ATOM      8  C6  PXY d   1      -6.000   5.832   3.448  0.00  0.00     0.003 A 
ENDROOT
TORSDOF 0
ENDMDL
