MODEL 1
REMARK minimizedAffinity -3.09565663
REMARK minimizedRMSD -1
REMARK  0 active torsions:
REMARK  status: ('A' for Active; 'I' for Inactive)
ROOT
ATOM      1  C4' PXY d   1      -5.191   3.217   6.000  0.00  0.00     0.077 C 
ATOM      2  C1' PXY d   1      -5.963   5.993   0.989  0.00  0.00     0.077 C 
ATOM      3  C1  PXY d   1      -5.759   5.276   2.309  0.00  0.00    -0.082 A 
ATOM      4  C2  PXY d   1      -5.355   4.017   2.314  0.00  0.00     0.003 A 
ATOM      5  C3  PXY d   1      -5.196   3.343   3.498  0.00  0.00     0.003 A 
ATOM      6  C4  PXY d   1      -5.401   3.983   4.691  0.00  0.00    -0.082 A 
ATOM      7  C5  PXY d   1      -5.803   5.271   4.695  0.00  0.00     0.003 A 
ATOM      8  C6  PXY d   1      -5.999   5.924   3.481  0.00  0.00     0.003 A 
ENDROOT
TORSDOF 0
ENDMDL
