MODEL 1
REMARK minimizedAffinity -1.2208575
REMARK minimizedRMSD -1
REMARK  0 active torsions:
REMARK  status: ('A' for Active; 'I' for Inactive)
ROOT
ATOM      1  C4' PXY d   1      -5.246   1.996   6.000  0.00  0.00     0.077 C 
ATOM      2  C1' PXY d   1      -4.723   6.000   1.863  0.00  0.00     0.077 C 
ATOM      3  C1  PXY d   1      -4.864   4.941   2.939  0.00  0.00    -0.082 A 
ATOM      4  C2  PXY d   1      -5.053   5.307   4.196  0.00  0.00     0.003 A 
ATOM      5  C3  PXY d   1      -5.151   4.364   5.187  0.00  0.00     0.003 A 
ATOM      6  C4  PXY d   1      -5.107   3.030   4.879  0.00  0.00    -0.082 A 
ATOM      7  C5  PXY d   1      -4.925   2.648   3.598  0.00  0.00     0.003 A 
ATOM      8  C6  PXY d   1      -4.787   3.622   2.613  0.00  0.00     0.003 A 
ENDROOT
TORSDOF 0
ENDMDL
