MODEL 1
REMARK minimizedAffinity -4.29888535
REMARK minimizedRMSD -1
REMARK  0 active torsions:
REMARK  status: ('A' for Active; 'I' for Inactive)
ROOT
ATOM      1  C4' PXY d   1      -6.000   2.457   6.000  0.00  0.00     0.077 C 
ATOM      2  C1' PXY d   1      -4.887   5.994   1.565  0.00  0.00     0.077 C 
ATOM      3  C1  PXY d   1      -5.170   5.073   2.735  0.00  0.00    -0.082 A 
ATOM      4  C2  PXY d   1      -5.634   3.854   2.511  0.00  0.00     0.003 A 
ATOM      5  C3  PXY d   1      -5.926   3.019   3.559  0.00  0.00     0.003 A 
ATOM      6  C4  PXY d   1      -5.691   3.418   4.848  0.00  0.00    -0.082 A 
ATOM      7  C5  PXY d   1      -5.208   4.656   5.084  0.00  0.00     0.003 A 
ATOM      8  C6  PXY d   1      -4.957   5.503   4.009  0.00  0.00     0.003 A 
ENDROOT
TORSDOF 0
ENDMDL
