MODEL 1
REMARK minimizedAffinity -2.41898942
REMARK minimizedRMSD -1
REMARK  0 active torsions:
REMARK  status: ('A' for Active; 'I' for Inactive)
ROOT
ATOM      1  C4' PXY d   1      -4.869   2.080   5.987  0.00  0.00     0.077 C 
ATOM      2  C1' PXY d   1      -6.000   5.990   1.882  0.00  0.00     0.077 C 
ATOM      3  C1  PXY d   1      -5.701   4.974   2.967  0.00  0.00    -0.082 A 
ATOM      4  C2  PXY d   1      -5.255   3.774   2.634  0.00  0.00     0.003 A 
ATOM      5  C3  PXY d   1      -5.011   2.833   3.601  0.00  0.00     0.003 A 
ATOM      6  C4  PXY d   1      -5.175   3.140   4.925  0.00  0.00    -0.082 A 
ATOM      7  C5  PXY d   1      -5.619   4.367   5.273  0.00  0.00     0.003 A 
ATOM      8  C6  PXY d   1      -5.901   5.294   4.274  0.00  0.00     0.003 A 
ENDROOT
TORSDOF 0
ENDMDL
