MODEL 1
REMARK minimizedAffinity -1.01101112
REMARK minimizedRMSD -1
REMARK  0 active torsions:
REMARK  status: ('A' for Active; 'I' for Inactive)
ROOT
ATOM      1  C4' PXY d   1      -5.928   2.916   5.945  0.00  0.00     0.077 C 
ATOM      2  C1' PXY d   1      -5.835   5.986   1.048  0.00  0.00     0.077 C 
ATOM      3  C1  PXY d   1      -5.865   5.172   2.326  0.00  0.00    -0.082 A 
ATOM      4  C2  PXY d   1      -5.792   5.786   3.496  0.00  0.00     0.003 A 
ATOM      5  C3  PXY d   1      -5.786   5.062   4.660  0.00  0.00     0.003 A 
ATOM      6  C4  PXY d   1      -5.910   3.699   4.629  0.00  0.00    -0.082 A 
ATOM      7  C5  PXY d   1      -5.996   3.066   3.441  0.00  0.00     0.003 A 
ATOM      8  C6  PXY d   1      -5.958   3.815   2.269  0.00  0.00     0.003 A 
ENDROOT
TORSDOF 0
ENDMDL
