MODEL 1
REMARK minimizedAffinity -3.88101816
REMARK minimizedRMSD -1
REMARK  0 active torsions:
REMARK  status: ('A' for Active; 'I' for Inactive)
ROOT
ATOM      1  C4' PXY d   1      -4.896   3.114   5.352  0.00  0.00     0.077 C 
ATOM      2  C1' PXY d   1      -5.081   5.998   0.346  0.00  0.00     0.077 C 
ATOM      3  C1  PXY d   1      -5.026   5.251   1.664  0.00  0.00    -0.082 A 
ATOM      4  C2  PXY d   1      -5.139   3.933   1.675  0.00  0.00     0.003 A 
ATOM      5  C3  PXY d   1      -5.123   3.245   2.861  0.00  0.00     0.003 A 
ATOM      6  C4  PXY d   1      -4.936   3.908   4.044  0.00  0.00    -0.082 A 
ATOM      7  C5  PXY d   1      -4.809   5.252   4.041  0.00  0.00     0.003 A 
ATOM      8  C6  PXY d   1      -4.869   5.936   2.830  0.00  0.00     0.003 A 
ENDROOT
TORSDOF 0
ENDMDL
