MODEL 1
REMARK minimizedAffinity -3.22478986
REMARK minimizedRMSD -1
REMARK  0 active torsions:
REMARK  status: ('A' for Active; 'I' for Inactive)
ROOT
ATOM      1  C4' PXY d   1      -5.580   5.967   1.543  0.00  0.00     0.077 C 
ATOM      2  C1' PXY d   1      -5.631   2.281   5.995  0.00  0.00     0.077 C 
ATOM      3  C1  PXY d   1      -5.616   3.237   4.819  0.00  0.00    -0.082 A 
ATOM      4  C2  PXY d   1      -5.237   4.492   5.001  0.00  0.00     0.003 A 
ATOM      5  C3  PXY d   1      -5.249   5.379   3.955  0.00  0.00     0.003 A 
ATOM      6  C4  PXY d   1      -5.601   4.964   2.699  0.00  0.00    -0.082 A 
ATOM      7  C5  PXY d   1      -5.979   3.683   2.503  0.00  0.00     0.003 A 
ATOM      8  C6  PXY d   1      -6.000   2.809   3.586  0.00  0.00     0.003 A 
ENDROOT
TORSDOF 0
ENDMDL
