MODEL 1
REMARK minimizedAffinity -3.57379866
REMARK minimizedRMSD -1
REMARK  0 active torsions:
REMARK  status: ('A' for Active; 'I' for Inactive)
ROOT
ATOM      1  C4' PXY d   1      -5.997   5.944   2.263  0.00  0.00     0.077 C 
ATOM      2  C1' PXY d   1      -4.564   1.773   6.000  0.00  0.00     0.077 C 
ATOM      3  C1  PXY d   1      -4.947   2.873   5.029  0.00  0.00    -0.082 A 
ATOM      4  C2  PXY d   1      -4.941   2.629   3.728  0.00  0.00     0.003 A 
ATOM      5  C3  PXY d   1      -5.253   3.621   2.835  0.00  0.00     0.003 A 
ATOM      6  C4  PXY d   1      -5.627   4.861   3.280  0.00  0.00    -0.082 A 
ATOM      7  C5  PXY d   1      -5.646   5.115   4.605  0.00  0.00     0.003 A 
ATOM      8  C6  PXY d   1      -5.286   4.106   5.494  0.00  0.00     0.003 A 
ENDROOT
TORSDOF 0
ENDMDL
