MODEL 1
REMARK minimizedAffinity -3.77431941
REMARK minimizedRMSD -1
REMARK  0 active torsions:
REMARK  status: ('A' for Active; 'I' for Inactive)
ROOT
ATOM      1  C4' PXY d   1      -5.933   5.829   1.884  0.00  0.00     0.077 C 
ATOM      2  C1' PXY d   1      -3.478   2.571   5.979  0.00  0.00     0.077 C 
ATOM      3  C1  PXY d   1      -4.133   3.422   4.909  0.00  0.00    -0.082 A 
ATOM      4  C2  PXY d   1      -3.472   3.699   3.797  0.00  0.00     0.003 A 
ATOM      5  C3  PXY d   1      -4.038   4.494   2.834  0.00  0.00     0.003 A 
ATOM      6  C4  PXY d   1      -5.314   4.966   2.986  0.00  0.00    -0.082 A 
ATOM      7  C5  PXY d   1      -6.000   4.678   4.113  0.00  0.00     0.003 A 
ATOM      8  C6  PXY d   1      -5.392   3.904   5.098  0.00  0.00     0.003 A 
ENDROOT
TORSDOF 0
ENDMDL
