MODEL 1
REMARK minimizedAffinity -3.9184432
REMARK minimizedRMSD -1
REMARK  0 active torsions:
REMARK  status: ('A' for Active; 'I' for Inactive)
ROOT
ATOM      1  C4' PXY d   1      -5.249   4.119  -1.872  0.00  0.00     0.077 C 
ATOM      2  C1' PXY d   1      -6.000   4.213   3.859  0.00  0.00     0.077 C 
ATOM      3  C1  PXY d   1      -5.795   4.178   2.357  0.00  0.00    -0.082 A 
ATOM      4  C2  PXY d   1      -6.000   5.273   1.643  0.00  0.00     0.003 A 
ATOM      5  C3  PXY d   1      -5.850   5.251   0.281  0.00  0.00     0.003 A 
ATOM      6  C4  PXY d   1      -5.435   4.110  -0.352  0.00  0.00    -0.082 A 
ATOM      7  C5  PXY d   1      -5.213   2.992   0.370  0.00  0.00     0.003 A 
ATOM      8  C6  PXY d   1      -5.411   3.024   1.748  0.00  0.00     0.003 A 
ENDROOT
TORSDOF 0
ENDMDL
