MODEL 1
REMARK minimizedAffinity 8.44299221
REMARK minimizedRMSD -1
REMARK  0 active torsions:
REMARK  status: ('A' for Active; 'I' for Inactive)
ROOT
ATOM      1  C1  DEN d   1       3.133  -3.038  -5.292  0.00  0.00     0.130 A 
ATOM      2  C2  DEN d   1       2.331  -2.041  -5.996  0.00  0.00    -0.031 A 
ATOM      3  C3  DEN d   1       1.196  -1.672  -5.126  0.00  0.00     0.027 A 
ATOM      4  C4  DEN d   1       0.609  -2.539  -2.769  0.00  0.00     0.027 A 
ATOM      5  C5  DEN d   1       0.987  -3.400  -1.763  0.00  0.00    -0.003 A 
ATOM      6  C6  DEN d   1       2.079  -4.219  -1.876  0.00  0.00     0.001 A 
ATOM      7  C7  DEN d   1       2.857  -4.162  -3.002  0.00  0.00     0.017 A 
ATOM      8  C8  DEN d   1       2.478  -3.301  -4.023  0.00  0.00    -0.094 A 
ATOM      9  C9  DEN d   1       1.378  -2.472  -3.885  0.00  0.00    -0.072 A 
ENDROOT
TORSDOF 0
ENDMDL
