MODEL 1
REMARK minimizedAffinity 24.6448822
REMARK minimizedRMSD -1
REMARK  0 active torsions:
REMARK  status: ('A' for Active; 'I' for Inactive)
ROOT
ATOM      1  C1  DEN d   1      -0.266   3.646  -3.755  0.00  0.00     0.130 A 
ATOM      2  C2  DEN d   1      -1.612   3.400  -4.266  0.00  0.00    -0.031 A 
ATOM      3  C3  DEN d   1      -2.387   2.728  -3.204  0.00  0.00     0.027 A 
ATOM      4  C4  DEN d   1      -1.640   2.052  -0.830  0.00  0.00     0.027 A 
ATOM      5  C5  DEN d   1      -0.584   2.043   0.055  0.00  0.00    -0.003 A 
ATOM      6  C6  DEN d   1       0.652   2.532  -0.278  0.00  0.00     0.001 A 
ATOM      7  C7  DEN d   1       0.850   3.093  -1.512  0.00  0.00     0.017 A 
ATOM      8  C8  DEN d   1      -0.208   3.099  -2.411  0.00  0.00    -0.094 A 
ATOM      9  C9  DEN d   1      -1.453   2.611  -2.052  0.00  0.00    -0.072 A 
ENDROOT
TORSDOF 0
ENDMDL
