MODEL 1
REMARK minimizedAffinity 19.3506107
REMARK minimizedRMSD -1
REMARK  0 active torsions:
REMARK  status: ('A' for Active; 'I' for Inactive)
ROOT
ATOM      1  C1  DEN d   1      -1.227   3.527  -3.005  0.00  0.00     0.130 A 
ATOM      2  C2  DEN d   1       0.061   2.997  -2.566  0.00  0.00    -0.031 A 
ATOM      3  C3  DEN d   1       0.372   3.587  -1.248  0.00  0.00     0.027 A 
ATOM      4  C4  DEN d   1      -1.012   5.255   0.150  0.00  0.00     0.027 A 
ATOM      5  C5  DEN d   1      -2.170   6.000   0.186  0.00  0.00    -0.003 A 
ATOM      6  C6  DEN d   1      -3.071   5.999  -0.846  0.00  0.00     0.001 A 
ATOM      7  C7  DEN d   1      -2.851   5.203  -1.939  0.00  0.00     0.017 A 
ATOM      8  C8  DEN d   1      -1.682   4.455  -1.986  0.00  0.00    -0.094 A 
ATOM      9  C9  DEN d   1      -0.789   4.460  -0.927  0.00  0.00    -0.072 A 
ENDROOT
TORSDOF 0
ENDMDL
