MODEL 1
REMARK minimizedAffinity 25.3161716
REMARK minimizedRMSD -1
REMARK  0 active torsions:
REMARK  status: ('A' for Active; 'I' for Inactive)
ROOT
ATOM      1  C1  DEN d   1      -5.440   4.631   1.402  0.00  0.00     0.130 A 
ATOM      2  C2  DEN d   1      -5.104   6.000   1.017  0.00  0.00    -0.031 A 
ATOM      3  C3  DEN d   1      -3.806   5.970   0.313  0.00  0.00     0.027 A 
ATOM      4  C4  DEN d   1      -2.296   3.949  -0.222  0.00  0.00     0.027 A 
ATOM      5  C5  DEN d   1      -2.155   2.586  -0.086  0.00  0.00    -0.003 A 
ATOM      6  C6  DEN d   1      -3.075   1.820   0.579  0.00  0.00     0.001 A 
ATOM      7  C7  DEN d   1      -4.200   2.406   1.095  0.00  0.00     0.017 A 
ATOM      8  C8  DEN d   1      -4.346   3.781   0.969  0.00  0.00    -0.094 A 
ATOM      9  C9  DEN d   1      -3.410   4.537   0.282  0.00  0.00    -0.072 A 
ENDROOT
TORSDOF 0
ENDMDL
