MODEL 1
REMARK minimizedAffinity 23.7528648
REMARK minimizedRMSD -1
REMARK  0 active torsions:
REMARK  status: ('A' for Active; 'I' for Inactive)
ROOT
ATOM      1  C1  DEN d   1      -5.291   5.580  -2.262  0.00  0.00     0.130 A 
ATOM      2  C2  DEN d   1      -4.014   5.207  -2.865  0.00  0.00    -0.031 A 
ATOM      3  C3  DEN d   1      -3.026   5.045  -1.780  0.00  0.00     0.027 A 
ATOM      4  C4  DEN d   1      -3.349   5.329   0.764  0.00  0.00     0.027 A 
ATOM      5  C5  DEN d   1      -4.254   5.649   1.751  0.00  0.00    -0.003 A 
ATOM      6  C6  DEN d   1      -5.548   6.000   1.471  0.00  0.00     0.001 A 
ATOM      7  C7  DEN d   1      -5.986   5.994   0.173  0.00  0.00     0.017 A 
ATOM      8  C8  DEN d   1      -5.078   5.678  -0.829  0.00  0.00    -0.094 A 
ATOM      9  C9  DEN d   1      -3.777   5.315  -0.524  0.00  0.00    -0.072 A 
ENDROOT
TORSDOF 0
ENDMDL
