MODEL 1
REMARK minimizedAffinity 10.4072094
REMARK minimizedRMSD -1
REMARK  0 active torsions:
REMARK  status: ('A' for Active; 'I' for Inactive)
ROOT
ATOM      1  C1  DEN d   1      -3.320  -1.782   4.787  0.00  0.00     0.130 A 
ATOM      2  C2  DEN d   1      -2.498  -2.950   5.090  0.00  0.00    -0.031 A 
ATOM      3  C3  DEN d   1      -1.239  -2.833   4.328  0.00  0.00     0.027 A 
ATOM      4  C4  DEN d   1      -0.484  -0.964   2.719  0.00  0.00     0.027 A 
ATOM      5  C5  DEN d   1      -0.848   0.229   2.135  0.00  0.00    -0.003 A 
ATOM      6  C6  DEN d   1      -2.066   0.814   2.365  0.00  0.00     0.001 A 
ATOM      7  C7  DEN d   1      -2.945   0.228   3.237  0.00  0.00     0.017 A 
ATOM      8  C8  DEN d   1      -2.588  -0.979   3.824  0.00  0.00    -0.094 A 
ATOM      9  C9  DEN d   1      -1.348  -1.547   3.588  0.00  0.00    -0.072 A 
ENDROOT
TORSDOF 0
ENDMDL
