MODEL 1
REMARK minimizedAffinity 23.9244938
REMARK minimizedRMSD -1
REMARK  0 active torsions:
REMARK  status: ('A' for Active; 'I' for Inactive)
ROOT
ATOM      1  C1  DEN d   1      -3.608   5.739   1.524  0.00  0.00     0.130 A 
ATOM      2  C2  DEN d   1      -4.894   6.000   2.166  0.00  0.00    -0.031 A 
ATOM      3  C3  DEN d   1      -5.936   5.993   1.120  0.00  0.00     0.027 A 
ATOM      4  C4  DEN d   1      -5.686   5.602  -1.417  0.00  0.00     0.027 A 
ATOM      5  C5  DEN d   1      -4.788   5.353  -2.431  0.00  0.00    -0.003 A 
ATOM      6  C6  DEN d   1      -3.441   5.249  -2.205  0.00  0.00     0.001 A 
ATOM      7  C7  DEN d   1      -2.957   5.351  -0.927  0.00  0.00     0.017 A 
ATOM      8  C8  DEN d   1      -3.856   5.610   0.100  0.00  0.00    -0.094 A 
ATOM      9  C9  DEN d   1      -5.215   5.699  -0.148  0.00  0.00    -0.072 A 
ENDROOT
TORSDOF 0
ENDMDL
