MODEL 1
REMARK minimizedAffinity 14.8104095
REMARK minimizedRMSD -1
REMARK  0 active torsions:
REMARK  status: ('A' for Active; 'I' for Inactive)
ROOT
ATOM      1  C1  DEN d   1       2.342  -2.646  -4.719  0.00  0.00     0.130 A 
ATOM      2  C2  DEN d   1       1.847  -3.144  -5.999  0.00  0.00    -0.031 A 
ATOM      3  C3  DEN d   1       1.422  -4.546  -5.810  0.00  0.00     0.027 A 
ATOM      4  C4  DEN d   1       1.479  -5.983  -3.669  0.00  0.00     0.027 A 
ATOM      5  C5  DEN d   1       1.826  -5.999  -2.337  0.00  0.00    -0.003 A 
ATOM      6  C6  DEN d   1       2.396  -4.918  -1.718  0.00  0.00     0.001 A 
ATOM      7  C7  DEN d   1       2.595  -3.760  -2.422  0.00  0.00     0.017 A 
ATOM      8  C8  DEN d   1       2.255  -3.739  -3.768  0.00  0.00    -0.094 A 
ATOM      9  C9  DEN d   1       1.668  -4.838  -4.372  0.00  0.00    -0.072 A 
ENDROOT
TORSDOF 0
ENDMDL
