MODEL 1
REMARK minimizedAffinity 6.1622963
REMARK minimizedRMSD -1
REMARK  0 active torsions:
REMARK  status: ('A' for Active; 'I' for Inactive)
ROOT
ATOM      1  C1  DEN d   1      -0.547   1.161   0.092  0.00  0.00     0.130 A 
ATOM      2  C2  DEN d   1      -0.696   1.277   1.540  0.00  0.00    -0.031 A 
ATOM      3  C3  DEN d   1      -0.630   2.709   1.892  0.00  0.00     0.027 A 
ATOM      4  C4  DEN d   1      -0.319   4.748   0.344  0.00  0.00     0.027 A 
ATOM      5  C5  DEN d   1      -0.137   5.149  -0.961  0.00  0.00    -0.003 A 
ATOM      6  C6  DEN d   1      -0.046   4.255  -1.994  0.00  0.00     0.001 A 
ATOM      7  C7  DEN d   1      -0.182   2.914  -1.745  0.00  0.00     0.017 A 
ATOM      8  C8  DEN d   1      -0.358   2.502  -0.431  0.00  0.00    -0.094 A 
ATOM      9  C9  DEN d   1      -0.459   3.423   0.598  0.00  0.00    -0.072 A 
ENDROOT
TORSDOF 0
ENDMDL
