MODEL 1
REMARK minimizedAffinity 19.5424728
REMARK minimizedRMSD -1
REMARK  0 active torsions:
REMARK  status: ('A' for Active; 'I' for Inactive)
ROOT
ATOM      1  C1  DEN d   1       0.437   4.610  -0.400  0.00  0.00     0.130 A 
ATOM      2  C2  DEN d   1       0.267   3.308   0.238  0.00  0.00    -0.031 A 
ATOM      3  C3  DEN d   1      -0.662   2.512  -0.589  0.00  0.00     0.027 A 
ATOM      4  C4  DEN d   1      -1.844   3.165  -2.787  0.00  0.00     0.027 A 
ATOM      5  C5  DEN d   1      -2.019   4.171  -3.711  0.00  0.00    -0.003 A 
ATOM      6  C6  DEN d   1      -1.419   5.396  -3.580  0.00  0.00     0.001 A 
ATOM      7  C7  DEN d   1      -0.580   5.631  -2.523  0.00  0.00     0.017 A 
ATOM      8  C8  DEN d   1      -0.404   4.624  -1.583  0.00  0.00    -0.094 A 
ATOM      9  C9  DEN d   1      -1.009   3.388  -1.740  0.00  0.00    -0.072 A 
ENDROOT
TORSDOF 0
ENDMDL
