MODEL 1
REMARK minimizedAffinity 10.8118935
REMARK minimizedRMSD -1
REMARK  0 active torsions:
REMARK  status: ('A' for Active; 'I' for Inactive)
ROOT
ATOM      1  C1  DEN d   1      -1.804   2.788   1.418  0.00  0.00     0.130 A 
ATOM      2  C2  DEN d   1      -1.066   1.560   1.133  0.00  0.00    -0.031 A 
ATOM      3  C3  DEN d   1      -0.005   1.881   0.158  0.00  0.00     0.027 A 
ATOM      4  C4  DEN d   1       0.568   4.149  -0.929  0.00  0.00     0.027 A 
ATOM      5  C5  DEN d   1       0.213   5.478  -1.007  0.00  0.00    -0.003 A 
ATOM      6  C6  DEN d   1      -0.850   5.992  -0.314  0.00  0.00     0.001 A 
ATOM      7  C7  DEN d   1      -1.570   5.181   0.524  0.00  0.00     0.017 A 
ATOM      8  C8  DEN d   1      -1.224   3.839   0.602  0.00  0.00    -0.094 A 
ATOM      9  C9  DEN d   1      -0.137   3.341  -0.097  0.00  0.00    -0.072 A 
ENDROOT
TORSDOF 0
ENDMDL
