MODEL 1
REMARK minimizedAffinity -1.13749266
REMARK minimizedRMSD -1
REMARK  0 active torsions:
REMARK  status: ('A' for Active; 'I' for Inactive)
ROOT
ATOM      1  C1  DEN d   1      -1.822   3.273   0.492  0.00  0.00     0.130 A 
ATOM      2  C2  DEN d   1      -0.434   3.412   0.060  0.00  0.00    -0.031 A 
ATOM      3  C3  DEN d   1       0.381   2.444   0.822  0.00  0.00     0.027 A 
ATOM      4  C4  DEN d   1      -0.369   0.750   2.616  0.00  0.00     0.027 A 
ATOM      5  C5  DEN d   1      -1.448   0.271   3.326  0.00  0.00    -0.003 A 
ATOM      6  C6  DEN d   1      -2.710   0.778   3.168  0.00  0.00     0.001 A 
ATOM      7  C7  DEN d   1      -2.934   1.764   2.244  0.00  0.00     0.017 A 
ATOM      8  C8  DEN d   1      -1.850   2.258   1.530  0.00  0.00    -0.094 A 
ATOM      9  C9  DEN d   1      -0.584   1.724   1.696  0.00  0.00    -0.072 A 
ENDROOT
TORSDOF 0
ENDMDL
