MODEL 1
REMARK minimizedAffinity 12.0569944
REMARK minimizedRMSD -1
REMARK  0 active torsions:
REMARK  status: ('A' for Active; 'I' for Inactive)
ROOT
ATOM      1  C1  DEN d   1      -2.311  -3.875   3.844  0.00  0.00     0.130 A 
ATOM      2  C2  DEN d   1      -1.927  -2.503   4.163  0.00  0.00    -0.031 A 
ATOM      3  C3  DEN d   1      -2.951  -1.940   5.065  0.00  0.00     0.027 A 
ATOM      4  C4  DEN d   1      -5.081  -3.056   5.998  0.00  0.00     0.027 A 
ATOM      5  C5  DEN d   1      -5.836  -4.208   6.000  0.00  0.00    -0.003 A 
ATOM      6  C6  DEN d   1      -5.491  -5.309   5.262  0.00  0.00     0.001 A 
ATOM      7  C7  DEN d   1      -4.335  -5.297   4.526  0.00  0.00     0.017 A 
ATOM      8  C8  DEN d   1      -3.572  -4.137   4.514  0.00  0.00    -0.094 A 
ATOM      9  C9  DEN d   1      -3.932  -3.039   5.277  0.00  0.00    -0.072 A 
ENDROOT
TORSDOF 0
ENDMDL
