MODEL 1
REMARK minimizedAffinity 6.23387051
REMARK minimizedRMSD -1
REMARK  0 active torsions:
REMARK  status: ('A' for Active; 'I' for Inactive)
ROOT
ATOM      1  C1  DEN d   1      -0.125   2.934   1.293  0.00  0.00     0.130 A 
ATOM      2  C2  DEN d   1      -0.929   1.811   0.819  0.00  0.00    -0.031 A 
ATOM      3  C3  DEN d   1      -1.275   2.061  -0.595  0.00  0.00     0.027 A 
ATOM      4  C4  DEN d   1      -0.643   4.065  -2.089  0.00  0.00     0.027 A 
ATOM      5  C5  DEN d   1       0.019   5.273  -2.127  0.00  0.00    -0.003 A 
ATOM      6  C6  DEN d   1       0.646   5.797  -1.028  0.00  0.00     0.001 A 
ATOM      7  C7  DEN d   1       0.662   5.090   0.146  0.00  0.00     0.017 A 
ATOM      8  C8  DEN d   1      -0.010   3.875   0.194  0.00  0.00    -0.094 A 
ATOM      9  C9  DEN d   1      -0.627   3.357  -0.932  0.00  0.00    -0.072 A 
ENDROOT
TORSDOF 0
ENDMDL
