MODEL 1
REMARK minimizedAffinity 6.37808228
REMARK minimizedRMSD -1
REMARK  0 active torsions:
REMARK  status: ('A' for Active; 'I' for Inactive)
ROOT
ATOM      1  C1  DEN d   1      -1.148   2.813  -2.399  0.00  0.00     0.130 A 
ATOM      2  C2  DEN d   1      -1.495   3.798  -3.419  0.00  0.00    -0.031 A 
ATOM      3  C3  DEN d   1      -0.962   5.107  -2.990  0.00  0.00     0.027 A 
ATOM      4  C4  DEN d   1       0.364   5.699  -0.858  0.00  0.00     0.027 A 
ATOM      5  C5  DEN d   1       0.890   5.198   0.312  0.00  0.00    -0.003 A 
ATOM      6  C6  DEN d   1       0.746   3.885   0.674  0.00  0.00     0.001 A 
ATOM      7  C7  DEN d   1       0.097   3.017  -0.164  0.00  0.00     0.017 A 
ATOM      8  C8  DEN d   1      -0.443   3.516  -1.342  0.00  0.00    -0.094 A 
ATOM      9  C9  DEN d   1      -0.275   4.845  -1.697  0.00  0.00    -0.072 A 
ENDROOT
TORSDOF 0
ENDMDL
