MODEL 1
REMARK minimizedAffinity 11.615099
REMARK minimizedRMSD -1
REMARK  0 active torsions:
REMARK  status: ('A' for Active; 'I' for Inactive)
ROOT
ATOM      1  C1  DEN d   1      -2.749   2.134  -2.691  0.00  0.00     0.130 A 
ATOM      2  C2  DEN d   1      -3.226   0.991  -1.917  0.00  0.00    -0.031 A 
ATOM      3  C3  DEN d   1      -2.405   0.893  -0.694  0.00  0.00     0.027 A 
ATOM      4  C4  DEN d   1      -0.456   2.396   0.076  0.00  0.00     0.027 A 
ATOM      5  C5  DEN d   1       0.319   3.486  -0.254  0.00  0.00    -0.003 A 
ATOM      6  C6  DEN d   1       0.150   4.175  -1.425  0.00  0.00     0.001 A 
ATOM      7  C7  DEN d   1      -0.848   3.809  -2.289  0.00  0.00     0.017 A 
ATOM      8  C8  DEN d   1      -1.629   2.707  -1.967  0.00  0.00    -0.094 A 
ATOM      9  C9  DEN d   1      -1.450   2.031  -0.772  0.00  0.00    -0.072 A 
ENDROOT
TORSDOF 0
ENDMDL
