MODEL 1
REMARK minimizedAffinity 8.22321129
REMARK minimizedRMSD -1
REMARK  0 active torsions:
REMARK  status: ('A' for Active; 'I' for Inactive)
ROOT
ATOM      1  C1  DEN d   1      -0.977   1.332   0.971  0.00  0.00     0.130 A 
ATOM      2  C2  DEN d   1      -0.820   1.826   2.337  0.00  0.00    -0.031 A 
ATOM      3  C3  DEN d   1      -0.265   3.193   2.266  0.00  0.00     0.027 A 
ATOM      4  C4  DEN d   1       0.357   4.587   0.187  0.00  0.00     0.027 A 
ATOM      5  C5  DEN d   1       0.411   4.587  -1.189  0.00  0.00    -0.003 A 
ATOM      6  C6  DEN d   1       0.041   3.499  -1.934  0.00  0.00     0.001 A 
ATOM      7  C7  DEN d   1      -0.442   2.380  -1.309  0.00  0.00     0.017 A 
ATOM      8  C8  DEN d   1      -0.493   2.370   0.079  0.00  0.00    -0.094 A 
ATOM      9  C9  DEN d   1      -0.126   3.484   0.814  0.00  0.00    -0.072 A 
ENDROOT
TORSDOF 0
ENDMDL
