MODEL 1
REMARK minimizedAffinity -2.9957478
REMARK minimizedRMSD -1
REMARK  0 active torsions:
REMARK  status: ('A' for Active; 'I' for Inactive)
ROOT
ATOM      1  N1  IND d   1      -5.998   1.536   4.378  0.00  0.00    -0.196 N 
ATOM      2  C2  IND d   1      -5.052   1.332   5.344  0.00  0.00     0.054 A 
ATOM      3  C3  IND d   1      -3.901   0.892   4.788  0.00  0.00    -0.031 A 
ATOM      4  C4  IND d   1      -3.314   0.534   2.307  0.00  0.00     0.051 A 
ATOM      5  C5  IND d   1      -3.865   0.554   1.056  0.00  0.00    -0.031 A 
ATOM      6  C6  IND d   1      -5.180   0.912   0.844  0.00  0.00     0.015 A 
ATOM      7  C7  IND d   1      -5.995   1.276   1.879  0.00  0.00    -0.016 A 
ATOM      8  C8  IND d   1      -5.441   1.251   3.151  0.00  0.00    -0.047 A 
ATOM      9  C9  IND d   1      -4.119   0.847   3.377  0.00  0.00    -0.096 A 
ATOM     10  HN1 IND d   1      -6.805   1.799   4.515  0.00  0.00     0.298 HD
ENDROOT
TORSDOF 0
ENDMDL
