MODEL 1
REMARK minimizedAffinity 11.4122477
REMARK minimizedRMSD -1
REMARK  0 active torsions:
REMARK  status: ('A' for Active; 'I' for Inactive)
ROOT
ATOM      1  N1  IND d   1       3.996   3.153  -3.707  0.00  0.00    -0.196 N 
ATOM      2  C2  IND d   1       4.484   3.833  -4.788  0.00  0.00     0.054 A 
ATOM      3  C3  IND d   1       5.188   4.915  -4.385  0.00  0.00    -0.031 A 
ATOM      4  C4  IND d   1       5.751   5.704  -2.000  0.00  0.00     0.051 A 
ATOM      5  C5  IND d   1       5.496   5.429  -0.686  0.00  0.00    -0.031 A 
ATOM      6  C6  IND d   1       4.715   4.357  -0.304  0.00  0.00     0.015 A 
ATOM      7  C7  IND d   1       4.166   3.511  -1.225  0.00  0.00    -0.016 A 
ATOM      8  C8  IND d   1       4.417   3.792  -2.561  0.00  0.00    -0.047 A 
ATOM      9  C9  IND d   1       5.174   4.902  -2.956  0.00  0.00    -0.096 A 
ATOM     10  HN1 IND d   1       3.508   2.446  -3.737  0.00  0.00     0.298 HD
ENDROOT
TORSDOF 0
ENDMDL
