MODEL 1
REMARK minimizedAffinity 5.24487591
REMARK minimizedRMSD -1
REMARK  0 active torsions:
REMARK  status: ('A' for Active; 'I' for Inactive)
ROOT
ATOM      1  N1  IND d   1      -1.504  -0.596   2.041  0.00  0.00    -0.196 N 
ATOM      2  C2  IND d   1      -1.696   0.234   3.109  0.00  0.00     0.054 A 
ATOM      3  C3  IND d   1      -2.816   0.972   2.936  0.00  0.00    -0.031 A 
ATOM      4  C4  IND d   1      -4.538   0.908   1.024  0.00  0.00     0.051 A 
ATOM      5  C5  IND d   1      -4.773   0.336  -0.195  0.00  0.00    -0.031 A 
ATOM      6  C6  IND d   1      -3.914  -0.596  -0.741  0.00  0.00     0.015 A 
ATOM      7  C7  IND d   1      -2.789  -1.002  -0.080  0.00  0.00    -0.016 A 
ATOM      8  C8  IND d   1      -2.544  -0.418   1.155  0.00  0.00    -0.047 A 
ATOM      9  C9  IND d   1      -3.389   0.560   1.695  0.00  0.00    -0.096 A 
ATOM     10  HN1 IND d   1      -0.844  -1.138   1.939  0.00  0.00     0.298 HD
ENDROOT
TORSDOF 0
ENDMDL
