MODEL 1
REMARK minimizedAffinity 9.41377926
REMARK minimizedRMSD -1
REMARK  0 active torsions:
REMARK  status: ('A' for Active; 'I' for Inactive)
ROOT
ATOM      1  N1  IND d   1      -1.928  -0.485   1.413  0.00  0.00    -0.196 N 
ATOM      2  C2  IND d   1      -2.244   0.191   2.557  0.00  0.00     0.054 A 
ATOM      3  C3  IND d   1      -3.415   0.850   2.406  0.00  0.00    -0.031 A 
ATOM      4  C4  IND d   1      -5.030   0.876   0.401  0.00  0.00     0.051 A 
ATOM      5  C5  IND d   1      -5.154   0.439  -0.888  0.00  0.00    -0.031 A 
ATOM      6  C6  IND d   1      -4.191  -0.347  -1.487  0.00  0.00     0.015 A 
ATOM      7  C7  IND d   1      -3.068  -0.736  -0.813  0.00  0.00    -0.016 A 
ATOM      8  C8  IND d   1      -2.935  -0.288   0.494  0.00  0.00    -0.047 A 
ATOM      9  C9  IND d   1      -3.889   0.545   1.093  0.00  0.00    -0.096 A 
ATOM     10  HN1 IND d   1      -1.219  -0.955   1.287  0.00  0.00     0.298 HD
ENDROOT
TORSDOF 0
ENDMDL
