MODEL 1
REMARK minimizedAffinity 5.73632622
REMARK minimizedRMSD -1
REMARK  0 active torsions:
REMARK  status: ('A' for Active; 'I' for Inactive)
ROOT
ATOM      1  N1  IND d   1      -3.494   0.200  -0.565  0.00  0.00    -0.196 N 
ATOM      2  C2  IND d   1      -4.512   1.106  -0.673  0.00  0.00     0.054 A 
ATOM      3  C3  IND d   1      -4.715   1.728   0.509  0.00  0.00    -0.031 A 
ATOM      4  C4  IND d   1      -3.426   1.490   2.725  0.00  0.00     0.051 A 
ATOM      5  C5  IND d   1      -2.437   0.761   3.323  0.00  0.00    -0.031 A 
ATOM      6  C6  IND d   1      -1.734  -0.211   2.641  0.00  0.00     0.015 A 
ATOM      7  C7  IND d   1      -1.987  -0.483   1.326  0.00  0.00    -0.016 A 
ATOM      8  C8  IND d   1      -2.995   0.251   0.718  0.00  0.00    -0.047 A 
ATOM      9  C9  IND d   1      -3.741   1.209   1.417  0.00  0.00    -0.096 A 
ATOM     10  HN1 IND d   1      -3.213  -0.316  -1.193  0.00  0.00     0.298 HD
ENDROOT
TORSDOF 0
ENDMDL
