MODEL 1
REMARK minimizedAffinity 7.00265503
REMARK minimizedRMSD -1
REMARK  0 active torsions:
REMARK  status: ('A' for Active; 'I' for Inactive)
ROOT
ATOM      1  N1  IND d   1      -1.889  -1.720   0.691  0.00  0.00    -0.196 N 
ATOM      2  C2  IND d   1      -0.790  -1.937   1.475  0.00  0.00     0.054 A 
ATOM      3  C3  IND d   1      -0.773  -1.069   2.512  0.00  0.00    -0.031 A 
ATOM      4  C4  IND d   1      -2.500   0.723   3.173  0.00  0.00     0.051 A 
ATOM      5  C5  IND d   1      -3.652   1.318   2.744  0.00  0.00    -0.031 A 
ATOM      6  C6  IND d   1      -4.291   0.922   1.587  0.00  0.00     0.015 A 
ATOM      7  C7  IND d   1      -3.804  -0.097   0.818  0.00  0.00    -0.016 A 
ATOM      8  C8  IND d   1      -2.629  -0.700   1.247  0.00  0.00    -0.047 A 
ATOM      9  C9  IND d   1      -1.954  -0.273   2.398  0.00  0.00    -0.096 A 
ATOM     10  HN1 IND d   1      -2.084  -2.148  -0.028  0.00  0.00     0.298 HD
ENDROOT
TORSDOF 0
ENDMDL
