MODEL 1
REMARK minimizedAffinity -2.22177815
REMARK minimizedRMSD -1
REMARK  0 active torsions:
REMARK  status: ('A' for Active; 'I' for Inactive)
ROOT
ATOM      1  N1  IND d   1       0.809  -4.693  -4.157  0.00  0.00    -0.196 N 
ATOM      2  C2  IND d   1       1.510  -5.362  -5.121  0.00  0.00     0.054 A 
ATOM      3  C3  IND d   1       0.664  -6.000  -5.960  0.00  0.00    -0.031 A 
ATOM      4  C4  IND d   1      -1.910  -6.000  -6.000  0.00  0.00     0.051 A 
ATOM      5  C5  IND d   1      -2.998  -5.562  -5.298  0.00  0.00    -0.031 A 
ATOM      6  C6  IND d   1      -2.870  -4.795  -4.158  0.00  0.00     0.015 A 
ATOM      7  C7  IND d   1      -1.644  -4.425  -3.682  0.00  0.00    -0.016 A 
ATOM      8  C8  IND d   1      -0.537  -4.874  -4.388  0.00  0.00    -0.047 A 
ATOM      9  C9  IND d   1      -0.659  -5.688  -5.521  0.00  0.00    -0.096 A 
ATOM     10  HN1 IND d   1       1.151  -4.237  -3.513  0.00  0.00     0.298 HD
ENDROOT
TORSDOF 0
ENDMDL
