MODEL 1
REMARK minimizedAffinity 4.38233471
REMARK minimizedRMSD -1
REMARK  0 active torsions:
REMARK  status: ('A' for Active; 'I' for Inactive)
ROOT
ATOM      1  N1  IND d   1      -0.640  -0.673   2.779  0.00  0.00    -0.196 N 
ATOM      2  C2  IND d   1      -0.499  -1.790   2.004  0.00  0.00     0.054 A 
ATOM      3  C3  IND d   1      -1.591  -1.963   1.225  0.00  0.00    -0.031 A 
ATOM      4  C4  IND d   1      -3.681  -0.479   0.987  0.00  0.00     0.051 A 
ATOM      5  C5  IND d   1      -4.281   0.630   1.515  0.00  0.00    -0.031 A 
ATOM      6  C6  IND d   1      -3.684   1.377   2.509  0.00  0.00     0.015 A 
ATOM      7  C7  IND d   1      -2.455   1.049   3.007  0.00  0.00    -0.016 A 
ATOM      8  C8  IND d   1      -1.846  -0.080   2.478  0.00  0.00    -0.047 A 
ATOM      9  C9  IND d   1      -2.465  -0.867   1.499  0.00  0.00    -0.096 A 
ATOM     10  HN1 IND d   1      -0.070  -0.389   3.357  0.00  0.00     0.298 HD
ENDROOT
TORSDOF 0
ENDMDL
