MODEL 1
REMARK minimizedAffinity 9.12661743
REMARK minimizedRMSD -1
REMARK  0 active torsions:
REMARK  status: ('A' for Active; 'I' for Inactive)
ROOT
ATOM      1  N1  IND d   1       2.250   6.000  -2.187  0.00  0.00    -0.196 N 
ATOM      2  C2  IND d   1       1.274   5.167  -2.659  0.00  0.00     0.054 A 
ATOM      3  C3  IND d   1       1.823   4.155  -3.368  0.00  0.00    -0.031 A 
ATOM      4  C4  IND d   1       4.304   3.614  -3.795  0.00  0.00     0.051 A 
ATOM      5  C5  IND d   1       5.563   4.107  -3.596  0.00  0.00    -0.031 A 
ATOM      6  C6  IND d   1       5.787   5.277  -2.901  0.00  0.00     0.015 A 
ATOM      7  C7  IND d   1       4.756   5.997  -2.366  0.00  0.00    -0.016 A 
ATOM      8  C8  IND d   1       3.475   5.504  -2.572  0.00  0.00    -0.047 A 
ATOM      9  C9  IND d   1       3.239   4.339  -3.314  0.00  0.00    -0.096 A 
ATOM     10  HN1 IND d   1       2.119   6.714  -1.726  0.00  0.00     0.298 HD
ENDROOT
TORSDOF 0
ENDMDL
