MODEL 1
REMARK minimizedAffinity 8.23339844
REMARK minimizedRMSD -1
REMARK  0 active torsions:
REMARK  status: ('A' for Active; 'I' for Inactive)
ROOT
ATOM      1  N1  IND d   1      -2.258   0.809   2.917  0.00  0.00    -0.196 N 
ATOM      2  C2  IND d   1      -2.972   0.731   1.754  0.00  0.00     0.054 A 
ATOM      3  C3  IND d   1      -2.514  -0.284   0.987  0.00  0.00    -0.031 A 
ATOM      4  C4  IND d   1      -0.669  -2.008   1.489  0.00  0.00     0.051 A 
ATOM      5  C5  IND d   1       0.291  -2.321   2.409  0.00  0.00    -0.031 A 
ATOM      6  C6  IND d   1       0.453  -1.594   3.571  0.00  0.00     0.015 A 
ATOM      7  C7  IND d   1      -0.352  -0.528   3.862  0.00  0.00    -0.016 A 
ATOM      8  C8  IND d   1      -1.324  -0.203   2.926  0.00  0.00    -0.047 A 
ATOM      9  C9  IND d   1      -1.464  -0.912   1.725  0.00  0.00    -0.096 A 
ATOM     10  HN1 IND d   1      -2.373   1.392   3.538  0.00  0.00     0.298 HD
ENDROOT
TORSDOF 0
ENDMDL
