MODEL 1
REMARK minimizedAffinity 9.6091814
REMARK minimizedRMSD -1
REMARK  0 active torsions:
REMARK  status: ('A' for Active; 'I' for Inactive)
ROOT
ATOM      1  N1  IND d   1       0.544   2.208  -2.122  0.00  0.00    -0.196 N 
ATOM      2  C2  IND d   1       1.430   2.710  -3.036  0.00  0.00     0.054 A 
ATOM      3  C3  IND d   1       2.699   2.541  -2.602  0.00  0.00    -0.031 A 
ATOM      4  C4  IND d   1       3.559   1.377  -0.473  0.00  0.00     0.051 A 
ATOM      5  C5  IND d   1       3.127   0.794   0.685  0.00  0.00    -0.031 A 
ATOM      6  C6  IND d   1       1.785   0.647   0.971  0.00  0.00     0.015 A 
ATOM      7  C7  IND d   1       0.821   1.070   0.101  0.00  0.00    -0.016 A 
ATOM      8  C8  IND d   1       1.255   1.669  -1.073  0.00  0.00    -0.047 A 
ATOM      9  C9  IND d   1       2.616   1.858  -1.350  0.00  0.00    -0.096 A 
ATOM     10  HN1 IND d   1      -0.312   2.227  -2.192  0.00  0.00     0.298 HD
ENDROOT
TORSDOF 0
ENDMDL
