MODEL 1
REMARK minimizedAffinity 10.5398684
REMARK minimizedRMSD -1
REMARK  0 active torsions:
REMARK  status: ('A' for Active; 'I' for Inactive)
ROOT
ATOM      1  N1  IND d   1      -1.167   0.597   4.720  0.00  0.00    -0.196 N 
ATOM      2  C2  IND d   1      -2.424   0.726   5.240  0.00  0.00     0.054 A 
ATOM      3  C3  IND d   1      -3.344   0.255   4.369  0.00  0.00    -0.031 A 
ATOM      4  C4  IND d   1      -3.002  -0.864   2.076  0.00  0.00     0.051 A 
ATOM      5  C5  IND d   1      -2.035  -1.172   1.161  0.00  0.00    -0.031 A 
ATOM      6  C6  IND d   1      -0.701  -0.903   1.391  0.00  0.00     0.015 A 
ATOM      7  C7  IND d   1      -0.282  -0.323   2.556  0.00  0.00    -0.016 A 
ATOM      8  C8  IND d   1      -1.263  -0.003   3.484  0.00  0.00    -0.047 A 
ATOM      9  C9  IND d   1      -2.622  -0.235   3.238  0.00  0.00    -0.096 A 
ATOM     10  HN1 IND d   1      -0.438   0.848   5.101  0.00  0.00     0.298 HD
ENDROOT
TORSDOF 0
ENDMDL
