MODEL 1
REMARK minimizedAffinity 15.8128862
REMARK minimizedRMSD -1
REMARK  0 active torsions:
REMARK  status: ('A' for Active; 'I' for Inactive)
ROOT
ATOM      1  N1  IND d   1       2.258   2.644  -3.792  0.00  0.00    -0.196 N 
ATOM      2  C2  IND d   1       1.928   3.076  -2.537  0.00  0.00     0.054 A 
ATOM      3  C3  IND d   1       2.954   3.770  -1.994  0.00  0.00    -0.031 A 
ATOM      4  C4  IND d   1       5.225   4.406  -3.025  0.00  0.00     0.051 A 
ATOM      5  C5  IND d   1       5.998   4.208  -4.134  0.00  0.00    -0.031 A 
ATOM      6  C6  IND d   1       5.554   3.466  -5.209  0.00  0.00     0.015 A 
ATOM      7  C7  IND d   1       4.310   2.901  -5.219  0.00  0.00    -0.016 A 
ATOM      8  C8  IND d   1       3.525   3.094  -4.091  0.00  0.00    -0.047 A 
ATOM      9  C9  IND d   1       3.987   3.811  -2.980  0.00  0.00    -0.096 A 
ATOM     10  HN1 IND d   1       1.758   2.172  -4.307  0.00  0.00     0.298 HD
ENDROOT
TORSDOF 0
ENDMDL
