MODEL 1
REMARK minimizedAffinity 7.10328531
REMARK minimizedRMSD -1
REMARK  0 active torsions:
REMARK  status: ('A' for Active; 'I' for Inactive)
ROOT
ATOM      1  N1  IND d   1      -3.760   1.953   5.997  0.00  0.00    -0.196 N 
ATOM      2  C2  IND d   1      -5.044   2.423   6.000  0.00  0.00     0.054 A 
ATOM      3  C3  IND d   1      -5.609   2.254   4.783  0.00  0.00    -0.031 A 
ATOM      4  C4  IND d   1      -4.646   1.137   2.673  0.00  0.00     0.051 A 
ATOM      5  C5  IND d   1      -3.498   0.588   2.173  0.00  0.00    -0.031 A 
ATOM      6  C6  IND d   1      -2.357   0.461   2.939  0.00  0.00     0.015 A 
ATOM      7  C7  IND d   1      -2.325   0.869   4.242  0.00  0.00    -0.016 A 
ATOM      8  C8  IND d   1      -3.486   1.434   4.751  0.00  0.00    -0.047 A 
ATOM      9  C9  IND d   1      -4.633   1.605   3.966  0.00  0.00    -0.096 A 
ATOM     10  HN1 IND d   1      -3.216   1.977   6.662  0.00  0.00     0.298 HD
ENDROOT
TORSDOF 0
ENDMDL
