MODEL 1
REMARK minimizedAffinity 6.69557142
REMARK minimizedRMSD -1
REMARK  0 active torsions:
REMARK  status: ('A' for Active; 'I' for Inactive)
ROOT
ATOM      1  N1  IND d   1      -4.863   5.381  -5.489  0.00  0.00    -0.196 N 
ATOM      2  C2  IND d   1      -3.611   5.847  -5.780  0.00  0.00     0.054 A 
ATOM      3  C3  IND d   1      -2.876   5.957  -4.650  0.00  0.00    -0.031 A 
ATOM      4  C4  IND d   1      -3.493   5.332  -2.230  0.00  0.00     0.051 A 
ATOM      5  C5  IND d   1      -4.538   4.900  -1.462  0.00  0.00    -0.031 A 
ATOM      6  C6  IND d   1      -5.769   4.599  -2.009  0.00  0.00     0.015 A 
ATOM      7  C7  IND d   1      -5.998   4.707  -3.351  0.00  0.00    -0.016 A 
ATOM      8  C8  IND d   1      -4.942   5.151  -4.133  0.00  0.00    -0.047 A 
ATOM      9  C9  IND d   1      -3.703   5.499  -3.579  0.00  0.00    -0.096 A 
ATOM     10  HN1 IND d   1      -5.495   5.254  -6.058  0.00  0.00     0.298 HD
ENDROOT
TORSDOF 0
ENDMDL
