MODEL 1
REMARK minimizedAffinity 7.00066328
REMARK minimizedRMSD -1
REMARK  0 active torsions:
REMARK  status: ('A' for Active; 'I' for Inactive)
ROOT
ATOM      1  N1  IND d   1      -3.698   5.630  -4.399  0.00  0.00    -0.196 N 
ATOM      2  C2  IND d   1      -4.625   5.066  -5.229  0.00  0.00     0.054 A 
ATOM      3  C3  IND d   1      -5.627   4.513  -4.508  0.00  0.00    -0.031 A 
ATOM      4  C4  IND d   1      -5.998   4.506  -1.960  0.00  0.00     0.051 A 
ATOM      5  C5  IND d   1      -5.402   4.866  -0.784  0.00  0.00    -0.031 A 
ATOM      6  C6  IND d   1      -4.184   5.515  -0.752  0.00  0.00     0.015 A 
ATOM      7  C7  IND d   1      -3.519   5.839  -1.901  0.00  0.00    -0.016 A 
ATOM      8  C8  IND d   1      -4.118   5.469  -3.097  0.00  0.00    -0.047 A 
ATOM      9  C9  IND d   1      -5.333   4.773  -3.134  0.00  0.00    -0.096 A 
ATOM     10  HN1 IND d   1      -2.973   6.021  -4.648  0.00  0.00     0.298 HD
ENDROOT
TORSDOF 0
ENDMDL
