MODEL 1
REMARK minimizedAffinity 6.9323411
REMARK minimizedRMSD -1
REMARK  0 active torsions:
REMARK  status: ('A' for Active; 'I' for Inactive)
ROOT
ATOM      1  N1  IND d   1      -5.214   1.506   4.750  0.00  0.00    -0.196 N 
ATOM      2  C2  IND d   1      -4.690   1.908   5.946  0.00  0.00     0.054 A 
ATOM      3  C3  IND d   1      -3.367   1.635   5.996  0.00  0.00    -0.031 A 
ATOM      4  C4  IND d   1      -1.837   0.625   4.190  0.00  0.00     0.051 A 
ATOM      5  C5  IND d   1      -1.865   0.066   2.943  0.00  0.00    -0.031 A 
ATOM      6  C6  IND d   1      -3.035  -0.041   2.218  0.00  0.00     0.015 A 
ATOM      7  C7  IND d   1      -4.223   0.419   2.712  0.00  0.00    -0.016 A 
ATOM      8  C8  IND d   1      -4.199   0.981   3.981  0.00  0.00    -0.047 A 
ATOM      9  C9  IND d   1      -3.022   1.053   4.738  0.00  0.00    -0.096 A 
ATOM     10  HN1 IND d   1      -6.039   1.570   4.516  0.00  0.00     0.298 HD
ENDROOT
TORSDOF 0
ENDMDL
