MODEL 1
REMARK minimizedAffinity -4.58398342
REMARK minimizedRMSD -1
REMARK  1 active torsions:
REMARK  status: ('A' for Active; 'I' for Inactive)
REMARK    1  A    between atoms: N_2  and  C1_3 
ROOT
ATOM      1  C1  UNL d   1       0.331   0.993   0.192  0.00  0.00     0.143 A 
ATOM      2  C2  UNL d   1      -0.423   2.171   0.206  0.00  0.00    -0.057 A 
ATOM      3  C3  UNL d   1       0.175   3.413   0.448  0.00  0.00     0.033 A 
ATOM      4  C4  UNL d   1       1.539   3.496   0.711  0.00  0.00    -0.042 A 
ATOM      5  C5  UNL d   1       2.304   2.335   0.727  0.00  0.00     0.033 A 
ATOM      6  C6  UNL d   1       1.702   1.098   0.478  0.00  0.00    -0.057 A 
ENDROOT
BRANCH   1   7
ATOM      7  N   UNL d   1      -0.221  -0.283   0.055  0.00  0.00    -0.732 N 
ATOM      8  C   UNL d   1      -1.152  -0.793   1.039  0.00  0.00     0.284 C 
ATOM      9  H3  UNL d   1      -0.475  -0.495  -0.907  0.00  0.00     0.395 HD
ENDBRANCH   1   7
TORSDOF 1
ENDMDL
