MODEL 1
REMARK minimizedAffinity -4.70470905
REMARK minimizedRMSD -1
REMARK  1 active torsions:
REMARK  status: ('A' for Active; 'I' for Inactive)
REMARK    1  A    between atoms: N_2  and  C1_3 
ROOT
ATOM      1  C1  UNL d   1      -0.011  -0.149   0.269  0.00  0.00     0.143 A 
ATOM      2  C2  UNL d   1      -0.741  -0.841   1.242  0.00  0.00    -0.057 A 
ATOM      3  C3  UNL d   1      -0.763  -2.241   1.274  0.00  0.00     0.033 A 
ATOM      4  C4  UNL d   1      -0.077  -2.976   0.313  0.00  0.00    -0.042 A 
ATOM      5  C5  UNL d   1       0.635  -2.309  -0.678  0.00  0.00     0.033 A 
ATOM      6  C6  UNL d   1       0.659  -0.912  -0.701  0.00  0.00    -0.057 A 
ENDROOT
BRANCH   1   7
ATOM      7  N   UNL d   1      -0.029   1.240   0.125  0.00  0.00    -0.732 N 
ATOM      8  C   UNL d   1       1.011   2.056   0.714  0.00  0.00     0.284 C 
ATOM      9  H3  UNL d   1      -0.305   1.530  -0.811  0.00  0.00     0.395 HD
ENDBRANCH   1   7
TORSDOF 1
ENDMDL
