MODEL 1
REMARK minimizedAffinity -4.54210472
REMARK minimizedRMSD -1
REMARK  1 active torsions:
REMARK  status: ('A' for Active; 'I' for Inactive)
REMARK    1  A    between atoms: N_2  and  C1_3 
ROOT
ATOM      1  C1  UNL d   1       0.078  -0.442  -0.485  0.00  0.00     0.143 A 
ATOM      2  C2  UNL d   1       1.043  -1.395  -0.826  0.00  0.00    -0.057 A 
ATOM      3  C3  UNL d   1       1.051  -2.665  -0.235  0.00  0.00     0.033 A 
ATOM      4  C4  UNL d   1       0.107  -2.994   0.732  0.00  0.00    -0.042 A 
ATOM      5  C5  UNL d   1      -0.847  -2.053   1.104  0.00  0.00     0.033 A 
ATOM      6  C6  UNL d   1      -0.854  -0.790   0.506  0.00  0.00    -0.057 A 
ENDROOT
BRANCH   1   7
ATOM      7  N   UNL d   1       0.077   0.870  -0.965  0.00  0.00    -0.732 N 
ATOM      8  C   UNL d   1       0.602   1.950  -0.158  0.00  0.00     0.284 C 
ATOM      9  H3  UNL d   1       0.331   0.924  -1.949  0.00  0.00     0.395 HD
ENDBRANCH   1   7
TORSDOF 1
ENDMDL
