MODEL 1
REMARK minimizedAffinity -1.91479206
REMARK minimizedRMSD -1
REMARK  1 active torsions:
REMARK  status: ('A' for Active; 'I' for Inactive)
REMARK    1  A    between atoms: N_2  and  C1_3 
ROOT
ATOM      1  C1  UNL d   1       0.873   1.564  -0.222  0.00  0.00     0.143 A 
ATOM      2  C2  UNL d   1       1.356   0.375   0.335  0.00  0.00    -0.057 A 
ATOM      3  C3  UNL d   1       1.146  -0.859  -0.293  0.00  0.00     0.033 A 
ATOM      4  C4  UNL d   1       0.423  -0.928  -1.479  0.00  0.00    -0.042 A 
ATOM      5  C5  UNL d   1      -0.088   0.239  -2.038  0.00  0.00     0.033 A 
ATOM      6  C6  UNL d   1       0.131   1.468  -1.409  0.00  0.00    -0.057 A 
ENDROOT
BRANCH   1   7
ATOM      7  N   UNL d   1       0.964   2.809   0.405  0.00  0.00    -0.732 N 
ATOM      8  C   UNL d   1       2.249   3.446   0.597  0.00  0.00     0.284 C 
ATOM      9  H3  UNL d   1       0.224   3.445   0.115  0.00  0.00     0.395 HD
ENDBRANCH   1   7
TORSDOF 1
ENDMDL
