MODEL 1
REMARK minimizedAffinity -5.43921423
REMARK minimizedRMSD -1
REMARK  1 active torsions:
REMARK  status: ('A' for Active; 'I' for Inactive)
REMARK    1  A    between atoms: N_2  and  C1_3 
ROOT
ATOM      1  C1  UNL d   1      -0.269  -0.864  -0.337  0.00  0.00     0.143 A 
ATOM      2  C2  UNL d   1      -0.445  -1.533   0.879  0.00  0.00    -0.057 A 
ATOM      3  C3  UNL d   1      -0.411  -2.931   0.950  0.00  0.00     0.033 A 
ATOM      4  C4  UNL d   1      -0.228  -3.688  -0.202  0.00  0.00    -0.042 A 
ATOM      5  C5  UNL d   1      -0.075  -3.045  -1.426  0.00  0.00     0.033 A 
ATOM      6  C6  UNL d   1      -0.104  -1.649  -1.489  0.00  0.00    -0.057 A 
ENDROOT
BRANCH   1   7
ATOM      7  N   UNL d   1      -0.390   0.519  -0.488  0.00  0.00    -0.732 N 
ATOM      8  C   UNL d   1       0.373   1.422   0.347  0.00  0.00     0.284 C 
ATOM      9  H3  UNL d   1      -0.443   0.800  -1.464  0.00  0.00     0.395 HD
ENDBRANCH   1   7
TORSDOF 1
ENDMDL
