MODEL 1
REMARK minimizedAffinity -0.406641454
REMARK minimizedRMSD -1
REMARK  1 active torsions:
REMARK  status: ('A' for Active; 'I' for Inactive)
REMARK    1  A    between atoms: N_2  and  C1_3 
ROOT
ATOM      1  C1  UNL d   1      -0.882  -1.734   0.870  0.00  0.00     0.143 A 
ATOM      2  C2  UNL d   1       0.013  -1.680  -0.204  0.00  0.00    -0.057 A 
ATOM      3  C3  UNL d   1       0.412  -0.456  -0.755  0.00  0.00     0.033 A 
ATOM      4  C4  UNL d   1      -0.102   0.738  -0.259  0.00  0.00    -0.042 A 
ATOM      5  C5  UNL d   1      -1.012   0.706   0.791  0.00  0.00     0.033 A 
ATOM      6  C6  UNL d   1      -1.401  -0.519   1.342  0.00  0.00    -0.057 A 
ENDROOT
BRANCH   1   7
ATOM      7  N   UNL d   1      -1.392  -2.923   1.397  0.00  0.00    -0.732 N 
ATOM      8  C   UNL d   1      -2.639  -3.471   0.907  0.00  0.00     0.284 C 
ATOM      9  H3  UNL d   1      -0.668  -3.618   1.561  0.00  0.00     0.395 HD
ENDBRANCH   1   7
TORSDOF 1
ENDMDL
