MODEL 1
REMARK minimizedAffinity -4.68161726
REMARK minimizedRMSD -1
REMARK  1 active torsions:
REMARK  status: ('A' for Active; 'I' for Inactive)
REMARK    1  A    between atoms: N_2  and  C1_3 
ROOT
ATOM      1  C1  UNL d   1      -0.545  -0.414   0.550  0.00  0.00     0.143 A 
ATOM      2  C2  UNL d   1      -1.592  -1.250   0.954  0.00  0.00    -0.057 A 
ATOM      3  C3  UNL d   1      -1.487  -2.643   0.860  0.00  0.00     0.033 A 
ATOM      4  C4  UNL d   1      -0.340  -3.225   0.331  0.00  0.00    -0.042 A 
ATOM      5  C5  UNL d   1       0.703  -2.413  -0.100  0.00  0.00     0.033 A 
ATOM      6  C6  UNL d   1       0.595  -1.023   0.003  0.00  0.00    -0.057 A 
ENDROOT
BRANCH   1   7
ATOM      7  N   UNL d   1      -0.628   0.980   0.527  0.00  0.00    -0.732 N 
ATOM      8  C   UNL d   1       0.454   1.774  -0.015  0.00  0.00     0.284 C 
ATOM      9  H3  UNL d   1      -1.555   1.310   0.269  0.00  0.00     0.395 HD
ENDBRANCH   1   7
TORSDOF 1
ENDMDL
