MODEL 1
REMARK minimizedAffinity -3.20684862
REMARK minimizedRMSD -1
REMARK  1 active torsions:
REMARK  status: ('A' for Active; 'I' for Inactive)
REMARK    1  A    between atoms: N_2  and  C1_3 
ROOT
ATOM      1  C1  UNL d   1       0.139  -0.267   0.533  0.00  0.00     0.143 A 
ATOM      2  C2  UNL d   1      -1.052  -0.777   1.061  0.00  0.00    -0.057 A 
ATOM      3  C3  UNL d   1      -1.263  -2.157   1.177  0.00  0.00     0.033 A 
ATOM      4  C4  UNL d   1      -0.294  -3.054   0.738  0.00  0.00    -0.042 A 
ATOM      5  C5  UNL d   1       0.887  -2.569   0.187  0.00  0.00     0.033 A 
ATOM      6  C6  UNL d   1       1.094  -1.191   0.080  0.00  0.00    -0.057 A 
ENDROOT
BRANCH   1   7
ATOM      7  N   UNL d   1       0.368   1.091   0.300  0.00  0.00    -0.732 N 
ATOM      8  C   UNL d   1       1.671   1.671   0.545  0.00  0.00     0.284 C 
ATOM      9  H3  UNL d   1      -0.081   1.421  -0.551  0.00  0.00     0.395 HD
ENDBRANCH   1   7
TORSDOF 1
ENDMDL
