MODEL 1
REMARK minimizedAffinity -3.9276967
REMARK minimizedRMSD -1
REMARK  1 active torsions:
REMARK  status: ('A' for Active; 'I' for Inactive)
REMARK    1  A    between atoms: N_2  and  C1_3 
ROOT
ATOM      1  C1  UNL d   1      -0.494  -1.886   0.230  0.00  0.00     0.143 A 
ATOM      2  C2  UNL d   1      -1.154  -1.058   1.145  0.00  0.00    -0.057 A 
ATOM      3  C3  UNL d   1      -1.198   0.330   0.968  0.00  0.00     0.033 A 
ATOM      4  C4  UNL d   1      -0.557   0.920  -0.116  0.00  0.00    -0.042 A 
ATOM      5  C5  UNL d   1       0.127   0.120  -1.025  0.00  0.00     0.033 A 
ATOM      6  C6  UNL d   1       0.162  -1.267  -0.846  0.00  0.00    -0.057 A 
ENDROOT
BRANCH   1   7
ATOM      7  N   UNL d   1      -0.330  -3.262   0.403  0.00  0.00    -0.732 N 
ATOM      8  C   UNL d   1       0.993  -3.844   0.477  0.00  0.00     0.284 C 
ATOM      9  H3  UNL d   1      -0.993  -3.651   1.070  0.00  0.00     0.395 HD
ENDBRANCH   1   7
TORSDOF 1
ENDMDL
