MODEL 1
REMARK minimizedAffinity -2.42171168
REMARK minimizedRMSD -1
REMARK  1 active torsions:
REMARK  status: ('A' for Active; 'I' for Inactive)
REMARK    1  A    between atoms: N_2  and  C1_3 
ROOT
ATOM      1  C1  UNL d   1      -0.144  -0.862  -0.363  0.00  0.00     0.143 A 
ATOM      2  C2  UNL d   1      -1.031  -0.666   0.701  0.00  0.00    -0.057 A 
ATOM      3  C3  UNL d   1      -1.494   0.613   1.034  0.00  0.00     0.033 A 
ATOM      4  C4  UNL d   1      -1.053   1.726   0.325  0.00  0.00    -0.042 A 
ATOM      5  C5  UNL d   1      -0.151   1.557  -0.720  0.00  0.00     0.033 A 
ATOM      6  C6  UNL d   1       0.302   0.277  -1.053  0.00  0.00    -0.057 A 
ENDROOT
BRANCH   1   7
ATOM      7  N   UNL d   1       0.428  -2.096  -0.681  0.00  0.00    -0.732 N 
ATOM      8  C   UNL d   1       0.292  -3.224   0.214  0.00  0.00     0.284 C 
ATOM      9  H3  UNL d   1       0.323  -2.331  -1.666  0.00  0.00     0.395 HD
ENDBRANCH   1   7
TORSDOF 1
ENDMDL
