MODEL 1
REMARK minimizedAffinity -5.30001974
REMARK minimizedRMSD -1
REMARK  1 active torsions:
REMARK  status: ('A' for Active; 'I' for Inactive)
REMARK    1  A    between atoms: N_2  and  C1_3 
ROOT
ATOM      1  C1  UNL d   1      -0.049  -1.113  -0.140  0.00  0.00     0.143 A 
ATOM      2  C2  UNL d   1      -0.327  -2.370   0.408  0.00  0.00    -0.057 A 
ATOM      3  C3  UNL d   1      -0.152  -3.542  -0.338  0.00  0.00     0.033 A 
ATOM      4  C4  UNL d   1       0.278  -3.475  -1.659  0.00  0.00    -0.042 A 
ATOM      5  C5  UNL d   1       0.536  -2.235  -2.233  0.00  0.00     0.033 A 
ATOM      6  C6  UNL d   1       0.366  -1.069  -1.481  0.00  0.00    -0.057 A 
ENDROOT
BRANCH   1   7
ATOM      7  N   UNL d   1      -0.297   0.094   0.517  0.00  0.00    -0.732 N 
ATOM      8  C   UNL d   1       0.046   1.356  -0.103  0.00  0.00     0.284 C 
ATOM      9  H3  UNL d   1      -1.193   0.098   0.998  0.00  0.00     0.395 HD
ENDBRANCH   1   7
TORSDOF 1
ENDMDL
