MODEL 1
REMARK minimizedAffinity -2.67384052
REMARK minimizedRMSD -1
REMARK  0 active torsions:
REMARK  status: ('A' for Active; 'I' for Inactive)
ROOT
ATOM      1  C1  BNZ d   1      -3.752  -2.219  -5.346  0.00  0.00     0.000 A 
ATOM      2  C2  BNZ d   1      -2.835  -3.000  -5.998  0.00  0.00     0.000 A 
ATOM      3  C3  BNZ d   1      -2.391  -4.168  -5.444  0.00  0.00     0.000 A 
ATOM      4  C4  BNZ d   1      -2.832  -4.532  -4.222  0.00  0.00     0.000 A 
ATOM      5  C5  BNZ d   1      -3.749  -3.750  -3.549  0.00  0.00     0.000 A 
ATOM      6  C6  BNZ d   1      -4.224  -2.595  -4.127  0.00  0.00     0.000 A 
ENDROOT
TORSDOF 0
ENDMDL
