MODEL 1
REMARK minimizedAffinity -3.14896965
REMARK minimizedRMSD -1
REMARK  0 active torsions:
REMARK  status: ('A' for Active; 'I' for Inactive)
ROOT
ATOM      1  C1  BNZ d   1      -4.063  -3.367  -5.165  0.00  0.00     0.000 A 
ATOM      2  C2  BNZ d   1      -3.047  -3.750  -6.000  0.00  0.00     0.000 A 
ATOM      3  C3  BNZ d   1      -2.020  -4.527  -5.542  0.00  0.00     0.000 A 
ATOM      4  C4  BNZ d   1      -1.988  -4.886  -4.243  0.00  0.00     0.000 A 
ATOM      5  C5  BNZ d   1      -3.000  -4.500  -3.386  0.00  0.00     0.000 A 
ATOM      6  C6  BNZ d   1      -4.052  -3.750  -3.859  0.00  0.00     0.000 A 
ENDROOT
TORSDOF 0
ENDMDL
