MODEL 1
REMARK minimizedAffinity -2.08560562
REMARK minimizedRMSD -1
REMARK  0 active torsions:
REMARK  status: ('A' for Active; 'I' for Inactive)
ROOT
ATOM      1  C1  BNZ d   1      -2.151  -3.987  -6.000  0.00  0.00     0.000 A 
ATOM      2  C2  BNZ d   1      -3.520  -4.008  -6.000  0.00  0.00     0.000 A 
ATOM      3  C3  BNZ d   1      -4.205  -4.951  -5.285  0.00  0.00     0.000 A 
ATOM      4  C4  BNZ d   1      -3.522  -5.894  -4.606  0.00  0.00     0.000 A 
ATOM      5  C5  BNZ d   1      -2.141  -5.891  -4.604  0.00  0.00     0.000 A 
ATOM      6  C6  BNZ d   1      -1.455  -4.918  -5.292  0.00  0.00     0.000 A 
ENDROOT
TORSDOF 0
ENDMDL
