MODEL 1
REMARK minimizedAffinity -3.48837304
REMARK minimizedRMSD -1
REMARK  0 active torsions:
REMARK  status: ('A' for Active; 'I' for Inactive)
ROOT
ATOM      1  C1  BNZ d   1      -3.567  -4.412  -5.043  0.00  0.00     0.000 A 
ATOM      2  C2  BNZ d   1      -3.785  -3.109  -5.404  0.00  0.00     0.000 A 
ATOM      3  C3  BNZ d   1      -4.996  -2.515  -5.181  0.00  0.00     0.000 A 
ATOM      4  C4  BNZ d   1      -5.997  -3.234  -4.635  0.00  0.00     0.000 A 
ATOM      5  C5  BNZ d   1      -5.796  -4.552  -4.275  0.00  0.00     0.000 A 
ATOM      6  C6  BNZ d   1      -4.564  -5.136  -4.466  0.00  0.00     0.000 A 
ENDROOT
TORSDOF 0
ENDMDL
