MODEL 1
REMARK minimizedAffinity -3.61213803
REMARK minimizedRMSD -1
REMARK  0 active torsions:
REMARK  status: ('A' for Active; 'I' for Inactive)
ROOT
ATOM      1  C1  BNZ d   1      -3.070  -4.482  -4.171  0.00  0.00     0.000 A 
ATOM      2  C2  BNZ d   1      -3.784  -3.955  -3.128  0.00  0.00     0.000 A 
ATOM      3  C3  BNZ d   1      -5.000  -3.367  -3.339  0.00  0.00     0.000 A 
ATOM      4  C4  BNZ d   1      -5.481  -3.269  -4.595  0.00  0.00     0.000 A 
ATOM      5  C5  BNZ d   1      -4.768  -3.787  -5.658  0.00  0.00     0.000 A 
ATOM      6  C6  BNZ d   1      -3.563  -4.414  -5.438  0.00  0.00     0.000 A 
ENDROOT
TORSDOF 0
ENDMDL
