MODEL 1
REMARK minimizedAffinity -1.40158427
REMARK minimizedRMSD -1
REMARK  0 active torsions:
REMARK  status: ('A' for Active; 'I' for Inactive)
ROOT
ATOM      1  C1  BNZ d   1      -5.999  -4.886  -5.639  0.00  0.00     0.000 A 
ATOM      2  C2  BNZ d   1      -5.283  -5.999  -5.992  0.00  0.00     0.000 A 
ATOM      3  C3  BNZ d   1      -3.916  -5.985  -5.978  0.00  0.00     0.000 A 
ATOM      4  C4  BNZ d   1      -3.268  -4.849  -5.651  0.00  0.00     0.000 A 
ATOM      5  C5  BNZ d   1      -3.975  -3.716  -5.302  0.00  0.00     0.000 A 
ATOM      6  C6  BNZ d   1      -5.350  -3.745  -5.279  0.00  0.00     0.000 A 
ENDROOT
TORSDOF 0
ENDMDL
