MODEL 1
REMARK minimizedAffinity -1.52997649
REMARK minimizedRMSD -1
REMARK  0 active torsions:
REMARK  status: ('A' for Active; 'I' for Inactive)
ROOT
ATOM      1  C1  BNZ d   1      -5.331  -5.967  -5.994  0.00  0.00     0.000 A 
ATOM      2  C2  BNZ d   1      -3.962  -6.000  -6.000  0.00  0.00     0.000 A 
ATOM      3  C3  BNZ d   1      -3.233  -4.873  -5.739  0.00  0.00     0.000 A 
ATOM      4  C4  BNZ d   1      -3.873  -3.707  -5.514  0.00  0.00     0.000 A 
ATOM      5  C5  BNZ d   1      -5.253  -3.656  -5.515  0.00  0.00     0.000 A 
ATOM      6  C6  BNZ d   1      -5.983  -4.800  -5.739  0.00  0.00     0.000 A 
ENDROOT
TORSDOF 0
ENDMDL
