MODEL 1
REMARK minimizedAffinity -3.44470143
REMARK minimizedRMSD -1
REMARK  0 active torsions:
REMARK  status: ('A' for Active; 'I' for Inactive)
ROOT
ATOM      1  C1  BNZ d   1      -3.840  -4.648  -3.808  0.00  0.00     0.000 A 
ATOM      2  C2  BNZ d   1      -5.102  -4.117  -3.848  0.00  0.00     0.000 A 
ATOM      3  C3  BNZ d   1      -5.544  -3.444  -4.952  0.00  0.00     0.000 A 
ATOM      4  C4  BNZ d   1      -4.711  -3.267  -5.998  0.00  0.00     0.000 A 
ATOM      5  C5  BNZ d   1      -3.432  -3.788  -5.970  0.00  0.00     0.000 A 
ATOM      6  C6  BNZ d   1      -3.004  -4.499  -4.872  0.00  0.00     0.000 A 
ENDROOT
TORSDOF 0
ENDMDL
