MODEL 1
REMARK minimizedAffinity -2.75267196
REMARK minimizedRMSD -1
REMARK  0 active torsions:
REMARK  status: ('A' for Active; 'I' for Inactive)
ROOT
ATOM      1  C1  BNZ d   1      -2.693  -4.628  -4.824  0.00  0.00     0.000 A 
ATOM      2  C2  BNZ d   1      -3.613  -3.649  -4.560  0.00  0.00     0.000 A 
ATOM      3  C3  BNZ d   1      -4.939  -3.844  -4.829  0.00  0.00     0.000 A 
ATOM      4  C4  BNZ d   1      -5.337  -5.001  -5.396  0.00  0.00     0.000 A 
ATOM      5  C5  BNZ d   1      -4.420  -5.994  -5.677  0.00  0.00     0.000 A 
ATOM      6  C6  BNZ d   1      -3.092  -5.809  -5.370  0.00  0.00     0.000 A 
ENDROOT
TORSDOF 0
ENDMDL
