MODEL 1
REMARK minimizedAffinity -3.35179305
REMARK minimizedRMSD -1
REMARK  0 active torsions:
REMARK  status: ('A' for Active; 'I' for Inactive)
ROOT
ATOM      1  C1  BNZ d   1      -5.568  -4.061  -3.534  0.00  0.00     0.000 A 
ATOM      2  C2  BNZ d   1      -4.541  -4.934  -3.777  0.00  0.00     0.000 A 
ATOM      3  C3  BNZ d   1      -3.396  -4.512  -4.392  0.00  0.00     0.000 A 
ATOM      4  C4  BNZ d   1      -3.295  -3.230  -4.799  0.00  0.00     0.000 A 
ATOM      5  C5  BNZ d   1      -4.325  -2.340  -4.569  0.00  0.00     0.000 A 
ATOM      6  C6  BNZ d   1      -5.461  -2.759  -3.915  0.00  0.00     0.000 A 
ENDROOT
TORSDOF 0
ENDMDL
