MODEL 1
REMARK minimizedAffinity -2.8456912
REMARK minimizedRMSD -1
REMARK  0 active torsions:
REMARK  status: ('A' for Active; 'I' for Inactive)
ROOT
ATOM      1  C1  BNZ d   1      -3.001  -4.123  -4.089  0.00  0.00     0.000 A 
ATOM      2  C2  BNZ d   1      -2.003  -4.882  -4.639  0.00  0.00     0.000 A 
ATOM      3  C3  BNZ d   1      -2.279  -5.807  -5.607  0.00  0.00     0.000 A 
ATOM      4  C4  BNZ d   1      -3.557  -6.000  -5.995  0.00  0.00     0.000 A 
ATOM      5  C5  BNZ d   1      -4.575  -5.249  -5.443  0.00  0.00     0.000 A 
ATOM      6  C6  BNZ d   1      -4.288  -4.291  -4.497  0.00  0.00     0.000 A 
ENDROOT
TORSDOF 0
ENDMDL
