MODEL 1
REMARK minimizedAffinity -2.94625425
REMARK minimizedRMSD -1
REMARK  0 active torsions:
REMARK  status: ('A' for Active; 'I' for Inactive)
ROOT
ATOM      1  C1  BNZ d   1      -2.996  -4.941  -4.921  0.00  0.00     0.000 A 
ATOM      2  C2  BNZ d   1      -3.827  -3.917  -4.552  0.00  0.00     0.000 A 
ATOM      3  C3  BNZ d   1      -5.154  -3.940  -4.881  0.00  0.00     0.000 A 
ATOM      4  C4  BNZ d   1      -5.638  -4.964  -5.612  0.00  0.00     0.000 A 
ATOM      5  C5  BNZ d   1      -4.810  -5.999  -6.000  0.00  0.00     0.000 A 
ATOM      6  C6  BNZ d   1      -3.484  -5.992  -5.633  0.00  0.00     0.000 A 
ENDROOT
TORSDOF 0
ENDMDL
