MODEL 1
REMARK minimizedAffinity -2.33147025
REMARK minimizedRMSD -1
REMARK  0 active torsions:
REMARK  status: ('A' for Active; 'I' for Inactive)
ROOT
ATOM      1  C1  BNZ d   1      -3.664  -3.748  -4.515  0.00  0.00     0.000 A 
ATOM      2  C2  BNZ d   1      -4.824  -3.047  -4.319  0.00  0.00     0.000 A 
ATOM      3  C3  BNZ d   1      -5.995  -3.458  -4.891  0.00  0.00     0.000 A 
ATOM      4  C4  BNZ d   1      -5.997  -4.545  -5.690  0.00  0.00     0.000 A 
ATOM      5  C5  BNZ d   1      -4.834  -5.256  -5.906  0.00  0.00     0.000 A 
ATOM      6  C6  BNZ d   1      -3.665  -4.862  -5.297  0.00  0.00     0.000 A 
ENDROOT
TORSDOF 0
ENDMDL
