MODEL 1
REMARK minimizedAffinity -3.54475141
REMARK minimizedRMSD -1
REMARK  0 active torsions:
REMARK  status: ('A' for Active; 'I' for Inactive)
ROOT
ATOM      1  C1  BNZ d   1      -4.244  -2.960  -6.000  0.00  0.00     0.000 A 
ATOM      2  C2  BNZ d   1      -3.268  -3.920  -6.000  0.00  0.00     0.000 A 
ATOM      3  C3  BNZ d   1      -3.080  -4.727  -4.912  0.00  0.00     0.000 A 
ATOM      4  C4  BNZ d   1      -3.840  -4.546  -3.813  0.00  0.00     0.000 A 
ATOM      5  C5  BNZ d   1      -4.822  -3.576  -3.794  0.00  0.00     0.000 A 
ATOM      6  C6  BNZ d   1      -5.035  -2.792  -4.905  0.00  0.00     0.000 A 
ENDROOT
TORSDOF 0
ENDMDL
