MODEL 1
REMARK minimizedAffinity -2.98349738
REMARK minimizedRMSD -1
REMARK  0 active torsions:
REMARK  status: ('A' for Active; 'I' for Inactive)
ROOT
ATOM      1  C1  BNZ d   1      -3.491  -4.276  -4.747  0.00  0.00     0.000 A 
ATOM      2  C2  BNZ d   1      -4.282  -4.123  -3.640  0.00  0.00     0.000 A 
ATOM      3  C3  BNZ d   1      -5.457  -3.428  -3.711  0.00  0.00     0.000 A 
ATOM      4  C4  BNZ d   1      -5.819  -2.854  -4.876  0.00  0.00     0.000 A 
ATOM      5  C5  BNZ d   1      -5.027  -2.991  -5.999  0.00  0.00     0.000 A 
ATOM      6  C6  BNZ d   1      -3.864  -3.724  -5.934  0.00  0.00     0.000 A 
ENDROOT
TORSDOF 0
ENDMDL
