MODEL 1
REMARK minimizedAffinity -2.60232663
REMARK minimizedRMSD -1
REMARK  0 active torsions:
REMARK  status: ('A' for Active; 'I' for Inactive)
ROOT
ATOM      1  C1  BNZ d   1      -5.997  -1.036  -2.936  0.00  0.00     0.000 A 
ATOM      2  C2  BNZ d   1      -5.959  -2.402  -3.035  0.00  0.00     0.000 A 
ATOM      3  C3  BNZ d   1      -5.910  -3.014  -4.256  0.00  0.00     0.000 A 
ATOM      4  C4  BNZ d   1      -5.940  -2.263  -5.376  0.00  0.00     0.000 A 
ATOM      5  C5  BNZ d   1      -5.988  -0.886  -5.293  0.00  0.00     0.000 A 
ATOM      6  C6  BNZ d   1      -5.998  -0.272  -4.062  0.00  0.00     0.000 A 
ENDROOT
TORSDOF 0
ENDMDL
