MODEL 1
REMARK minimizedAffinity -3.13035369
REMARK minimizedRMSD -1
REMARK  3 active torsions:
REMARK  status: ('A' for Active; 'I' for Inactive)
REMARK    1  A    between atoms: C3'_2  and  C2'_3 
REMARK    2  A    between atoms: C2'_3  and  C1'_4 
REMARK    3  A    between atoms: C1'_4  and  C1_5 
ROOT
ATOM      1  C1  N4B d   1       2.278  -2.892  -0.064  0.00  0.00    -0.075 A 
ATOM      2  C2  N4B d   1       1.109  -3.468   0.479  0.00  0.00     0.002 A 
ATOM      3  C3  N4B d   1       0.159  -2.669   1.067  0.00  0.00     0.002 A 
ATOM      4  C4  N4B d   1       0.365  -1.299   1.140  0.00  0.00    -0.004 A 
ATOM      5  C5  N4B d   1       1.485  -0.748   0.591  0.00  0.00     0.002 A 
ATOM      6  C6  N4B d   1       2.446  -1.538  -0.007  0.00  0.00     0.002 A 
ENDROOT
BRANCH   1   7
ATOM      7  C1' N4B d   1       3.384  -3.733  -0.641  0.00  0.00     0.057 C 
BRANCH   7   8
ATOM      8  C2' N4B d   1       3.802  -4.782   0.386  0.00  0.00     0.009 C 
BRANCH   8   9
ATOM      9  C3' N4B d   1       5.103  -5.465   0.002  0.00  0.00     0.004 C 
ATOM     10  C4' N4B d   1       5.851  -6.000   1.187  0.00  0.00     0.003 C 
ENDBRANCH   8   9
ENDBRANCH   7   8
ENDBRANCH   1   7
TORSDOF 3
ENDMDL
