MODEL 1
REMARK minimizedAffinity -4.75097227
REMARK minimizedRMSD -1
REMARK  3 active torsions:
REMARK  status: ('A' for Active; 'I' for Inactive)
REMARK    1  A    between atoms: C3'_2  and  C2'_3 
REMARK    2  A    between atoms: C2'_3  and  C1'_4 
REMARK    3  A    between atoms: C1'_4  and  C1_5 
ROOT
ATOM      1  C1  N4B d   1       2.011  -3.381  -0.149  0.00  0.00    -0.075 A 
ATOM      2  C2  N4B d   1       2.673  -2.150   0.047  0.00  0.00     0.002 A 
ATOM      3  C3  N4B d   1       1.953  -1.027   0.374  0.00  0.00     0.002 A 
ATOM      4  C4  N4B d   1       0.573  -1.108   0.491  0.00  0.00    -0.004 A 
ATOM      5  C5  N4B d   1      -0.056  -2.307   0.325  0.00  0.00     0.002 A 
ATOM      6  C6  N4B d   1       0.656  -3.444   0.001  0.00  0.00     0.002 A 
ENDROOT
BRANCH   1   7
ATOM      7  C1' N4B d   1       2.747  -4.617  -0.591  0.00  0.00     0.057 C 
BRANCH   7   8
ATOM      8  C2' N4B d   1       4.153  -4.601   0.000  0.00  0.00     0.009 C 
BRANCH   8   9
ATOM      9  C3' N4B d   1       4.651  -6.000   0.320  0.00  0.00     0.004 C 
ATOM     10  C4' N4B d   1       5.994  -6.000   0.987  0.00  0.00     0.003 C 
ENDBRANCH   8   9
ENDBRANCH   7   8
ENDBRANCH   1   7
TORSDOF 3
ENDMDL
