MODEL 1
REMARK minimizedAffinity -4.14786196
REMARK minimizedRMSD -1
REMARK  3 active torsions:
REMARK  status: ('A' for Active; 'I' for Inactive)
REMARK    1  A    between atoms: C3'_2  and  C2'_3 
REMARK    2  A    between atoms: C2'_3  and  C1'_4 
REMARK    3  A    between atoms: C1'_4  and  C1_5 
ROOT
ATOM      1  C1  N4B d   1       1.598  -2.327   0.305  0.00  0.00    -0.075 A 
ATOM      2  C2  N4B d   1       1.320  -1.151   1.036  0.00  0.00     0.002 A 
ATOM      3  C3  N4B d   1       0.020  -0.757   1.234  0.00  0.00     0.002 A 
ATOM      4  C4  N4B d   1      -1.014  -1.508   0.697  0.00  0.00    -0.004 A 
ATOM      5  C5  N4B d   1      -0.739  -2.656   0.013  0.00  0.00     0.002 A 
ATOM      6  C6  N4B d   1       0.564  -3.067  -0.190  0.00  0.00     0.002 A 
ENDROOT
BRANCH   1   7
ATOM      7  C1' N4B d   1       3.006  -2.752  -0.010  0.00  0.00     0.057 C 
BRANCH   7   8
ATOM      8  C2' N4B d   1       3.080  -4.276  -0.017  0.00  0.00     0.009 C 
BRANCH   8   9
ATOM      9  C3' N4B d   1       4.506  -4.775  -0.168  0.00  0.00     0.004 C 
ATOM     10  C4' N4B d   1       4.783  -6.000   0.652  0.00  0.00     0.003 C 
ENDBRANCH   8   9
ENDBRANCH   7   8
ENDBRANCH   1   7
TORSDOF 3
ENDMDL
