MODEL 1
REMARK minimizedAffinity -3.63414884
REMARK minimizedRMSD -1
REMARK  3 active torsions:
REMARK  status: ('A' for Active; 'I' for Inactive)
REMARK    1  A    between atoms: C3'_2  and  C2'_3 
REMARK    2  A    between atoms: C2'_3  and  C1'_4 
REMARK    3  A    between atoms: C1'_4  and  C1_5 
ROOT
ATOM      1  C1  N4B d   1       1.425  -2.852  -0.110  0.00  0.00    -0.075 A 
ATOM      2  C2  N4B d   1       2.127  -1.647   0.112  0.00  0.00     0.002 A 
ATOM      3  C3  N4B d   1       1.471  -0.555   0.624  0.00  0.00     0.002 A 
ATOM      4  C4  N4B d   1       0.115  -0.638   0.904  0.00  0.00    -0.004 A 
ATOM      5  C5  N4B d   1      -0.550  -1.813   0.711  0.00  0.00     0.002 A 
ATOM      6  C6  N4B d   1       0.097  -2.920   0.200  0.00  0.00     0.002 A 
ENDROOT
BRANCH   1   7
ATOM      7  C1' N4B d   1       2.079  -4.047  -0.749  0.00  0.00     0.057 C 
BRANCH   7   8
ATOM      8  C2' N4B d   1       3.475  -4.227  -0.161  0.00  0.00     0.009 C 
BRANCH   8   9
ATOM      9  C3' N4B d   1       3.859  -5.693  -0.048  0.00  0.00     0.004 C 
ATOM     10  C4' N4B d   1       5.249  -5.890   0.476  0.00  0.00     0.003 C 
ENDBRANCH   8   9
ENDBRANCH   7   8
ENDBRANCH   1   7
TORSDOF 3
ENDMDL
