MODEL 1
REMARK minimizedAffinity -2.34883451
REMARK minimizedRMSD -1
REMARK  3 active torsions:
REMARK  status: ('A' for Active; 'I' for Inactive)
REMARK    1  A    between atoms: C3'_2  and  C2'_3 
REMARK    2  A    between atoms: C2'_3  and  C1'_4 
REMARK    3  A    between atoms: C1'_4  and  C1_5 
ROOT
ATOM      1  C1  N4B d   1       1.476  -3.092   0.345  0.00  0.00    -0.075 A 
ATOM      2  C2  N4B d   1       2.288  -1.966   0.604  0.00  0.00     0.002 A 
ATOM      3  C3  N4B d   1       1.711  -0.738   0.820  0.00  0.00     0.002 A 
ATOM      4  C4  N4B d   1       0.331  -0.610   0.765  0.00  0.00    -0.004 A 
ATOM      5  C5  N4B d   1      -0.447  -1.707   0.540  0.00  0.00     0.002 A 
ATOM      6  C6  N4B d   1       0.119  -2.948   0.325  0.00  0.00     0.002 A 
ENDROOT
BRANCH   1   7
ATOM      7  C1' N4B d   1       2.064  -4.437   0.018  0.00  0.00     0.057 C 
BRANCH   7   8
ATOM      8  C2' N4B d   1       3.575  -4.387   0.227  0.00  0.00     0.009 C 
BRANCH   8   9
ATOM      9  C3' N4B d   1       4.218  -5.752   0.054  0.00  0.00     0.004 C 
ATOM     10  C4' N4B d   1       5.366  -5.976   0.992  0.00  0.00     0.003 C 
ENDBRANCH   8   9
ENDBRANCH   7   8
ENDBRANCH   1   7
TORSDOF 3
ENDMDL
