MODEL 1
REMARK minimizedAffinity -0.185193807
REMARK minimizedRMSD -1
REMARK  3 active torsions:
REMARK  status: ('A' for Active; 'I' for Inactive)
REMARK    1  A    between atoms: C3'_2  and  C2'_3 
REMARK    2  A    between atoms: C2'_3  and  C1'_4 
REMARK    3  A    between atoms: C1'_4  and  C1_5 
ROOT
ATOM      1  C1  N4B d   1       1.913  -3.373  -0.149  0.00  0.00    -0.075 A 
ATOM      2  C2  N4B d   1       2.341  -2.028  -0.114  0.00  0.00     0.002 A 
ATOM      3  C3  N4B d   1       1.525  -1.062   0.423  0.00  0.00     0.002 A 
ATOM      4  C4  N4B d   1       0.276  -1.414   0.911  0.00  0.00    -0.004 A 
ATOM      5  C5  N4B d   1      -0.120  -2.719   0.896  0.00  0.00     0.002 A 
ATOM      6  C6  N4B d   1       0.691  -3.701   0.364  0.00  0.00     0.002 A 
ENDROOT
BRANCH   1   7
ATOM      7  C1' N4B d   1       2.734  -4.451  -0.803  0.00  0.00     0.057 C 
BRANCH   7   8
ATOM      8  C2' N4B d   1       4.117  -4.488  -0.159  0.00  0.00     0.009 C 
BRANCH   8   9
ATOM      9  C3' N4B d   1       4.539  -5.902   0.200  0.00  0.00     0.004 C 
ATOM     10  C4' N4B d   1       5.980  -5.993   0.605  0.00  0.00     0.003 C 
ENDBRANCH   8   9
ENDBRANCH   7   8
ENDBRANCH   1   7
TORSDOF 3
ENDMDL
