MODEL 1
REMARK minimizedAffinity 9.43616199
REMARK minimizedRMSD -1
REMARK  3 active torsions:
REMARK  status: ('A' for Active; 'I' for Inactive)
REMARK    1  A    between atoms: C3'_2  and  C2'_3 
REMARK    2  A    between atoms: C2'_3  and  C1'_4 
REMARK    3  A    between atoms: C1'_4  and  C1_5 
ROOT
ATOM      1  C1  N4B d   1      -0.348  -0.305   3.116  0.00  0.00    -0.075 A 
ATOM      2  C2  N4B d   1      -1.153   0.647   2.453  0.00  0.00     0.002 A 
ATOM      3  C3  N4B d   1      -2.024   1.429   3.171  0.00  0.00     0.002 A 
ATOM      4  C4  N4B d   1      -2.122   1.264   4.544  0.00  0.00    -0.004 A 
ATOM      5  C5  N4B d   1      -1.323   0.359   5.181  0.00  0.00     0.002 A 
ATOM      6  C6  N4B d   1      -0.440  -0.430   4.472  0.00  0.00     0.002 A 
ENDROOT
BRANCH   1   7
ATOM      7  C1' N4B d   1       0.557  -1.242   2.364  0.00  0.00     0.057 C 
BRANCH   7   8
ATOM      8  C2' N4B d   1      -0.266  -2.019   1.341  0.00  0.00     0.009 C 
BRANCH   8   9
ATOM      9  C3' N4B d   1       0.155  -3.477   1.263  0.00  0.00     0.004 C 
ATOM     10  C4' N4B d   1       1.208  -3.723   0.224  0.00  0.00     0.003 C 
ENDBRANCH   8   9
ENDBRANCH   7   8
ENDBRANCH   1   7
TORSDOF 3
ENDMDL
