MODEL 1
REMARK minimizedAffinity 2.19195604
REMARK minimizedRMSD -1
REMARK  3 active torsions:
REMARK  status: ('A' for Active; 'I' for Inactive)
REMARK    1  A    between atoms: C3'_2  and  C2'_3 
REMARK    2  A    between atoms: C2'_3  and  C1'_4 
REMARK    3  A    between atoms: C1'_4  and  C1_5 
ROOT
ATOM      1  C1  N4B d   1       3.067   3.054  -1.191  0.00  0.00    -0.075 A 
ATOM      2  C2  N4B d   1       3.845   1.876  -1.140  0.00  0.00     0.002 A 
ATOM      3  C3  N4B d   1       3.669   0.896  -2.085  0.00  0.00     0.002 A 
ATOM      4  C4  N4B d   1       2.712   1.061  -3.075  0.00  0.00    -0.004 A 
ATOM      5  C5  N4B d   1       1.983   2.213  -3.132  0.00  0.00     0.002 A 
ATOM      6  C6  N4B d   1       2.152   3.208  -2.191  0.00  0.00     0.002 A 
ENDROOT
BRANCH   1   7
ATOM      7  C1' N4B d   1       3.164   4.116  -0.130  0.00  0.00     0.057 C 
BRANCH   7   8
ATOM      8  C2' N4B d   1       2.003   3.955   0.847  0.00  0.00     0.009 C 
BRANCH   8   9
ATOM      9  C3' N4B d   1       0.797   4.783   0.437  0.00  0.00     0.004 C 
ATOM     10  C4' N4B d   1      -0.486   4.008   0.497  0.00  0.00     0.003 C 
ENDBRANCH   8   9
ENDBRANCH   7   8
ENDBRANCH   1   7
TORSDOF 3
ENDMDL
