MODEL 1
REMARK minimizedAffinity 6.38932467
REMARK minimizedRMSD -1
REMARK  3 active torsions:
REMARK  status: ('A' for Active; 'I' for Inactive)
REMARK    1  A    between atoms: C3'_2  and  C2'_3 
REMARK    2  A    between atoms: C2'_3  and  C1'_4 
REMARK    3  A    between atoms: C1'_4  and  C1_5 
ROOT
ATOM      1  C1  N4B d   1       2.944  -1.987  -0.123  0.00  0.00    -0.075 A 
ATOM      2  C2  N4B d   1       1.588  -2.241   0.181  0.00  0.00     0.002 A 
ATOM      3  C3  N4B d   1       1.153  -3.532   0.353  0.00  0.00     0.002 A 
ATOM      4  C4  N4B d   1       2.047  -4.582   0.208  0.00  0.00    -0.004 A 
ATOM      5  C5  N4B d   1       3.360  -4.328  -0.061  0.00  0.00     0.002 A 
ATOM      6  C6  N4B d   1       3.812  -3.035  -0.232  0.00  0.00     0.002 A 
ENDROOT
BRANCH   1   7
ATOM      7  C1' N4B d   1       3.449  -0.599  -0.404  0.00  0.00     0.057 C 
BRANCH   7   8
ATOM      8  C2' N4B d   1       2.754  -0.056  -1.649  0.00  0.00     0.009 C 
BRANCH   8   9
ATOM      9  C3' N4B d   1       3.385   1.238  -2.134  0.00  0.00     0.004 C 
ATOM     10  C4' N4B d   1       2.649   1.846  -3.290  0.00  0.00     0.003 C 
ENDBRANCH   8   9
ENDBRANCH   7   8
ENDBRANCH   1   7
TORSDOF 3
ENDMDL
