MODEL 1
REMARK minimizedAffinity 1.63253605
REMARK minimizedRMSD -1
REMARK  1 active torsions:
REMARK  status: ('A' for Active; 'I' for Inactive)
REMARK    1  A    between atoms: N_2  and  C1_3 
ROOT
ATOM      1  C1  UNL d   1      -4.122  -0.139  -3.332  0.00  0.00     0.143 A 
ATOM      2  C2  UNL d   1      -3.652   0.534  -4.465  0.00  0.00    -0.057 A 
ATOM      3  C3  UNL d   1      -3.694  -0.060  -5.732  0.00  0.00     0.033 A 
ATOM      4  C4  UNL d   1      -4.183  -1.354  -5.885  0.00  0.00    -0.042 A 
ATOM      5  C5  UNL d   1      -4.632  -2.051  -4.769  0.00  0.00     0.033 A 
ATOM      6  C6  UNL d   1      -4.593  -1.449  -3.507  0.00  0.00    -0.057 A 
ENDROOT
BRANCH   1   7
ATOM      7  N   UNL d   1      -4.016   0.360  -2.032  0.00  0.00    -0.732 N 
ATOM      8  C   UNL d   1      -2.951  -0.082  -1.157  0.00  0.00     0.284 C 
ATOM      9  H3  UNL d   1      -4.208   1.358  -1.982  0.00  0.00     0.395 HD
ENDBRANCH   1   7
TORSDOF 1
ENDMDL
