MODEL 1
REMARK minimizedAffinity 0.342101276
REMARK minimizedRMSD -1
REMARK  1 active torsions:
REMARK  status: ('A' for Active; 'I' for Inactive)
REMARK    1  A    between atoms: N_2  and  C1_3 
ROOT
ATOM      1  C1  UNL d   1      -3.444  -1.155  -4.944  0.00  0.00     0.143 A 
ATOM      2  C2  UNL d   1      -4.289  -1.142  -3.830  0.00  0.00    -0.057 A 
ATOM      3  C3  UNL d   1      -5.423  -0.321  -3.787  0.00  0.00     0.033 A 
ATOM      4  C4  UNL d   1      -5.716   0.525  -4.852  0.00  0.00    -0.042 A 
ATOM      5  C5  UNL d   1      -4.877   0.547  -5.960  0.00  0.00     0.033 A 
ATOM      6  C6  UNL d   1      -3.750  -0.280  -5.998  0.00  0.00    -0.057 A 
ENDROOT
BRANCH   1   7
ATOM      7  N   UNL d   1      -2.248  -1.875  -5.006  0.00  0.00    -0.732 N 
ATOM      8  C   UNL d   1      -2.061  -2.909  -6.000  0.00  0.00     0.284 C 
ATOM      9  H3  UNL d   1      -1.432  -1.285  -4.861  0.00  0.00     0.395 HD
ENDBRANCH   1   7
TORSDOF 1
ENDMDL
