MODEL 1
REMARK minimizedAffinity 0.541825175
REMARK minimizedRMSD -1
REMARK  1 active torsions:
REMARK  status: ('A' for Active; 'I' for Inactive)
REMARK    1  A    between atoms: N_2  and  C1_3 
ROOT
ATOM      1  C1  UNL d   1      -4.804   0.070  -4.775  0.00  0.00     0.143 A 
ATOM      2  C2  UNL d   1      -3.863   0.078  -5.810  0.00  0.00    -0.057 A 
ATOM      3  C3  UNL d   1      -2.635  -0.584  -5.681  0.00  0.00     0.033 A 
ATOM      4  C4  UNL d   1      -2.315  -1.242  -4.498  0.00  0.00    -0.042 A 
ATOM      5  C5  UNL d   1      -3.225  -1.242  -3.447  0.00  0.00     0.033 A 
ATOM      6  C6  UNL d   1      -4.451  -0.585  -3.585  0.00  0.00    -0.057 A 
ENDROOT
BRANCH   1   7
ATOM      7  N   UNL d   1      -6.000   0.792  -4.806  0.00  0.00    -0.732 N 
ATOM      8  C   UNL d   1      -5.999   2.207  -5.110  0.00  0.00     0.284 C 
ATOM      9  H3  UNL d   1      -6.755   0.272  -5.246  0.00  0.00     0.395 HD
ENDBRANCH   1   7
TORSDOF 1
ENDMDL
