MODEL 1
REMARK minimizedAffinity -2.26341867
REMARK minimizedRMSD -1
REMARK  1 active torsions:
REMARK  status: ('A' for Active; 'I' for Inactive)
REMARK    1  A    between atoms: N_2  and  C1_3 
ROOT
ATOM      1  C1  UNL d   1      -3.156  -0.944  -4.706  0.00  0.00     0.143 A 
ATOM      2  C2  UNL d   1      -3.964  -0.257  -5.618  0.00  0.00    -0.057 A 
ATOM      3  C3  UNL d   1      -5.203   0.272  -5.235  0.00  0.00     0.033 A 
ATOM      4  C4  UNL d   1      -5.669   0.097  -3.936  0.00  0.00    -0.042 A 
ATOM      5  C5  UNL d   1      -4.893  -0.603  -3.020  0.00  0.00     0.033 A 
ATOM      6  C6  UNL d   1      -3.654  -1.123  -3.406  0.00  0.00    -0.057 A 
ENDROOT
BRANCH   1   7
ATOM      7  N   UNL d   1      -1.959  -1.578  -5.051  0.00  0.00    -0.732 N 
ATOM      8  C   UNL d   1      -1.952  -2.676  -5.993  0.00  0.00     0.284 C 
ATOM      9  H3  UNL d   1      -1.193  -0.920  -5.173  0.00  0.00     0.395 HD
ENDBRANCH   1   7
TORSDOF 1
ENDMDL
