MODEL 1
REMARK minimizedAffinity 5.04529762
REMARK minimizedRMSD -1
REMARK  0 active torsions:
REMARK  status: ('A' for Active; 'I' for Inactive)
ROOT
ATOM      1  C1  BNZ d   1      -4.180   0.510   2.925  0.00  0.00     0.000 A 
ATOM      2  C2  BNZ d   1      -2.931   0.456   3.483  0.00  0.00     0.000 A 
ATOM      3  C3  BNZ d   1      -1.815   0.403   2.696  0.00  0.00     0.000 A 
ATOM      4  C4  BNZ d   1      -1.950   0.364   1.355  0.00  0.00     0.000 A 
ATOM      5  C5  BNZ d   1      -3.203   0.408   0.777  0.00  0.00     0.000 A 
ATOM      6  C6  BNZ d   1      -4.323   0.501   1.572  0.00  0.00     0.000 A 
ENDROOT
TORSDOF 0
ENDMDL
