MODEL 1
REMARK minimizedAffinity 4.81352901
REMARK minimizedRMSD -1
REMARK  0 active torsions:
REMARK  status: ('A' for Active; 'I' for Inactive)
ROOT
ATOM      1  C1  BNZ d   1      -4.053   1.117   0.298  0.00  0.00     0.000 A 
ATOM      2  C2  BNZ d   1      -4.840   0.067  -0.094  0.00  0.00     0.000 A 
ATOM      3  C3  BNZ d   1      -4.580  -1.203   0.341  0.00  0.00     0.000 A 
ATOM      4  C4  BNZ d   1      -3.512  -1.426   1.133  0.00  0.00     0.000 A 
ATOM      5  C5  BNZ d   1      -2.704  -0.379   1.529  0.00  0.00     0.000 A 
ATOM      6  C6  BNZ d   1      -2.991   0.903   1.121  0.00  0.00     0.000 A 
ENDROOT
TORSDOF 0
ENDMDL
