MODEL 1
REMARK minimizedAffinity 3.08034229
REMARK minimizedRMSD -1
REMARK  0 active torsions:
REMARK  status: ('A' for Active; 'I' for Inactive)
ROOT
ATOM      1  C1  BNZ d   1       5.955  -3.689   5.635  0.00  0.00     0.000 A 
ATOM      2  C2  BNZ d   1       5.860  -5.008   5.991  0.00  0.00     0.000 A 
ATOM      3  C3  BNZ d   1       5.821  -5.989   5.040  0.00  0.00     0.000 A 
ATOM      4  C4  BNZ d   1       5.835  -5.648   3.735  0.00  0.00     0.000 A 
ATOM      5  C5  BNZ d   1       5.921  -4.322   3.360  0.00  0.00     0.000 A 
ATOM      6  C6  BNZ d   1       6.000  -3.340   4.321  0.00  0.00     0.000 A 
ENDROOT
TORSDOF 0
ENDMDL
