MODEL 1
REMARK minimizedAffinity -1.67731619
REMARK minimizedRMSD -1
REMARK  0 active torsions:
REMARK  status: ('A' for Active; 'I' for Inactive)
ROOT
ATOM      1  C1  BNZ d   1      -4.374   0.944   3.185  0.00  0.00     0.000 A 
ATOM      2  C2  BNZ d   1      -3.080   0.588   3.460  0.00  0.00     0.000 A 
ATOM      3  C3  BNZ d   1      -2.238   0.184   2.462  0.00  0.00     0.000 A 
ATOM      4  C4  BNZ d   1      -2.702   0.097   1.198  0.00  0.00     0.000 A 
ATOM      5  C5  BNZ d   1      -4.006   0.444   0.906  0.00  0.00     0.000 A 
ATOM      6  C6  BNZ d   1      -4.839   0.888   1.907  0.00  0.00     0.000 A 
ENDROOT
TORSDOF 0
ENDMDL
