MODEL 1
REMARK minimizedAffinity 0.421033889
REMARK minimizedRMSD -1
REMARK  0 active torsions:
REMARK  status: ('A' for Active; 'I' for Inactive)
ROOT
ATOM      1  C1  BNZ d   1      -3.094  -1.064  -6.000  0.00  0.00     0.000 A 
ATOM      2  C2  BNZ d   1      -4.241  -1.812  -5.999  0.00  0.00     0.000 A 
ATOM      3  C3  BNZ d   1      -4.187  -3.178  -5.974  0.00  0.00     0.000 A 
ATOM      4  C4  BNZ d   1      -2.987  -3.793  -5.990  0.00  0.00     0.000 A 
ATOM      5  C5  BNZ d   1      -1.821  -3.054  -6.000  0.00  0.00     0.000 A 
ATOM      6  C6  BNZ d   1      -1.880  -1.679  -5.986  0.00  0.00     0.000 A 
ENDROOT
TORSDOF 0
ENDMDL
