MODEL 1
REMARK minimizedAffinity 1.70722449
REMARK minimizedRMSD -1
REMARK  0 active torsions:
REMARK  status: ('A' for Active; 'I' for Inactive)
ROOT
ATOM      1  C1  BNZ d   1      -3.624  -3.260  -5.999  0.00  0.00     0.000 A 
ATOM      2  C2  BNZ d   1      -4.881  -3.802  -5.995  0.00  0.00     0.000 A 
ATOM      3  C3  BNZ d   1      -5.989  -3.002  -6.000  0.00  0.00     0.000 A 
ATOM      4  C4  BNZ d   1      -5.839  -1.662  -5.969  0.00  0.00     0.000 A 
ATOM      5  C5  BNZ d   1      -4.578  -1.100  -5.964  0.00  0.00     0.000 A 
ATOM      6  C6  BNZ d   1      -3.465  -1.908  -5.998  0.00  0.00     0.000 A 
ENDROOT
TORSDOF 0
ENDMDL
