MODEL 1
REMARK minimizedAffinity 2.29220986
REMARK minimizedRMSD -1
REMARK  0 active torsions:
REMARK  status: ('A' for Active; 'I' for Inactive)
ROOT
ATOM      1  C1  BNZ d   1      -1.396   0.349   1.911  0.00  0.00     0.000 A 
ATOM      2  C2  BNZ d   1      -2.141   0.090   0.791  0.00  0.00     0.000 A 
ATOM      3  C3  BNZ d   1      -3.507   0.110   0.839  0.00  0.00     0.000 A 
ATOM      4  C4  BNZ d   1      -4.125   0.349   2.014  0.00  0.00     0.000 A 
ATOM      5  C5  BNZ d   1      -3.388   0.603   3.153  0.00  0.00     0.000 A 
ATOM      6  C6  BNZ d   1      -2.014   0.620   3.092  0.00  0.00     0.000 A 
ENDROOT
TORSDOF 0
ENDMDL
