MODEL 1
REMARK minimizedAffinity 4.70603657
REMARK minimizedRMSD -1
REMARK  0 active torsions:
REMARK  status: ('A' for Active; 'I' for Inactive)
ROOT
ATOM      1  C1  BNZ d   1       2.641   0.695  -2.749  0.00  0.00     0.000 A 
ATOM      2  C2  BNZ d   1       1.379   0.177  -2.625  0.00  0.00     0.000 A 
ATOM      3  C3  BNZ d   1       0.771  -0.445  -3.679  0.00  0.00     0.000 A 
ATOM      4  C4  BNZ d   1       1.408  -0.513  -4.866  0.00  0.00     0.000 A 
ATOM      5  C5  BNZ d   1       2.676   0.012  -5.010  0.00  0.00     0.000 A 
ATOM      6  C6  BNZ d   1       3.301   0.603  -3.936  0.00  0.00     0.000 A 
ENDROOT
TORSDOF 0
ENDMDL
