MODEL 1
REMARK minimizedAffinity -1.97163713
REMARK minimizedRMSD -1
REMARK  0 active torsions:
REMARK  status: ('A' for Active; 'I' for Inactive)
ROOT
ATOM      1  C1  BNZ d   1      -3.754  -1.866  -6.000  0.00  0.00     0.000 A 
ATOM      2  C2  BNZ d   1      -5.123  -1.874  -5.989  0.00  0.00     0.000 A 
ATOM      3  C3  BNZ d   1      -5.816  -3.052  -5.958  0.00  0.00     0.000 A 
ATOM      4  C4  BNZ d   1      -5.141  -4.219  -5.978  0.00  0.00     0.000 A 
ATOM      5  C5  BNZ d   1      -3.760  -4.227  -5.999  0.00  0.00     0.000 A 
ATOM      6  C6  BNZ d   1      -3.066  -3.039  -5.991  0.00  0.00     0.000 A 
ENDROOT
TORSDOF 0
ENDMDL
