MODEL 1
REMARK minimizedAffinity -1.02742922
REMARK minimizedRMSD -1
REMARK  0 active torsions:
REMARK  status: ('A' for Active; 'I' for Inactive)
ROOT
ATOM      1  C1  BNZ d   1      -3.538   0.830   1.121  0.00  0.00     0.000 A 
ATOM      2  C2  BNZ d   1      -2.206   0.820   1.440  0.00  0.00     0.000 A 
ATOM      3  C3  BNZ d   1      -1.799   0.872   2.743  0.00  0.00     0.000 A 
ATOM      4  C4  BNZ d   1      -2.720   0.974   3.723  0.00  0.00     0.000 A 
ATOM      5  C5  BNZ d   1      -4.066   0.995   3.417  0.00  0.00     0.000 A 
ATOM      6  C6  BNZ d   1      -4.474   0.903   2.106  0.00  0.00     0.000 A 
ENDROOT
TORSDOF 0
ENDMDL
