MODEL 1
REMARK minimizedAffinity -0.209164724
REMARK minimizedRMSD -1
REMARK  0 active torsions:
REMARK  status: ('A' for Active; 'I' for Inactive)
ROOT
ATOM      1  C1  BNZ d   1      -4.500  -4.173  -5.957  0.00  0.00     0.000 A 
ATOM      2  C2  BNZ d   1      -4.934  -2.874  -5.946  0.00  0.00     0.000 A 
ATOM      3  C3  BNZ d   1      -4.043  -1.838  -5.987  0.00  0.00     0.000 A 
ATOM      4  C4  BNZ d   1      -2.720  -2.101  -5.997  0.00  0.00     0.000 A 
ATOM      5  C5  BNZ d   1      -2.267  -3.405  -5.999  0.00  0.00     0.000 A 
ATOM      6  C6  BNZ d   1      -3.167  -4.446  -5.998  0.00  0.00     0.000 A 
ENDROOT
TORSDOF 0
ENDMDL
