MODEL 1
REMARK minimizedAffinity -1.71896422
REMARK minimizedRMSD -1
REMARK  0 active torsions:
REMARK  status: ('A' for Active; 'I' for Inactive)
ROOT
ATOM      1  C1  BNZ d   1      -2.621  -1.464  -5.829  0.00  0.00     0.000 A 
ATOM      2  C2  BNZ d   1      -2.567  -2.822  -6.000  0.00  0.00     0.000 A 
ATOM      3  C3  BNZ d   1      -3.709  -3.573  -6.000  0.00  0.00     0.000 A 
ATOM      4  C4  BNZ d   1      -4.898  -2.973  -5.789  0.00  0.00     0.000 A 
ATOM      5  C5  BNZ d   1      -4.968  -1.606  -5.607  0.00  0.00     0.000 A 
ATOM      6  C6  BNZ d   1      -3.820  -0.848  -5.646  0.00  0.00     0.000 A 
ENDROOT
TORSDOF 0
ENDMDL
