MODEL 1
REMARK minimizedAffinity 4.45367098
REMARK minimizedRMSD -1
REMARK  0 active torsions:
REMARK  status: ('A' for Active; 'I' for Inactive)
ROOT
ATOM      1  C1  BNZ d   1      -4.628  -3.799  -5.993  0.00  0.00     0.000 A 
ATOM      2  C2  BNZ d   1      -3.259  -3.751  -5.998  0.00  0.00     0.000 A 
ATOM      3  C3  BNZ d   1      -2.600  -2.554  -5.952  0.00  0.00     0.000 A 
ATOM      4  C4  BNZ d   1      -3.310  -1.407  -5.943  0.00  0.00     0.000 A 
ATOM      5  C5  BNZ d   1      -4.690  -1.438  -5.947  0.00  0.00     0.000 A 
ATOM      6  C6  BNZ d   1      -5.350  -2.646  -5.954  0.00  0.00     0.000 A 
ENDROOT
TORSDOF 0
ENDMDL
