MODEL 1
REMARK minimizedAffinity -2.93340278
REMARK minimizedRMSD -1
REMARK  0 active torsions:
REMARK  status: ('A' for Active; 'I' for Inactive)
ROOT
ATOM      1  C1  BNZ d   1      -2.872  -0.756  -5.964  0.00  0.00     0.000 A 
ATOM      2  C2  BNZ d   1      -4.173  -1.181  -5.973  0.00  0.00     0.000 A 
ATOM      3  C3  BNZ d   1      -4.475  -2.514  -5.969  0.00  0.00     0.000 A 
ATOM      4  C4  BNZ d   1      -3.476  -3.420  -5.998  0.00  0.00     0.000 A 
ATOM      5  C5  BNZ d   1      -2.158  -3.007  -5.999  0.00  0.00     0.000 A 
ATOM      6  C6  BNZ d   1      -1.858  -1.665  -5.963  0.00  0.00     0.000 A 
ENDROOT
TORSDOF 0
ENDMDL
