MODEL 1
REMARK minimizedAffinity 5.10643053
REMARK minimizedRMSD -1
REMARK  0 active torsions:
REMARK  status: ('A' for Active; 'I' for Inactive)
ROOT
ATOM      1  C1  BNZ d   1      -3.727   1.934   2.040  0.00  0.00     0.000 A 
ATOM      2  C2  BNZ d   1      -2.534   2.358   1.519  0.00  0.00     0.000 A 
ATOM      3  C3  BNZ d   1      -1.425   1.559   1.570  0.00  0.00     0.000 A 
ATOM      4  C4  BNZ d   1      -1.501   0.357   2.176  0.00  0.00     0.000 A 
ATOM      5  C5  BNZ d   1      -2.695  -0.080   2.715  0.00  0.00     0.000 A 
ATOM      6  C6  BNZ d   1      -3.818   0.710   2.628  0.00  0.00     0.000 A 
ENDROOT
TORSDOF 0
ENDMDL
