MODEL 1
REMARK minimizedAffinity 2.72462678
REMARK minimizedRMSD -1
REMARK  1 active torsions:
REMARK  status: ('A' for Active; 'I' for Inactive)
REMARK    1  A    between atoms: C3_4  and  O_7 
ROOT
ATOM      1  C   UNL d   1      -2.361  -1.542  -0.259  0.00  0.00    -0.033 A 
ATOM      2  C1  UNL d   1      -2.063  -2.665   0.515  0.00  0.00     0.039 A 
ATOM      3  C2  UNL d   1      -2.036  -2.567   1.908  0.00  0.00    -0.080 A 
ATOM      4  C3  UNL d   1      -2.309  -1.343   2.512  0.00  0.00     0.150 A 
ATOM      5  C4  UNL d   1      -2.610  -0.221   1.747  0.00  0.00    -0.007 A 
ATOM      6  C5  UNL d   1      -2.635  -0.321   0.357  0.00  0.00     0.039 A 
ENDROOT
BRANCH   4   7
ATOM      7  O   UNL d   1      -2.290  -1.198   3.868  0.00  0.00    -0.526 OA
ATOM      8  H5  UNL d   1      -2.039  -2.049   4.265  0.00  0.00     0.418 HD
ENDBRANCH   4   7
TORSDOF 1
ENDMDL
