MODEL 1
REMARK minimizedAffinity 0.832488
REMARK minimizedRMSD -1
REMARK  1 active torsions:
REMARK  status: ('A' for Active; 'I' for Inactive)
REMARK    1  A    between atoms: C3_4  and  O_7 
ROOT
ATOM      1  C   UNL d   1      -4.065  -0.716  -1.516  0.00  0.00    -0.033 A 
ATOM      2  C1  UNL d   1      -4.871  -0.043  -0.596  0.00  0.00     0.039 A 
ATOM      3  C2  UNL d   1      -4.413   0.180   0.704  0.00  0.00    -0.080 A 
ATOM      4  C3  UNL d   1      -3.149  -0.274   1.071  0.00  0.00     0.150 A 
ATOM      5  C4  UNL d   1      -2.339  -0.943   0.158  0.00  0.00    -0.007 A 
ATOM      6  C5  UNL d   1      -2.798  -1.165  -1.139  0.00  0.00     0.039 A 
ENDROOT
BRANCH   4   7
ATOM      7  O   UNL d   1      -2.661  -0.084   2.330  0.00  0.00    -0.526 OA
ATOM      8  H5  UNL d   1      -3.341   0.365   2.858  0.00  0.00     0.418 HD
ENDBRANCH   4   7
TORSDOF 1
ENDMDL
