MODEL 1
REMARK minimizedAffinity 10.1329489
REMARK minimizedRMSD -1
REMARK  1 active torsions:
REMARK  status: ('A' for Active; 'I' for Inactive)
REMARK    1  A    between atoms: C3_4  and  O_7 
ROOT
ATOM      1  C   UNL d   1      -3.371   0.098   1.142  0.00  0.00    -0.033 A 
ATOM      2  C1  UNL d   1      -2.436  -0.328   2.087  0.00  0.00     0.039 A 
ATOM      3  C2  UNL d   1      -1.818  -1.572   1.949  0.00  0.00    -0.080 A 
ATOM      4  C3  UNL d   1      -2.142  -2.379   0.861  0.00  0.00     0.150 A 
ATOM      5  C4  UNL d   1      -3.069  -1.959  -0.086  0.00  0.00    -0.007 A 
ATOM      6  C5  UNL d   1      -3.686  -0.717   0.054  0.00  0.00     0.039 A 
ENDROOT
BRANCH   4   7
ATOM      7  O   UNL d   1      -1.568  -3.603   0.687  0.00  0.00    -0.526 OA
ATOM      8  H5  UNL d   1      -0.970  -3.772   1.434  0.00  0.00     0.418 HD
ENDBRANCH   4   7
TORSDOF 1
ENDMDL
