MODEL 1
REMARK minimizedAffinity 10.8449173
REMARK minimizedRMSD -1
REMARK  1 active torsions:
REMARK  status: ('A' for Active; 'I' for Inactive)
REMARK    1  A    between atoms: C3_4  and  O_7 
ROOT
ATOM      1  C   UNL d   1      -5.660  -1.154  -1.672  0.00  0.00    -0.033 A 
ATOM      2  C1  UNL d   1      -4.520  -0.371  -1.865  0.00  0.00     0.039 A 
ATOM      3  C2  UNL d   1      -3.698  -0.052  -0.783  0.00  0.00    -0.080 A 
ATOM      4  C3  UNL d   1      -4.026  -0.523   0.486  0.00  0.00     0.150 A 
ATOM      5  C4  UNL d   1      -5.158  -1.307   0.685  0.00  0.00    -0.007 A 
ATOM      6  C5  UNL d   1      -5.978  -1.623  -0.397  0.00  0.00     0.039 A 
ENDROOT
BRANCH   4   7
ATOM      7  O   UNL d   1      -3.257  -0.234   1.574  0.00  0.00    -0.526 OA
ATOM      8  H5  UNL d   1      -2.525   0.339   1.290  0.00  0.00     0.418 HD
ENDBRANCH   4   7
TORSDOF 1
ENDMDL
