MODEL 1
REMARK minimizedAffinity 3.67317557
REMARK minimizedRMSD -1
REMARK  1 active torsions:
REMARK  status: ('A' for Active; 'I' for Inactive)
REMARK    1  A    between atoms: C3_4  and  O_7 
ROOT
ATOM      1  C   UNL d   1       6.000   1.513   0.975  0.00  0.00    -0.033 A 
ATOM      2  C1  UNL d   1       5.999   1.817  -0.387  0.00  0.00     0.039 A 
ATOM      3  C2  UNL d   1       4.992   1.319  -1.215  0.00  0.00    -0.080 A 
ATOM      4  C3  UNL d   1       3.992   0.519  -0.669  0.00  0.00     0.150 A 
ATOM      5  C4  UNL d   1       3.984   0.215   0.688  0.00  0.00    -0.007 A 
ATOM      6  C5  UNL d   1       4.991   0.712   1.513  0.00  0.00     0.039 A 
ENDROOT
BRANCH   4   7
ATOM      7  O   UNL d   1       2.990   0.006  -1.439  0.00  0.00    -0.526 OA
ATOM      8  H5  UNL d   1       3.141   0.276  -2.360  0.00  0.00     0.418 HD
ENDBRANCH   4   7
TORSDOF 1
ENDMDL
