MODEL 1
REMARK minimizedAffinity 7.95042133
REMARK minimizedRMSD -1
REMARK  1 active torsions:
REMARK  status: ('A' for Active; 'I' for Inactive)
REMARK    1  A    between atoms: C3_4  and  O_7 
ROOT
ATOM      1  C   UNL d   1       5.225  -0.510   2.166  0.00  0.00    -0.033 A 
ATOM      2  C1  UNL d   1       5.997   0.023   3.200  0.00  0.00     0.039 A 
ATOM      3  C2  UNL d   1       5.983   1.397   3.448  0.00  0.00    -0.080 A 
ATOM      4  C3  UNL d   1       5.193   2.225   2.656  0.00  0.00     0.150 A 
ATOM      5  C4  UNL d   1       4.418   1.701   1.627  0.00  0.00    -0.007 A 
ATOM      6  C5  UNL d   1       4.434   0.329   1.380  0.00  0.00     0.039 A 
ENDROOT
BRANCH   4   7
ATOM      7  O   UNL d   1       5.150   3.573   2.857  0.00  0.00    -0.526 OA
ATOM      8  H5  UNL d   1       5.757   3.796   3.582  0.00  0.00     0.418 HD
ENDBRANCH   4   7
TORSDOF 1
ENDMDL
