MODEL 1
REMARK minimizedAffinity 5.51925278
REMARK minimizedRMSD -1
REMARK  1 active torsions:
REMARK  status: ('A' for Active; 'I' for Inactive)
REMARK    1  A    between atoms: C3_4  and  O_7 
ROOT
ATOM      1  C   UNL d   1       2.651   5.889   3.159  0.00  0.00    -0.033 A 
ATOM      2  C1  UNL d   1       3.310   4.882   3.866  0.00  0.00     0.039 A 
ATOM      3  C2  UNL d   1       2.702   3.637   4.041  0.00  0.00    -0.080 A 
ATOM      4  C3  UNL d   1       1.438   3.413   3.503  0.00  0.00     0.150 A 
ATOM      5  C4  UNL d   1       0.777   4.411   2.794  0.00  0.00    -0.007 A 
ATOM      6  C5  UNL d   1       1.385   5.653   2.621  0.00  0.00     0.039 A 
ENDROOT
BRANCH   4   7
ATOM      7  O   UNL d   1       0.802   2.216   3.652  0.00  0.00    -0.526 OA
ATOM      8  H5  UNL d   1       1.365   1.633   4.187  0.00  0.00     0.418 HD
ENDBRANCH   4   7
TORSDOF 1
ENDMDL
