MODEL 1
REMARK minimizedAffinity -3.51710749
REMARK minimizedRMSD -1
REMARK  1 active torsions:
REMARK  status: ('A' for Active; 'I' for Inactive)
REMARK    1  A    between atoms: C3_4  and  O_7 
ROOT
ATOM      1  C   UNL d   1       0.481   1.363  -0.255  0.00  0.00    -0.033 A 
ATOM      2  C1  UNL d   1       1.855   1.119  -0.204  0.00  0.00     0.039 A 
ATOM      3  C2  UNL d   1       2.327  -0.166   0.070  0.00  0.00    -0.080 A 
ATOM      4  C3  UNL d   1       1.418  -1.196   0.291  0.00  0.00     0.150 A 
ATOM      5  C4  UNL d   1       0.048  -0.961   0.238  0.00  0.00    -0.007 A 
ATOM      6  C5  UNL d   1      -0.423   0.323  -0.035  0.00  0.00     0.039 A 
ENDROOT
BRANCH   4   7
ATOM      7  O   UNL d   1       1.832  -2.466   0.567  0.00  0.00    -0.526 OA
ATOM      8  H5  UNL d   1       2.803  -2.472   0.599  0.00  0.00     0.418 HD
ENDBRANCH   4   7
TORSDOF 1
ENDMDL
