MODEL 1
REMARK minimizedAffinity -3.22221112
REMARK minimizedRMSD -1
REMARK  1 active torsions:
REMARK  status: ('A' for Active; 'I' for Inactive)
REMARK    1  A    between atoms: C3_4  and  O_7 
ROOT
ATOM      1  C   UNL d   1       0.010   0.671  -0.324  0.00  0.00    -0.033 A 
ATOM      2  C1  UNL d   1      -0.757  -0.360   0.222  0.00  0.00     0.039 A 
ATOM      3  C2  UNL d   1      -0.137  -1.517   0.699  0.00  0.00    -0.080 A 
ATOM      4  C3  UNL d   1       1.248  -1.629   0.625  0.00  0.00     0.150 A 
ATOM      5  C4  UNL d   1       2.019  -0.604   0.086  0.00  0.00    -0.007 A 
ATOM      6  C5  UNL d   1       1.399   0.550  -0.390  0.00  0.00     0.039 A 
ENDROOT
BRANCH   4   7
ATOM      7  O   UNL d   1       1.898  -2.741   1.073  0.00  0.00    -0.526 OA
ATOM      8  H5  UNL d   1       1.235  -3.377   1.392  0.00  0.00     0.418 HD
ENDBRANCH   4   7
TORSDOF 1
ENDMDL
