MODEL 1
REMARK minimizedAffinity -3.4008441
REMARK minimizedRMSD -1
REMARK  1 active torsions:
REMARK  status: ('A' for Active; 'I' for Inactive)
REMARK    1  A    between atoms: C3_4  and  O_7 
ROOT
ATOM      1  C   UNL d   1      -0.326   0.204  -0.060  0.00  0.00    -0.033 A 
ATOM      2  C1  UNL d   1       0.680  -0.085  -0.984  0.00  0.00     0.039 A 
ATOM      3  C2  UNL d   1       1.571  -1.133  -0.743  0.00  0.00    -0.080 A 
ATOM      4  C3  UNL d   1       1.444  -1.884   0.423  0.00  0.00     0.150 A 
ATOM      5  C4  UNL d   1       0.441  -1.604   1.345  0.00  0.00    -0.007 A 
ATOM      6  C5  UNL d   1      -0.447  -0.556   1.104  0.00  0.00     0.039 A 
ENDROOT
BRANCH   4   7
ATOM      7  O   UNL d   1       2.293  -2.913   0.704  0.00  0.00    -0.526 OA
ATOM      8  H5  UNL d   1       2.951  -2.972  -0.008  0.00  0.00     0.418 HD
ENDBRANCH   4   7
TORSDOF 1
ENDMDL
