MODEL 1
REMARK minimizedAffinity -2.92246222
REMARK minimizedRMSD -1
REMARK  1 active torsions:
REMARK  status: ('A' for Active; 'I' for Inactive)
REMARK    1  A    between atoms: C3_4  and  O_7 
ROOT
ATOM      1  C   UNL d   1      -0.130   0.145  -0.251  0.00  0.00    -0.033 A 
ATOM      2  C1  UNL d   1       1.159  -0.182  -0.676  0.00  0.00     0.039 A 
ATOM      3  C2  UNL d   1       1.823  -1.276  -0.118  0.00  0.00    -0.080 A 
ATOM      4  C3  UNL d   1       1.188  -2.033   0.863  0.00  0.00     0.150 A 
ATOM      5  C4  UNL d   1      -0.097  -1.715   1.288  0.00  0.00    -0.007 A 
ATOM      6  C5  UNL d   1      -0.759  -0.622   0.730  0.00  0.00     0.039 A 
ENDROOT
BRANCH   4   7
ATOM      7  O   UNL d   1       1.799  -3.107   1.440  0.00  0.00    -0.526 OA
ATOM      8  H5  UNL d   1       2.693  -3.189   1.069  0.00  0.00     0.418 HD
ENDBRANCH   4   7
TORSDOF 1
ENDMDL
