MODEL 1
REMARK minimizedAffinity -3.51452875
REMARK minimizedRMSD -1
REMARK  1 active torsions:
REMARK  status: ('A' for Active; 'I' for Inactive)
REMARK    1  A    between atoms: C3_4  and  O_7 
ROOT
ATOM      1  C   UNL d   1      -0.744   2.649  -1.921  0.00  0.00    -0.033 A 
ATOM      2  C1  UNL d   1      -0.370   2.734  -3.263  0.00  0.00     0.039 A 
ATOM      3  C2  UNL d   1      -1.218   2.244  -4.258  0.00  0.00    -0.080 A 
ATOM      4  C3  UNL d   1      -2.436   1.674  -3.898  0.00  0.00     0.150 A 
ATOM      5  C4  UNL d   1      -2.817   1.590  -2.563  0.00  0.00    -0.007 A 
ATOM      6  C5  UNL d   1      -1.968   2.079  -1.570  0.00  0.00     0.039 A 
ENDROOT
BRANCH   4   7
ATOM      7  O   UNL d   1      -3.295   1.178  -4.833  0.00  0.00    -0.526 OA
ATOM      8  H5  UNL d   1      -2.887   1.278  -5.709  0.00  0.00     0.418 HD
ENDBRANCH   4   7
TORSDOF 1
ENDMDL
