MODEL 1
REMARK minimizedAffinity -3.36441231
REMARK minimizedRMSD -1
REMARK  1 active torsions:
REMARK  status: ('A' for Active; 'I' for Inactive)
REMARK    1  A    between atoms: C3_4  and  O_7 
ROOT
ATOM      1  C   UNL d   1       1.917  -0.687  -0.628  0.00  0.00    -0.033 A 
ATOM      2  C1  UNL d   1       0.833   0.167  -0.841  0.00  0.00     0.039 A 
ATOM      3  C2  UNL d   1      -0.182   0.260   0.113  0.00  0.00    -0.080 A 
ATOM      4  C3  UNL d   1      -0.102  -0.505   1.273  0.00  0.00     0.150 A 
ATOM      5  C4  UNL d   1       0.977  -1.355   1.493  0.00  0.00    -0.007 A 
ATOM      6  C5  UNL d   1       1.990  -1.447   0.540  0.00  0.00     0.039 A 
ENDROOT
BRANCH   4   7
ATOM      7  O   UNL d   1      -1.072  -0.452   2.230  0.00  0.00    -0.526 OA
ATOM      8  H5  UNL d   1      -1.768   0.155   1.929  0.00  0.00     0.418 HD
ENDBRANCH   4   7
TORSDOF 1
ENDMDL
