MODEL 1
REMARK minimizedAffinity -2.57001901
REMARK minimizedRMSD -1
REMARK  1 active torsions:
REMARK  status: ('A' for Active; 'I' for Inactive)
REMARK    1  A    between atoms: C3_4  and  O_7 
ROOT
ATOM      1  C   UNL d   1       1.711  -2.212  -0.051  0.00  0.00    -0.033 A 
ATOM      2  C1  UNL d   1       1.117  -1.616   1.063  0.00  0.00     0.039 A 
ATOM      3  C2  UNL d   1       0.167  -0.606   0.893  0.00  0.00    -0.080 A 
ATOM      4  C3  UNL d   1      -0.179  -0.204  -0.394  0.00  0.00     0.150 A 
ATOM      5  C4  UNL d   1       0.406  -0.796  -1.508  0.00  0.00    -0.007 A 
ATOM      6  C5  UNL d   1       1.355  -1.803  -1.336  0.00  0.00     0.039 A 
ENDROOT
BRANCH   4   7
ATOM      7  O   UNL d   1      -1.098   0.780  -0.610  0.00  0.00    -0.526 OA
ATOM      8  H5  UNL d   1      -1.396   1.117   0.251  0.00  0.00     0.418 HD
ENDBRANCH   4   7
TORSDOF 1
ENDMDL
