MODEL 1
REMARK minimizedAffinity -3.21091604
REMARK minimizedRMSD -1
REMARK  1 active torsions:
REMARK  status: ('A' for Active; 'I' for Inactive)
REMARK    1  A    between atoms: C3_4  and  O_7 
ROOT
ATOM      1  C   UNL d   1       2.898  -1.064   1.366  0.00  0.00    -0.033 A 
ATOM      2  C1  UNL d   1       2.741   0.214   0.827  0.00  0.00     0.039 A 
ATOM      3  C2  UNL d   1       1.752   0.454  -0.128  0.00  0.00    -0.080 A 
ATOM      4  C3  UNL d   1       0.928  -0.591  -0.536  0.00  0.00     0.150 A 
ATOM      5  C4  UNL d   1       1.076  -1.866  -0.001  0.00  0.00    -0.007 A 
ATOM      6  C5  UNL d   1       2.065  -2.104   0.953  0.00  0.00     0.039 A 
ENDROOT
BRANCH   4   7
ATOM      7  O   UNL d   1      -0.048  -0.407  -1.470  0.00  0.00    -0.526 OA
ATOM      8  H5  UNL d   1      -0.015   0.517  -1.771  0.00  0.00     0.418 HD
ENDBRANCH   4   7
TORSDOF 1
ENDMDL
