MODEL 1
REMARK minimizedAffinity -3.1573782
REMARK minimizedRMSD -1
REMARK  1 active torsions:
REMARK  status: ('A' for Active; 'I' for Inactive)
REMARK    1  A    between atoms: C3_4  and  O_7 
ROOT
ATOM      1  C   UNL d   1       0.764  -2.835   2.393  0.00  0.00    -0.033 A 
ATOM      2  C1  UNL d   1      -0.224  -1.849   2.450  0.00  0.00     0.039 A 
ATOM      3  C2  UNL d   1      -0.363  -0.936   1.403  0.00  0.00    -0.080 A 
ATOM      4  C3  UNL d   1       0.490  -1.020   0.306  0.00  0.00     0.150 A 
ATOM      5  C4  UNL d   1       1.474  -2.001   0.241  0.00  0.00    -0.007 A 
ATOM      6  C5  UNL d   1       1.612  -2.911   1.288  0.00  0.00     0.039 A 
ENDROOT
BRANCH   4   7
ATOM      7  O   UNL d   1       0.396  -0.148  -0.738  0.00  0.00    -0.526 OA
ATOM      8  H5  UNL d   1      -0.308   0.492  -0.542  0.00  0.00     0.418 HD
ENDBRANCH   4   7
TORSDOF 1
ENDMDL
