MODEL 1
REMARK minimizedAffinity -4.72473478
REMARK minimizedRMSD -1
REMARK  1 active torsions:
REMARK  status: ('A' for Active; 'I' for Inactive)
REMARK    1  A    between atoms: C3_4  and  O_7 
ROOT
ATOM      1  C   UNL d   1       1.003   0.617  -0.556  0.00  0.00    -0.033 A 
ATOM      2  C1  UNL d   1       2.301   0.251  -0.195  0.00  0.00     0.039 A 
ATOM      3  C2  UNL d   1       2.557  -1.033   0.290  0.00  0.00    -0.080 A 
ATOM      4  C3  UNL d   1       1.508  -1.940   0.408  0.00  0.00     0.150 A 
ATOM      5  C4  UNL d   1       0.213  -1.584   0.047  0.00  0.00    -0.007 A 
ATOM      6  C5  UNL d   1      -0.041  -0.301  -0.437  0.00  0.00     0.039 A 
ENDROOT
BRANCH   4   7
ATOM      7  O   UNL d   1       1.708  -3.203   0.881  0.00  0.00    -0.526 OA
ATOM      8  H5  UNL d   1       2.646  -3.298   1.118  0.00  0.00     0.418 HD
ENDBRANCH   4   7
TORSDOF 1
ENDMDL
