MODEL 1
REMARK minimizedAffinity -3.93372488
REMARK minimizedRMSD -1
REMARK  1 active torsions:
REMARK  status: ('A' for Active; 'I' for Inactive)
REMARK    1  A    between atoms: C3_4  and  O_7 
ROOT
ATOM      1  C   UNL d   1      -0.707   1.023  -0.284  0.00  0.00    -0.033 A 
ATOM      2  C1  UNL d   1      -1.549   0.681   0.776  0.00  0.00     0.039 A 
ATOM      3  C2  UNL d   1      -1.416  -0.559   1.404  0.00  0.00    -0.080 A 
ATOM      4  C3  UNL d   1      -0.437  -1.445   0.965  0.00  0.00     0.150 A 
ATOM      5  C4  UNL d   1       0.409  -1.110  -0.088  0.00  0.00    -0.007 A 
ATOM      6  C5  UNL d   1       0.273   0.128  -0.714  0.00  0.00     0.039 A 
ENDROOT
BRANCH   4   7
ATOM      7  O   UNL d   1      -0.271  -2.669   1.544  0.00  0.00    -0.526 OA
ATOM      8  H5  UNL d   1      -0.944  -2.774   2.238  0.00  0.00     0.418 HD
ENDBRANCH   4   7
TORSDOF 1
ENDMDL
