MODEL 1
REMARK minimizedAffinity -1.98889208
REMARK minimizedRMSD -1
REMARK  1 active torsions:
REMARK  status: ('A' for Active; 'I' for Inactive)
REMARK    1  A    between atoms: C3_4  and  O_7 
ROOT
ATOM      1  C   UNL d   1      -0.594   0.862   0.001  0.00  0.00    -0.033 A 
ATOM      2  C1  UNL d   1       0.648   0.865  -0.636  0.00  0.00     0.039 A 
ATOM      3  C2  UNL d   1       1.559  -0.166  -0.397  0.00  0.00    -0.080 A 
ATOM      4  C3  UNL d   1       1.215  -1.193   0.478  0.00  0.00     0.150 A 
ATOM      5  C4  UNL d   1      -0.023  -1.204   1.113  0.00  0.00    -0.007 A 
ATOM      6  C5  UNL d   1      -0.931  -0.173   0.874  0.00  0.00     0.039 A 
ENDROOT
BRANCH   4   7
ATOM      7  O   UNL d   1       2.073  -2.218   0.747  0.00  0.00    -0.526 OA
ATOM      8  H5  UNL d   1       2.899  -2.063   0.260  0.00  0.00     0.418 HD
ENDBRANCH   4   7
TORSDOF 1
ENDMDL
