MODEL 1
REMARK minimizedAffinity -0.20830211
REMARK minimizedRMSD -1
REMARK  1 active torsions:
REMARK  status: ('A' for Active; 'I' for Inactive)
REMARK    1  A    between atoms: C3_4  and  O_7 
ROOT
ATOM      1  C   UNL d   1      -0.811   0.516   0.399  0.00  0.00    -0.033 A 
ATOM      2  C1  UNL d   1      -1.158  -0.331   1.453  0.00  0.00     0.039 A 
ATOM      3  C2  UNL d   1      -0.410  -1.484   1.700  0.00  0.00    -0.080 A 
ATOM      4  C3  UNL d   1       0.683  -1.776   0.889  0.00  0.00     0.150 A 
ATOM      5  C4  UNL d   1       1.037  -0.934  -0.160  0.00  0.00    -0.007 A 
ATOM      6  C5  UNL d   1       0.288   0.216  -0.407  0.00  0.00     0.039 A 
ENDROOT
BRANCH   4   7
ATOM      7  O   UNL d   1       1.441  -2.891   1.089  0.00  0.00    -0.526 OA
ATOM      8  H5  UNL d   1       1.061  -3.393   1.829  0.00  0.00     0.418 HD
ENDBRANCH   4   7
TORSDOF 1
ENDMDL
