MODEL 1
REMARK minimizedAffinity -1.52471483
REMARK minimizedRMSD -1
REMARK  1 active torsions:
REMARK  status: ('A' for Active; 'I' for Inactive)
REMARK    1  A    between atoms: C3_4  and  O_7 
ROOT
ATOM      1  C   UNL d   1      -0.031   1.188  -0.320  0.00  0.00    -0.033 A 
ATOM      2  C1  UNL d   1      -0.470   0.104   0.444  0.00  0.00     0.039 A 
ATOM      3  C2  UNL d   1       0.448  -0.831   0.925  0.00  0.00    -0.080 A 
ATOM      4  C3  UNL d   1       1.801  -0.671   0.637  0.00  0.00     0.150 A 
ATOM      5  C4  UNL d   1       2.246   0.408  -0.119  0.00  0.00    -0.007 A 
ATOM      6  C5  UNL d   1       1.327   1.341  -0.600  0.00  0.00     0.039 A 
ENDROOT
BRANCH   4   7
ATOM      7  O   UNL d   1       2.734  -1.560   1.081  0.00  0.00    -0.526 OA
ATOM      8  H5  UNL d   1       2.278  -2.268   1.565  0.00  0.00     0.418 HD
ENDBRANCH   4   7
TORSDOF 1
ENDMDL
