MODEL 1
REMARK minimizedAffinity -4.5252924
REMARK minimizedRMSD -1
REMARK  1 active torsions:
REMARK  status: ('A' for Active; 'I' for Inactive)
REMARK    1  A    between atoms: C3_4  and  O_7 
ROOT
ATOM      1  C   UNL d   1       0.212   0.221  -0.482  0.00  0.00    -0.033 A 
ATOM      2  C1  UNL d   1      -1.055   0.780  -0.302  0.00  0.00     0.039 A 
ATOM      3  C2  UNL d   1      -1.815   1.162  -1.409  0.00  0.00    -0.080 A 
ATOM      4  C3  UNL d   1      -1.297   0.981  -2.689  0.00  0.00     0.150 A 
ATOM      5  C4  UNL d   1      -0.037   0.422  -2.875  0.00  0.00    -0.007 A 
ATOM      6  C5  UNL d   1       0.720   0.041  -1.768  0.00  0.00     0.039 A 
ENDROOT
BRANCH   4   7
ATOM      7  O   UNL d   1      -1.999   1.344  -3.800  0.00  0.00    -0.526 OA
ATOM      8  H5  UNL d   1      -2.839   1.742  -3.517  0.00  0.00     0.418 HD
ENDBRANCH   4   7
TORSDOF 1
ENDMDL
