MODEL 1
REMARK minimizedAffinity -1.56712818
REMARK minimizedRMSD -1
REMARK  0 active torsions:
REMARK  status: ('A' for Active; 'I' for Inactive)
ROOT
ATOM      1  C   UNL d   1       2.061  -2.378   1.191  0.00  0.00    -0.002 A 
ATOM      2  C1  UNL d   1       2.553  -1.564   0.180  0.00  0.00     0.010 A 
ATOM      3  C2  UNL d   1       1.834  -0.446  -0.245  0.00  0.00     0.041 A 
ATOM      4  C3  UNL d   1       0.600  -0.154   0.370  0.00  0.00    -0.075 A 
ATOM      5  S   UNL d   1      -0.453   1.164   0.015  0.00  0.00     0.015 SA
ATOM      6  C4  UNL d   1      -1.581   0.678   1.197  0.00  0.00     0.022 A 
ATOM      7  C5  UNL d   1      -1.180  -0.459   1.856  0.00  0.00     0.026 A 
ATOM      8  C6  UNL d   1       0.084  -0.958   1.391  0.00  0.00    -0.082 A 
ATOM      9  C7  UNL d   1       0.837  -2.085   1.799  0.00  0.00     0.045 A 
ENDROOT
TORSDOF 0
ENDMDL
