MODEL 1
REMARK minimizedAffinity -1.71237934
REMARK minimizedRMSD -1
REMARK  0 active torsions:
REMARK  status: ('A' for Active; 'I' for Inactive)
ROOT
ATOM      1  C   UNL d   1       1.909  -1.998   1.892  0.00  0.00    -0.002 A 
ATOM      2  C1  UNL d   1       0.735  -1.813   2.609  0.00  0.00     0.010 A 
ATOM      3  C2  UNL d   1      -0.367  -1.190   2.019  0.00  0.00     0.041 A 
ATOM      4  C3  UNL d   1      -0.269  -0.753   0.683  0.00  0.00    -0.075 A 
ATOM      5  S   UNL d   1      -1.490   0.034  -0.245  0.00  0.00     0.015 SA
ATOM      6  C4  UNL d   1      -0.483   0.142  -1.616  0.00  0.00     0.022 A 
ATOM      7  C5  UNL d   1       0.759  -0.404  -1.388  0.00  0.00     0.026 A 
ATOM      8  C6  UNL d   1       0.902  -0.929  -0.059  0.00  0.00    -0.082 A 
ATOM      9  C7  UNL d   1       2.002  -1.564   0.567  0.00  0.00     0.045 A 
ENDROOT
TORSDOF 0
ENDMDL
