MODEL 1
REMARK minimizedAffinity -2.38763857
REMARK minimizedRMSD -1
REMARK  0 active torsions:
REMARK  status: ('A' for Active; 'I' for Inactive)
ROOT
ATOM      1  C   UNL d   1       2.154  -2.496   1.308  0.00  0.00    -0.002 A 
ATOM      2  C1  UNL d   1       1.278  -2.643   2.374  0.00  0.00     0.010 A 
ATOM      3  C2  UNL d   1       0.145  -1.833   2.479  0.00  0.00     0.041 A 
ATOM      4  C3  UNL d   1      -0.095  -0.865   1.484  0.00  0.00    -0.075 A 
ATOM      5  S   UNL d   1      -1.418   0.238   1.404  0.00  0.00     0.015 SA
ATOM      6  C4  UNL d   1      -0.851   0.929  -0.047  0.00  0.00     0.022 A 
ATOM      7  C5  UNL d   1       0.318   0.345  -0.474  0.00  0.00     0.026 A 
ATOM      8  C6  UNL d   1       0.773  -0.699   0.400  0.00  0.00    -0.082 A 
ATOM      9  C7  UNL d   1       1.913  -1.535   0.323  0.00  0.00     0.045 A 
ENDROOT
TORSDOF 0
ENDMDL
