MODEL 1
REMARK minimizedAffinity -4.67798376
REMARK minimizedRMSD -1
REMARK  0 active torsions:
REMARK  status: ('A' for Active; 'I' for Inactive)
ROOT
ATOM      1  C   UNL d   1       1.616  -2.609   1.489  0.00  0.00    -0.002 A 
ATOM      2  C1  UNL d   1       0.659  -2.375   2.466  0.00  0.00     0.010 A 
ATOM      3  C2  UNL d   1      -0.248  -1.321   2.333  0.00  0.00     0.041 A 
ATOM      4  C3  UNL d   1      -0.177  -0.501   1.190  0.00  0.00    -0.075 A 
ATOM      5  S   UNL d   1      -1.184   0.847   0.813  0.00  0.00     0.015 SA
ATOM      6  C4  UNL d   1      -0.368   1.143  -0.653  0.00  0.00     0.022 A 
ATOM      7  C5  UNL d   1       0.651   0.244  -0.866  0.00  0.00     0.026 A 
ATOM      8  C6  UNL d   1       0.778  -0.718   0.192  0.00  0.00    -0.082 A 
ATOM      9  C7  UNL d   1       1.683  -1.793   0.356  0.00  0.00     0.045 A 
ENDROOT
TORSDOF 0
ENDMDL
