MODEL 1
REMARK minimizedAffinity -6.93254995
REMARK minimizedRMSD -1
REMARK  0 active torsions:
REMARK  status: ('A' for Active; 'I' for Inactive)
ROOT
ATOM      1  C   UNL d   1       1.259  -2.904   1.728  0.00  0.00    -0.002 A 
ATOM      2  C1  UNL d   1       0.212  -2.672   2.609  0.00  0.00     0.010 A 
ATOM      3  C2  UNL d   1      -0.660  -1.601   2.409  0.00  0.00     0.041 A 
ATOM      4  C3  UNL d   1      -0.461  -0.759   1.297  0.00  0.00    -0.075 A 
ATOM      5  S   UNL d   1      -1.404   0.614   0.851  0.00  0.00     0.015 SA
ATOM      6  C4  UNL d   1      -0.439   0.925  -0.519  0.00  0.00     0.022 A 
ATOM      7  C5  UNL d   1       0.582   0.013  -0.649  0.00  0.00     0.026 A 
ATOM      8  C6  UNL d   1       0.586  -0.972   0.396  0.00  0.00    -0.082 A 
ATOM      9  C7  UNL d   1       1.453  -2.067   0.627  0.00  0.00     0.045 A 
ENDROOT
TORSDOF 0
ENDMDL
