MODEL 1
REMARK minimizedAffinity -3.05032229
REMARK minimizedRMSD -1
REMARK  0 active torsions:
REMARK  status: ('A' for Active; 'I' for Inactive)
ROOT
ATOM      1  C   UNL d   1      -0.369  -1.924   3.279  0.00  0.00    -0.002 A 
ATOM      2  C1  UNL d   1      -1.264  -1.014   2.735  0.00  0.00     0.010 A 
ATOM      3  C2  UNL d   1      -0.979  -0.370   1.530  0.00  0.00     0.041 A 
ATOM      4  C3  UNL d   1       0.233  -0.661   0.872  0.00  0.00    -0.075 A 
ATOM      5  S   UNL d   1       0.794   0.005  -0.616  0.00  0.00     0.015 SA
ATOM      6  C4  UNL d   1       2.235  -0.904  -0.566  0.00  0.00     0.022 A 
ATOM      7  C5  UNL d   1       2.303  -1.701   0.552  0.00  0.00     0.026 A 
ATOM      8  C6  UNL d   1       1.150  -1.575   1.399  0.00  0.00    -0.082 A 
ATOM      9  C7  UNL d   1       0.832  -2.210   2.623  0.00  0.00     0.045 A 
ENDROOT
TORSDOF 0
ENDMDL
