MODEL 1
REMARK minimizedAffinity -4.50913811
REMARK minimizedRMSD -1
REMARK  0 active torsions:
REMARK  status: ('A' for Active; 'I' for Inactive)
ROOT
ATOM      1  C   UNL d   1       0.531  -2.509   2.681  0.00  0.00    -0.002 A 
ATOM      2  C1  UNL d   1      -0.652  -1.812   2.886  0.00  0.00     0.010 A 
ATOM      3  C2  UNL d   1      -1.082  -0.858   1.962  0.00  0.00     0.041 A 
ATOM      4  C3  UNL d   1      -0.297  -0.614   0.818  0.00  0.00    -0.075 A 
ATOM      5  S   UNL d   1      -0.627   0.509  -0.448  0.00  0.00     0.015 SA
ATOM      6  C4  UNL d   1       0.794   0.089  -1.291  0.00  0.00     0.022 A 
ATOM      7  C5  UNL d   1       1.514  -0.882  -0.637  0.00  0.00     0.026 A 
ATOM      8  C6  UNL d   1       0.897  -1.303   0.590  0.00  0.00    -0.082 A 
ATOM      9  C7  UNL d   1       1.307  -2.265   1.545  0.00  0.00     0.045 A 
ENDROOT
TORSDOF 0
ENDMDL
