MODEL 1
REMARK minimizedAffinity -1.63058364
REMARK minimizedRMSD -1
REMARK  0 active torsions:
REMARK  status: ('A' for Active; 'I' for Inactive)
ROOT
ATOM      1  C   UNL d   1      -1.206   0.635  -0.610  0.00  0.00    -0.002 A 
ATOM      2  C1  UNL d   1      -0.063   1.387  -0.379  0.00  0.00     0.010 A 
ATOM      3  C2  UNL d   1       1.116   0.773   0.049  0.00  0.00     0.041 A 
ATOM      4  C3  UNL d   1       1.127  -0.622   0.240  0.00  0.00    -0.075 A 
ATOM      5  S   UNL d   1       2.457  -1.590   0.757  0.00  0.00     0.015 SA
ATOM      6  C4  UNL d   1       1.539  -3.024   0.683  0.00  0.00     0.022 A 
ATOM      7  C5  UNL d   1       0.247  -2.789   0.275  0.00  0.00     0.026 A 
ATOM      8  C6  UNL d   1      -0.011  -1.401   0.012  0.00  0.00    -0.082 A 
ATOM      9  C7  UNL d   1      -1.191  -0.749  -0.420  0.00  0.00     0.045 A 
ENDROOT
TORSDOF 0
ENDMDL
