MODEL 1
REMARK minimizedAffinity -4.3232069
REMARK minimizedRMSD -1
REMARK  0 active torsions:
REMARK  status: ('A' for Active; 'I' for Inactive)
ROOT
ATOM      1  C   UNL d   1      -0.046  -2.660   2.866  0.00  0.00    -0.002 A 
ATOM      2  C1  UNL d   1       1.026  -2.872   2.010  0.00  0.00     0.010 A 
ATOM      3  C2  UNL d   1       1.231  -2.039   0.909  0.00  0.00     0.041 A 
ATOM      4  C3  UNL d   1       0.333  -0.978   0.681  0.00  0.00    -0.075 A 
ATOM      5  S   UNL d   1       0.387   0.171  -0.604  0.00  0.00     0.015 SA
ATOM      6  C4  UNL d   1      -1.011   0.971  -0.047  0.00  0.00     0.022 A 
ATOM      7  C5  UNL d   1      -1.519   0.389   1.090  0.00  0.00     0.026 A 
ATOM      8  C6  UNL d   1      -0.753  -0.743   1.529  0.00  0.00    -0.082 A 
ATOM      9  C7  UNL d   1      -0.934  -1.606   2.636  0.00  0.00     0.045 A 
ENDROOT
TORSDOF 0
ENDMDL
