MODEL 1
REMARK minimizedAffinity -1.31941521
REMARK minimizedRMSD -1
REMARK  3 active torsions:
REMARK  status: ('A' for Active; 'I' for Inactive)
REMARK    1  A    between atoms: C3'_2  and  C2'_3 
REMARK    2  A    between atoms: C2'_3  and  C1'_4 
REMARK    3  A    between atoms: C1'_4  and  C1_5 
ROOT
ATOM      1  C1  N4B d   1      -0.092   0.002   0.741  0.00  0.00    -0.075 A 
ATOM      2  C2  N4B d   1       0.573  -0.586   1.839  0.00  0.00     0.002 A 
ATOM      3  C3  N4B d   1      -0.071  -0.711   3.045  0.00  0.00     0.002 A 
ATOM      4  C4  N4B d   1      -1.368  -0.239   3.182  0.00  0.00    -0.004 A 
ATOM      5  C5  N4B d   1      -2.012   0.305   2.110  0.00  0.00     0.002 A 
ATOM      6  C6  N4B d   1      -1.378   0.433   0.890  0.00  0.00     0.002 A 
ENDROOT
BRANCH   1   7
ATOM      7  C1' N4B d   1       0.601   0.238  -0.574  0.00  0.00     0.057 C 
BRANCH   7   8
ATOM      8  C2' N4B d   1       2.097  -0.009  -0.403  0.00  0.00     0.009 C 
BRANCH   8   9
ATOM      9  C3' N4B d   1       2.884   1.289  -0.348  0.00  0.00     0.004 C 
ATOM     10  C4' N4B d   1       2.614   2.080   0.897  0.00  0.00     0.003 C 
ENDBRANCH   8   9
ENDBRANCH   7   8
ENDBRANCH   1   7
TORSDOF 3
ENDMDL
