MODEL 1
REMARK minimizedAffinity -3.59934735
REMARK minimizedRMSD -1
REMARK  3 active torsions:
REMARK  status: ('A' for Active; 'I' for Inactive)
REMARK    1  A    between atoms: C3'_2  and  C2'_3 
REMARK    2  A    between atoms: C2'_3  and  C1'_4 
REMARK    3  A    between atoms: C1'_4  and  C1_5 
ROOT
ATOM      1  C1  N4B d   1      -0.765  -0.569   2.320  0.00  0.00    -0.075 A 
ATOM      2  C2  N4B d   1       0.460  -0.991   1.759  0.00  0.00     0.002 A 
ATOM      3  C3  N4B d   1       0.528  -1.320   0.427  0.00  0.00     0.002 A 
ATOM      4  C4  N4B d   1      -0.615  -1.252  -0.356  0.00  0.00    -0.004 A 
ATOM      5  C5  N4B d   1      -1.789  -0.818   0.188  0.00  0.00     0.002 A 
ATOM      6  C6  N4B d   1      -1.871  -0.482   1.524  0.00  0.00     0.002 A 
ENDROOT
BRANCH   1   7
ATOM      7  C1' N4B d   1      -0.908  -0.282   3.790  0.00  0.00     0.057 C 
BRANCH   7   8
ATOM      8  C2' N4B d   1       0.390  -0.652   4.501  0.00  0.00     0.009 C 
BRANCH   8   9
ATOM      9  C3' N4B d   1       0.253  -1.936   5.302  0.00  0.00     0.004 C 
ATOM     10  C4' N4B d   1       1.544  -2.369   5.930  0.00  0.00     0.003 C 
ENDBRANCH   8   9
ENDBRANCH   7   8
ENDBRANCH   1   7
TORSDOF 3
ENDMDL
