MODEL 1
REMARK minimizedAffinity 10.0369024
REMARK minimizedRMSD -1
REMARK  2 active torsions:
REMARK  status: ('A' for Active; 'I' for Inactive)
REMARK    1  A    between atoms: C2'_3  and  C1'_4 
REMARK    2  A    between atoms: C1'_4  and  C1_5 
ROOT
ATOM      1  C1  I4B d   1       1.212   0.808   0.983  0.00  0.00    -0.075 A 
ATOM      2  C2  I4B d   1       0.461   1.668   0.221  0.00  0.00     0.003 A 
ATOM      3  C3  I4B d   1      -0.807   2.102   0.676  0.00  0.00     0.002 A 
ATOM      4  C4  I4B d   1      -1.305   1.614   1.868  0.00  0.00    -0.004 A 
ATOM      5  C5  I4B d   1      -0.533   0.760   2.650  0.00  0.00     0.002 A 
ATOM      6  C6  I4B d   1       0.739   0.364   2.211  0.00  0.00     0.003 A 
ENDROOT
BRANCH   1   7
ATOM      7  C1' I4B d   1       2.533   0.345   0.456  0.00  0.00     0.060 C 
BRANCH   7   8
ATOM      8  C2' I4B d   1       2.765  -1.067   0.954  0.00  0.00    -0.013 C 
ATOM      9  C4' I4B d   1       2.547  -2.075  -0.144  0.00  0.00     0.013 C 
ATOM     10  C3' I4B d   1       4.163  -1.146   1.491  0.00  0.00     0.013 C 
ENDBRANCH   7   8
ENDBRANCH   1   7
TORSDOF 2
ENDMDL
