MODEL 1
REMARK minimizedAffinity 8.48089981
REMARK minimizedRMSD -1
REMARK  2 active torsions:
REMARK  status: ('A' for Active; 'I' for Inactive)
REMARK    1  A    between atoms: C2'_3  and  C1'_4 
REMARK    2  A    between atoms: C1'_4  and  C1_5 
ROOT
ATOM      1  C1  I4B d   1      -3.481   0.352  -4.127  0.00  0.00    -0.075 A 
ATOM      2  C2  I4B d   1      -2.147   0.549  -4.381  0.00  0.00     0.003 A 
ATOM      3  C3  I4B d   1      -1.167  -0.119  -3.608  0.00  0.00     0.002 A 
ATOM      4  C4  I4B d   1      -1.563  -0.930  -2.564  0.00  0.00    -0.004 A 
ATOM      5  C5  I4B d   1      -2.916  -1.147  -2.322  0.00  0.00     0.002 A 
ATOM      6  C6  I4B d   1      -3.882  -0.512  -3.116  0.00  0.00     0.003 A 
ENDROOT
BRANCH   1   7
ATOM      7  C1' I4B d   1      -4.489   1.099  -4.942  0.00  0.00     0.060 C 
BRANCH   7   8
ATOM      8  C2' I4B d   1      -4.786   2.405  -4.235  0.00  0.00    -0.013 C 
ATOM      9  C4' I4B d   1      -5.171   2.171  -2.798  0.00  0.00     0.013 C 
ATOM     10  C3' I4B d   1      -3.567   3.273  -4.335  0.00  0.00     0.013 C 
ENDBRANCH   7   8
ENDBRANCH   1   7
TORSDOF 2
ENDMDL
