MODEL 1
REMARK minimizedAffinity 8.16895866
REMARK minimizedRMSD -1
REMARK  2 active torsions:
REMARK  status: ('A' for Active; 'I' for Inactive)
REMARK    1  A    between atoms: C2'_3  and  C1'_4 
REMARK    2  A    between atoms: C1'_4  and  C1_5 
ROOT
ATOM      1  C1  I4B d   1       2.147   0.210   0.827  0.00  0.00    -0.075 A 
ATOM      2  C2  I4B d   1       3.071  -0.340   1.680  0.00  0.00     0.003 A 
ATOM      3  C3  I4B d   1       3.624  -1.614   1.407  0.00  0.00     0.002 A 
ATOM      4  C4  I4B d   1       3.190  -2.321   0.304  0.00  0.00    -0.004 A 
ATOM      5  C5  I4B d   1       2.270  -1.752  -0.572  0.00  0.00     0.002 A 
ATOM      6  C6  I4B d   1       1.754  -0.474  -0.316  0.00  0.00     0.003 A 
ENDROOT
BRANCH   1   7
ATOM      7  C1' I4B d   1       1.559   1.543   1.164  0.00  0.00     0.060 C 
BRANCH   7   8
ATOM      8  C2' I4B d   1       0.055   1.380   1.261  0.00  0.00    -0.013 C 
ATOM      9  C4' I4B d   1      -0.402   1.375   2.696  0.00  0.00     0.013 C 
ATOM     10  C3' I4B d   1      -0.582   2.499   0.493  0.00  0.00     0.013 C 
ENDBRANCH   7   8
ENDBRANCH   1   7
TORSDOF 2
ENDMDL
