MODEL 1
REMARK minimizedAffinity 8.90905666
REMARK minimizedRMSD -1
REMARK  2 active torsions:
REMARK  status: ('A' for Active; 'I' for Inactive)
REMARK    1  A    between atoms: C2'_3  and  C1'_4 
REMARK    2  A    between atoms: C1'_4  and  C1_5 
ROOT
ATOM      1  C1  I4B d   1       1.040   0.999  -0.219  0.00  0.00    -0.075 A 
ATOM      2  C2  I4B d   1       0.245   0.620  -1.271  0.00  0.00     0.003 A 
ATOM      3  C3  I4B d   1       0.575  -0.522  -2.039  0.00  0.00     0.002 A 
ATOM      4  C4  I4B d   1       1.730  -1.222  -1.753  0.00  0.00    -0.004 A 
ATOM      5  C5  I4B d   1       2.522  -0.850  -0.672  0.00  0.00     0.002 A 
ATOM      6  C6  I4B d   1       2.169   0.260   0.109  0.00  0.00     0.003 A 
ENDROOT
BRANCH   1   7
ATOM      7  C1' I4B d   1       0.679   2.230   0.551  0.00  0.00     0.060 C 
BRANCH   7   8
ATOM      8  C2' I4B d   1      -0.629   1.965   1.269  0.00  0.00    -0.013 C 
ATOM      9  C4' I4B d   1      -0.414   1.118   2.496  0.00  0.00     0.013 C 
ATOM     10  C3' I4B d   1      -1.238   3.288   1.624  0.00  0.00     0.013 C 
ENDBRANCH   7   8
ENDBRANCH   1   7
TORSDOF 2
ENDMDL
