MODEL 1
REMARK minimizedAffinity -0.695669293
REMARK minimizedRMSD -1
REMARK  0 active torsions:
REMARK  status: ('A' for Active; 'I' for Inactive)
ROOT
ATOM      1  C1  BNZ d   1       2.217   3.343  -5.994  0.00  0.00     0.000 A 
ATOM      2  C2  BNZ d   1       1.005   2.800  -5.661  0.00  0.00     0.000 A 
ATOM      3  C3  BNZ d   1       0.841   2.125  -4.484  0.00  0.00     0.000 A 
ATOM      4  C4  BNZ d   1       1.897   1.959  -3.661  0.00  0.00     0.000 A 
ATOM      5  C5  BNZ d   1       3.127   2.492  -3.988  0.00  0.00     0.000 A 
ATOM      6  C6  BNZ d   1       3.280   3.205  -5.155  0.00  0.00     0.000 A 
ENDROOT
TORSDOF 0
ENDMDL
