MODEL 1
REMARK minimizedAffinity -2.3831296
REMARK minimizedRMSD -1
REMARK  0 active torsions:
REMARK  status: ('A' for Active; 'I' for Inactive)
ROOT
ATOM      1  C1  BNZ d   1       1.343   0.972   0.701  0.00  0.00     0.000 A 
ATOM      2  C2  BNZ d   1       0.868   0.817  -0.574  0.00  0.00     0.000 A 
ATOM      3  C3  BNZ d   1      -0.213   0.020  -0.826  0.00  0.00     0.000 A 
ATOM      4  C4  BNZ d   1      -0.793  -0.652   0.190  0.00  0.00     0.000 A 
ATOM      5  C5  BNZ d   1      -0.320  -0.513   1.479  0.00  0.00     0.000 A 
ATOM      6  C6  BNZ d   1       0.745   0.321   1.735  0.00  0.00     0.000 A 
ENDROOT
TORSDOF 0
ENDMDL
