MODEL 1
REMARK minimizedAffinity -1.56163311
REMARK minimizedRMSD -1
REMARK  0 active torsions:
REMARK  status: ('A' for Active; 'I' for Inactive)
ROOT
ATOM      1  C1  BNZ d   1      -0.387  -0.894  -2.494  0.00  0.00     0.000 A 
ATOM      2  C2  BNZ d   1       0.004  -1.579  -3.614  0.00  0.00     0.000 A 
ATOM      3  C3  BNZ d   1       1.155  -1.245  -4.272  0.00  0.00     0.000 A 
ATOM      4  C4  BNZ d   1       1.891  -0.203  -3.835  0.00  0.00     0.000 A 
ATOM      5  C5  BNZ d   1       1.505   0.503  -2.713  0.00  0.00     0.000 A 
ATOM      6  C6  BNZ d   1       0.367   0.140  -2.030  0.00  0.00     0.000 A 
ENDROOT
TORSDOF 0
ENDMDL
