MODEL 1
REMARK minimizedAffinity -2.84160709
REMARK minimizedRMSD -1
REMARK  0 active torsions:
REMARK  status: ('A' for Active; 'I' for Inactive)
ROOT
ATOM      1  C1  BNZ d   1       2.328  -1.166  -3.509  0.00  0.00     0.000 A 
ATOM      2  C2  BNZ d   1       2.075   0.040  -2.911  0.00  0.00     0.000 A 
ATOM      3  C3  BNZ d   1       0.848   0.313  -2.376  0.00  0.00     0.000 A 
ATOM      4  C4  BNZ d   1      -0.137  -0.603  -2.474  0.00  0.00     0.000 A 
ATOM      5  C5  BNZ d   1       0.099  -1.820  -3.082  0.00  0.00     0.000 A 
ATOM      6  C6  BNZ d   1       1.347  -2.106  -3.585  0.00  0.00     0.000 A 
ENDROOT
TORSDOF 0
ENDMDL
