MODEL 1
REMARK minimizedAffinity -3.95970368
REMARK minimizedRMSD -1
REMARK  0 active torsions:
REMARK  status: ('A' for Active; 'I' for Inactive)
ROOT
ATOM      1  C1  BNZ d   1      -1.548  -0.672   1.484  0.00  0.00     0.000 A 
ATOM      2  C2  BNZ d   1      -1.276  -0.041   0.299  0.00  0.00     0.000 A 
ATOM      3  C3  BNZ d   1      -0.047   0.510   0.066  0.00  0.00     0.000 A 
ATOM      4  C4  BNZ d   1       0.894   0.466   1.032  0.00  0.00     0.000 A 
ATOM      5  C5  BNZ d   1       0.631  -0.158   2.235  0.00  0.00     0.000 A 
ATOM      6  C6  BNZ d   1      -0.594  -0.746   2.451  0.00  0.00     0.000 A 
ENDROOT
TORSDOF 0
ENDMDL
