MODEL 1
REMARK minimizedAffinity -4.2925005
REMARK minimizedRMSD -1
REMARK  0 active torsions:
REMARK  status: ('A' for Active; 'I' for Inactive)
ROOT
ATOM      1  C1  BNZ d   1       0.718   0.374   0.938  0.00  0.00     0.000 A 
ATOM      2  C2  BNZ d   1       0.332  -0.112   2.159  0.00  0.00     0.000 A 
ATOM      3  C3  BNZ d   1      -0.888  -0.706   2.322  0.00  0.00     0.000 A 
ATOM      4  C4  BNZ d   1      -1.736  -0.778   1.276  0.00  0.00     0.000 A 
ATOM      5  C5  BNZ d   1      -1.365  -0.284   0.041  0.00  0.00     0.000 A 
ATOM      6  C6  BNZ d   1      -0.121   0.278  -0.129  0.00  0.00     0.000 A 
ENDROOT
TORSDOF 0
ENDMDL
