MODEL 1
REMARK minimizedAffinity 0.126992747
REMARK minimizedRMSD -1
REMARK  0 active torsions:
REMARK  status: ('A' for Active; 'I' for Inactive)
ROOT
ATOM      1  C1  BNZ d   1      -1.053   0.732  -1.170  0.00  0.00     0.000 A 
ATOM      2  C2  BNZ d   1      -1.782   0.319  -0.088  0.00  0.00     0.000 A 
ATOM      3  C3  BNZ d   1      -1.408  -0.784   0.629  0.00  0.00     0.000 A 
ATOM      4  C4  BNZ d   1      -0.330  -1.494   0.239  0.00  0.00     0.000 A 
ATOM      5  C5  BNZ d   1       0.410  -1.095  -0.856  0.00  0.00     0.000 A 
ATOM      6  C6  BNZ d   1       0.054   0.037  -1.552  0.00  0.00     0.000 A 
ENDROOT
TORSDOF 0
ENDMDL
