MODEL 1
REMARK minimizedAffinity -3.95799112
REMARK minimizedRMSD -1
REMARK  0 active torsions:
REMARK  status: ('A' for Active; 'I' for Inactive)
ROOT
ATOM      1  C1  BNZ d   1       0.988   0.614  -0.214  0.00  0.00     0.000 A 
ATOM      2  C2  BNZ d   1       1.357   0.066   0.986  0.00  0.00     0.000 A 
ATOM      3  C3  BNZ d   1       0.419  -0.447   1.838  0.00  0.00     0.000 A 
ATOM      4  C4  BNZ d   1      -0.886  -0.374   1.510  0.00  0.00     0.000 A 
ATOM      5  C5  BNZ d   1      -1.275   0.185   0.308  0.00  0.00     0.000 A 
ATOM      6  C6  BNZ d   1      -0.326   0.664  -0.565  0.00  0.00     0.000 A 
ENDROOT
TORSDOF 0
ENDMDL
