MODEL 1
REMARK minimizedAffinity -5.00216627
REMARK minimizedRMSD -1
REMARK  0 active torsions:
REMARK  status: ('A' for Active; 'I' for Inactive)
ROOT
ATOM      1  C1  BNZ d   1      -1.303   0.991   3.172  0.00  0.00     0.000 A 
ATOM      2  C2  BNZ d   1      -2.474   1.014   2.462  0.00  0.00     0.000 A 
ATOM      3  C3  BNZ d   1      -2.908  -0.095   1.792  0.00  0.00     0.000 A 
ATOM      4  C4  BNZ d   1      -2.153  -1.212   1.798  0.00  0.00     0.000 A 
ATOM      5  C5  BNZ d   1      -0.965  -1.248   2.502  0.00  0.00     0.000 A 
ATOM      6  C6  BNZ d   1      -0.550  -0.142   3.207  0.00  0.00     0.000 A 
ENDROOT
TORSDOF 0
ENDMDL
