MODEL 1
REMARK minimizedAffinity -0.937636077
REMARK minimizedRMSD -1
REMARK  0 active torsions:
REMARK  status: ('A' for Active; 'I' for Inactive)
ROOT
ATOM      1  C1  BNZ d   1       1.095  -0.118   0.747  0.00  0.00     0.000 A 
ATOM      2  C2  BNZ d   1       1.102   0.020  -0.615  0.00  0.00     0.000 A 
ATOM      3  C3  BNZ d   1      -0.055  -0.081  -1.335  0.00  0.00     0.000 A 
ATOM      4  C4  BNZ d   1      -1.210  -0.361  -0.697  0.00  0.00     0.000 A 
ATOM      5  C5  BNZ d   1      -1.232  -0.512   0.675  0.00  0.00     0.000 A 
ATOM      6  C6  BNZ d   1      -0.072  -0.371   1.400  0.00  0.00     0.000 A 
ENDROOT
TORSDOF 0
ENDMDL
