MODEL 1
REMARK minimizedAffinity -5.46438503
REMARK minimizedRMSD -1
REMARK  0 active torsions:
REMARK  status: ('A' for Active; 'I' for Inactive)
ROOT
ATOM      1  C1  BNZ d   1      -0.625  -0.583   2.319  0.00  0.00     0.000 A 
ATOM      2  C2  BNZ d   1       0.706  -0.272   2.408  0.00  0.00     0.000 A 
ATOM      3  C3  BNZ d   1       1.382   0.222   1.329  0.00  0.00     0.000 A 
ATOM      4  C4  BNZ d   1       0.739   0.368   0.152  0.00  0.00     0.000 A 
ATOM      5  C5  BNZ d   1      -0.600   0.050   0.044  0.00  0.00     0.000 A 
ATOM      6  C6  BNZ d   1      -1.288  -0.411   1.143  0.00  0.00     0.000 A 
ENDROOT
TORSDOF 0
ENDMDL
