MODEL 1
REMARK minimizedAffinity -4.7668829
REMARK minimizedRMSD -1
REMARK  0 active torsions:
REMARK  status: ('A' for Active; 'I' for Inactive)
ROOT
ATOM      1  C1  BNZ d   1       1.337   0.671   1.458  0.00  0.00     0.000 A 
ATOM      2  C2  BNZ d   1       0.812   0.281   2.660  0.00  0.00     0.000 A 
ATOM      3  C3  BNZ d   1      -0.394  -0.360   2.722  0.00  0.00     0.000 A 
ATOM      4  C4  BNZ d   1      -1.091  -0.573   1.587  0.00  0.00     0.000 A 
ATOM      5  C5  BNZ d   1      -0.579  -0.176   0.368  0.00  0.00     0.000 A 
ATOM      6  C6  BNZ d   1       0.653   0.433   0.306  0.00  0.00     0.000 A 
ENDROOT
TORSDOF 0
ENDMDL
