MODEL 1
REMARK minimizedAffinity -4.12042904
REMARK minimizedRMSD -1
REMARK  0 active torsions:
REMARK  status: ('A' for Active; 'I' for Inactive)
ROOT
ATOM      1  C1  BNZ d   1      -1.660  -0.371   0.875  0.00  0.00     0.000 A 
ATOM      2  C2  BNZ d   1      -0.987  -0.035  -0.270  0.00  0.00     0.000 A 
ATOM      3  C3  BNZ d   1       0.368   0.143  -0.259  0.00  0.00     0.000 A 
ATOM      4  C4  BNZ d   1       1.043   0.024   0.903  0.00  0.00     0.000 A 
ATOM      5  C5  BNZ d   1       0.378  -0.305   2.067  0.00  0.00     0.000 A 
ATOM      6  C6  BNZ d   1      -0.981  -0.522   2.045  0.00  0.00     0.000 A 
ENDROOT
TORSDOF 0
ENDMDL
