MODEL 1
REMARK minimizedAffinity -3.27163458
REMARK minimizedRMSD -1
REMARK  0 active torsions:
REMARK  status: ('A' for Active; 'I' for Inactive)
ROOT
ATOM      1  C1  BNZ d   1       0.985   0.273  -0.048  0.00  0.00     0.000 A 
ATOM      2  C2  BNZ d   1       0.123   0.497  -1.089  0.00  0.00     0.000 A 
ATOM      3  C3  BNZ d   1      -1.228   0.531  -0.883  0.00  0.00     0.000 A 
ATOM      4  C4  BNZ d   1      -1.717   0.300   0.352  0.00  0.00     0.000 A 
ATOM      5  C5  BNZ d   1      -0.861   0.063   1.410  0.00  0.00     0.000 A 
ATOM      6  C6  BNZ d   1       0.500   0.069   1.207  0.00  0.00     0.000 A 
ENDROOT
TORSDOF 0
ENDMDL
