MODEL 1
REMARK minimizedAffinity 2.42485285
REMARK minimizedRMSD -1
REMARK  0 active torsions:
REMARK  status: ('A' for Active; 'I' for Inactive)
ROOT
ATOM      1  C4' PXY d   1      -2.004  -0.271   2.974  0.00  0.00     0.077 C 
ATOM      2  C1' PXY d   1      -0.257   3.935  -0.585  0.00  0.00     0.077 C 
ATOM      3  C1  PXY d   1      -0.726   2.839   0.351  0.00  0.00    -0.082 A 
ATOM      4  C2  PXY d   1       0.160   2.025   0.901  0.00  0.00     0.003 A 
ATOM      5  C3  PXY d   1      -0.249   1.008   1.724  0.00  0.00     0.003 A 
ATOM      6  C4  PXY d   1      -1.575   0.856   2.030  0.00  0.00    -0.082 A 
ATOM      7  C5  PXY d   1      -2.485   1.689   1.482  0.00  0.00     0.003 A 
ATOM      8  C6  PXY d   1      -2.052   2.689   0.616  0.00  0.00     0.003 A 
ENDROOT
TORSDOF 0
ENDMDL
