MODEL 1
REMARK minimizedAffinity 5.84115601
REMARK minimizedRMSD -1
REMARK  0 active torsions:
REMARK  status: ('A' for Active; 'I' for Inactive)
ROOT
ATOM      1  C4' PXY d   1       0.110   4.799   0.515  0.00  0.00     0.077 C 
ATOM      2  C1' PXY d   1       0.097  -0.354  -2.105  0.00  0.00     0.077 C 
ATOM      3  C1  PXY d   1       0.093   0.992  -1.408  0.00  0.00    -0.082 A 
ATOM      4  C2  PXY d   1       0.240   2.098  -2.120  0.00  0.00     0.003 A 
ATOM      5  C3  PXY d   1       0.272   3.321  -1.502  0.00  0.00     0.003 A 
ATOM      6  C4  PXY d   1       0.098   3.418  -0.148  0.00  0.00    -0.082 A 
ATOM      7  C5  PXY d   1      -0.063   2.296   0.584  0.00  0.00     0.003 A 
ATOM      8  C6  PXY d   1      -0.051   1.061  -0.057  0.00  0.00     0.003 A 
ENDROOT
TORSDOF 0
ENDMDL
