MODEL 1
REMARK minimizedAffinity 4.18164062
REMARK minimizedRMSD -1
REMARK  0 active torsions:
REMARK  status: ('A' for Active; 'I' for Inactive)
ROOT
ATOM      1  C4' PXY d   1       0.293   4.028  -1.513  0.00  0.00     0.077 C 
ATOM      2  C1' PXY d   1      -2.359   1.741   3.086  0.00  0.00     0.077 C 
ATOM      3  C1  PXY d   1      -1.674   2.349   1.878  0.00  0.00    -0.082 A 
ATOM      4  C2  PXY d   1      -0.744   1.659   1.238  0.00  0.00     0.003 A 
ATOM      5  C3  PXY d   1      -0.091   2.206   0.163  0.00  0.00     0.003 A 
ATOM      6  C4  PXY d   1      -0.432   3.451  -0.294  0.00  0.00    -0.082 A 
ATOM      7  C5  PXY d   1      -1.387   4.157   0.347  0.00  0.00     0.003 A 
ATOM      8  C6  PXY d   1      -2.009   3.600   1.461  0.00  0.00     0.003 A 
ENDROOT
TORSDOF 0
ENDMDL
