MODEL 1
REMARK minimizedAffinity 7.06336832
REMARK minimizedRMSD -1
REMARK  0 active torsions:
REMARK  status: ('A' for Active; 'I' for Inactive)
ROOT
ATOM      1  C4' PXY d   1       1.005   4.230  -1.980  0.00  0.00     0.077 C 
ATOM      2  C1' PXY d   1      -2.174   1.436   1.957  0.00  0.00     0.077 C 
ATOM      3  C1  PXY d   1      -1.332   2.159   0.925  0.00  0.00    -0.082 A 
ATOM      4  C2  PXY d   1      -1.491   3.461   0.747  0.00  0.00     0.003 A 
ATOM      5  C3  PXY d   1      -0.759   4.125  -0.204  0.00  0.00     0.003 A 
ATOM      6  C4  PXY d   1       0.182   3.460  -0.943  0.00  0.00    -0.082 A 
ATOM      7  C5  PXY d   1       0.358   2.134  -0.760  0.00  0.00     0.003 A 
ATOM      8  C6  PXY d   1      -0.423   1.471   0.182  0.00  0.00     0.003 A 
ENDROOT
TORSDOF 0
ENDMDL
