MODEL 1
REMARK minimizedAffinity 0.658034444
REMARK minimizedRMSD -1
REMARK  0 active torsions:
REMARK  status: ('A' for Active; 'I' for Inactive)
ROOT
ATOM      1  C4' PXY d   1       0.361   3.705  -1.408  0.00  0.00     0.077 C 
ATOM      2  C1' PXY d   1      -2.434   1.191   2.983  0.00  0.00     0.077 C 
ATOM      3  C1  PXY d   1      -1.712   1.855   1.827  0.00  0.00    -0.082 A 
ATOM      4  C2  PXY d   1      -0.555   1.367   1.412  0.00  0.00     0.003 A 
ATOM      5  C3  PXY d   1       0.126   1.974   0.389  0.00  0.00     0.003 A 
ATOM      6  C4  PXY d   1      -0.408   3.061  -0.250  0.00  0.00    -0.082 A 
ATOM      7  C5  PXY d   1      -1.593   3.558   0.161  0.00  0.00     0.003 A 
ATOM      8  C6  PXY d   1      -2.249   2.952   1.228  0.00  0.00     0.003 A 
ENDROOT
TORSDOF 0
ENDMDL
