MODEL 1
REMARK minimizedAffinity 2.30573702
REMARK minimizedRMSD -1
REMARK  0 active torsions:
REMARK  status: ('A' for Active; 'I' for Inactive)
ROOT
ATOM      1  C4' PXY d   1      -6.000  -4.098   5.998  0.00  0.00     0.077 C 
ATOM      2  C1' PXY d   1      -1.201  -2.513   3.192  0.00  0.00     0.077 C 
ATOM      3  C1  PXY d   1      -2.453  -2.927   3.939  0.00  0.00    -0.082 A 
ATOM      4  C2  PXY d   1      -3.369  -3.659   3.326  0.00  0.00     0.003 A 
ATOM      5  C3  PXY d   1      -4.522  -4.015   3.977  0.00  0.00     0.003 A 
ATOM      6  C4  PXY d   1      -4.715  -3.664   5.286  0.00  0.00    -0.082 A 
ATOM      7  C5  PXY d   1      -3.781  -2.927   5.922  0.00  0.00     0.003 A 
ATOM      8  C6  PXY d   1      -2.636  -2.541   5.231  0.00  0.00     0.003 A 
ENDROOT
TORSDOF 0
ENDMDL
