MODEL 1
REMARK minimizedAffinity 3.75967932
REMARK minimizedRMSD -1
REMARK  0 active torsions:
REMARK  status: ('A' for Active; 'I' for Inactive)
ROOT
ATOM      1  C4' PXY d   1      -1.164  -2.051   3.391  0.00  0.00     0.077 C 
ATOM      2  C1' PXY d   1      -0.905   3.096   0.773  0.00  0.00     0.077 C 
ATOM      3  C1  PXY d   1      -0.962   1.742   1.453  0.00  0.00    -0.082 A 
ATOM      4  C2  PXY d   1      -2.115   1.294   1.921  0.00  0.00     0.003 A 
ATOM      5  C3  PXY d   1      -2.179   0.086   2.568  0.00  0.00     0.003 A 
ATOM      6  C4  PXY d   1      -1.061  -0.695   2.689  0.00  0.00    -0.082 A 
ATOM      7  C5  PXY d   1       0.117  -0.249   2.204  0.00  0.00     0.003 A 
ATOM      8  C6  PXY d   1       0.169   0.998   1.588  0.00  0.00     0.003 A 
ENDROOT
TORSDOF 0
ENDMDL
