MODEL 1
REMARK minimizedAffinity 2.08270907
REMARK minimizedRMSD -1
REMARK  0 active torsions:
REMARK  status: ('A' for Active; 'I' for Inactive)
ROOT
ATOM      1  C4' PXY d   1      -2.145   0.108   2.924  0.00  0.00     0.077 C 
ATOM      2  C1' PXY d   1      -0.403   3.883  -1.092  0.00  0.00     0.077 C 
ATOM      3  C1  PXY d   1      -0.868   2.902  -0.035  0.00  0.00    -0.082 A 
ATOM      4  C2  PXY d   1      -0.065   1.922   0.347  0.00  0.00     0.003 A 
ATOM      5  C3  PXY d   1      -0.483   1.007   1.279  0.00  0.00     0.003 A 
ATOM      6  C4  PXY d   1      -1.714   1.128   1.866  0.00  0.00    -0.082 A 
ATOM      7  C5  PXY d   1      -2.534   2.131   1.490  0.00  0.00     0.003 A 
ATOM      8  C6  PXY d   1      -2.108   3.025   0.512  0.00  0.00     0.003 A 
ENDROOT
TORSDOF 0
ENDMDL
