MODEL 1
REMARK minimizedAffinity 6.01591253
REMARK minimizedRMSD -1
REMARK  0 active torsions:
REMARK  status: ('A' for Active; 'I' for Inactive)
ROOT
ATOM      1  C4' PXY d   1       0.481  -0.746  -1.077  0.00  0.00     0.077 C 
ATOM      2  C1' PXY d   1      -1.162   4.594   0.408  0.00  0.00     0.077 C 
ATOM      3  C1  PXY d   1      -0.733   3.189   0.031  0.00  0.00    -0.082 A 
ATOM      4  C2  PXY d   1       0.039   3.003  -1.028  0.00  0.00     0.003 A 
ATOM      5  C3  PXY d   1       0.410   1.737  -1.402  0.00  0.00     0.003 A 
ATOM      6  C4  PXY d   1       0.031   0.655  -0.653  0.00  0.00    -0.082 A 
ATOM      7  C5  PXY d   1      -0.747   0.838   0.434  0.00  0.00     0.003 A 
ATOM      8  C6  PXY d   1      -1.147   2.127   0.773  0.00  0.00     0.003 A 
ENDROOT
TORSDOF 0
ENDMDL
