MODEL 1
REMARK minimizedAffinity 9.43940067
REMARK minimizedRMSD -1
REMARK  0 active torsions:
REMARK  status: ('A' for Active; 'I' for Inactive)
ROOT
ATOM      1  C4' PXY d   1       0.601  -0.937  -3.480  0.00  0.00     0.077 C 
ATOM      2  C1' PXY d   1      -4.251   0.184  -0.544  0.00  0.00     0.077 C 
ATOM      3  C1  PXY d   1      -2.974  -0.099  -1.310  0.00  0.00    -0.082 A 
ATOM      4  C2  PXY d   1      -2.993  -0.950  -2.323  0.00  0.00     0.003 A 
ATOM      5  C3  PXY d   1      -1.841  -1.241  -3.007  0.00  0.00     0.003 A 
ATOM      6  C4  PXY d   1      -0.667  -0.615  -2.684  0.00  0.00    -0.082 A 
ATOM      7  C5  PXY d   1      -0.641   0.263  -1.658  0.00  0.00     0.003 A 
ATOM      8  C6  PXY d   1      -1.813   0.514  -0.951  0.00  0.00     0.003 A 
ENDROOT
TORSDOF 0
ENDMDL
