MODEL 1
REMARK minimizedAffinity 0.641194165
REMARK minimizedRMSD -1
REMARK  0 active torsions:
REMARK  status: ('A' for Active; 'I' for Inactive)
ROOT
ATOM      1  C4' PXY d   1      -0.812  -2.744   3.515  0.00  0.00     0.077 C 
ATOM      2  C1' PXY d   1      -0.806   2.429   0.936  0.00  0.00     0.077 C 
ATOM      3  C1  PXY d   1      -0.797   1.069   1.605  0.00  0.00    -0.082 A 
ATOM      4  C2  PXY d   1      -1.906   0.604   2.156  0.00  0.00     0.003 A 
ATOM      5  C3  PXY d   1      -1.908  -0.610   2.793  0.00  0.00     0.003 A 
ATOM      6  C4  PXY d   1      -0.777  -1.380   2.820  0.00  0.00    -0.082 A 
ATOM      7  C5  PXY d   1       0.357  -0.917   2.251  0.00  0.00     0.003 A 
ATOM      8  C6  PXY d   1       0.348   0.336   1.645  0.00  0.00     0.003 A 
ENDROOT
TORSDOF 0
ENDMDL
