MODEL 1
REMARK minimizedAffinity 4.43388224
REMARK minimizedRMSD -1
REMARK  0 active torsions:
REMARK  status: ('A' for Active; 'I' for Inactive)
ROOT
ATOM      1  C4' PXY d   1      -0.697  -1.151  -2.825  0.00  0.00     0.077 C 
ATOM      2  C1' PXY d   1      -2.078   4.434  -3.388  0.00  0.00     0.077 C 
ATOM      3  C1  PXY d   1      -1.703   2.972  -3.240  0.00  0.00    -0.082 A 
ATOM      4  C2  PXY d   1      -2.523   2.038  -3.693  0.00  0.00     0.003 A 
ATOM      5  C3  PXY d   1      -2.214   0.711  -3.538  0.00  0.00     0.003 A 
ATOM      6  C4  PXY d   1      -1.030   0.337  -2.962  0.00  0.00    -0.082 A 
ATOM      7  C5  PXY d   1      -0.183   1.285  -2.507  0.00  0.00     0.003 A 
ATOM      8  C6  PXY d   1      -0.534   2.626  -2.636  0.00  0.00     0.003 A 
ENDROOT
TORSDOF 0
ENDMDL
