MODEL 1
REMARK minimizedAffinity 6.23952246
REMARK minimizedRMSD -1
REMARK  0 active torsions:
REMARK  status: ('A' for Active; 'I' for Inactive)
ROOT
ATOM      1  C4' PXY d   1      -0.120   3.313  -0.254  0.00  0.00     0.077 C 
ATOM      2  C1' PXY d   1      -0.721  -0.834  -4.235  0.00  0.00     0.077 C 
ATOM      3  C1  PXY d   1      -0.550   0.254  -3.194  0.00  0.00    -0.082 A 
ATOM      4  C2  PXY d   1      -1.441   0.375  -2.222  0.00  0.00     0.003 A 
ATOM      5  C3  PXY d   1      -1.319   1.373  -1.290  0.00  0.00     0.003 A 
ATOM      6  C4  PXY d   1      -0.247   2.224  -1.322  0.00  0.00    -0.082 A 
ATOM      7  C5  PXY d   1       0.672   2.100  -2.304  0.00  0.00     0.003 A 
ATOM      8  C6  PXY d   1       0.508   1.106  -3.264  0.00  0.00     0.003 A 
ENDROOT
TORSDOF 0
ENDMDL
