MODEL 1
REMARK minimizedAffinity 11.0336533
REMARK minimizedRMSD -1
REMARK  0 active torsions:
REMARK  status: ('A' for Active; 'I' for Inactive)
ROOT
ATOM      1  C4' PXY d   1       0.169   3.549  -2.170  0.00  0.00     0.077 C 
ATOM      2  C1' PXY d   1      -1.694  -1.905  -2.609  0.00  0.00     0.077 C 
ATOM      3  C1  PXY d   1      -1.198  -0.478  -2.483  0.00  0.00    -0.082 A 
ATOM      4  C2  PXY d   1      -1.926   0.513  -2.973  0.00  0.00     0.003 A 
ATOM      5  C3  PXY d   1      -1.478   1.806  -2.896  0.00  0.00     0.003 A 
ATOM      6  C4  PXY d   1      -0.297   2.094  -2.266  0.00  0.00    -0.082 A 
ATOM      7  C5  PXY d   1       0.447   1.090  -1.755  0.00  0.00     0.003 A 
ATOM      8  C6  PXY d   1      -0.007  -0.221  -1.879  0.00  0.00     0.003 A 
ENDROOT
TORSDOF 0
ENDMDL
