MODEL 1
REMARK minimizedAffinity 7.2520771
REMARK minimizedRMSD -1
REMARK  0 active torsions:
REMARK  status: ('A' for Active; 'I' for Inactive)
ROOT
ATOM      1  C4' PXY d   1       0.679   0.384  -4.373  0.00  0.00     0.077 C 
ATOM      2  C1' PXY d   1      -1.408   2.009   0.767  0.00  0.00     0.077 C 
ATOM      3  C1  PXY d   1      -0.866   1.571  -0.579  0.00  0.00    -0.082 A 
ATOM      4  C2  PXY d   1       0.230   2.137  -1.059  0.00  0.00     0.003 A 
ATOM      5  C3  PXY d   1       0.715   1.776  -2.289  0.00  0.00     0.003 A 
ATOM      6  C4  PXY d   1       0.102   0.788  -3.013  0.00  0.00    -0.082 A 
ATOM      7  C5  PXY d   1      -1.010   0.199  -2.526  0.00  0.00     0.003 A 
ATOM      8  C6  PXY d   1      -1.510   0.608  -1.293  0.00  0.00     0.003 A 
ENDROOT
TORSDOF 0
ENDMDL
