MODEL 1
REMARK minimizedAffinity 4.09797144
REMARK minimizedRMSD -1
REMARK  0 active torsions:
REMARK  status: ('A' for Active; 'I' for Inactive)
ROOT
ATOM      1  C4' PXY d   1       0.324  -0.169  -2.175  0.00  0.00     0.077 C 
ATOM      2  C1' PXY d   1      -0.006   5.496  -1.071  0.00  0.00     0.077 C 
ATOM      3  C1  PXY d   1       0.082   4.008  -1.347  0.00  0.00    -0.082 A 
ATOM      4  C2  PXY d   1       0.452   3.586  -2.546  0.00  0.00     0.003 A 
ATOM      5  C3  PXY d   1       0.507   2.244  -2.823  0.00  0.00     0.003 A 
ATOM      6  C4  PXY d   1       0.230   1.324  -1.847  0.00  0.00    -0.082 A 
ATOM      7  C5  PXY d   1      -0.138   1.746  -0.619  0.00  0.00     0.003 A 
ATOM      8  C6  PXY d   1      -0.226   3.113  -0.370  0.00  0.00     0.003 A 
ENDROOT
TORSDOF 0
ENDMDL
