MODEL 1
REMARK minimizedAffinity 7.41079283
REMARK minimizedRMSD -1
REMARK  0 active torsions:
REMARK  status: ('A' for Active; 'I' for Inactive)
ROOT
ATOM      1  C4' PXY d   1      -1.528   1.856   2.756  0.00  0.00     0.077 C 
ATOM      2  C1' PXY d   1       0.362   3.409  -2.482  0.00  0.00     0.077 C 
ATOM      3  C1  PXY d   1      -0.131   3.014  -1.104  0.00  0.00    -0.082 A 
ATOM      4  C2  PXY d   1      -0.122   1.740  -0.746  0.00  0.00     0.003 A 
ATOM      5  C3  PXY d   1      -0.594   1.361   0.484  0.00  0.00     0.003 A 
ATOM      6  C4  PXY d   1      -1.030   2.302   1.378  0.00  0.00    -0.082 A 
ATOM      7  C5  PXY d   1      -1.033   3.605   1.025  0.00  0.00     0.003 A 
ATOM      8  C6  PXY d   1      -0.588   3.964  -0.244  0.00  0.00     0.003 A 
ENDROOT
TORSDOF 0
ENDMDL
