MODEL 1
REMARK minimizedAffinity 9.50735092
REMARK minimizedRMSD -1
REMARK  0 active torsions:
REMARK  status: ('A' for Active; 'I' for Inactive)
ROOT
ATOM      1  C4' PXY d   1      -0.765   2.713   4.570  0.00  0.00     0.077 C 
ATOM      2  C1' PXY d   1       1.789  -0.650   0.623  0.00  0.00     0.077 C 
ATOM      3  C1  PXY d   1       1.113   0.238   1.648  0.00  0.00    -0.082 A 
ATOM      4  C2  PXY d   1       1.666   0.400   2.839  0.00  0.00     0.003 A 
ATOM      5  C3  PXY d   1       1.052   1.175   3.790  0.00  0.00     0.003 A 
ATOM      6  C4  PXY d   1      -0.113   1.833   3.500  0.00  0.00    -0.082 A 
ATOM      7  C5  PXY d   1      -0.678   1.681   2.284  0.00  0.00     0.003 A 
ATOM      8  C6  PXY d   1      -0.060   0.858   1.347  0.00  0.00     0.003 A 
ENDROOT
TORSDOF 0
ENDMDL
