MODEL 1
REMARK minimizedAffinity 4.60276985
REMARK minimizedRMSD -1
REMARK  0 active torsions:
REMARK  status: ('A' for Active; 'I' for Inactive)
ROOT
ATOM      1  C4' PXY d   1      -0.650   1.960   1.518  0.00  0.00     0.077 C 
ATOM      2  C1' PXY d   1       1.431   1.085  -3.803  0.00  0.00     0.077 C 
ATOM      3  C1  PXY d   1       0.887   1.327  -2.409  0.00  0.00    -0.082 A 
ATOM      4  C2  PXY d   1       0.947   0.362  -1.507  0.00  0.00     0.003 A 
ATOM      5  C3  PXY d   1       0.431   0.553  -0.251  0.00  0.00     0.003 A 
ATOM      6  C4  PXY d   1      -0.104   1.763   0.101  0.00  0.00    -0.082 A 
ATOM      7  C5  PXY d   1      -0.160   2.757  -0.811  0.00  0.00     0.003 A 
ATOM      8  C6  PXY d   1       0.332   2.529  -2.093  0.00  0.00     0.003 A 
ENDROOT
TORSDOF 0
ENDMDL
