MODEL 1
REMARK minimizedAffinity -0.646683395
REMARK minimizedRMSD -1
REMARK  0 active torsions:
REMARK  status: ('A' for Active; 'I' for Inactive)
ROOT
ATOM      1  O1  BZF d   1      -5.639   5.997   2.989  0.00  0.00    -0.204 OA
ATOM      2  C2  BZF d   1      -5.998   5.330   4.144  0.00  0.00     0.174 A 
ATOM      3  C3  BZF d   1      -5.986   3.995   3.949  0.00  0.00    -0.012 A 
ATOM      4  C3A BZF d   1      -5.505   3.815   2.613  0.00  0.00    -0.107 A 
ATOM      5  C4  BZF d   1      -5.257   2.713   1.846  0.00  0.00     0.055 A 
ATOM      6  C5  BZF d   1      -4.863   2.881   0.556  0.00  0.00    -0.016 A 
ATOM      7  C6  BZF d   1      -4.711   4.135   0.001  0.00  0.00     0.022 A 
ATOM      8  C7  BZF d   1      -4.941   5.258   0.725  0.00  0.00     0.029 A 
ATOM      9  C7A BZF d   1      -5.308   5.091   2.038  0.00  0.00     0.058 A 
ENDROOT
TORSDOF 0
ENDMDL
