MODEL 1
REMARK minimizedAffinity 0.974802911
REMARK minimizedRMSD -1
REMARK  0 active torsions:
REMARK  status: ('A' for Active; 'I' for Inactive)
ROOT
ATOM      1  O1  BZF d   1      -5.668   5.982   4.241  0.00  0.00    -0.204 OA
ATOM      2  C2  BZF d   1      -5.743   4.983   5.192  0.00  0.00     0.174 A 
ATOM      3  C3  BZF d   1      -5.934   3.782   4.610  0.00  0.00    -0.012 A 
ATOM      4  C3A BZF d   1      -5.889   4.034   3.203  0.00  0.00    -0.107 A 
ATOM      5  C4  BZF d   1      -5.998   3.233   2.102  0.00  0.00     0.055 A 
ATOM      6  C5  BZF d   1      -5.983   3.802   0.868  0.00  0.00    -0.016 A 
ATOM      7  C6  BZF d   1      -5.865   5.166   0.698  0.00  0.00     0.022 A 
ATOM      8  C7  BZF d   1      -5.748   6.000   1.760  0.00  0.00     0.029 A 
ATOM      9  C7A BZF d   1      -5.730   5.425   3.007  0.00  0.00     0.058 A 
ENDROOT
TORSDOF 0
ENDMDL
