MODEL 1
REMARK minimizedAffinity -2.92533255
REMARK minimizedRMSD -1
REMARK  0 active torsions:
REMARK  status: ('A' for Active; 'I' for Inactive)
ROOT
ATOM      1  O1  BZF d   1      -4.733   4.142   1.827  0.00  0.00    -0.204 OA
ATOM      2  C2  BZF d   1      -5.362   5.144   1.113  0.00  0.00     0.174 A 
ATOM      3  C3  BZF d   1      -5.998   5.996   1.944  0.00  0.00    -0.012 A 
ATOM      4  C3A BZF d   1      -5.674   5.547   3.263  0.00  0.00    -0.107 A 
ATOM      5  C4  BZF d   1      -5.995   5.995   4.512  0.00  0.00     0.055 A 
ATOM      6  C5  BZF d   1      -5.577   5.289   5.595  0.00  0.00    -0.016 A 
ATOM      7  C6  BZF d   1      -4.842   4.129   5.466  0.00  0.00     0.022 A 
ATOM      8  C7  BZF d   1      -4.495   3.647   4.247  0.00  0.00     0.029 A 
ATOM      9  C7A BZF d   1      -4.888   4.377   3.152  0.00  0.00     0.058 A 
ENDROOT
TORSDOF 0
ENDMDL
