MODEL 1
REMARK minimizedAffinity -2.57048106
REMARK minimizedRMSD -1
REMARK  0 active torsions:
REMARK  status: ('A' for Active; 'I' for Inactive)
ROOT
ATOM      1  O1  BZF d   1      -5.055   4.857   5.375  0.00  0.00    -0.204 OA
ATOM      2  C2  BZF d   1      -5.207   3.565   5.839  0.00  0.00     0.174 A 
ATOM      3  C3  BZF d   1      -5.635   2.750   4.854  0.00  0.00    -0.012 A 
ATOM      4  C3A BZF d   1      -5.669   3.566   3.679  0.00  0.00    -0.107 A 
ATOM      5  C4  BZF d   1      -5.998   3.322   2.376  0.00  0.00     0.055 A 
ATOM      6  C5  BZF d   1      -5.997   4.353   1.491  0.00  0.00    -0.016 A 
ATOM      7  C6  BZF d   1      -5.679   5.640   1.875  0.00  0.00     0.022 A 
ATOM      8  C7  BZF d   1      -5.342   5.929   3.155  0.00  0.00     0.029 A 
ATOM      9  C7A BZF d   1      -5.309   4.883   4.045  0.00  0.00     0.058 A 
ENDROOT
TORSDOF 0
ENDMDL
