MODEL 1
REMARK minimizedAffinity 0.0774543583
REMARK minimizedRMSD -1
REMARK  0 active torsions:
REMARK  status: ('A' for Active; 'I' for Inactive)
ROOT
ATOM      1  O1  BZF d   1      -5.286   4.986   5.154  0.00  0.00    -0.204 OA
ATOM      2  C2  BZF d   1      -4.680   3.818   5.575  0.00  0.00     0.174 A 
ATOM      3  C3  BZF d   1      -4.475   2.984   4.535  0.00  0.00    -0.012 A 
ATOM      4  C3A BZF d   1      -4.900   3.712   3.379  0.00  0.00    -0.107 A 
ATOM      5  C4  BZF d   1      -4.928   3.423   2.045  0.00  0.00     0.055 A 
ATOM      6  C5  BZF d   1      -5.471   4.323   1.185  0.00  0.00    -0.016 A 
ATOM      7  C6  BZF d   1      -6.000   5.519   1.624  0.00  0.00     0.022 A 
ATOM      8  C7  BZF d   1      -5.990   5.853   2.938  0.00  0.00     0.029 A 
ATOM      9  C7A BZF d   1      -5.412   4.960   3.805  0.00  0.00     0.058 A 
ENDROOT
TORSDOF 0
ENDMDL
