MODEL 1
REMARK minimizedAffinity -2.69476342
REMARK minimizedRMSD -1
REMARK  0 active torsions:
REMARK  status: ('A' for Active; 'I' for Inactive)
ROOT
ATOM      1  O1  BZF d   1      -5.774   4.876   4.679  0.00  0.00    -0.204 OA
ATOM      2  C2  BZF d   1      -5.101   3.751   5.114  0.00  0.00     0.174 A 
ATOM      3  C3  BZF d   1      -4.472   3.143   4.087  0.00  0.00    -0.012 A 
ATOM      4  C3A BZF d   1      -4.695   3.990   2.955  0.00  0.00    -0.107 A 
ATOM      5  C4  BZF d   1      -4.308   3.930   1.647  0.00  0.00     0.055 A 
ATOM      6  C5  BZF d   1      -4.755   4.878   0.782  0.00  0.00    -0.016 A 
ATOM      7  C6  BZF d   1      -5.593   5.895   1.189  0.00  0.00     0.022 A 
ATOM      8  C7  BZF d   1      -6.000   5.999   2.477  0.00  0.00     0.029 A 
ATOM      9  C7A BZF d   1      -5.523   5.062   3.361  0.00  0.00     0.058 A 
ENDROOT
TORSDOF 0
ENDMDL
