MODEL 1
REMARK minimizedAffinity -1.86474371
REMARK minimizedRMSD -1
REMARK  0 active torsions:
REMARK  status: ('A' for Active; 'I' for Inactive)
ROOT
ATOM      1  O1  BZF d   1      -5.971   3.741   2.226  0.00  0.00    -0.204 OA
ATOM      2  C2  BZF d   1      -5.965   4.919   1.506  0.00  0.00     0.174 A 
ATOM      3  C3  BZF d   1      -6.000   5.985   2.332  0.00  0.00    -0.012 A 
ATOM      4  C3A BZF d   1      -5.936   5.439   3.653  0.00  0.00    -0.107 A 
ATOM      5  C4  BZF d   1      -5.917   5.997   4.899  0.00  0.00     0.055 A 
ATOM      6  C5  BZF d   1      -5.925   5.183   5.988  0.00  0.00    -0.016 A 
ATOM      7  C6  BZF d   1      -5.957   3.809   5.866  0.00  0.00     0.022 A 
ATOM      8  C7  BZF d   1      -5.970   3.210   4.651  0.00  0.00     0.029 A 
ATOM      9  C7A BZF d   1      -5.929   4.029   3.549  0.00  0.00     0.058 A 
ENDROOT
TORSDOF 0
ENDMDL
