MODEL 1
REMARK minimizedAffinity -0.673398137
REMARK minimizedRMSD -1
REMARK  0 active torsions:
REMARK  status: ('A' for Active; 'I' for Inactive)
ROOT
ATOM      1  O1  BZF d   1      -5.872   5.999   2.450  0.00  0.00    -0.204 OA
ATOM      2  C2  BZF d   1      -5.716   5.006   1.501  0.00  0.00     0.174 A 
ATOM      3  C3  BZF d   1      -5.573   3.801   2.089  0.00  0.00    -0.012 A 
ATOM      4  C3A BZF d   1      -5.737   4.043   3.489  0.00  0.00    -0.107 A 
ATOM      5  C4  BZF d   1      -5.718   3.236   4.590  0.00  0.00     0.055 A 
ATOM      6  C5  BZF d   1      -5.838   3.796   5.823  0.00  0.00    -0.016 A 
ATOM      7  C6  BZF d   1      -5.971   5.159   5.991  0.00  0.00     0.022 A 
ATOM      8  C7  BZF d   1      -6.000   6.000   4.929  0.00  0.00     0.029 A 
ATOM      9  C7A BZF d   1      -5.913   5.433   3.680  0.00  0.00     0.058 A 
ENDROOT
TORSDOF 0
ENDMDL
