MODEL 1
REMARK minimizedAffinity 1.86375463
REMARK minimizedRMSD -1
REMARK  0 active torsions:
REMARK  status: ('A' for Active; 'I' for Inactive)
ROOT
ATOM      1  O1  BZF d   1      -5.027   2.867   3.981  0.00  0.00    -0.204 OA
ATOM      2  C2  BZF d   1      -4.119   3.341   4.908  0.00  0.00     0.174 A 
ATOM      3  C3  BZF d   1      -3.661   4.558   4.551  0.00  0.00    -0.012 A 
ATOM      4  C3A BZF d   1      -4.393   4.904   3.371  0.00  0.00    -0.107 A 
ATOM      5  C4  BZF d   1      -4.397   5.999   2.556  0.00  0.00     0.055 A 
ATOM      6  C5  BZF d   1      -5.178   5.992   1.444  0.00  0.00    -0.016 A 
ATOM      7  C6  BZF d   1      -5.963   4.907   1.115  0.00  0.00     0.022 A 
ATOM      8  C7  BZF d   1      -5.997   3.800   1.895  0.00  0.00     0.029 A 
ATOM      9  C7A BZF d   1      -5.234   3.816   3.037  0.00  0.00     0.058 A 
ENDROOT
TORSDOF 0
ENDMDL
