MODEL 1
REMARK minimizedAffinity -3.65617967
REMARK minimizedRMSD -1
REMARK  0 active torsions:
REMARK  status: ('A' for Active; 'I' for Inactive)
ROOT
ATOM      1  O1  BZF d   1      -5.983   2.786   4.812  0.00  0.00    -0.204 OA
ATOM      2  C2  BZF d   1      -5.285   2.891   6.000  0.00  0.00     0.174 A 
ATOM      3  C3  BZF d   1      -4.415   3.921   5.954  0.00  0.00    -0.012 A 
ATOM      4  C3A BZF d   1      -4.645   4.552   4.691  0.00  0.00    -0.107 A 
ATOM      5  C4  BZF d   1      -4.099   5.640   4.072  0.00  0.00     0.055 A 
ATOM      6  C5  BZF d   1      -4.494   5.948   2.809  0.00  0.00    -0.016 A 
ATOM      7  C6  BZF d   1      -5.427   5.189   2.134  0.00  0.00     0.022 A 
ATOM      8  C7  BZF d   1      -6.000   4.103   2.709  0.00  0.00     0.029 A 
ATOM      9  C7A BZF d   1      -5.627   3.808   3.997  0.00  0.00     0.058 A 
ENDROOT
TORSDOF 0
ENDMDL
