MODEL 1
REMARK minimizedAffinity -2.9053936
REMARK minimizedRMSD -1
REMARK  0 active torsions:
REMARK  status: ('A' for Active; 'I' for Inactive)
ROOT
ATOM      1  O1  BZF d   1      -5.143   4.523   5.816  0.00  0.00    -0.204 OA
ATOM      2  C2  BZF d   1      -5.585   3.227   5.999  0.00  0.00     0.174 A 
ATOM      3  C3  BZF d   1      -5.997   2.693   4.831  0.00  0.00    -0.012 A 
ATOM      4  C3A BZF d   1      -5.715   3.688   3.842  0.00  0.00    -0.107 A 
ATOM      5  C4  BZF d   1      -5.884   3.740   2.488  0.00  0.00     0.055 A 
ATOM      6  C5  BZF d   1      -5.572   4.886   1.827  0.00  0.00    -0.016 A 
ATOM      7  C6  BZF d   1      -5.095   5.999   2.489  0.00  0.00     0.022 A 
ATOM      8  C7  BZF d   1      -4.906   5.993   3.831  0.00  0.00     0.029 A 
ATOM      9  C7A BZF d   1      -5.189   4.826   4.497  0.00  0.00     0.058 A 
ENDROOT
TORSDOF 0
ENDMDL
