MODEL 1
REMARK minimizedAffinity -3.94132566
REMARK minimizedRMSD -1
REMARK  0 active torsions:
REMARK  status: ('A' for Active; 'I' for Inactive)
ROOT
ATOM      1  O1  BZF d   1      -4.813   4.372   1.789  0.00  0.00    -0.204 OA
ATOM      2  C2  BZF d   1      -4.490   5.691   2.044  0.00  0.00     0.174 A 
ATOM      3  C3  BZF d   1      -4.716   5.997   3.338  0.00  0.00    -0.012 A 
ATOM      4  C3A BZF d   1      -5.123   4.770   3.950  0.00  0.00    -0.107 A 
ATOM      5  C4  BZF d   1      -5.471   4.427   5.225  0.00  0.00     0.055 A 
ATOM      6  C5  BZF d   1      -5.890   3.158   5.477  0.00  0.00    -0.016 A 
ATOM      7  C6  BZF d   1      -5.977   2.211   4.478  0.00  0.00     0.022 A 
ATOM      8  C7  BZF d   1      -5.638   2.503   3.199  0.00  0.00     0.029 A 
ATOM      9  C7A BZF d   1      -5.183   3.774   2.948  0.00  0.00     0.058 A 
ENDROOT
TORSDOF 0
ENDMDL
