MODEL 1
REMARK minimizedAffinity -2.39908218
REMARK minimizedRMSD -1
REMARK  0 active torsions:
REMARK  status: ('A' for Active; 'I' for Inactive)
ROOT
ATOM      1  O1  BZF d   1      -5.905   5.989   2.455  0.00  0.00    -0.204 OA
ATOM      2  C2  BZF d   1      -5.882   4.987   1.504  0.00  0.00     0.174 A 
ATOM      3  C3  BZF d   1      -5.848   3.772   2.089  0.00  0.00    -0.012 A 
ATOM      4  C3A BZF d   1      -5.943   4.029   3.493  0.00  0.00    -0.107 A 
ATOM      5  C4  BZF d   1      -5.977   3.222   4.595  0.00  0.00     0.055 A 
ATOM      6  C5  BZF d   1      -6.000   3.790   5.829  0.00  0.00    -0.016 A 
ATOM      7  C6  BZF d   1      -5.985   5.159   5.999  0.00  0.00     0.022 A 
ATOM      8  C7  BZF d   1      -5.957   6.000   4.936  0.00  0.00     0.029 A 
ATOM      9  C7A BZF d   1      -5.967   5.429   3.687  0.00  0.00     0.058 A 
ENDROOT
TORSDOF 0
ENDMDL
