MODEL 1
REMARK minimizedAffinity -3.3372376
REMARK minimizedRMSD -1
REMARK  0 active torsions:
REMARK  status: ('A' for Active; 'I' for Inactive)
ROOT
ATOM      1  O1  BZF d   1      -5.532   5.095   5.504  0.00  0.00    -0.204 OA
ATOM      2  C2  BZF d   1      -5.203   3.847   5.999  0.00  0.00     0.174 A 
ATOM      3  C3  BZF d   1      -5.085   2.951   4.998  0.00  0.00    -0.012 A 
ATOM      4  C3A BZF d   1      -5.266   3.705   3.795  0.00  0.00    -0.107 A 
ATOM      5  C4  BZF d   1      -5.245   3.376   2.469  0.00  0.00     0.055 A 
ATOM      6  C5  BZF d   1      -5.532   4.333   1.548  0.00  0.00    -0.016 A 
ATOM      7  C6  BZF d   1      -5.847   5.624   1.916  0.00  0.00     0.022 A 
ATOM      8  C7  BZF d   1      -5.875   5.999   3.218  0.00  0.00     0.029 A 
ATOM      9  C7A BZF d   1      -5.554   5.043   4.150  0.00  0.00     0.058 A 
ENDROOT
TORSDOF 0
ENDMDL
