MODEL 1
REMARK minimizedAffinity -3.52910256
REMARK minimizedRMSD -1
REMARK  0 active torsions:
REMARK  status: ('A' for Active; 'I' for Inactive)
ROOT
ATOM      1  O1  BZF d   1      -4.663   5.986   2.374  0.00  0.00    -0.204 OA
ATOM      2  C2  BZF d   1      -5.251   5.118   1.474  0.00  0.00     0.174 A 
ATOM      3  C3  BZF d   1      -5.763   4.044   2.111  0.00  0.00    -0.012 A 
ATOM      4  C3A BZF d   1      -5.558   4.299   3.503  0.00  0.00    -0.107 A 
ATOM      5  C4  BZF d   1      -5.865   3.607   4.640  0.00  0.00     0.055 A 
ATOM      6  C5  BZF d   1      -5.461   4.097   5.841  0.00  0.00    -0.016 A 
ATOM      7  C6  BZF d   1      -4.745   5.272   5.943  0.00  0.00     0.022 A 
ATOM      8  C7  BZF d   1      -4.421   5.996   4.844  0.00  0.00     0.029 A 
ATOM      9  C7A BZF d   1      -4.856   5.521   3.631  0.00  0.00     0.058 A 
ENDROOT
TORSDOF 0
ENDMDL
