MODEL 1
REMARK minimizedAffinity -1.55401337
REMARK minimizedRMSD -1
REMARK  0 active torsions:
REMARK  status: ('A' for Active; 'I' for Inactive)
ROOT
ATOM      1  O1  BZF d   1      -4.498   2.246   3.928  0.00  0.00    -0.204 OA
ATOM      2  C2  BZF d   1      -4.761   1.944   5.250  0.00  0.00     0.174 A 
ATOM      3  C3  BZF d   1      -5.312   3.001   5.881  0.00  0.00    -0.012 A 
ATOM      4  C3A BZF d   1      -5.485   3.996   4.868  0.00  0.00    -0.107 A 
ATOM      5  C4  BZF d   1      -5.999   5.261   4.873  0.00  0.00     0.055 A 
ATOM      6  C5  BZF d   1      -5.954   5.997   3.732  0.00  0.00    -0.016 A 
ATOM      7  C6  BZF d   1      -5.399   5.502   2.570  0.00  0.00     0.022 A 
ATOM      8  C7  BZF d   1      -4.881   4.250   2.515  0.00  0.00     0.029 A 
ATOM      9  C7A BZF d   1      -4.954   3.493   3.658  0.00  0.00     0.058 A 
ENDROOT
TORSDOF 0
ENDMDL
