MODEL 1
REMARK minimizedAffinity -2.19107795
REMARK minimizedRMSD -1
REMARK  0 active torsions:
REMARK  status: ('A' for Active; 'I' for Inactive)
ROOT
ATOM      1  O1  BZF d   1       0.878  -0.799  -0.104  0.00  0.00    -0.204 OA
ATOM      2  C2  BZF d   1       0.702  -0.153  -1.312  0.00  0.00     0.174 A 
ATOM      3  C3  BZF d   1      -0.600  -0.138  -1.662  0.00  0.00    -0.012 A 
ATOM      4  C3A BZF d   1      -1.292  -0.737  -0.562  0.00  0.00    -0.107 A 
ATOM      5  C4  BZF d   1      -2.609  -0.993  -0.309  0.00  0.00     0.055 A 
ATOM      6  C5  BZF d   1      -2.946  -1.657   0.828  0.00  0.00    -0.016 A 
ATOM      7  C6  BZF d   1      -1.993  -2.084   1.729  0.00  0.00     0.022 A 
ATOM      8  C7  BZF d   1      -0.674  -1.849   1.523  0.00  0.00     0.029 A 
ATOM      9  C7A BZF d   1      -0.333  -1.149   0.392  0.00  0.00     0.058 A 
ENDROOT
TORSDOF 0
ENDMDL
