MODEL 1
REMARK minimizedAffinity -3.18400407
REMARK minimizedRMSD -1
REMARK  0 active torsions:
REMARK  status: ('A' for Active; 'I' for Inactive)
ROOT
ATOM      1  O1  BZF d   1      -5.946   5.607   2.407  0.00  0.00    -0.204 OA
ATOM      2  C2  BZF d   1      -5.997   4.482   1.608  0.00  0.00     0.174 A 
ATOM      3  C3  BZF d   1      -5.753   3.370   2.331  0.00  0.00    -0.012 A 
ATOM      4  C3A BZF d   1      -5.627   3.820   3.683  0.00  0.00    -0.107 A 
ATOM      5  C4  BZF d   1      -5.397   3.182   4.868  0.00  0.00     0.055 A 
ATOM      6  C5  BZF d   1      -5.258   3.920   6.000  0.00  0.00    -0.016 A 
ATOM      7  C6  BZF d   1      -5.338   5.297   5.983  0.00  0.00     0.022 A 
ATOM      8  C7  BZF d   1      -5.570   5.975   4.833  0.00  0.00     0.029 A 
ATOM      9  C7A BZF d   1      -5.744   5.229   3.692  0.00  0.00     0.058 A 
ENDROOT
TORSDOF 0
ENDMDL
