MODEL 1
REMARK minimizedAffinity 13.5439863
REMARK minimizedRMSD -1
REMARK  3 active torsions:
REMARK  status: ('A' for Active; 'I' for Inactive)
REMARK    1  A    between atoms: C3'_2  and  C2'_3 
REMARK    2  A    between atoms: C2'_3  and  C1'_4 
REMARK    3  A    between atoms: C1'_4  and  C1_5 
ROOT
ATOM      1  C1  N4B d   1       1.430  -3.372  -3.402  0.00  0.00    -0.075 A 
ATOM      2  C2  N4B d   1       2.691  -3.856  -3.816  0.00  0.00     0.002 A 
ATOM      3  C3  N4B d   1       2.870  -4.287  -5.107  0.00  0.00     0.002 A 
ATOM      4  C4  N4B d   1       1.804  -4.262  -5.993  0.00  0.00    -0.004 A 
ATOM      5  C5  N4B d   1       0.596  -3.770  -5.592  0.00  0.00     0.002 A 
ATOM      6  C6  N4B d   1       0.402  -3.330  -4.298  0.00  0.00     0.002 A 
ENDROOT
BRANCH   1   7
ATOM      7  C1' N4B d   1       1.163  -2.971  -1.977  0.00  0.00     0.057 C 
BRANCH   7   8
ATOM      8  C2' N4B d   1       1.612  -4.094  -1.047  0.00  0.00     0.009 C 
BRANCH   8   9
ATOM      9  C3' N4B d   1       1.472  -3.710   0.416  0.00  0.00     0.004 C 
ATOM     10  C4' N4B d   1       2.272  -2.494   0.777  0.00  0.00     0.003 C 
ENDBRANCH   8   9
ENDBRANCH   7   8
ENDBRANCH   1   7
TORSDOF 3
ENDMDL
