MODEL 1
REMARK minimizedAffinity 6.96968079
REMARK minimizedRMSD -1
REMARK  3 active torsions:
REMARK  status: ('A' for Active; 'I' for Inactive)
REMARK    1  A    between atoms: C3'_2  and  C2'_3 
REMARK    2  A    between atoms: C2'_3  and  C1'_4 
REMARK    3  A    between atoms: C1'_4  and  C1_5 
ROOT
ATOM      1  C1  N4B d   1      -0.785   2.717   1.593  0.00  0.00    -0.075 A 
ATOM      2  C2  N4B d   1       0.347   2.406   2.377  0.00  0.00     0.002 A 
ATOM      3  C3  N4B d   1       0.225   1.565   3.457  0.00  0.00     0.002 A 
ATOM      4  C4  N4B d   1      -1.017   1.041   3.780  0.00  0.00    -0.004 A 
ATOM      5  C5  N4B d   1      -2.101   1.326   3.002  0.00  0.00     0.002 A 
ATOM      6  C6  N4B d   1      -1.992   2.166   1.912  0.00  0.00     0.002 A 
ENDROOT
BRANCH   1   7
ATOM      7  C1' N4B d   1      -0.718   3.698   0.455  0.00  0.00     0.057 C 
BRANCH   7   8
ATOM      8  C2' N4B d   1       0.004   3.050  -0.723  0.00  0.00     0.009 C 
BRANCH   8   9
ATOM      9  C3' N4B d   1      -0.276   3.775  -2.029  0.00  0.00     0.004 C 
ATOM     10  C4' N4B d   1      -1.304   3.081  -2.870  0.00  0.00     0.003 C 
ENDBRANCH   8   9
ENDBRANCH   7   8
ENDBRANCH   1   7
TORSDOF 3
ENDMDL
