MODEL 1
REMARK minimizedAffinity 6.2443614
REMARK minimizedRMSD -1
REMARK  3 active torsions:
REMARK  status: ('A' for Active; 'I' for Inactive)
REMARK    1  A    between atoms: C3'_2  and  C2'_3 
REMARK    2  A    between atoms: C2'_3  and  C1'_4 
REMARK    3  A    between atoms: C1'_4  and  C1_5 
ROOT
ATOM      1  C1  N4B d   1      -0.741   2.481   1.235  0.00  0.00    -0.075 A 
ATOM      2  C2  N4B d   1       0.415   2.268   0.453  0.00  0.00     0.002 A 
ATOM      3  C3  N4B d   1       0.527   2.857  -0.783  0.00  0.00     0.002 A 
ATOM      4  C4  N4B d   1      -0.509   3.645  -1.263  0.00  0.00    -0.004 A 
ATOM      5  C5  N4B d   1      -1.611   3.867  -0.490  0.00  0.00     0.002 A 
ATOM      6  C6  N4B d   1      -1.734   3.284   0.755  0.00  0.00     0.002 A 
ENDROOT
BRANCH   1   7
ATOM      7  C1' N4B d   1      -0.945   1.789   2.555  0.00  0.00     0.057 C 
BRANCH   7   8
ATOM      8  C2' N4B d   1       0.395   1.258   3.055  0.00  0.00     0.009 C 
BRANCH   8   9
ATOM      9  C3' N4B d   1       1.022   2.179   4.088  0.00  0.00     0.004 C 
ATOM     10  C4' N4B d   1       0.096   2.491   5.225  0.00  0.00     0.003 C 
ENDBRANCH   8   9
ENDBRANCH   7   8
ENDBRANCH   1   7
TORSDOF 3
ENDMDL
