MODEL 1
REMARK minimizedAffinity 5.04380846
REMARK minimizedRMSD -1
REMARK  3 active torsions:
REMARK  status: ('A' for Active; 'I' for Inactive)
REMARK    1  A    between atoms: C3'_2  and  C2'_3 
REMARK    2  A    between atoms: C2'_3  and  C1'_4 
REMARK    3  A    between atoms: C1'_4  and  C1_5 
ROOT
ATOM      1  C1  N4B d   1      -2.256   2.536   1.123  0.00  0.00    -0.075 A 
ATOM      2  C2  N4B d   1      -1.423   2.588   2.262  0.00  0.00     0.002 A 
ATOM      3  C3  N4B d   1      -0.171   2.026   2.223  0.00  0.00     0.002 A 
ATOM      4  C4  N4B d   1       0.261   1.392   1.067  0.00  0.00    -0.004 A 
ATOM      5  C5  N4B d   1      -0.541   1.368  -0.037  0.00  0.00     0.002 A 
ATOM      6  C6  N4B d   1      -1.800   1.933  -0.013  0.00  0.00     0.002 A 
ENDROOT
BRANCH   1   7
ATOM      7  C1' N4B d   1      -3.665   3.062   1.146  0.00  0.00     0.057 C 
BRANCH   7   8
ATOM      8  C2' N4B d   1      -3.765   4.269   0.218  0.00  0.00     0.009 C 
BRANCH   8   9
ATOM      9  C3' N4B d   1      -4.451   5.446   0.889  0.00  0.00     0.004 C 
ATOM     10  C4' N4B d   1      -5.583   6.000   0.076  0.00  0.00     0.003 C 
ENDBRANCH   8   9
ENDBRANCH   7   8
ENDBRANCH   1   7
TORSDOF 3
ENDMDL
