MODEL 1
REMARK minimizedAffinity 3.63772941
REMARK minimizedRMSD -1
REMARK  0 active torsions:
REMARK  status: ('A' for Active; 'I' for Inactive)
ROOT
ATOM      1  C   UNL d   1       4.116  -4.211  -1.342  0.00  0.00     0.078 C 
ATOM      2  C1  UNL d   1       3.044  -3.181  -1.536  0.00  0.00    -0.077 A 
ATOM      3  C2  UNL d   1       2.063  -3.338  -2.523  0.00  0.00    -0.001 A 
ATOM      4  C3  UNL d   1       1.076  -2.366  -2.699  0.00  0.00     0.003 A 
ATOM      5  C4  UNL d   1       1.063  -1.229  -1.893  0.00  0.00    -0.005 A 
ATOM      6  C5  UNL d   1       2.037  -1.063  -0.911  0.00  0.00     0.003 A 
ATOM      7  C6  UNL d   1       3.024  -2.033  -0.733  0.00  0.00    -0.001 A 
ENDROOT
TORSDOF 0
ENDMDL
