MODEL 1
REMARK minimizedAffinity 3.98159504
REMARK minimizedRMSD -1
REMARK  0 active torsions:
REMARK  status: ('A' for Active; 'I' for Inactive)
ROOT
ATOM      1  C   UNL d   1      -0.276  -4.162  -2.630  0.00  0.00     0.078 C 
ATOM      2  C1  UNL d   1       0.849  -3.482  -1.908  0.00  0.00    -0.077 A 
ATOM      3  C2  UNL d   1       0.937  -2.086  -1.861  0.00  0.00    -0.001 A 
ATOM      4  C3  UNL d   1       1.995  -1.467  -1.194  0.00  0.00     0.003 A 
ATOM      5  C4  UNL d   1       2.975  -2.236  -0.570  0.00  0.00    -0.005 A 
ATOM      6  C5  UNL d   1       2.897  -3.627  -0.613  0.00  0.00     0.003 A 
ATOM      7  C6  UNL d   1       1.840  -4.248  -1.280  0.00  0.00    -0.001 A 
ENDROOT
TORSDOF 0
ENDMDL
