MODEL 1
REMARK minimizedAffinity 3.76703882
REMARK minimizedRMSD -1
REMARK  0 active torsions:
REMARK  status: ('A' for Active; 'I' for Inactive)
ROOT
ATOM      1  C   UNL d   1       3.761   0.616  -1.376  0.00  0.00     0.078 C 
ATOM      2  C1  UNL d   1       3.044  -0.699  -1.297  0.00  0.00    -0.077 A 
ATOM      3  C2  UNL d   1       1.646  -0.760  -1.309  0.00  0.00    -0.001 A 
ATOM      4  C3  UNL d   1       0.992  -1.990  -1.225  0.00  0.00     0.003 A 
ATOM      5  C4  UNL d   1       1.729  -3.169  -1.126  0.00  0.00    -0.005 A 
ATOM      6  C5  UNL d   1       3.121  -3.118  -1.111  0.00  0.00     0.003 A 
ATOM      7  C6  UNL d   1       3.776  -1.889  -1.195  0.00  0.00    -0.001 A 
ENDROOT
TORSDOF 0
ENDMDL
