MODEL 1
REMARK minimizedAffinity 3.68513727
REMARK minimizedRMSD -1
REMARK  0 active torsions:
REMARK  status: ('A' for Active; 'I' for Inactive)
ROOT
ATOM      1  C   UNL d   1       2.889  -4.272  -0.205  0.00  0.00     0.078 C 
ATOM      2  C1  UNL d   1       2.788  -2.818  -0.554  0.00  0.00    -0.077 A 
ATOM      3  C2  UNL d   1       3.772  -1.908  -0.149  0.00  0.00    -0.001 A 
ATOM      4  C3  UNL d   1       3.660  -0.555  -0.473  0.00  0.00     0.003 A 
ATOM      5  C4  UNL d   1       2.565  -0.099  -1.204  0.00  0.00    -0.005 A 
ATOM      6  C5  UNL d   1       1.579  -0.996  -1.610  0.00  0.00     0.003 A 
ATOM      7  C6  UNL d   1       1.689  -2.350  -1.286  0.00  0.00    -0.001 A 
ENDROOT
TORSDOF 0
ENDMDL
