MODEL 1
REMARK minimizedAffinity 8.6941967
REMARK minimizedRMSD -1
REMARK  0 active torsions:
REMARK  status: ('A' for Active; 'I' for Inactive)
ROOT
ATOM      1  C   UNL d   1       4.783  -4.784  -4.851  0.00  0.00     0.078 C 
ATOM      2  C1  UNL d   1       3.786  -3.665  -4.835  0.00  0.00    -0.077 A 
ATOM      3  C2  UNL d   1       3.072  -3.351  -3.671  0.00  0.00    -0.001 A 
ATOM      4  C3  UNL d   1       2.139  -2.313  -3.673  0.00  0.00     0.003 A 
ATOM      5  C4  UNL d   1       1.911  -1.580  -4.836  0.00  0.00    -0.005 A 
ATOM      6  C5  UNL d   1       2.614  -1.886  -5.999  0.00  0.00     0.003 A 
ATOM      7  C6  UNL d   1       3.547  -2.924  -5.999  0.00  0.00    -0.001 A 
ENDROOT
TORSDOF 0
ENDMDL
