MODEL 1
REMARK minimizedAffinity 5.82166243
REMARK minimizedRMSD -1
REMARK  0 active torsions:
REMARK  status: ('A' for Active; 'I' for Inactive)
ROOT
ATOM      1  C   UNL d   1       3.088  -2.551  -0.521  0.00  0.00     0.078 C 
ATOM      2  C1  UNL d   1       2.592  -1.337  -1.247  0.00  0.00    -0.077 A 
ATOM      3  C2  UNL d   1       2.842  -0.050  -0.755  0.00  0.00    -0.001 A 
ATOM      4  C3  UNL d   1       2.365   1.071  -1.436  0.00  0.00     0.003 A 
ATOM      5  C4  UNL d   1       1.634   0.917  -2.613  0.00  0.00    -0.005 A 
ATOM      6  C5  UNL d   1       1.379  -0.360  -3.109  0.00  0.00     0.003 A 
ATOM      7  C6  UNL d   1       1.854  -1.482  -2.429  0.00  0.00    -0.001 A 
ENDROOT
TORSDOF 0
ENDMDL
