MODEL 1
REMARK minimizedAffinity 7.8772788
REMARK minimizedRMSD -1
REMARK  0 active torsions:
REMARK  status: ('A' for Active; 'I' for Inactive)
ROOT
ATOM      1  C   UNL d   1       2.580  -2.598  -0.496  0.00  0.00     0.078 C 
ATOM      2  C1  UNL d   1       2.349  -1.268  -1.150  0.00  0.00    -0.077 A 
ATOM      3  C2  UNL d   1       2.795  -0.083  -0.551  0.00  0.00    -0.001 A 
ATOM      4  C3  UNL d   1       2.565   1.148  -1.166  0.00  0.00     0.003 A 
ATOM      5  C4  UNL d   1       1.887   1.207  -2.382  0.00  0.00    -0.005 A 
ATOM      6  C5  UNL d   1       1.437   0.034  -2.984  0.00  0.00     0.003 A 
ATOM      7  C6  UNL d   1       1.666  -1.199  -2.370  0.00  0.00    -0.001 A 
ENDROOT
TORSDOF 0
ENDMDL
