MODEL 1
REMARK minimizedAffinity 0.177825183
REMARK minimizedRMSD -1
REMARK  0 active torsions:
REMARK  status: ('A' for Active; 'I' for Inactive)
ROOT
ATOM      1  C   UNL d   1      -4.841  -1.497   2.100  0.00  0.00     0.078 C 
ATOM      2  C1  UNL d   1      -3.690  -0.558   2.305  0.00  0.00    -0.077 A 
ATOM      3  C2  UNL d   1      -2.420  -0.852   1.794  0.00  0.00    -0.001 A 
ATOM      4  C3  UNL d   1      -1.356   0.027   2.000  0.00  0.00     0.003 A 
ATOM      5  C4  UNL d   1      -1.550   1.204   2.720  0.00  0.00    -0.005 A 
ATOM      6  C5  UNL d   1      -2.809   1.504   3.234  0.00  0.00     0.003 A 
ATOM      7  C6  UNL d   1      -3.875   0.627   3.028  0.00  0.00    -0.001 A 
ENDROOT
TORSDOF 0
ENDMDL
