MODEL 1
REMARK minimizedAffinity 3.57125878
REMARK minimizedRMSD -1
REMARK  0 active torsions:
REMARK  status: ('A' for Active; 'I' for Inactive)
ROOT
ATOM      1  C   UNL d   1      -0.713  -1.881   1.156  0.00  0.00     0.078 C 
ATOM      2  C1  UNL d   1       0.349  -2.422   0.246  0.00  0.00    -0.077 A 
ATOM      3  C2  UNL d   1       1.140  -3.513   0.628  0.00  0.00    -0.001 A 
ATOM      4  C3  UNL d   1       2.131  -3.999  -0.225  0.00  0.00     0.003 A 
ATOM      5  C4  UNL d   1       2.342  -3.401  -1.466  0.00  0.00    -0.005 A 
ATOM      6  C5  UNL d   1       1.562  -2.313  -1.854  0.00  0.00     0.003 A 
ATOM      7  C6  UNL d   1       0.570  -1.825  -1.002  0.00  0.00    -0.001 A 
ENDROOT
TORSDOF 0
ENDMDL
