MODEL 1
REMARK minimizedAffinity 1.00353515
REMARK minimizedRMSD -1
REMARK  0 active torsions:
REMARK  status: ('A' for Active; 'I' for Inactive)
ROOT
ATOM      1  C   UNL d   1      -5.685  -1.977  -5.983  0.00  0.00     0.078 C 
ATOM      2  C1  UNL d   1      -4.768  -3.164  -5.995  0.00  0.00    -0.077 A 
ATOM      3  C2  UNL d   1      -5.276  -4.468  -5.998  0.00  0.00    -0.001 A 
ATOM      4  C3  UNL d   1      -4.411  -5.563  -6.000  0.00  0.00     0.003 A 
ATOM      5  C4  UNL d   1      -3.031  -5.365  -5.997  0.00  0.00    -0.005 A 
ATOM      6  C5  UNL d   1      -2.516  -4.070  -5.992  0.00  0.00     0.003 A 
ATOM      7  C6  UNL d   1      -3.380  -2.974  -5.990  0.00  0.00    -0.001 A 
ENDROOT
TORSDOF 0
ENDMDL
