MODEL 1
REMARK minimizedAffinity 5.79525423
REMARK minimizedRMSD -1
REMARK  0 active torsions:
REMARK  status: ('A' for Active; 'I' for Inactive)
ROOT
ATOM      1  C   UNL d   1       1.544   0.056  -4.639  0.00  0.00     0.078 C 
ATOM      2  C1  UNL d   1       1.881   0.053  -3.178  0.00  0.00    -0.077 A 
ATOM      3  C2  UNL d   1       1.786  -1.119  -2.417  0.00  0.00    -0.001 A 
ATOM      4  C3  UNL d   1       2.093  -1.104  -1.056  0.00  0.00     0.003 A 
ATOM      5  C4  UNL d   1       2.496   0.080  -0.442  0.00  0.00    -0.005 A 
ATOM      6  C5  UNL d   1       2.592   1.252  -1.190  0.00  0.00     0.003 A 
ATOM      7  C6  UNL d   1       2.285   1.239  -2.552  0.00  0.00    -0.001 A 
ENDROOT
TORSDOF 0
ENDMDL
