MODEL 1
REMARK minimizedAffinity 5.16404963
REMARK minimizedRMSD -1
REMARK  0 active torsions:
REMARK  status: ('A' for Active; 'I' for Inactive)
ROOT
ATOM      1  C   UNL d   1       0.741  -1.467  -2.362  0.00  0.00     0.078 C 
ATOM      2  C1  UNL d   1       1.501  -1.701  -3.632  0.00  0.00    -0.077 A 
ATOM      3  C2  UNL d   1       1.132  -1.062  -4.822  0.00  0.00    -0.001 A 
ATOM      4  C3  UNL d   1       1.844  -1.297  -6.000  0.00  0.00     0.003 A 
ATOM      5  C4  UNL d   1       2.928  -2.172  -6.000  0.00  0.00    -0.005 A 
ATOM      6  C5  UNL d   1       3.301  -2.815  -4.821  0.00  0.00     0.003 A 
ATOM      7  C6  UNL d   1       2.591  -2.582  -3.643  0.00  0.00    -0.001 A 
ENDROOT
TORSDOF 0
ENDMDL
