MODEL 1
REMARK minimizedAffinity 0.367945641
REMARK minimizedRMSD -1
REMARK  0 active torsions:
REMARK  status: ('A' for Active; 'I' for Inactive)
ROOT
ATOM      1  C   UNL d   1      -1.546  -3.062  -2.337  0.00  0.00     0.078 C 
ATOM      2  C1  UNL d   1      -0.150  -2.651  -1.972  0.00  0.00    -0.077 A 
ATOM      3  C2  UNL d   1       0.380  -2.941  -0.709  0.00  0.00    -0.001 A 
ATOM      4  C3  UNL d   1       1.677  -2.543  -0.380  0.00  0.00     0.003 A 
ATOM      5  C4  UNL d   1       2.454  -1.853  -1.308  0.00  0.00    -0.005 A 
ATOM      6  C5  UNL d   1       1.934  -1.558  -2.567  0.00  0.00     0.003 A 
ATOM      7  C6  UNL d   1       0.637  -1.955  -2.898  0.00  0.00    -0.001 A 
ENDROOT
TORSDOF 0
ENDMDL
