MODEL 1
REMARK minimizedAffinity 5.97087288
REMARK minimizedRMSD -1
REMARK  0 active torsions:
REMARK  status: ('A' for Active; 'I' for Inactive)
ROOT
ATOM      1  C   UNL d   1      -4.909   2.206   5.001  0.00  0.00     0.078 C 
ATOM      2  C1  UNL d   1      -4.400   1.229   3.983  0.00  0.00    -0.077 A 
ATOM      3  C2  UNL d   1      -3.121   1.365   3.430  0.00  0.00    -0.001 A 
ATOM      4  C3  UNL d   1      -2.664   0.454   2.477  0.00  0.00     0.003 A 
ATOM      5  C4  UNL d   1      -3.480  -0.599   2.068  0.00  0.00    -0.005 A 
ATOM      6  C5  UNL d   1      -4.755  -0.741   2.611  0.00  0.00     0.003 A 
ATOM      7  C6  UNL d   1      -5.214   0.169   3.564  0.00  0.00    -0.001 A 
ENDROOT
TORSDOF 0
ENDMDL
