MODEL 1
REMARK minimizedAffinity -0.607940793
REMARK minimizedRMSD -1
REMARK  0 active torsions:
REMARK  status: ('A' for Active; 'I' for Inactive)
ROOT
ATOM      1  C   UNL d   1       4.460   4.496  -5.399  0.00  0.00     0.020 A 
ATOM      2  C1  UNL d   1       5.522   5.398  -5.336  0.00  0.00     0.020 A 
ATOM      3  C2  UNL d   1       5.982   5.850  -4.097  0.00  0.00     0.034 A 
ATOM      4  C3  UNL d   1       5.379   5.400  -2.917  0.00  0.00     0.017 A 
ATOM      5  C4  UNL d   1       4.314   4.495  -2.981  0.00  0.00     0.017 A 
ATOM      6  C5  UNL d   1       3.857   4.046  -4.224  0.00  0.00     0.034 A 
ATOM      7 Cl   UNL d   1       3.520   3.895  -1.568  0.00  0.00    -0.070 Cl
ATOM      8 Cl1  UNL d   1       5.999   6.000  -1.420  0.00  0.00    -0.070 Cl
ENDROOT
TORSDOF 0
ENDMDL
