MODEL 1
REMARK minimizedAffinity 5.7240696
REMARK minimizedRMSD -1
REMARK  0 active torsions:
REMARK  status: ('A' for Active; 'I' for Inactive)
ROOT
ATOM      1  C   UNL d   1       6.000   6.000  -2.736  0.00  0.00     0.020 A 
ATOM      2  C1  UNL d   1       5.916   5.530  -4.046  0.00  0.00     0.020 A 
ATOM      3  C2  UNL d   1       4.843   4.723  -4.432  0.00  0.00     0.034 A 
ATOM      4  C3  UNL d   1       3.850   4.384  -3.506  0.00  0.00     0.017 A 
ATOM      5  C4  UNL d   1       3.935   4.856  -2.191  0.00  0.00     0.017 A 
ATOM      6  C5  UNL d   1       5.011   5.663  -1.811  0.00  0.00     0.034 A 
ATOM      7 Cl   UNL d   1       2.748   4.479  -0.993  0.00  0.00    -0.070 Cl
ATOM      8 Cl1  UNL d   1       2.552   3.383  -4.052  0.00  0.00    -0.070 Cl
ENDROOT
TORSDOF 0
ENDMDL
