MODEL 1
REMARK minimizedAffinity 3.36163354
REMARK minimizedRMSD -1
REMARK  0 active torsions:
REMARK  status: ('A' for Active; 'I' for Inactive)
ROOT
ATOM      1  C   UNL d   1       4.516   3.916  -4.977  0.00  0.00     0.020 A 
ATOM      2  C1  UNL d   1       5.664   4.704  -4.904  0.00  0.00     0.020 A 
ATOM      3  C2  UNL d   1       5.999   5.339  -3.706  0.00  0.00     0.034 A 
ATOM      4  C3  UNL d   1       5.187   5.186  -2.577  0.00  0.00     0.017 A 
ATOM      5  C4  UNL d   1       4.035   4.395  -2.651  0.00  0.00     0.017 A 
ATOM      6  C5  UNL d   1       3.703   3.762  -3.853  0.00  0.00     0.034 A 
ATOM      7 Cl   UNL d   1       2.983   4.159  -1.300  0.00  0.00    -0.070 Cl
ATOM      8 Cl1  UNL d   1       5.663   5.999  -1.128  0.00  0.00    -0.070 Cl
ENDROOT
TORSDOF 0
ENDMDL
