MODEL 1
REMARK minimizedAffinity 0.588775337
REMARK minimizedRMSD -1
REMARK  0 active torsions:
REMARK  status: ('A' for Active; 'I' for Inactive)
ROOT
ATOM      1  C   UNL d   1       6.000   5.428  -3.614  0.00  0.00     0.020 A 
ATOM      2  C1  UNL d   1       5.851   6.000  -2.351  0.00  0.00     0.020 A 
ATOM      3  C2  UNL d   1       4.690   5.766  -1.611  0.00  0.00     0.034 A 
ATOM      4  C3  UNL d   1       3.673   4.958  -2.134  0.00  0.00     0.017 A 
ATOM      5  C4  UNL d   1       3.824   4.384  -3.402  0.00  0.00     0.017 A 
ATOM      6  C5  UNL d   1       4.989   4.622  -4.138  0.00  0.00     0.034 A 
ATOM      7 Cl   UNL d   1       2.613   3.377  -4.113  0.00  0.00    -0.070 Cl
ATOM      8 Cl1  UNL d   1       2.264   4.711  -1.164  0.00  0.00    -0.070 Cl
ENDROOT
TORSDOF 0
ENDMDL
