MODEL 1
REMARK minimizedAffinity 5.09307289
REMARK minimizedRMSD -1
REMARK  0 active torsions:
REMARK  status: ('A' for Active; 'I' for Inactive)
ROOT
ATOM      1  C   UNL d   1       4.282   4.931  -5.034  0.00  0.00     0.020 A 
ATOM      2  C1  UNL d   1       5.488   5.617  -4.901  0.00  0.00     0.020 A 
ATOM      3  C2  UNL d   1       5.999   5.892  -3.631  0.00  0.00     0.034 A 
ATOM      4  C3  UNL d   1       5.303   5.482  -2.488  0.00  0.00     0.017 A 
ATOM      5  C4  UNL d   1       4.091   4.793  -2.623  0.00  0.00     0.017 A 
ATOM      6  C5  UNL d   1       3.585   4.520  -3.897  0.00  0.00     0.034 A 
ATOM      7 Cl   UNL d   1       3.175   4.254  -1.260  0.00  0.00    -0.070 Cl
ATOM      8 Cl1  UNL d   1       5.993   5.855  -0.949  0.00  0.00    -0.070 Cl
ENDROOT
TORSDOF 0
ENDMDL
