MODEL 1
REMARK minimizedAffinity -0.995611787
REMARK minimizedRMSD -1
REMARK  0 active torsions:
REMARK  status: ('A' for Active; 'I' for Inactive)
ROOT
ATOM      1  C   UNL d   1       4.481   3.778  -5.300  0.00  0.00     0.020 A 
ATOM      2  C1  UNL d   1       5.627   4.571  -5.292  0.00  0.00     0.020 A 
ATOM      3  C2  UNL d   1       6.000   5.249  -4.129  0.00  0.00     0.034 A 
ATOM      4  C3  UNL d   1       5.225   5.134  -2.969  0.00  0.00     0.017 A 
ATOM      5  C4  UNL d   1       4.075   4.338  -2.978  0.00  0.00     0.017 A 
ATOM      6  C5  UNL d   1       3.706   3.661  -4.145  0.00  0.00     0.034 A 
ATOM      7 Cl   UNL d   1       3.069   4.147  -1.585  0.00  0.00    -0.070 Cl
ATOM      8 Cl1  UNL d   1       5.746   6.000  -1.567  0.00  0.00    -0.070 Cl
ENDROOT
TORSDOF 0
ENDMDL
