MODEL 1
REMARK minimizedAffinity -1.58497107
REMARK minimizedRMSD -1
REMARK  0 active torsions:
REMARK  status: ('A' for Active; 'I' for Inactive)
ROOT
ATOM      1  C   UNL d   1       4.186   4.586  -4.854  0.00  0.00     0.020 A 
ATOM      2  C1  UNL d   1       5.461   5.149  -4.817  0.00  0.00     0.020 A 
ATOM      3  C2  UNL d   1       6.000   5.579  -3.603  0.00  0.00     0.034 A 
ATOM      4  C3  UNL d   1       5.263   5.447  -2.420  0.00  0.00     0.017 A 
ATOM      5  C4  UNL d   1       3.983   4.882  -2.458  0.00  0.00     0.017 A 
ATOM      6  C5  UNL d   1       3.449   4.453  -3.676  0.00  0.00     0.034 A 
ATOM      7 Cl   UNL d   1       3.014   4.686  -1.040  0.00  0.00    -0.070 Cl
ATOM      8 Cl1  UNL d   1       5.991   6.000  -0.954  0.00  0.00    -0.070 Cl
ENDROOT
TORSDOF 0
ENDMDL
