MODEL 1
REMARK minimizedAffinity -0.408559471
REMARK minimizedRMSD -1
REMARK  0 active torsions:
REMARK  status: ('A' for Active; 'I' for Inactive)
ROOT
ATOM      1  C   UNL d   1       4.273   3.753  -5.096  0.00  0.00     0.020 A 
ATOM      2  C1  UNL d   1       5.515   4.383  -5.151  0.00  0.00     0.020 A 
ATOM      3  C2  UNL d   1       6.000   5.069  -4.035  0.00  0.00     0.034 A 
ATOM      4  C3  UNL d   1       5.242   5.126  -2.860  0.00  0.00     0.017 A 
ATOM      5  C4  UNL d   1       3.995   4.492  -2.806  0.00  0.00     0.017 A 
ATOM      6  C5  UNL d   1       3.515   3.807  -3.926  0.00  0.00     0.034 A 
ATOM      7 Cl   UNL d   1       3.002   4.518  -1.391  0.00  0.00    -0.070 Cl
ATOM      8 Cl1  UNL d   1       5.903   5.991  -1.518  0.00  0.00    -0.070 Cl
ENDROOT
TORSDOF 0
ENDMDL
