MODEL 1
REMARK minimizedAffinity 1.52771842
REMARK minimizedRMSD -1
REMARK  0 active torsions:
REMARK  status: ('A' for Active; 'I' for Inactive)
ROOT
ATOM      1  C   UNL d   1       4.899   3.753  -5.981  0.00  0.00     0.020 A 
ATOM      2  C1  UNL d   1       5.990   3.548  -5.137  0.00  0.00     0.020 A 
ATOM      3  C2  UNL d   1       5.991   4.095  -3.852  0.00  0.00     0.034 A 
ATOM      4  C3  UNL d   1       4.900   4.849  -3.408  0.00  0.00     0.017 A 
ATOM      5  C4  UNL d   1       3.806   5.055  -4.255  0.00  0.00     0.017 A 
ATOM      6  C5  UNL d   1       3.810   4.506  -5.541  0.00  0.00     0.034 A 
ATOM      7 Cl   UNL d   1       2.423   5.975  -3.777  0.00  0.00    -0.070 Cl
ATOM      8 Cl1  UNL d   1       4.969   5.495  -1.806  0.00  0.00    -0.070 Cl
ENDROOT
TORSDOF 0
ENDMDL
