MODEL 1
REMARK minimizedAffinity -0.106004007
REMARK minimizedRMSD -1
REMARK  0 active torsions:
REMARK  status: ('A' for Active; 'I' for Inactive)
ROOT
ATOM      1  C   UNL d   1       6.000   5.997  -2.971  0.00  0.00     0.020 A 
ATOM      2  C1  UNL d   1       4.953   5.853  -2.060  0.00  0.00     0.020 A 
ATOM      3  C2  UNL d   1       3.906   4.971  -2.334  0.00  0.00     0.034 A 
ATOM      4  C3  UNL d   1       3.902   4.230  -3.521  0.00  0.00     0.017 A 
ATOM      5  C4  UNL d   1       4.953   4.375  -4.434  0.00  0.00     0.017 A 
ATOM      6  C5  UNL d   1       6.000   5.259  -4.155  0.00  0.00     0.034 A 
ATOM      7 Cl   UNL d   1       5.018   3.494  -5.920  0.00  0.00    -0.070 Cl
ATOM      8 Cl1  UNL d   1       2.575   3.158  -3.795  0.00  0.00    -0.070 Cl
ENDROOT
TORSDOF 0
ENDMDL
