MODEL 1
REMARK minimizedAffinity -0.863517642
REMARK minimizedRMSD -1
REMARK  0 active torsions:
REMARK  status: ('A' for Active; 'I' for Inactive)
ROOT
ATOM      1  C   UNL d   1       6.000   5.688  -3.654  0.00  0.00     0.020 A 
ATOM      2  C1  UNL d   1       5.997   5.998  -2.295  0.00  0.00     0.020 A 
ATOM      3  C2  UNL d   1       5.030   5.443  -1.454  0.00  0.00     0.034 A 
ATOM      4  C3  UNL d   1       4.062   4.576  -1.971  0.00  0.00     0.017 A 
ATOM      5  C4  UNL d   1       4.065   4.265  -3.336  0.00  0.00     0.017 A 
ATOM      6  C5  UNL d   1       5.035   4.824  -4.173  0.00  0.00     0.034 A 
ATOM      7 Cl   UNL d   1       2.902   3.203  -4.047  0.00  0.00    -0.070 Cl
ATOM      8 Cl1  UNL d   1       2.896   3.926  -0.873  0.00  0.00    -0.070 Cl
ENDROOT
TORSDOF 0
ENDMDL
