MODEL 1
REMARK minimizedAffinity 6.92524099
REMARK minimizedRMSD -1
REMARK  0 active torsions:
REMARK  status: ('A' for Active; 'I' for Inactive)
ROOT
ATOM      1  C   UNL d   1       6.000   5.740  -2.804  0.00  0.00     0.020 A 
ATOM      2  C1  UNL d   1       4.863   6.000  -2.040  0.00  0.00     0.020 A 
ATOM      3  C2  UNL d   1       3.724   5.205  -2.189  0.00  0.00     0.034 A 
ATOM      4  C3  UNL d   1       3.720   4.147  -3.105  0.00  0.00     0.017 A 
ATOM      5  C4  UNL d   1       4.862   3.887  -3.872  0.00  0.00     0.017 A 
ATOM      6  C5  UNL d   1       5.999   4.686  -3.718  0.00  0.00     0.034 A 
ATOM      7 Cl   UNL d   1       4.932   2.599  -5.023  0.00  0.00    -0.070 Cl
ATOM      8 Cl1  UNL d   1       2.277   3.205  -3.238  0.00  0.00    -0.070 Cl
ENDROOT
TORSDOF 0
ENDMDL
