MODEL 1
REMARK minimizedAffinity 8.03117466
REMARK minimizedRMSD -1
REMARK  0 active torsions:
REMARK  status: ('A' for Active; 'I' for Inactive)
ROOT
ATOM      1  C   UNL d   1       6.000   5.990  -2.115  0.00  0.00     0.020 A 
ATOM      2  C1  UNL d   1       5.121   5.832  -1.044  0.00  0.00     0.020 A 
ATOM      3  C2  UNL d   1       3.752   5.683  -1.281  0.00  0.00     0.034 A 
ATOM      4  C3  UNL d   1       3.260   5.691  -2.590  0.00  0.00     0.017 A 
ATOM      5  C4  UNL d   1       4.143   5.849  -3.664  0.00  0.00     0.017 A 
ATOM      6  C5  UNL d   1       5.512   5.998  -3.422  0.00  0.00     0.034 A 
ATOM      7 Cl   UNL d   1       3.609   5.870  -5.308  0.00  0.00    -0.070 Cl
ATOM      8 Cl1  UNL d   1       1.556   5.501  -2.809  0.00  0.00    -0.070 Cl
ENDROOT
TORSDOF 0
ENDMDL
