MODEL 1
REMARK minimizedAffinity 4.38860273
REMARK minimizedRMSD -1
REMARK  0 active torsions:
REMARK  status: ('A' for Active; 'I' for Inactive)
ROOT
ATOM      1  C   UNL d   1       5.809   4.455  -4.523  0.00  0.00     0.020 A 
ATOM      2  C1  UNL d   1       4.524   4.127  -4.951  0.00  0.00     0.020 A 
ATOM      3  C2  UNL d   1       3.427   4.376  -4.122  0.00  0.00     0.034 A 
ATOM      4  C3  UNL d   1       3.615   4.952  -2.861  0.00  0.00     0.017 A 
ATOM      5  C4  UNL d   1       4.906   5.280  -2.432  0.00  0.00     0.017 A 
ATOM      6  C5  UNL d   1       6.000   5.030  -3.266  0.00  0.00     0.034 A 
ATOM      7 Cl   UNL d   1       5.216   5.995  -0.889  0.00  0.00    -0.070 Cl
ATOM      8 Cl1  UNL d   1       2.214   5.231  -1.889  0.00  0.00    -0.070 Cl
ENDROOT
TORSDOF 0
ENDMDL
