MODEL 1
REMARK minimizedAffinity 8.73507786
REMARK minimizedRMSD -1
REMARK  0 active torsions:
REMARK  status: ('A' for Active; 'I' for Inactive)
ROOT
ATOM      1  C   UNL d   1       5.351   5.536  -1.324  0.00  0.00     0.020 A 
ATOM      2  C1  UNL d   1       6.000   4.411  -1.831  0.00  0.00     0.020 A 
ATOM      3  C2  UNL d   1       5.481   3.749  -2.946  0.00  0.00     0.034 A 
ATOM      4  C3  UNL d   1       4.310   4.211  -3.557  0.00  0.00     0.017 A 
ATOM      5  C4  UNL d   1       3.659   5.341  -3.047  0.00  0.00     0.017 A 
ATOM      6  C5  UNL d   1       4.183   6.000  -1.931  0.00  0.00     0.034 A 
ATOM      7 Cl   UNL d   1       2.210   5.970  -3.748  0.00  0.00    -0.070 Cl
ATOM      8 Cl1  UNL d   1       3.725   3.344  -4.932  0.00  0.00    -0.070 Cl
ENDROOT
TORSDOF 0
ENDMDL
