MODEL 1
REMARK minimizedAffinity 0.526310503
REMARK minimizedRMSD -1
REMARK  0 active torsions:
REMARK  status: ('A' for Active; 'I' for Inactive)
ROOT
ATOM      1  C   UNL d   1       4.859   3.822  -5.851  0.00  0.00     0.020 A 
ATOM      2  C1  UNL d   1       5.997   4.510  -5.433  0.00  0.00     0.020 A 
ATOM      3  C2  UNL d   1       6.000   5.174  -4.204  0.00  0.00     0.034 A 
ATOM      4  C3  UNL d   1       4.862   5.150  -3.389  0.00  0.00     0.017 A 
ATOM      5  C4  UNL d   1       3.720   4.459  -3.810  0.00  0.00     0.017 A 
ATOM      6  C5  UNL d   1       3.723   3.796  -5.041  0.00  0.00     0.034 A 
ATOM      7 Cl   UNL d   1       2.279   4.385  -2.859  0.00  0.00    -0.070 Cl
ATOM      8 Cl1  UNL d   1       4.936   5.992  -1.882  0.00  0.00    -0.070 Cl
ENDROOT
TORSDOF 0
ENDMDL
