MODEL 1
REMARK minimizedAffinity 0.103077091
REMARK minimizedRMSD -1
REMARK  0 active torsions:
REMARK  status: ('A' for Active; 'I' for Inactive)
ROOT
ATOM      1  C   UNL d   1       5.829   4.388  -4.730  0.00  0.00     0.020 A 
ATOM      2  C1  UNL d   1       4.622   3.743  -4.997  0.00  0.00     0.020 A 
ATOM      3  C2  UNL d   1       3.584   3.789  -4.064  0.00  0.00     0.034 A 
ATOM      4  C3  UNL d   1       3.752   4.481  -2.859  0.00  0.00     0.017 A 
ATOM      5  C4  UNL d   1       4.964   5.127  -2.591  0.00  0.00     0.017 A 
ATOM      6  C5  UNL d   1       6.000   5.078  -3.529  0.00  0.00     0.034 A 
ATOM      7 Cl   UNL d   1       5.245   6.000  -1.126  0.00  0.00    -0.070 Cl
ATOM      8 Cl1  UNL d   1       2.426   4.496  -1.750  0.00  0.00    -0.070 Cl
ENDROOT
TORSDOF 0
ENDMDL
