MODEL 1
REMARK minimizedAffinity 5.44405031
REMARK minimizedRMSD -1
REMARK  0 active torsions:
REMARK  status: ('A' for Active; 'I' for Inactive)
ROOT
ATOM      1  C   UNL d   1      -0.048  -2.074  -2.797  0.00  0.00     0.020 A 
ATOM      2  C1  UNL d   1       0.682  -2.395  -1.653  0.00  0.00     0.020 A 
ATOM      3  C2  UNL d   1       0.033  -2.516  -0.422  0.00  0.00     0.034 A 
ATOM      4  C3  UNL d   1      -1.349  -2.315  -0.332  0.00  0.00     0.017 A 
ATOM      5  C4  UNL d   1      -2.081  -1.993  -1.480  0.00  0.00     0.017 A 
ATOM      6  C5  UNL d   1      -1.427  -1.873  -2.710  0.00  0.00     0.034 A 
ATOM      7 Cl   UNL d   1      -3.789  -1.731  -1.448  0.00  0.00    -0.070 Cl
ATOM      8 Cl1  UNL d   1      -2.085  -2.481   1.223  0.00  0.00    -0.070 Cl
ENDROOT
TORSDOF 0
ENDMDL
