MODEL 1
REMARK minimizedAffinity -2.1078229
REMARK minimizedRMSD -1
REMARK  0 active torsions:
REMARK  status: ('A' for Active; 'I' for Inactive)
ROOT
ATOM      1  C   UNL d   1       5.659   5.634  -5.226  0.00  0.00     0.020 A 
ATOM      2  C1  UNL d   1       4.547   4.828  -5.465  0.00  0.00     0.020 A 
ATOM      3  C2  UNL d   1       3.775   4.370  -4.395  0.00  0.00     0.034 A 
ATOM      4  C3  UNL d   1       4.113   4.717  -3.083  0.00  0.00     0.017 A 
ATOM      5  C4  UNL d   1       5.230   5.527  -2.844  0.00  0.00     0.017 A 
ATOM      6  C5  UNL d   1       6.000   5.983  -3.919  0.00  0.00     0.034 A 
ATOM      7 Cl   UNL d   1       5.711   5.998  -1.252  0.00  0.00    -0.070 Cl
ATOM      8 Cl1  UNL d   1       3.114   4.115  -1.808  0.00  0.00    -0.070 Cl
ENDROOT
TORSDOF 0
ENDMDL
