MODEL 1
REMARK minimizedAffinity -2.84169888
REMARK minimizedRMSD -1
REMARK  0 active torsions:
REMARK  status: ('A' for Active; 'I' for Inactive)
ROOT
ATOM      1  C1  DEN d   1       4.371   1.393  -3.558  0.00  0.00     0.130 A 
ATOM      2  C2  DEN d   1       5.610   0.639  -3.721  0.00  0.00    -0.031 A 
ATOM      3  C3  DEN d   1       5.264  -0.794  -3.812  0.00  0.00     0.027 A 
ATOM      4  C4  DEN d   1       2.941  -1.911  -3.721  0.00  0.00     0.027 A 
ATOM      5  C5  DEN d   1       1.590  -1.681  -3.581  0.00  0.00    -0.003 A 
ATOM      6  C6  DEN d   1       1.078  -0.425  -3.391  0.00  0.00     0.001 A 
ATOM      7  C7  DEN d   1       1.920   0.656  -3.381  0.00  0.00     0.017 A 
ATOM      8  C8  DEN d   1       3.284   0.432  -3.514  0.00  0.00    -0.094 A 
ATOM      9  C9  DEN d   1       3.780  -0.844  -3.718  0.00  0.00    -0.072 A 
ENDROOT
TORSDOF 0
ENDMDL
