MODEL 1
REMARK minimizedAffinity -5.50966167
REMARK minimizedRMSD -1
REMARK  0 active torsions:
REMARK  status: ('A' for Active; 'I' for Inactive)
ROOT
ATOM      1  C1  DEN d   1      -0.021  -0.659   2.129  0.00  0.00     0.130 A 
ATOM      2  C2  DEN d   1      -1.388  -1.148   1.976  0.00  0.00    -0.031 A 
ATOM      3  C3  DEN d   1      -2.293  -0.194   2.647  0.00  0.00     0.027 A 
ATOM      4  C4  DEN d   1      -1.713   1.985   3.899  0.00  0.00     0.027 A 
ATOM      5  C5  DEN d   1      -0.685   2.809   4.302  0.00  0.00    -0.003 A 
ATOM      6  C6  DEN d   1       0.628   2.519   4.041  0.00  0.00     0.001 A 
ATOM      7  C7  DEN d   1       0.945   1.400   3.317  0.00  0.00     0.017 A 
ATOM      8  C8  DEN d   1      -0.085   0.561   2.914  0.00  0.00    -0.094 A 
ATOM      9  C9  DEN d   1      -1.407   0.877   3.177  0.00  0.00    -0.072 A 
ENDROOT
TORSDOF 0
ENDMDL
