MODEL 1
REMARK minimizedAffinity -4.52886724
REMARK minimizedRMSD -1
REMARK  0 active torsions:
REMARK  status: ('A' for Active; 'I' for Inactive)
ROOT
ATOM      1  C1  DEN d   1       4.877  -0.761  -4.174  0.00  0.00     0.130 A 
ATOM      2  C2  DEN d   1       5.249   0.645  -4.043  0.00  0.00    -0.031 A 
ATOM      3  C3  DEN d   1       4.066   1.387  -3.563  0.00  0.00     0.027 A 
ATOM      4  C4  DEN d   1       1.709   0.500  -3.009  0.00  0.00     0.027 A 
ATOM      5  C5  DEN d   1       0.911  -0.622  -2.976  0.00  0.00    -0.003 A 
ATOM      6  C6  DEN d   1       1.365  -1.853  -3.369  0.00  0.00     0.001 A 
ATOM      7  C7  DEN d   1       2.667  -2.000  -3.769  0.00  0.00     0.017 A 
ATOM      8  C8  DEN d   1       3.475  -0.872  -3.813  0.00  0.00    -0.094 A 
ATOM      9  C9  DEN d   1       3.001   0.362  -3.400  0.00  0.00    -0.072 A 
ENDROOT
TORSDOF 0
ENDMDL
