MODEL 1
REMARK minimizedAffinity -4.77845716
REMARK minimizedRMSD -1
REMARK  0 active torsions:
REMARK  status: ('A' for Active; 'I' for Inactive)
ROOT
ATOM      1  C1  DEN d   1       1.430   0.652   1.054  0.00  0.00     0.130 A 
ATOM      2  C2  DEN d   1       1.428   0.319   2.475  0.00  0.00    -0.031 A 
ATOM      3  C3  DEN d   1       0.100  -0.230   2.814  0.00  0.00     0.027 A 
ATOM      4  C4  DEN d   1      -1.942  -0.600   1.282  0.00  0.00     0.027 A 
ATOM      5  C5  DEN d   1      -2.423  -0.459  -0.001  0.00  0.00    -0.003 A 
ATOM      6  C6  DEN d   1      -1.672   0.090  -1.006  0.00  0.00     0.001 A 
ATOM      7  C7  DEN d   1      -0.381   0.476  -0.756  0.00  0.00     0.017 A 
ATOM      8  C8  DEN d   1       0.108   0.343   0.537  0.00  0.00    -0.094 A 
ATOM      9  C9  DEN d   1      -0.663  -0.225   1.537  0.00  0.00    -0.072 A 
ENDROOT
TORSDOF 0
ENDMDL
