MODEL 1
REMARK minimizedAffinity 1.48521507
REMARK minimizedRMSD -1
REMARK  0 active torsions:
REMARK  status: ('A' for Active; 'I' for Inactive)
ROOT
ATOM      1  C1  DEN d   1       1.065  -0.933  -1.355  0.00  0.00     0.130 A 
ATOM      2  C2  DEN d   1       0.397  -0.730  -2.638  0.00  0.00    -0.031 A 
ATOM      3  C3  DEN d   1      -0.998  -0.328  -2.367  0.00  0.00     0.027 A 
ATOM      4  C4  DEN d   1      -2.180   0.005  -0.099  0.00  0.00     0.027 A 
ATOM      5  C5  DEN d   1      -2.025  -0.062   1.268  0.00  0.00    -0.003 A 
ATOM      6  C6  DEN d   1      -0.849  -0.452   1.851  0.00  0.00     0.001 A 
ATOM      7  C7  DEN d   1       0.233  -0.749   1.065  0.00  0.00     0.017 A 
ATOM      8  C8  DEN d   1       0.082  -0.692  -0.314  0.00  0.00    -0.094 A 
ATOM      9  C9  DEN d   1      -1.111  -0.283  -0.885  0.00  0.00    -0.072 A 
ENDROOT
TORSDOF 0
ENDMDL
