MODEL 1
REMARK minimizedAffinity -1.81383169
REMARK minimizedRMSD -1
REMARK  0 active torsions:
REMARK  status: ('A' for Active; 'I' for Inactive)
ROOT
ATOM      1  C1  DEN d   1      -1.549   0.101  -0.695  0.00  0.00     0.130 A 
ATOM      2  C2  DEN d   1      -0.547   0.721  -1.557  0.00  0.00    -0.031 A 
ATOM      3  C3  DEN d   1       0.716   0.811  -0.797  0.00  0.00     0.027 A 
ATOM      4  C4  DEN d   1       1.215   0.048   1.616  0.00  0.00     0.027 A 
ATOM      5  C5  DEN d   1       0.676  -0.524   2.747  0.00  0.00    -0.003 A 
ATOM      6  C6  DEN d   1      -0.641  -0.893   2.821  0.00  0.00     0.001 A 
ATOM      7  C7  DEN d   1      -1.452  -0.737   1.728  0.00  0.00     0.017 A 
ATOM      8  C8  DEN d   1      -0.917  -0.154   0.587  0.00  0.00    -0.094 A 
ATOM      9  C9  DEN d   1       0.419   0.202   0.528  0.00  0.00    -0.072 A 
ENDROOT
TORSDOF 0
ENDMDL
