MODEL 1
REMARK minimizedAffinity 6.26897621
REMARK minimizedRMSD -1
REMARK  0 active torsions:
REMARK  status: ('A' for Active; 'I' for Inactive)
ROOT
ATOM      1  C1  DEN d   1       0.538   0.007   2.569  0.00  0.00     0.130 A 
ATOM      2  C2  DEN d   1      -0.795  -0.588   2.508  0.00  0.00    -0.031 A 
ATOM      3  C3  DEN d   1      -1.374  -0.275   1.186  0.00  0.00     0.027 A 
ATOM      4  C4  DEN d   1      -0.340   1.060  -0.763  0.00  0.00     0.027 A 
ATOM      5  C5  DEN d   1       0.766   1.770  -1.175  0.00  0.00    -0.003 A 
ATOM      6  C6  DEN d   1       1.850   1.970  -0.363  0.00  0.00     0.001 A 
ATOM      7  C7  DEN d   1       1.871   1.415   0.889  0.00  0.00     0.017 A 
ATOM      8  C8  DEN d   1       0.757   0.703   1.315  0.00  0.00    -0.094 A 
ATOM      9  C9  DEN d   1      -0.325   0.502   0.474  0.00  0.00    -0.072 A 
ENDROOT
TORSDOF 0
ENDMDL
