MODEL 1
REMARK minimizedAffinity 5.84195328
REMARK minimizedRMSD -1
REMARK  0 active torsions:
REMARK  status: ('A' for Active; 'I' for Inactive)
ROOT
ATOM      1  C1  DEN d   1       1.697   2.127   1.437  0.00  0.00     0.130 A 
ATOM      2  C2  DEN d   1       1.616   2.705   0.099  0.00  0.00    -0.031 A 
ATOM      3  C3  DEN d   1       0.542   2.005  -0.636  0.00  0.00     0.027 A 
ATOM      4  C4  DEN d   1      -0.997   0.098   0.167  0.00  0.00     0.027 A 
ATOM      5  C5  DEN d   1      -1.296  -0.734   1.224  0.00  0.00    -0.003 A 
ATOM      6  C6  DEN d   1      -0.602  -0.694   2.404  0.00  0.00     0.001 A 
ATOM      7  C7  DEN d   1       0.398   0.228   2.572  0.00  0.00     0.017 A 
ATOM      8  C8  DEN d   1       0.710   1.064   1.509  0.00  0.00    -0.094 A 
ATOM      9  C9  DEN d   1      -0.011   1.017   0.328  0.00  0.00    -0.072 A 
ENDROOT
TORSDOF 0
ENDMDL
