MODEL 1
REMARK minimizedAffinity -5.86054945
REMARK minimizedRMSD -1
REMARK  0 active torsions:
REMARK  status: ('A' for Active; 'I' for Inactive)
ROOT
ATOM      1  C1  DEN d   1       0.638   0.114   0.608  0.00  0.00     0.130 A 
ATOM      2  C2  DEN d   1       0.015   0.496  -0.656  0.00  0.00    -0.031 A 
ATOM      3  C3  DEN d   1      -1.448   0.506  -0.460  0.00  0.00     0.027 A 
ATOM      4  C4  DEN d   1      -2.803  -0.025   1.670  0.00  0.00     0.027 A 
ATOM      5  C5  DEN d   1      -2.715  -0.410   2.989  0.00  0.00    -0.003 A 
ATOM      6  C6  DEN d   1      -1.515  -0.678   3.593  0.00  0.00     0.001 A 
ATOM      7  C7  DEN d   1      -0.351  -0.521   2.889  0.00  0.00     0.017 A 
ATOM      8  C8  DEN d   1      -0.432  -0.140   1.556  0.00  0.00    -0.094 A 
ATOM      9  C9  DEN d   1      -1.654   0.138   0.967  0.00  0.00    -0.072 A 
ENDROOT
TORSDOF 0
ENDMDL
