MODEL 1
REMARK minimizedAffinity -5.50271797
REMARK minimizedRMSD -1
REMARK  0 active torsions:
REMARK  status: ('A' for Active; 'I' for Inactive)
ROOT
ATOM      1  C1  DEN d   1       4.386  -1.021  -4.296  0.00  0.00     0.130 A 
ATOM      2  C2  DEN d   1       4.842   0.339  -4.022  0.00  0.00    -0.031 A 
ATOM      3  C3  DEN d   1       3.698   1.106  -3.489  0.00  0.00     0.027 A 
ATOM      4  C4  DEN d   1       1.278   0.322  -3.059  0.00  0.00     0.027 A 
ATOM      5  C5  DEN d   1       0.411  -0.744  -3.148  0.00  0.00    -0.003 A 
ATOM      6  C6  DEN d   1       0.796  -1.958  -3.653  0.00  0.00     0.001 A 
ATOM      7  C7  DEN d   1       2.094  -2.149  -4.047  0.00  0.00     0.017 A 
ATOM      8  C8  DEN d   1       2.972  -1.076  -3.968  0.00  0.00    -0.094 A 
ATOM      9  C9  DEN d   1       2.567   0.140  -3.443  0.00  0.00    -0.072 A 
ENDROOT
TORSDOF 0
ENDMDL
