MODEL 1
REMARK minimizedAffinity 0.853066623
REMARK minimizedRMSD -1
REMARK  0 active torsions:
REMARK  status: ('A' for Active; 'I' for Inactive)
ROOT
ATOM      1  C1  DEN d   1       0.230  -1.055  -1.188  0.00  0.00     0.130 A 
ATOM      2  C2  DEN d   1      -1.048  -0.504  -1.633  0.00  0.00    -0.031 A 
ATOM      3  C3  DEN d   1      -1.588   0.332  -0.542  0.00  0.00     0.027 A 
ATOM      4  C4  DEN d   1      -0.574   0.828   1.777  0.00  0.00     0.027 A 
ATOM      5  C5  DEN d   1       0.490   0.576   2.614  0.00  0.00    -0.003 A 
ATOM      6  C6  DEN d   1       1.517  -0.258   2.259  0.00  0.00     0.001 A 
ATOM      7  C7  DEN d   1       1.524  -0.835   1.016  0.00  0.00     0.017 A 
ATOM      8  C8  DEN d   1       0.451  -0.591   0.169  0.00  0.00    -0.094 A 
ATOM      9  C9  DEN d   1      -0.572   0.265   0.542  0.00  0.00    -0.072 A 
ENDROOT
TORSDOF 0
ENDMDL
