MODEL 1
REMARK minimizedAffinity 4.52611685
REMARK minimizedRMSD -1
REMARK  0 active torsions:
REMARK  status: ('A' for Active; 'I' for Inactive)
ROOT
ATOM      1  C1  DEN d   1      -2.935   0.706   2.979  0.00  0.00     0.130 A 
ATOM      2  C2  DEN d   1      -3.734   0.953   1.782  0.00  0.00    -0.031 A 
ATOM      3  C3  DEN d   1      -2.882   0.701   0.603  0.00  0.00     0.027 A 
ATOM      4  C4  DEN d   1      -0.415  -0.047   0.515  0.00  0.00     0.027 A 
ATOM      5  C5  DEN d   1       0.687  -0.372   1.274  0.00  0.00    -0.003 A 
ATOM      6  C6  DEN d   1       0.670  -0.328   2.643  0.00  0.00     0.001 A 
ATOM      7  C7  DEN d   1      -0.487   0.006   3.297  0.00  0.00     0.017 A 
ATOM      8  C8  DEN d   1      -1.600   0.342   2.538  0.00  0.00    -0.094 A 
ATOM      9  C9  DEN d   1      -1.566   0.279   1.155  0.00  0.00    -0.072 A 
ENDROOT
TORSDOF 0
ENDMDL
