MODEL 1
REMARK minimizedAffinity 5.58797646
REMARK minimizedRMSD -1
REMARK  0 active torsions:
REMARK  status: ('A' for Active; 'I' for Inactive)
ROOT
ATOM      1  C1  DEN d   1       0.064   1.086   0.337  0.00  0.00     0.130 A 
ATOM      2  C2  DEN d   1      -0.649   0.322   1.357  0.00  0.00    -0.031 A 
ATOM      3  C3  DEN d   1      -1.117  -0.936   0.741  0.00  0.00     0.027 A 
ATOM      4  C4  DEN d   1      -0.805  -1.772  -1.680  0.00  0.00     0.027 A 
ATOM      5  C5  DEN d   1      -0.278  -1.463  -2.914  0.00  0.00    -0.003 A 
ATOM      6  C6  DEN d   1       0.365  -0.279  -3.159  0.00  0.00     0.001 A 
ATOM      7  C7  DEN d   1       0.537   0.623  -2.142  0.00  0.00     0.017 A 
ATOM      8  C8  DEN d   1       0.002   0.322  -0.896  0.00  0.00    -0.094 A 
ATOM      9  C9  DEN d   1      -0.634  -0.886  -0.666  0.00  0.00    -0.072 A 
ENDROOT
TORSDOF 0
ENDMDL
