MODEL 1
REMARK minimizedAffinity 2.20357847
REMARK minimizedRMSD -1
REMARK  0 active torsions:
REMARK  status: ('A' for Active; 'I' for Inactive)
ROOT
ATOM      1  C1  DEN d   1      -2.706   1.758   2.729  0.00  0.00     0.130 A 
ATOM      2  C2  DEN d   1      -3.927   1.469   1.983  0.00  0.00    -0.031 A 
ATOM      3  C3  DEN d   1      -3.683   0.271   1.154  0.00  0.00     0.027 A 
ATOM      4  C4  DEN d   1      -1.545  -1.158   0.957  0.00  0.00     0.027 A 
ATOM      5  C5  DEN d   1      -0.244  -1.297   1.388  0.00  0.00    -0.003 A 
ATOM      6  C6  DEN d   1       0.333  -0.416   2.263  0.00  0.00     0.001 A 
ATOM      7  C7  DEN d   1      -0.406   0.620   2.771  0.00  0.00     0.017 A 
ATOM      8  C8  DEN d   1      -1.716   0.771   2.335  0.00  0.00    -0.094 A 
ATOM      9  C9  DEN d   1      -2.286  -0.138   1.459  0.00  0.00    -0.072 A 
ENDROOT
TORSDOF 0
ENDMDL
