MODEL 1
REMARK minimizedAffinity 3.32814384
REMARK minimizedRMSD -1
REMARK  0 active torsions:
REMARK  status: ('A' for Active; 'I' for Inactive)
ROOT
ATOM      1  C   UNL d   1      -5.235   2.278  -4.622  0.00  0.00     0.020 A 
ATOM      2  C1  UNL d   1      -6.000   2.334  -3.457  0.00  0.00     0.020 A 
ATOM      3  C2  UNL d   1      -6.000   3.492  -2.677  0.00  0.00     0.034 A 
ATOM      4  C3  UNL d   1      -5.234   4.599  -3.060  0.00  0.00     0.017 A 
ATOM      5  C4  UNL d   1      -4.467   4.542  -4.229  0.00  0.00     0.017 A 
ATOM      6  C5  UNL d   1      -4.470   3.380  -5.007  0.00  0.00     0.034 A 
ATOM      7 Cl   UNL d   1      -3.496   5.868  -4.766  0.00  0.00    -0.070 Cl
ATOM      8 Cl1  UNL d   1      -5.282   5.999  -2.047  0.00  0.00    -0.070 Cl
ENDROOT
TORSDOF 0
ENDMDL
