MODEL 1
REMARK minimizedAffinity 4.23490381
REMARK minimizedRMSD -1
REMARK  0 active torsions:
REMARK  status: ('A' for Active; 'I' for Inactive)
ROOT
ATOM      1  C   UNL d   1      -5.396   5.702  -5.622  0.00  0.00     0.020 A 
ATOM      2  C1  UNL d   1      -4.046   6.000  -5.436  0.00  0.00     0.020 A 
ATOM      3  C2  UNL d   1      -3.278   5.236  -4.555  0.00  0.00     0.034 A 
ATOM      4  C3  UNL d   1      -3.859   4.172  -3.856  0.00  0.00     0.017 A 
ATOM      5  C4  UNL d   1      -5.213   3.874  -4.043  0.00  0.00     0.017 A 
ATOM      6  C5  UNL d   1      -5.978   4.642  -4.927  0.00  0.00     0.034 A 
ATOM      7 Cl   UNL d   1      -6.000   2.576  -3.216  0.00  0.00    -0.070 Cl
ATOM      8 Cl1  UNL d   1      -2.849   3.270  -2.782  0.00  0.00    -0.070 Cl
ENDROOT
TORSDOF 0
ENDMDL
