MODEL 1
REMARK minimizedAffinity 7.52688503
REMARK minimizedRMSD -1
REMARK  0 active torsions:
REMARK  status: ('A' for Active; 'I' for Inactive)
ROOT
ATOM      1  C   UNL d   1      -0.368   4.397  -2.639  0.00  0.00     0.020 A 
ATOM      2  C1  UNL d   1      -1.191   5.522  -2.587  0.00  0.00     0.020 A 
ATOM      3  C2  UNL d   1      -1.643   6.000  -1.355  0.00  0.00     0.034 A 
ATOM      4  C3  UNL d   1      -1.273   5.353  -0.171  0.00  0.00     0.017 A 
ATOM      5  C4  UNL d   1      -0.447   4.225  -0.224  0.00  0.00     0.017 A 
ATOM      6  C5  UNL d   1       0.003   3.750  -1.459  0.00  0.00     0.034 A 
ATOM      7 Cl   UNL d   1       0.052   3.374   1.196  0.00  0.00    -0.070 Cl
ATOM      8 Cl1  UNL d   1      -1.868   6.000   1.317  0.00  0.00    -0.070 Cl
ENDROOT
TORSDOF 0
ENDMDL
