MODEL 1
REMARK minimizedAffinity 11.9308023
REMARK minimizedRMSD -1
REMARK  0 active torsions:
REMARK  status: ('A' for Active; 'I' for Inactive)
ROOT
ATOM      1  C   UNL d   1       1.408  -0.953  -1.001  0.00  0.00     0.020 A 
ATOM      2  C1  UNL d   1       2.309  -1.910  -0.535  0.00  0.00     0.020 A 
ATOM      3  C2  UNL d   1       2.021  -3.269  -0.682  0.00  0.00     0.034 A 
ATOM      4  C3  UNL d   1       0.830  -3.674  -1.296  0.00  0.00     0.017 A 
ATOM      5  C4  UNL d   1      -0.073  -2.712  -1.763  0.00  0.00     0.017 A 
ATOM      6  C5  UNL d   1       0.220  -1.353  -1.614  0.00  0.00     0.034 A 
ATOM      7 Cl   UNL d   1      -1.562  -3.134  -2.532  0.00  0.00    -0.070 Cl
ATOM      8 Cl1  UNL d   1       0.539  -5.370  -1.445  0.00  0.00    -0.070 Cl
ENDROOT
TORSDOF 0
ENDMDL
