MODEL 1
REMARK minimizedAffinity 3.57944536
REMARK minimizedRMSD -1
REMARK  0 active torsions:
REMARK  status: ('A' for Active; 'I' for Inactive)
ROOT
ATOM      1  C   UNL d   1      -0.533   2.914   1.167  0.00  0.00     0.020 A 
ATOM      2  C1  UNL d   1       0.817   2.996   0.826  0.00  0.00     0.020 A 
ATOM      3  C2  UNL d   1       1.210   3.725  -0.299  0.00  0.00     0.034 A 
ATOM      4  C3  UNL d   1       0.252   4.374  -1.087  0.00  0.00     0.017 A 
ATOM      5  C4  UNL d   1      -1.102   4.291  -0.744  0.00  0.00     0.017 A 
ATOM      6  C5  UNL d   1      -1.490   3.560   0.383  0.00  0.00     0.034 A 
ATOM      7 Cl   UNL d   1      -2.341   5.064  -1.668  0.00  0.00    -0.070 Cl
ATOM      8 Cl1  UNL d   1       0.809   5.257  -2.464  0.00  0.00    -0.070 Cl
ENDROOT
TORSDOF 0
ENDMDL
