MODEL 1
REMARK minimizedAffinity 3.8807168
REMARK minimizedRMSD -1
REMARK  0 active torsions:
REMARK  status: ('A' for Active; 'I' for Inactive)
ROOT
ATOM      1  C   UNL d   1       5.471  -5.032  -1.423  0.00  0.00     0.020 A 
ATOM      2  C1  UNL d   1       5.659  -3.731  -0.958  0.00  0.00     0.020 A 
ATOM      3  C2  UNL d   1       4.558  -2.959  -0.580  0.00  0.00     0.034 A 
ATOM      4  C3  UNL d   1       3.265  -3.486  -0.667  0.00  0.00     0.017 A 
ATOM      5  C4  UNL d   1       3.077  -4.792  -1.134  0.00  0.00     0.017 A 
ATOM      6  C5  UNL d   1       4.183  -5.561  -1.511  0.00  0.00     0.034 A 
ATOM      7 Cl   UNL d   1       1.512  -5.512  -1.270  0.00  0.00    -0.070 Cl
ATOM      8 Cl1  UNL d   1       1.950  -2.475  -0.183  0.00  0.00    -0.070 Cl
ENDROOT
TORSDOF 0
ENDMDL
