MODEL 1
REMARK minimizedAffinity 4.58986664
REMARK minimizedRMSD -1
REMARK  0 active torsions:
REMARK  status: ('A' for Active; 'I' for Inactive)
ROOT
ATOM      1  C   UNL d   1      -0.297   0.840   3.800  0.00  0.00     0.020 A 
ATOM      2  C1  UNL d   1      -1.408   1.157   3.020  0.00  0.00     0.020 A 
ATOM      3  C2  UNL d   1      -1.298   2.106   2.001  0.00  0.00     0.034 A 
ATOM      4  C3  UNL d   1      -0.074   2.741   1.760  0.00  0.00     0.017 A 
ATOM      5  C4  UNL d   1       1.041   2.421   2.543  0.00  0.00     0.017 A 
ATOM      6  C5  UNL d   1       0.925   1.471   3.562  0.00  0.00     0.034 A 
ATOM      7 Cl   UNL d   1       2.584   3.162   2.305  0.00  0.00    -0.070 Cl
ATOM      8 Cl1  UNL d   1      -0.010   3.903   0.483  0.00  0.00    -0.070 Cl
ENDROOT
TORSDOF 0
ENDMDL
