MODEL 1
REMARK minimizedAffinity 6.62034035
REMARK minimizedRMSD -1
REMARK  0 active torsions:
REMARK  status: ('A' for Active; 'I' for Inactive)
ROOT
ATOM      1  C   UNL d   1      -5.480  -1.893   4.361  0.00  0.00     0.020 A 
ATOM      2  C1  UNL d   1      -5.854  -1.456   5.632  0.00  0.00     0.020 A 
ATOM      3  C2  UNL d   1      -5.993  -0.090   5.888  0.00  0.00     0.034 A 
ATOM      4  C3  UNL d   1      -5.756   0.844   4.873  0.00  0.00     0.017 A 
ATOM      5  C4  UNL d   1      -5.380   0.405   3.598  0.00  0.00     0.017 A 
ATOM      6  C5  UNL d   1      -5.244  -0.964   3.347  0.00  0.00     0.034 A 
ATOM      7 Cl   UNL d   1      -5.072   1.497   2.295  0.00  0.00    -0.070 Cl
ATOM      8 Cl1  UNL d   1      -5.946   2.517   5.260  0.00  0.00    -0.070 Cl
ENDROOT
TORSDOF 0
ENDMDL
