MODEL 1
REMARK minimizedAffinity -2.9112103
REMARK minimizedRMSD -1
REMARK  3 active torsions:
REMARK  status: ('A' for Active; 'I' for Inactive)
REMARK    1  A    between atoms: C3'_2  and  C2'_3 
REMARK    2  A    between atoms: C2'_3  and  C1'_4 
REMARK    3  A    between atoms: C1'_4  and  C1_5 
ROOT
ATOM      1  C1  N4B d   1      -0.002  -1.563  -1.302  0.00  0.00    -0.075 A 
ATOM      2  C2  N4B d   1      -1.232  -1.670  -1.988  0.00  0.00     0.002 A 
ATOM      3  C3  N4B d   1      -1.815  -2.901  -2.164  0.00  0.00     0.002 A 
ATOM      4  C4  N4B d   1      -1.180  -4.036  -1.683  0.00  0.00    -0.004 A 
ATOM      5  C5  N4B d   1      -0.004  -3.921  -0.999  0.00  0.00     0.002 A 
ATOM      6  C6  N4B d   1       0.591  -2.690  -0.811  0.00  0.00     0.002 A 
ENDROOT
BRANCH   1   7
ATOM      7  C1' N4B d   1       0.716  -0.249  -1.160  0.00  0.00     0.057 C 
BRANCH   7   8
ATOM      8  C2' N4B d   1       0.222   0.457   0.099  0.00  0.00     0.009 C 
BRANCH   8   9
ATOM      9  C3' N4B d   1       1.089   0.140   1.306  0.00  0.00     0.004 C 
ATOM     10  C4' N4B d   1       0.365  -0.660   2.347  0.00  0.00     0.003 C 
ENDBRANCH   8   9
ENDBRANCH   7   8
ENDBRANCH   1   7
TORSDOF 3
ENDMDL
