MODEL 1
REMARK minimizedAffinity 4.52102375
REMARK minimizedRMSD -1
REMARK  0 active torsions:
REMARK  status: ('A' for Active; 'I' for Inactive)
ROOT
ATOM      1  C   UNL d   1       2.477  -2.255  -0.902  0.00  0.00     0.023 A 
ATOM      2  C1  UNL d   1       3.123  -1.466   0.049  0.00  0.00     0.003 A 
ATOM      3  C2  UNL d   1       2.799  -1.594   1.401  0.00  0.00     0.048 A 
ATOM      4  C3  UNL d   1       1.828  -2.515   1.795  0.00  0.00     0.023 A 
ATOM      5  C4  UNL d   1       1.179  -3.307   0.847  0.00  0.00     0.048 A 
ATOM      6  C5  UNL d   1       1.506  -3.174  -0.504  0.00  0.00     0.003 A 
ATOM      7  I   UNL d   1       1.344  -2.708   3.807  0.00  0.00    -0.146 I 
ENDROOT
TORSDOF 0
ENDMDL
