MODEL 1
REMARK minimizedAffinity 2.47036076
REMARK minimizedRMSD -1
REMARK  0 active torsions:
REMARK  status: ('A' for Active; 'I' for Inactive)
ROOT
ATOM      1  C   UNL d   1      -3.886   2.247  -4.903  0.00  0.00     0.023 A 
ATOM      2  C1  UNL d   1      -2.973   2.270  -3.848  0.00  0.00     0.003 A 
ATOM      3  C2  UNL d   1      -3.295   1.665  -2.632  0.00  0.00     0.048 A 
ATOM      4  C3  UNL d   1      -4.532   1.038  -2.477  0.00  0.00     0.023 A 
ATOM      5  C4  UNL d   1      -5.448   1.013  -3.530  0.00  0.00     0.048 A 
ATOM      6  C5  UNL d   1      -5.122   1.620  -4.744  0.00  0.00     0.003 A 
ATOM      7  I   UNL d   1      -5.013   0.137  -0.667  0.00  0.00    -0.146 I 
ENDROOT
TORSDOF 0
ENDMDL
