MODEL 1
REMARK minimizedAffinity 5.73938227
REMARK minimizedRMSD -1
REMARK  0 active torsions:
REMARK  status: ('A' for Active; 'I' for Inactive)
ROOT
ATOM      1  C   UNL d   1       3.683   2.320  -0.463  0.00  0.00     0.023 A 
ATOM      2  C1  UNL d   1       2.333   2.045  -0.243  0.00  0.00     0.003 A 
ATOM      3  C2  UNL d   1       1.899   0.723  -0.127  0.00  0.00     0.048 A 
ATOM      4  C3  UNL d   1       2.819  -0.319  -0.232  0.00  0.00     0.023 A 
ATOM      5  C4  UNL d   1       4.171  -0.049  -0.451  0.00  0.00     0.048 A 
ATOM      6  C5  UNL d   1       4.601   1.275  -0.567  0.00  0.00     0.003 A 
ATOM      7  I   UNL d   1       2.175  -2.288  -0.060  0.00  0.00    -0.146 I 
ENDROOT
TORSDOF 0
ENDMDL
