MODEL 1
REMARK minimizedAffinity 4.51398277
REMARK minimizedRMSD -1
REMARK  0 active torsions:
REMARK  status: ('A' for Active; 'I' for Inactive)
ROOT
ATOM      1  C   UNL d   1      -3.107   3.137  -2.719  0.00  0.00     0.023 A 
ATOM      2  C1  UNL d   1      -4.491   3.311  -2.728  0.00  0.00     0.003 A 
ATOM      3  C2  UNL d   1      -5.311   2.364  -3.344  0.00  0.00     0.048 A 
ATOM      4  C3  UNL d   1      -4.741   1.244  -3.949  0.00  0.00     0.023 A 
ATOM      5  C4  UNL d   1      -3.356   1.066  -3.942  0.00  0.00     0.048 A 
ATOM      6  C5  UNL d   1      -2.541   2.016  -3.325  0.00  0.00     0.003 A 
ATOM      7  I   UNL d   1      -5.959  -0.167  -4.867  0.00  0.00    -0.146 I 
ENDROOT
TORSDOF 0
ENDMDL
