MODEL 1
REMARK minimizedAffinity 5.97421074
REMARK minimizedRMSD -1
REMARK  0 active torsions:
REMARK  status: ('A' for Active; 'I' for Inactive)
ROOT
ATOM      1  C   UNL d   1       2.147   0.396  -0.363  0.00  0.00     0.023 A 
ATOM      2  C1  UNL d   1       2.185   1.347   0.657  0.00  0.00     0.003 A 
ATOM      3  C2  UNL d   1       3.290   2.190   0.786  0.00  0.00     0.048 A 
ATOM      4  C3  UNL d   1       4.354   2.079  -0.108  0.00  0.00     0.023 A 
ATOM      5  C4  UNL d   1       4.320   1.129  -1.131  0.00  0.00     0.048 A 
ATOM      6  C5  UNL d   1       3.213   0.287  -1.256  0.00  0.00     0.003 A 
ATOM      7  I   UNL d   1       6.000   3.333   0.082  0.00  0.00    -0.146 I 
ENDROOT
TORSDOF 0
ENDMDL
