MODEL 1
REMARK minimizedAffinity -0.0881403387
REMARK minimizedRMSD -1
REMARK  0 active torsions:
REMARK  status: ('A' for Active; 'I' for Inactive)
ROOT
ATOM      1  C   UNL d   1      -5.999   1.189  -0.836  0.00  0.00     0.023 A 
ATOM      2  C1  UNL d   1      -5.999   2.161  -1.837  0.00  0.00     0.003 A 
ATOM      3  C2  UNL d   1      -5.251   1.967  -3.000  0.00  0.00     0.048 A 
ATOM      4  C3  UNL d   1      -4.507   0.799  -3.157  0.00  0.00     0.023 A 
ATOM      5  C4  UNL d   1      -4.505  -0.177  -2.158  0.00  0.00     0.048 A 
ATOM      6  C5  UNL d   1      -5.254   0.022  -0.997  0.00  0.00     0.003 A 
ATOM      7  I   UNL d   1      -3.393   0.507  -4.887  0.00  0.00    -0.146 I 
ENDROOT
TORSDOF 0
ENDMDL
