MODEL 1
REMARK minimizedAffinity 13.9075518
REMARK minimizedRMSD -1
REMARK  0 active torsions:
REMARK  status: ('A' for Active; 'I' for Inactive)
ROOT
ATOM      1  C1  DEN d   1      -5.320   5.500  -2.423  0.00  0.00     0.130 A 
ATOM      2  C2  DEN d   1      -4.232   5.129  -3.325  0.00  0.00    -0.031 A 
ATOM      3  C3  DEN d   1      -2.999   5.002  -2.523  0.00  0.00     0.027 A 
ATOM      4  C4  DEN d   1      -2.669   5.337   0.013  0.00  0.00     0.027 A 
ATOM      5  C5  DEN d   1      -3.298   5.669   1.192  0.00  0.00    -0.003 A 
ATOM      6  C6  DEN d   1      -4.627   5.998   1.244  0.00  0.00     0.001 A 
ATOM      7  C7  DEN d   1      -5.381   5.959   0.101  0.00  0.00     0.017 A 
ATOM      8  C8  DEN d   1      -4.752   5.632  -1.094  0.00  0.00    -0.094 A 
ATOM      9  C9  DEN d   1      -3.410   5.291  -1.123  0.00  0.00    -0.072 A 
ENDROOT
TORSDOF 0
ENDMDL
