MODEL 1
REMARK minimizedAffinity 24.1205997
REMARK minimizedRMSD -1
REMARK  0 active torsions:
REMARK  status: ('A' for Active; 'I' for Inactive)
ROOT
ATOM      1  C1  DEN d   1       1.899  -4.712  -2.318  0.00  0.00     0.130 A 
ATOM      2  C2  DEN d   1       1.254  -5.984  -2.631  0.00  0.00    -0.031 A 
ATOM      3  C3  DEN d   1       0.865  -5.960  -4.055  0.00  0.00     0.027 A 
ATOM      4  C4  DEN d   1       1.201  -4.089  -5.798  0.00  0.00     0.027 A 
ATOM      5  C5  DEN d   1       1.690  -2.817  -5.999  0.00  0.00    -0.003 A 
ATOM      6  C6  DEN d   1       2.246  -2.080  -4.988  0.00  0.00     0.001 A 
ATOM      7  C7  DEN d   1       2.370  -2.627  -3.738  0.00  0.00     0.017 A 
ATOM      8  C8  DEN d   1       1.873  -3.907  -3.526  0.00  0.00    -0.094 A 
ATOM      9  C9  DEN d   1       1.325  -4.640  -4.564  0.00  0.00    -0.072 A 
ENDROOT
TORSDOF 0
ENDMDL
