MODEL 1
REMARK minimizedAffinity 21.6285343
REMARK minimizedRMSD -1
REMARK  0 active torsions:
REMARK  status: ('A' for Active; 'I' for Inactive)
ROOT
ATOM      1  C1  DEN d   1      -0.407  -4.484   4.017  0.00  0.00     0.130 A 
ATOM      2  C2  DEN d   1       0.538  -4.168   5.084  0.00  0.00    -0.031 A 
ATOM      3  C3  DEN d   1      -0.112  -3.208   5.999  0.00  0.00     0.027 A 
ATOM      4  C4  DEN d   1      -2.479  -2.190   5.870  0.00  0.00     0.027 A 
ATOM      5  C5  DEN d   1      -3.644  -2.150   5.137  0.00  0.00    -0.003 A 
ATOM      6  C6  DEN d   1      -3.799  -2.852   3.971  0.00  0.00     0.001 A 
ATOM      7  C7  DEN d   1      -2.787  -3.661   3.527  0.00  0.00     0.017 A 
ATOM      8  C8  DEN d   1      -1.606  -3.702   4.256  0.00  0.00    -0.094 A 
ATOM      9  C9  DEN d   1      -1.474  -2.994   5.439  0.00  0.00    -0.072 A 
ENDROOT
TORSDOF 0
ENDMDL
