MODEL 1
REMARK minimizedAffinity 23.0696392
REMARK minimizedRMSD -1
REMARK  0 active torsions:
REMARK  status: ('A' for Active; 'I' for Inactive)
ROOT
ATOM      1  C1  DEN d   1      -1.122   2.078  -3.868  0.00  0.00     0.130 A 
ATOM      2  C2  DEN d   1      -0.284   3.223  -3.525  0.00  0.00    -0.031 A 
ATOM      3  C3  DEN d   1      -1.171   4.341  -3.147  0.00  0.00     0.027 A 
ATOM      4  C4  DEN d   1      -3.748   4.409  -3.057  0.00  0.00     0.027 A 
ATOM      5  C5  DEN d   1      -4.898   3.682  -3.271  0.00  0.00    -0.003 A 
ATOM      6  C6  DEN d   1      -4.871   2.391  -3.728  0.00  0.00     0.001 A 
ATOM      7  C7  DEN d   1      -3.669   1.772  -3.943  0.00  0.00     0.017 A 
ATOM      8  C8  DEN d   1      -2.505   2.501  -3.736  0.00  0.00    -0.094 A 
ATOM      9  C9  DEN d   1      -2.552   3.801  -3.262  0.00  0.00    -0.072 A 
ENDROOT
TORSDOF 0
ENDMDL
