MODEL 1
REMARK minimizedAffinity 18.774889
REMARK minimizedRMSD -1
REMARK  0 active torsions:
REMARK  status: ('A' for Active; 'I' for Inactive)
ROOT
ATOM      1  C1  DEN d   1      -1.371   2.055  -0.464  0.00  0.00     0.130 A 
ATOM      2  C2  DEN d   1      -0.382   1.927   0.604  0.00  0.00    -0.031 A 
ATOM      3  C3  DEN d   1       0.815   2.697   0.212  0.00  0.00     0.027 A 
ATOM      4  C4  DEN d   1       1.231   4.072  -1.931  0.00  0.00     0.027 A 
ATOM      5  C5  DEN d   1       0.689   4.467  -3.133  0.00  0.00    -0.003 A 
ATOM      6  C6  DEN d   1      -0.554   4.063  -3.542  0.00  0.00     0.001 A 
ATOM      7  C7  DEN d   1      -1.315   3.274  -2.721  0.00  0.00     0.017 A 
ATOM      8  C8  DEN d   1      -0.772   2.864  -1.510  0.00  0.00    -0.094 A 
ATOM      9  C9  DEN d   1       0.481   3.294  -1.109  0.00  0.00    -0.072 A 
ENDROOT
TORSDOF 0
ENDMDL
