MODEL 1
REMARK minimizedAffinity 10.459506
REMARK minimizedRMSD -1
REMARK  0 active torsions:
REMARK  status: ('A' for Active; 'I' for Inactive)
ROOT
ATOM      1  C1  DEN d   1      -1.264   3.375  -2.570  0.00  0.00     0.130 A 
ATOM      2  C2  DEN d   1      -0.452   4.441  -3.152  0.00  0.00    -0.031 A 
ATOM      3  C3  DEN d   1       0.497   4.907  -2.121  0.00  0.00     0.027 A 
ATOM      4  C4  DEN d   1       0.792   4.082   0.305  0.00  0.00     0.027 A 
ATOM      5  C5  DEN d   1       0.325   3.202   1.256  0.00  0.00    -0.003 A 
ATOM      6  C6  DEN d   1      -0.719   2.350   1.012  0.00  0.00     0.001 A 
ATOM      7  C7  DEN d   1      -1.301   2.326  -0.229  0.00  0.00     0.017 A 
ATOM      8  C8  DEN d   1      -0.839   3.215  -1.191  0.00  0.00    -0.094 A 
ATOM      9  C9  DEN d   1       0.225   4.061  -0.928  0.00  0.00    -0.072 A 
ENDROOT
TORSDOF 0
ENDMDL
