MODEL 1
REMARK minimizedAffinity 7.67395735
REMARK minimizedRMSD -1
REMARK  0 active torsions:
REMARK  status: ('A' for Active; 'I' for Inactive)
ROOT
ATOM      1  C1  DEN d   1      -1.261   1.640  -0.144  0.00  0.00     0.130 A 
ATOM      2  C2  DEN d   1      -0.569   1.774   1.135  0.00  0.00    -0.031 A 
ATOM      3  C3  DEN d   1       0.144   3.067   1.135  0.00  0.00     0.027 A 
ATOM      4  C4  DEN d   1       0.238   4.868  -0.709  0.00  0.00     0.027 A 
ATOM      5  C5  DEN d   1      -0.181   5.197  -1.979  0.00  0.00    -0.003 A 
ATOM      6  C6  DEN d   1      -0.955   4.356  -2.733  0.00  0.00     0.001 A 
ATOM      7  C7  DEN d   1      -1.372   3.162  -2.206  0.00  0.00     0.017 A 
ATOM      8  C8  DEN d   1      -0.947   2.820  -0.929  0.00  0.00    -0.094 A 
ATOM      9  C9  DEN d   1      -0.175   3.689  -0.178  0.00  0.00    -0.072 A 
ENDROOT
TORSDOF 0
ENDMDL
