MODEL 1
REMARK minimizedAffinity 5.77829456
REMARK minimizedRMSD -1
REMARK  0 active torsions:
REMARK  status: ('A' for Active; 'I' for Inactive)
ROOT
ATOM      1  C1  DEN d   1      -0.990   4.985  -1.271  0.00  0.00     0.130 A 
ATOM      2  C2  DEN d   1      -0.094   5.299  -0.161  0.00  0.00    -0.031 A 
ATOM      3  C3  DEN d   1       0.575   4.049   0.253  0.00  0.00     0.027 A 
ATOM      4  C4  DEN d   1       0.315   1.672  -0.715  0.00  0.00     0.027 A 
ATOM      5  C5  DEN d   1      -0.340   0.909  -1.657  0.00  0.00    -0.003 A 
ATOM      6  C6  DEN d   1      -1.274   1.440  -2.506  0.00  0.00     0.001 A 
ATOM      7  C7  DEN d   1      -1.547   2.782  -2.461  0.00  0.00     0.017 A 
ATOM      8  C8  DEN d   1      -0.897   3.556  -1.509  0.00  0.00    -0.094 A 
ATOM      9  C9  DEN d   1       0.053   3.003  -0.668  0.00  0.00    -0.072 A 
ENDROOT
TORSDOF 0
ENDMDL
