MODEL 1
REMARK minimizedAffinity 0.14658013
REMARK minimizedRMSD -1
REMARK  0 active torsions:
REMARK  status: ('A' for Active; 'I' for Inactive)
ROOT
ATOM      1  C1  DEN d   1      -1.434   1.884  -2.101  0.00  0.00     0.130 A 
ATOM      2  C2  DEN d   1      -1.346   2.600  -3.371  0.00  0.00    -0.031 A 
ATOM      3  C3  DEN d   1      -0.677   3.893  -3.120  0.00  0.00     0.027 A 
ATOM      4  C4  DEN d   1       0.229   4.848  -0.902  0.00  0.00     0.027 A 
ATOM      5  C5  DEN d   1       0.373   4.610   0.447  0.00  0.00    -0.003 A 
ATOM      6  C6  DEN d   1      -0.102   3.471   1.042  0.00  0.00     0.001 A 
ATOM      7  C7  DEN d   1      -0.703   2.506   0.278  0.00  0.00     0.017 A 
ATOM      8  C8  DEN d   1      -0.859   2.742  -1.081  0.00  0.00    -0.094 A 
ATOM      9  C9  DEN d   1      -0.361   3.894  -1.666  0.00  0.00    -0.072 A 
ENDROOT
TORSDOF 0
ENDMDL
