MODEL 1
REMARK minimizedAffinity 20.2065792
REMARK minimizedRMSD -1
REMARK  0 active torsions:
REMARK  status: ('A' for Active; 'I' for Inactive)
ROOT
ATOM      1  C1  DEN d   1       1.446  -0.923   2.081  0.00  0.00     0.130 A 
ATOM      2  C2  DEN d   1       2.253  -1.747   1.185  0.00  0.00    -0.031 A 
ATOM      3  C3  DEN d   1       1.805  -3.147   1.327  0.00  0.00     0.027 A 
ATOM      4  C4  DEN d   1      -0.050  -4.113   2.835  0.00  0.00     0.027 A 
ATOM      5  C5  DEN d   1      -1.003  -3.803   3.781  0.00  0.00    -0.003 A 
ATOM      6  C6  DEN d   1      -1.181  -2.528   4.248  0.00  0.00     0.001 A 
ATOM      7  C7  DEN d   1      -0.425  -1.506   3.736  0.00  0.00     0.017 A 
ATOM      8  C8  DEN d   1       0.542  -1.812   2.787  0.00  0.00    -0.094 A 
ATOM      9  C9  DEN d   1       0.698  -3.105   2.320  0.00  0.00    -0.072 A 
ENDROOT
TORSDOF 0
ENDMDL
