MODEL 1
REMARK minimizedAffinity -5.50244045
REMARK minimizedRMSD -1
REMARK  1 active torsions:
REMARK  status: ('A' for Active; 'I' for Inactive)
REMARK    1  A    between atoms: C1_2  and  C2_3 
ROOT
ATOM      1  C2  UNL d   1       0.700   0.056  -0.736  0.00  0.00    -0.081 A 
ATOM      2  C3  UNL d   1      -0.670   0.339  -0.679  0.00  0.00     0.006 A 
ATOM      3  C4  UNL d   1      -1.305   0.516   0.553  0.00  0.00     0.002 A 
ATOM      4  C5  UNL d   1      -0.580   0.422   1.745  0.00  0.00    -0.080 A 
ATOM      5  C6  UNL d   1      -1.244   0.640   3.073  0.00  0.00     0.076 C 
ATOM      6  C7  UNL d   1       0.785   0.122   1.689  0.00  0.00     0.002 A 
ATOM      7  C8  UNL d   1       1.421  -0.056   0.458  0.00  0.00     0.006 A 
ENDROOT
BRANCH   1   8
ATOM      8  C1  UNL d   1       1.401  -0.071  -2.065  0.00  0.00     0.054 C 
ATOM      9  C   UNL d   1       0.474  -0.645  -3.127  0.00  0.00     0.018 C 
ENDBRANCH   1   8
TORSDOF 1
ENDMDL
