MODEL 1
REMARK minimizedAffinity 0.137060419
REMARK minimizedRMSD -1
REMARK  1 active torsions:
REMARK  status: ('A' for Active; 'I' for Inactive)
REMARK    1  A    between atoms: C1_2  and  C2_3 
ROOT
ATOM      1  C2  UNL d   1      -0.185   0.133   1.775  0.00  0.00    -0.081 A 
ATOM      2  C3  UNL d   1      -1.208   0.192   0.821  0.00  0.00     0.006 A 
ATOM      3  C4  UNL d   1      -0.928  -0.017  -0.531  0.00  0.00     0.002 A 
ATOM      4  C5  UNL d   1       0.377  -0.297  -0.951  0.00  0.00    -0.080 A 
ATOM      5  C6  UNL d   1       0.686  -0.554  -2.396  0.00  0.00     0.076 C 
ATOM      6  C7  UNL d   1       1.402  -0.339   0.000  0.00  0.00     0.002 A 
ATOM      7  C8  UNL d   1       1.123  -0.130   1.352  0.00  0.00     0.006 A 
ENDROOT
BRANCH   1   8
ATOM      8  C1  UNL d   1      -0.494   0.294   3.242  0.00  0.00     0.054 C 
ATOM      9  C   UNL d   1       0.457  -0.527   4.101  0.00  0.00     0.018 C 
ENDBRANCH   1   8
TORSDOF 1
ENDMDL
