MODEL 1
REMARK minimizedAffinity -2.85346389
REMARK minimizedRMSD -1
REMARK  1 active torsions:
REMARK  status: ('A' for Active; 'I' for Inactive)
REMARK    1  A    between atoms: C1_2  and  C2_3 
ROOT
ATOM      1  C2  UNL d   1       0.782  -0.149  -0.604  0.00  0.00    -0.081 A 
ATOM      2  C3  UNL d   1       1.903   0.513  -1.119  0.00  0.00     0.006 A 
ATOM      3  C4  UNL d   1       2.081   0.634  -2.499  0.00  0.00     0.002 A 
ATOM      4  C5  UNL d   1       1.139   0.104  -3.386  0.00  0.00    -0.080 A 
ATOM      5  C6  UNL d   1       1.303   0.254  -4.870  0.00  0.00     0.076 C 
ATOM      6  C7  UNL d   1       0.027  -0.573  -2.872  0.00  0.00     0.002 A 
ATOM      7  C8  UNL d   1      -0.151  -0.696  -1.492  0.00  0.00     0.006 A 
ENDROOT
BRANCH   1   8
ATOM      8  C1  UNL d   1       0.553  -0.226   0.884  0.00  0.00     0.054 C 
ATOM      9  C   UNL d   1      -0.849   0.235   1.253  0.00  0.00     0.018 C 
ENDBRANCH   1   8
TORSDOF 1
ENDMDL
