MODEL 1
REMARK minimizedAffinity -1.30775583
REMARK minimizedRMSD -1
REMARK  1 active torsions:
REMARK  status: ('A' for Active; 'I' for Inactive)
REMARK    1  A    between atoms: C1_2  and  C2_3 
ROOT
ATOM      1  C2  UNL d   1       0.374  -0.286   2.208  0.00  0.00    -0.081 A 
ATOM      2  C3  UNL d   1       1.577  -0.430   1.506  0.00  0.00     0.006 A 
ATOM      3  C4  UNL d   1       1.611  -0.266   0.119  0.00  0.00     0.002 A 
ATOM      4  C5  UNL d   1       0.447   0.054  -0.587  0.00  0.00    -0.080 A 
ATOM      5  C6  UNL d   1       0.476   0.263  -2.072  0.00  0.00     0.076 C 
ATOM      6  C7  UNL d   1      -0.758   0.181   0.112  0.00  0.00     0.002 A 
ATOM      7  C8  UNL d   1      -0.794   0.015   1.498  0.00  0.00     0.006 A 
ENDROOT
BRANCH   1   8
ATOM      8  C1  UNL d   1       0.345  -0.399   3.711  0.00  0.00     0.054 C 
ATOM      9  C   UNL d   1      -0.391   0.775   4.340  0.00  0.00     0.018 C 
ENDBRANCH   1   8
TORSDOF 1
ENDMDL
