MODEL 1
REMARK minimizedAffinity -1.92687356
REMARK minimizedRMSD -1
REMARK  1 active torsions:
REMARK  status: ('A' for Active; 'I' for Inactive)
REMARK    1  A    between atoms: C1_2  and  C2_3 
ROOT
ATOM      1  C2  UNL d   1       0.974   0.417  -2.261  0.00  0.00    -0.081 A 
ATOM      2  C3  UNL d   1      -0.022   1.328  -1.891  0.00  0.00     0.006 A 
ATOM      3  C4  UNL d   1      -0.905   1.028  -0.850  0.00  0.00     0.002 A 
ATOM      4  C5  UNL d   1      -0.801  -0.183  -0.158  0.00  0.00    -0.080 A 
ATOM      5  C6  UNL d   1      -1.722  -0.504   0.981  0.00  0.00     0.076 C 
ATOM      6  C7  UNL d   1       0.184  -1.101  -0.539  0.00  0.00     0.002 A 
ATOM      7  C8  UNL d   1       1.066  -0.802  -1.580  0.00  0.00     0.006 A 
ENDROOT
BRANCH   1   8
ATOM      8  C1  UNL d   1       1.968   0.764  -3.340  0.00  0.00     0.054 C 
ATOM      9  C   UNL d   1       1.612   0.091  -4.658  0.00  0.00     0.018 C 
ENDBRANCH   1   8
TORSDOF 1
ENDMDL
