MODEL 1
REMARK minimizedAffinity -3.36904502
REMARK minimizedRMSD -1
REMARK  0 active torsions:
REMARK  status: ('A' for Active; 'I' for Inactive)
ROOT
ATOM      1  C1  BNZ d   1      -0.298  -0.894  -0.173  0.00  0.00     0.000 A 
ATOM      2  C2  BNZ d   1       0.607  -1.872  -0.487  0.00  0.00     0.000 A 
ATOM      3  C3  BNZ d   1       1.671  -1.605  -1.303  0.00  0.00     0.000 A 
ATOM      4  C4  BNZ d   1       1.806  -0.373  -1.835  0.00  0.00     0.000 A 
ATOM      5  C5  BNZ d   1       0.896   0.621  -1.535  0.00  0.00     0.000 A 
ATOM      6  C6  BNZ d   1      -0.152   0.359  -0.682  0.00  0.00     0.000 A 
ENDROOT
TORSDOF 0
ENDMDL
