MODEL 1
REMARK minimizedAffinity -0.922768772
REMARK minimizedRMSD -1
REMARK  0 active torsions:
REMARK  status: ('A' for Active; 'I' for Inactive)
ROOT
ATOM      1  C1  BNZ d   1       0.312   0.212   0.083  0.00  0.00     0.000 A 
ATOM      2  C2  BNZ d   1       0.137  -0.708  -0.916  0.00  0.00     0.000 A 
ATOM      3  C3  BNZ d   1       0.667  -0.501  -2.159  0.00  0.00     0.000 A 
ATOM      4  C4  BNZ d   1       1.336   0.643  -2.412  0.00  0.00     0.000 A 
ATOM      5  C5  BNZ d   1       1.513   1.584  -1.418  0.00  0.00     0.000 A 
ATOM      6  C6  BNZ d   1       1.011   1.354  -0.157  0.00  0.00     0.000 A 
ENDROOT
TORSDOF 0
ENDMDL
