MODEL 1
REMARK minimizedAffinity -1.08403432
REMARK minimizedRMSD -1
REMARK  0 active torsions:
REMARK  status: ('A' for Active; 'I' for Inactive)
ROOT
ATOM      1  C1  BNZ d   1       0.634  -0.522  -0.333  0.00  0.00     0.000 A 
ATOM      2  C2  BNZ d   1      -0.615  -0.429   0.221  0.00  0.00     0.000 A 
ATOM      3  C3  BNZ d   1      -1.456   0.594  -0.116  0.00  0.00     0.000 A 
ATOM      4  C4  BNZ d   1      -1.033   1.544  -0.975  0.00  0.00     0.000 A 
ATOM      5  C5  BNZ d   1       0.227   1.469  -1.535  0.00  0.00     0.000 A 
ATOM      6  C6  BNZ d   1       1.056   0.416  -1.223  0.00  0.00     0.000 A 
ENDROOT
TORSDOF 0
ENDMDL
