MODEL 1
REMARK minimizedAffinity -0.233652234
REMARK minimizedRMSD -1
REMARK  0 active torsions:
REMARK  status: ('A' for Active; 'I' for Inactive)
ROOT
ATOM      1  C1  BNZ d   1       4.896   3.201   3.802  0.00  0.00     0.000 A 
ATOM      2  C2  BNZ d   1       4.532   1.880   3.793  0.00  0.00     0.000 A 
ATOM      3  C3  BNZ d   1       4.876   1.053   4.825  0.00  0.00     0.000 A 
ATOM      4  C4  BNZ d   1       5.617   1.536   5.844  0.00  0.00     0.000 A 
ATOM      5  C5  BNZ d   1       5.999   2.862   5.862  0.00  0.00     0.000 A 
ATOM      6  C6  BNZ d   1       5.618   3.702   4.841  0.00  0.00     0.000 A 
ENDROOT
TORSDOF 0
ENDMDL
