MODEL 1
REMARK minimizedAffinity -2.1007328
REMARK minimizedRMSD -1
REMARK  0 active torsions:
REMARK  status: ('A' for Active; 'I' for Inactive)
ROOT
ATOM      1  C1  BNZ d   1       0.462  -0.354  -0.478  0.00  0.00     0.000 A 
ATOM      2  C2  BNZ d   1      -0.878  -0.105  -0.608  0.00  0.00     0.000 A 
ATOM      3  C3  BNZ d   1      -1.343   1.173  -0.747  0.00  0.00     0.000 A 
ATOM      4  C4  BNZ d   1      -0.472   2.202  -0.715  0.00  0.00     0.000 A 
ATOM      5  C5  BNZ d   1       0.882   1.968  -0.576  0.00  0.00     0.000 A 
ATOM      6  C6  BNZ d   1       1.350   0.678  -0.475  0.00  0.00     0.000 A 
ENDROOT
TORSDOF 0
ENDMDL
