MODEL 1
REMARK minimizedAffinity -3.16904998
REMARK minimizedRMSD -1
REMARK  0 active torsions:
REMARK  status: ('A' for Active; 'I' for Inactive)
ROOT
ATOM      1  C1  BNZ d   1      -1.740   1.317   1.058  0.00  0.00     0.000 A 
ATOM      2  C2  BNZ d   1      -2.152   0.012   1.098  0.00  0.00     0.000 A 
ATOM      3  C3  BNZ d   1      -2.550  -0.561   2.274  0.00  0.00     0.000 A 
ATOM      4  C4  BNZ d   1      -2.498   0.159   3.413  0.00  0.00     0.000 A 
ATOM      5  C5  BNZ d   1      -2.076   1.474   3.391  0.00  0.00     0.000 A 
ATOM      6  C6  BNZ d   1      -1.713   2.058   2.199  0.00  0.00     0.000 A 
ENDROOT
TORSDOF 0
ENDMDL
