MODEL 1
REMARK minimizedAffinity -4.3081646
REMARK minimizedRMSD -1
REMARK  0 active torsions:
REMARK  status: ('A' for Active; 'I' for Inactive)
ROOT
ATOM      1  C1  BNZ d   1       2.405   0.226  -0.957  0.00  0.00     0.000 A 
ATOM      2  C2  BNZ d   1       1.093   0.507  -0.686  0.00  0.00     0.000 A 
ATOM      3  C3  BNZ d   1       0.210  -0.492  -0.384  0.00  0.00     0.000 A 
ATOM      4  C4  BNZ d   1       0.631  -1.773  -0.394  0.00  0.00     0.000 A 
ATOM      5  C5  BNZ d   1       1.949  -2.074  -0.674  0.00  0.00     0.000 A 
ATOM      6  C6  BNZ d   1       2.843  -1.063  -0.940  0.00  0.00     0.000 A 
ENDROOT
TORSDOF 0
ENDMDL
