MODEL 1
REMARK minimizedAffinity -5.19680548
REMARK minimizedRMSD -1
REMARK  0 active torsions:
REMARK  status: ('A' for Active; 'I' for Inactive)
ROOT
ATOM      1  C1  BNZ d   1       0.903  -1.676  -0.887  0.00  0.00     0.000 A 
ATOM      2  C2  BNZ d   1       2.047  -1.801  -1.629  0.00  0.00     0.000 A 
ATOM      3  C3  BNZ d   1       2.999  -0.819  -1.618  0.00  0.00     0.000 A 
ATOM      4  C4  BNZ d   1       2.787   0.301  -0.898  0.00  0.00     0.000 A 
ATOM      5  C5  BNZ d   1       1.634   0.446  -0.152  0.00  0.00     0.000 A 
ATOM      6  C6  BNZ d   1       0.696  -0.561  -0.135  0.00  0.00     0.000 A 
ENDROOT
TORSDOF 0
ENDMDL
