MODEL 1
REMARK minimizedAffinity -5.21389151
REMARK minimizedRMSD -1
REMARK  0 active torsions:
REMARK  status: ('A' for Active; 'I' for Inactive)
ROOT
ATOM      1  C1  BNZ d   1       3.391   1.076  -2.517  0.00  0.00     0.000 A 
ATOM      2  C2  BNZ d   1       3.689  -0.072  -1.832  0.00  0.00     0.000 A 
ATOM      3  C3  BNZ d   1       2.709  -0.783  -1.198  0.00  0.00     0.000 A 
ATOM      4  C4  BNZ d   1       1.440  -0.325  -1.217  0.00  0.00     0.000 A 
ATOM      5  C5  BNZ d   1       1.126   0.835  -1.896  0.00  0.00     0.000 A 
ATOM      6  C6  BNZ d   1       2.109   1.528  -2.565  0.00  0.00     0.000 A 
ENDROOT
TORSDOF 0
ENDMDL
