MODEL 1
REMARK minimizedAffinity -5.09287548
REMARK minimizedRMSD -1
REMARK  0 active torsions:
REMARK  status: ('A' for Active; 'I' for Inactive)
ROOT
ATOM      1  C1  BNZ d   1      -3.549   0.709   3.430  0.00  0.00     0.000 A 
ATOM      2  C2  BNZ d   1      -4.538  -0.161   3.802  0.00  0.00     0.000 A 
ATOM      3  C3  BNZ d   1      -4.282  -1.498   3.932  0.00  0.00     0.000 A 
ATOM      4  C4  BNZ d   1      -3.050  -1.967   3.651  0.00  0.00     0.000 A 
ATOM      5  C5  BNZ d   1      -2.044  -1.103   3.266  0.00  0.00     0.000 A 
ATOM      6  C6  BNZ d   1      -2.295   0.247   3.174  0.00  0.00     0.000 A 
ENDROOT
TORSDOF 0
ENDMDL
