MODEL 1
REMARK minimizedAffinity -2.0016129
REMARK minimizedRMSD -1
REMARK  0 active torsions:
REMARK  status: ('A' for Active; 'I' for Inactive)
ROOT
ATOM      1  C1  BNZ d   1      -2.978   0.301   4.250  0.00  0.00     0.000 A 
ATOM      2  C2  BNZ d   1      -2.909  -1.067   4.256  0.00  0.00     0.000 A 
ATOM      3  C3  BNZ d   1      -2.262  -1.739   3.257  0.00  0.00     0.000 A 
ATOM      4  C4  BNZ d   1      -1.720  -1.047   2.234  0.00  0.00     0.000 A 
ATOM      5  C5  BNZ d   1      -1.790   0.331   2.209  0.00  0.00     0.000 A 
ATOM      6  C6  BNZ d   1      -2.408   1.007   3.236  0.00  0.00     0.000 A 
ENDROOT
TORSDOF 0
ENDMDL
