MODEL 1
REMARK minimizedAffinity -5.07434225
REMARK minimizedRMSD -1
REMARK  0 active torsions:
REMARK  status: ('A' for Active; 'I' for Inactive)
ROOT
ATOM      1  C1  BNZ d   1       0.820   0.360  -0.352  0.00  0.00     0.000 A 
ATOM      2  C2  BNZ d   1       1.479   1.231  -1.177  0.00  0.00     0.000 A 
ATOM      3  C3  BNZ d   1       2.323   0.771  -2.149  0.00  0.00     0.000 A 
ATOM      4  C4  BNZ d   1       2.538  -0.555  -2.268  0.00  0.00     0.000 A 
ATOM      5  C5  BNZ d   1       1.887  -1.446  -1.437  0.00  0.00     0.000 A 
ATOM      6  C6  BNZ d   1       1.008  -0.981  -0.486  0.00  0.00     0.000 A 
ENDROOT
TORSDOF 0
ENDMDL
