MODEL 1
REMARK minimizedAffinity -1.53163075
REMARK minimizedRMSD -1
REMARK  0 active torsions:
REMARK  status: ('A' for Active; 'I' for Inactive)
ROOT
ATOM      1  C1  BNZ d   1      -0.587  -0.402  -0.475  0.00  0.00     0.000 A 
ATOM      2  C2  BNZ d   1       0.147  -1.493  -0.092  0.00  0.00     0.000 A 
ATOM      3  C3  BNZ d   1       1.216  -1.912  -0.834  0.00  0.00     0.000 A 
ATOM      4  C4  BNZ d   1       1.524  -1.266  -1.977  0.00  0.00     0.000 A 
ATOM      5  C5  BNZ d   1       0.787  -0.171  -2.381  0.00  0.00     0.000 A 
ATOM      6  C6  BNZ d   1      -0.264   0.272  -1.611  0.00  0.00     0.000 A 
ENDROOT
TORSDOF 0
ENDMDL
