MODEL 1
REMARK minimizedAffinity -4.28315878
REMARK minimizedRMSD -1
REMARK  0 active torsions:
REMARK  status: ('A' for Active; 'I' for Inactive)
ROOT
ATOM      1  C1  BNZ d   1      -1.830  -0.108   1.332  0.00  0.00     0.000 A 
ATOM      2  C2  BNZ d   1      -1.594   1.240   1.389  0.00  0.00     0.000 A 
ATOM      3  C3  BNZ d   1      -1.689   1.917   2.572  0.00  0.00     0.000 A 
ATOM      4  C4  BNZ d   1      -2.060   1.255   3.687  0.00  0.00     0.000 A 
ATOM      5  C5  BNZ d   1      -2.311  -0.102   3.644  0.00  0.00     0.000 A 
ATOM      6  C6  BNZ d   1      -2.176  -0.788   2.459  0.00  0.00     0.000 A 
ENDROOT
TORSDOF 0
ENDMDL
