MODEL 1
REMARK minimizedAffinity 12.801753
REMARK minimizedRMSD -1
REMARK  0 active torsions:
REMARK  status: ('A' for Active; 'I' for Inactive)
ROOT
ATOM      1  C   UNL d   1      -2.147  -0.917   1.600  0.00  0.00     0.023 A 
ATOM      2  C1  UNL d   1      -3.118   0.052   1.850  0.00  0.00     0.003 A 
ATOM      3  C2  UNL d   1      -4.199   0.202   0.978  0.00  0.00     0.048 A 
ATOM      4  C3  UNL d   1      -4.302  -0.623  -0.142  0.00  0.00     0.023 A 
ATOM      5  C4  UNL d   1      -3.333  -1.595  -0.396  0.00  0.00     0.048 A 
ATOM      6  C5  UNL d   1      -2.254  -1.740   0.479  0.00  0.00     0.003 A 
ATOM      7  I   UNL d   1      -5.909  -0.403  -1.442  0.00  0.00    -0.146 I 
ENDROOT
TORSDOF 0
ENDMDL
