MODEL 1
REMARK minimizedAffinity 10.4844742
REMARK minimizedRMSD -1
REMARK  0 active torsions:
REMARK  status: ('A' for Active; 'I' for Inactive)
ROOT
ATOM      1  C   UNL d   1       5.248   0.377   3.001  0.00  0.00     0.023 A 
ATOM      2  C1  UNL d   1       5.996   1.520   2.718  0.00  0.00     0.003 A 
ATOM      3  C2  UNL d   1       5.998   2.052   1.427  0.00  0.00     0.048 A 
ATOM      4  C3  UNL d   1       5.248   1.438   0.425  0.00  0.00     0.023 A 
ATOM      5  C4  UNL d   1       4.497   0.296   0.704  0.00  0.00     0.048 A 
ATOM      6  C5  UNL d   1       4.499  -0.234   1.996  0.00  0.00     0.003 A 
ATOM      7  I   UNL d   1       5.249   2.230  -1.497  0.00  0.00    -0.146 I 
ENDROOT
TORSDOF 0
ENDMDL
