MODEL 1
REMARK minimizedAffinity 14.8142853
REMARK minimizedRMSD -1
REMARK  0 active torsions:
REMARK  status: ('A' for Active; 'I' for Inactive)
ROOT
ATOM      1  C   UNL d   1      -4.865  -0.824   0.712  0.00  0.00     0.023 A 
ATOM      2  C1  UNL d   1      -4.091   0.298   1.012  0.00  0.00     0.003 A 
ATOM      3  C2  UNL d   1      -4.035   1.368   0.118  0.00  0.00     0.048 A 
ATOM      4  C3  UNL d   1      -4.756   1.312  -1.074  0.00  0.00     0.023 A 
ATOM      5  C4  UNL d   1      -5.533   0.193  -1.378  0.00  0.00     0.048 A 
ATOM      6  C5  UNL d   1      -5.585  -0.876  -0.481  0.00  0.00     0.003 A 
ATOM      7  I   UNL d   1      -4.674   2.905  -2.407  0.00  0.00    -0.146 I 
ENDROOT
TORSDOF 0
ENDMDL
