MODEL 1
REMARK minimizedAffinity 13.6789818
REMARK minimizedRMSD -1
REMARK  0 active torsions:
REMARK  status: ('A' for Active; 'I' for Inactive)
ROOT
ATOM      1  C   UNL d   1       0.425  -0.891   4.475  0.00  0.00     0.023 A 
ATOM      2  C1  UNL d   1       1.289  -1.048   5.559  0.00  0.00     0.003 A 
ATOM      3  C2  UNL d   1       1.635  -2.327   5.998  0.00  0.00     0.048 A 
ATOM      4  C3  UNL d   1       1.114  -3.446   5.348  0.00  0.00     0.023 A 
ATOM      5  C4  UNL d   1       0.250  -3.293   4.262  0.00  0.00     0.048 A 
ATOM      6  C5  UNL d   1      -0.094  -2.012   3.827  0.00  0.00     0.003 A 
ATOM      7  I   UNL d   1       1.628  -5.351   5.999  0.00  0.00    -0.146 I 
ENDROOT
TORSDOF 0
ENDMDL
