MODEL 1
REMARK minimizedAffinity 13.9712086
REMARK minimizedRMSD -1
REMARK  0 active torsions:
REMARK  status: ('A' for Active; 'I' for Inactive)
ROOT
ATOM      1  C   UNL d   1      -3.681  -0.408   0.332  0.00  0.00     0.023 A 
ATOM      2  C1  UNL d   1      -3.976  -0.518  -1.026  0.00  0.00     0.003 A 
ATOM      3  C2  UNL d   1      -4.390   0.606  -1.745  0.00  0.00     0.048 A 
ATOM      4  C3  UNL d   1      -4.506   1.836  -1.099  0.00  0.00     0.023 A 
ATOM      5  C4  UNL d   1      -4.210   1.951   0.260  0.00  0.00     0.048 A 
ATOM      6  C5  UNL d   1      -3.797   0.825   0.975  0.00  0.00     0.003 A 
ATOM      7  I   UNL d   1      -5.121   3.509  -2.167  0.00  0.00    -0.146 I 
ENDROOT
TORSDOF 0
ENDMDL
