MODEL 1
REMARK minimizedAffinity 15.1785173
REMARK minimizedRMSD -1
REMARK  0 active torsions:
REMARK  status: ('A' for Active; 'I' for Inactive)
ROOT
ATOM      1  C   UNL d   1      -5.357  -0.869   0.354  0.00  0.00     0.023 A 
ATOM      2  C1  UNL d   1      -5.249  -1.054  -1.024  0.00  0.00     0.003 A 
ATOM      3  C2  UNL d   1      -4.043  -0.782  -1.674  0.00  0.00     0.048 A 
ATOM      4  C3  UNL d   1      -2.949  -0.325  -0.938  0.00  0.00     0.023 A 
ATOM      5  C4  UNL d   1      -3.053  -0.139   0.441  0.00  0.00     0.048 A 
ATOM      6  C5  UNL d   1      -4.261  -0.412   1.086  0.00  0.00     0.003 A 
ATOM      7  I   UNL d   1      -1.154   0.081  -1.903  0.00  0.00    -0.146 I 
ENDROOT
TORSDOF 0
ENDMDL
