MODEL 1
REMARK minimizedAffinity 19.439085
REMARK minimizedRMSD -1
REMARK  0 active torsions:
REMARK  status: ('A' for Active; 'I' for Inactive)
ROOT
ATOM      1  C   UNL d   1      -4.860   0.549   0.754  0.00  0.00     0.023 A 
ATOM      2  C1  UNL d   1      -5.100   0.347  -0.605  0.00  0.00     0.003 A 
ATOM      3  C2  UNL d   1      -4.164  -0.333  -1.388  0.00  0.00     0.048 A 
ATOM      4  C3  UNL d   1      -2.990  -0.808  -0.804  0.00  0.00     0.023 A 
ATOM      5  C4  UNL d   1      -2.746  -0.609   0.556  0.00  0.00     0.048 A 
ATOM      6  C5  UNL d   1      -3.685   0.072   1.334  0.00  0.00     0.003 A 
ATOM      7  I   UNL d   1      -1.596  -1.820  -1.966  0.00  0.00    -0.146 I 
ENDROOT
TORSDOF 0
ENDMDL
