MODEL 1
REMARK minimizedAffinity 8.18524265
REMARK minimizedRMSD -1
REMARK  0 active torsions:
REMARK  status: ('A' for Active; 'I' for Inactive)
ROOT
ATOM      1  C   UNL d   1       2.662   5.998   3.045  0.00  0.00     0.023 A 
ATOM      2  C1  UNL d   1       3.400   5.054   3.760  0.00  0.00     0.003 A 
ATOM      3  C2  UNL d   1       2.843   3.808   4.055  0.00  0.00     0.048 A 
ATOM      4  C3  UNL d   1       1.548   3.512   3.632  0.00  0.00     0.023 A 
ATOM      5  C4  UNL d   1       0.806   4.453   2.916  0.00  0.00     0.048 A 
ATOM      6  C5  UNL d   1       1.366   5.698   2.624  0.00  0.00     0.003 A 
ATOM      7  I   UNL d   1       0.717   1.658   4.070  0.00  0.00    -0.146 I 
ENDROOT
TORSDOF 0
ENDMDL
