MODEL 1
REMARK minimizedAffinity -3.70609999
REMARK minimizedRMSD -1
REMARK  1 active torsions:
REMARK  status: ('A' for Active; 'I' for Inactive)
REMARK    1  A    between atoms: C1_2  and  C2_3 
ROOT
ATOM      1  C2  UNL d   1       1.231   0.842  -0.863  0.00  0.00    -0.081 A 
ATOM      2  C3  UNL d   1       2.009  -0.282  -1.168  0.00  0.00     0.006 A 
ATOM      3  C4  UNL d   1       1.531  -1.567  -0.899  0.00  0.00     0.002 A 
ATOM      4  C5  UNL d   1       0.267  -1.749  -0.329  0.00  0.00    -0.080 A 
ATOM      5  C6  UNL d   1      -0.270  -3.124  -0.063  0.00  0.00     0.076 C 
ATOM      6  C7  UNL d   1      -0.503  -0.626  -0.008  0.00  0.00     0.002 A 
ATOM      7  C8  UNL d   1      -0.026   0.659  -0.276  0.00  0.00     0.006 A 
ENDROOT
BRANCH   1   8
ATOM      8  C1  UNL d   1       1.716   2.227  -1.211  0.00  0.00     0.054 C 
ATOM      9  C   UNL d   1       0.685   2.983  -2.037  0.00  0.00     0.018 C 
ENDBRANCH   1   8
TORSDOF 1
ENDMDL
