MODEL 1
REMARK minimizedAffinity -4.13984966
REMARK minimizedRMSD -1
REMARK  1 active torsions:
REMARK  status: ('A' for Active; 'I' for Inactive)
REMARK    1  A    between atoms: C1_2  and  C2_3 
ROOT
ATOM      1  C2  UNL d   1      -0.775   0.015   0.492  0.00  0.00    -0.081 A 
ATOM      2  C3  UNL d   1      -0.271  -1.275   0.285  0.00  0.00     0.006 A 
ATOM      3  C4  UNL d   1       0.946  -1.462  -0.376  0.00  0.00     0.002 A 
ATOM      4  C5  UNL d   1       1.681  -0.363  -0.834  0.00  0.00    -0.080 A 
ATOM      5  C6  UNL d   1       3.003  -0.548  -1.518  0.00  0.00     0.076 C 
ATOM      6  C7  UNL d   1       1.169   0.925  -0.643  0.00  0.00     0.002 A 
ATOM      7  C8  UNL d   1      -0.048   1.112   0.018  0.00  0.00     0.006 A 
ENDROOT
BRANCH   1   8
ATOM      8  C1  UNL d   1      -2.055   0.223   1.261  0.00  0.00     0.054 C 
ATOM      9  C   UNL d   1      -1.784   0.399   2.749  0.00  0.00     0.018 C 
ENDBRANCH   1   8
TORSDOF 1
ENDMDL
