MODEL 1
REMARK minimizedAffinity -1.12961674
REMARK minimizedRMSD -1
REMARK  1 active torsions:
REMARK  status: ('A' for Active; 'I' for Inactive)
REMARK    1  A    between atoms: C1_2  and  C2_3 
ROOT
ATOM      1  C2  UNL d   1      -0.533   0.127   0.487  0.00  0.00    -0.081 A 
ATOM      2  C3  UNL d   1      -0.150  -1.206   0.294  0.00  0.00     0.006 A 
ATOM      3  C4  UNL d   1       1.031  -1.512  -0.388  0.00  0.00     0.002 A 
ATOM      4  C5  UNL d   1       1.851  -0.491  -0.880  0.00  0.00    -0.080 A 
ATOM      5  C6  UNL d   1       3.136  -0.805  -1.588  0.00  0.00     0.076 C 
ATOM      6  C7  UNL d   1       1.459   0.841  -0.702  0.00  0.00     0.002 A 
ATOM      7  C8  UNL d   1       0.279   1.147  -0.021  0.00  0.00     0.006 A 
ENDROOT
BRANCH   1   8
ATOM      8  C1  UNL d   1      -1.772   0.461   1.278  0.00  0.00     0.054 C 
ATOM      9  C   UNL d   1      -1.429   0.821   2.717  0.00  0.00     0.018 C 
ENDBRANCH   1   8
TORSDOF 1
ENDMDL
