MODEL 1
REMARK minimizedAffinity -5.50504398
REMARK minimizedRMSD -1
REMARK  1 active torsions:
REMARK  status: ('A' for Active; 'I' for Inactive)
REMARK    1  A    between atoms: C1_2  and  C2_3 
ROOT
ATOM      1  C2  UNL d   1      -0.374   0.128   0.273  0.00  0.00    -0.081 A 
ATOM      2  C3  UNL d   1       0.429   1.143  -0.260  0.00  0.00     0.006 A 
ATOM      3  C4  UNL d   1       1.643   0.835  -0.880  0.00  0.00     0.002 A 
ATOM      4  C5  UNL d   1       2.070  -0.493  -0.983  0.00  0.00    -0.080 A 
ATOM      5  C6  UNL d   1       3.356  -0.840  -1.673  0.00  0.00     0.076 C 
ATOM      6  C7  UNL d   1       1.276  -1.506  -0.435  0.00  0.00     0.002 A 
ATOM      7  C8  UNL d   1       0.063  -1.199   0.185  0.00  0.00     0.006 A 
ENDROOT
BRANCH   1   8
ATOM      8  C1  UNL d   1      -1.713   0.451   0.884  0.00  0.00     0.054 C 
ATOM      9  C   UNL d   1      -1.555   1.218   2.189  0.00  0.00     0.018 C 
ENDBRANCH   1   8
TORSDOF 1
ENDMDL
