MODEL 1
REMARK minimizedAffinity -4.75311518
REMARK minimizedRMSD -1
REMARK  1 active torsions:
REMARK  status: ('A' for Active; 'I' for Inactive)
REMARK    1  A    between atoms: C1_2  and  C2_3 
ROOT
ATOM      1  C2  UNL d   1      -0.829   0.079   0.283  0.00  0.00    -0.081 A 
ATOM      2  C3  UNL d   1      -0.252  -1.197   0.289  0.00  0.00     0.006 A 
ATOM      3  C4  UNL d   1       1.000  -1.411  -0.294  0.00  0.00     0.002 A 
ATOM      4  C5  UNL d   1       1.699  -0.352  -0.884  0.00  0.00    -0.080 A 
ATOM      5  C6  UNL d   1       3.056  -0.562  -1.485  0.00  0.00     0.076 C 
ATOM      6  C7  UNL d   1       1.115   0.919  -0.905  0.00  0.00     0.002 A 
ATOM      7  C8  UNL d   1      -0.137   1.133  -0.323  0.00  0.00     0.006 A 
ENDROOT
BRANCH   1   8
ATOM      8  C1  UNL d   1      -2.149   0.326   0.967  0.00  0.00     0.054 C 
ATOM      9  C   UNL d   1      -1.949   0.857   2.379  0.00  0.00     0.018 C 
ENDBRANCH   1   8
TORSDOF 1
ENDMDL
