MODEL 1
REMARK minimizedAffinity -5.12547827
REMARK minimizedRMSD -1
REMARK  1 active torsions:
REMARK  status: ('A' for Active; 'I' for Inactive)
REMARK    1  A    between atoms: C1_2  and  C2_3 
ROOT
ATOM      1  C2  UNL d   1      -0.363   0.749   1.241  0.00  0.00    -0.081 A 
ATOM      2  C3  UNL d   1      -1.011  -0.404   0.781  0.00  0.00     0.006 A 
ATOM      3  C4  UNL d   1      -0.385  -1.250  -0.137  0.00  0.00     0.002 A 
ATOM      4  C5  UNL d   1       0.901  -0.962  -0.605  0.00  0.00    -0.080 A 
ATOM      5  C6  UNL d   1       1.597  -1.878  -1.568  0.00  0.00     0.076 C 
ATOM      6  C7  UNL d   1       1.542   0.199  -0.160  0.00  0.00     0.002 A 
ATOM      7  C8  UNL d   1       0.916   1.046   0.758  0.00  0.00     0.006 A 
ENDROOT
BRANCH   1   8
ATOM      8  C1  UNL d   1      -1.009   1.629   2.280  0.00  0.00     0.054 C 
ATOM      9  C   UNL d   1      -1.677   0.801   3.369  0.00  0.00     0.018 C 
ENDBRANCH   1   8
TORSDOF 1
ENDMDL
