MODEL 1
REMARK minimizedAffinity -5.43653393
REMARK minimizedRMSD -1
REMARK  1 active torsions:
REMARK  status: ('A' for Active; 'I' for Inactive)
REMARK    1  A    between atoms: C1_2  and  C2_3 
ROOT
ATOM      1  C2  UNL d   1       1.097   0.161  -0.887  0.00  0.00    -0.081 A 
ATOM      2  C3  UNL d   1       1.843  -0.744  -1.652  0.00  0.00     0.006 A 
ATOM      3  C4  UNL d   1       1.760  -2.116  -1.406  0.00  0.00     0.002 A 
ATOM      4  C5  UNL d   1       0.924  -2.608  -0.397  0.00  0.00    -0.080 A 
ATOM      5  C6  UNL d   1       0.803  -4.081  -0.143  0.00  0.00     0.076 C 
ATOM      6  C7  UNL d   1       0.192  -1.703   0.378  0.00  0.00     0.002 A 
ATOM      7  C8  UNL d   1       0.275  -0.330   0.133  0.00  0.00     0.006 A 
ENDROOT
BRANCH   1   8
ATOM      8  C1  UNL d   1       1.134   1.636  -1.193  0.00  0.00     0.054 C 
ATOM      9  C   UNL d   1      -0.181   2.111  -1.794  0.00  0.00     0.018 C 
ENDBRANCH   1   8
TORSDOF 1
ENDMDL
