MODEL 1
REMARK minimizedAffinity -3.73877311
REMARK minimizedRMSD -1
REMARK  1 active torsions:
REMARK  status: ('A' for Active; 'I' for Inactive)
REMARK    1  A    between atoms: C1_2  and  C2_3 
ROOT
ATOM      1  C2  UNL d   1       0.888   0.254  -0.999  0.00  0.00    -0.081 A 
ATOM      2  C3  UNL d   1       1.553  -0.846  -1.554  0.00  0.00     0.006 A 
ATOM      3  C4  UNL d   1       1.185  -2.147  -1.203  0.00  0.00     0.002 A 
ATOM      4  C5  UNL d   1       0.141  -2.370  -0.298  0.00  0.00    -0.080 A 
ATOM      5  C6  UNL d   1      -0.284  -3.762   0.064  0.00  0.00     0.076 C 
ATOM      6  C7  UNL d   1      -0.512  -1.271   0.269  0.00  0.00     0.002 A 
ATOM      7  C8  UNL d   1      -0.144   0.030  -0.081  0.00  0.00     0.006 A 
ENDROOT
BRANCH   1   8
ATOM      8  C1  UNL d   1       1.239   1.657  -1.425  0.00  0.00     0.054 C 
ATOM      9  C   UNL d   1       0.010   2.413  -1.909  0.00  0.00     0.018 C 
ENDBRANCH   1   8
TORSDOF 1
ENDMDL
