MODEL 1
REMARK minimizedAffinity -4.58231449
REMARK minimizedRMSD -1
REMARK  1 active torsions:
REMARK  status: ('A' for Active; 'I' for Inactive)
REMARK    1  A    between atoms: C1_2  and  C2_3 
ROOT
ATOM      1  C2  UNL d   1       0.495   0.150  -0.852  0.00  0.00    -0.081 A 
ATOM      2  C3  UNL d   1       1.773  -0.418  -0.923  0.00  0.00     0.006 A 
ATOM      3  C4  UNL d   1       1.944  -1.797  -0.779  0.00  0.00     0.002 A 
ATOM      4  C5  UNL d   1       0.840  -2.632  -0.571  0.00  0.00    -0.080 A 
ATOM      5  C6  UNL d   1       1.007  -4.117  -0.446  0.00  0.00     0.076 C 
ATOM      6  C7  UNL d   1      -0.435  -2.063  -0.483  0.00  0.00     0.002 A 
ATOM      7  C8  UNL d   1      -0.606  -0.684  -0.626  0.00  0.00     0.006 A 
ENDROOT
BRANCH   1   8
ATOM      8  C1  UNL d   1       0.300   1.628  -1.071  0.00  0.00     0.054 C 
ATOM      9  C   UNL d   1      -1.155   1.956  -1.373  0.00  0.00     0.018 C 
ENDBRANCH   1   8
TORSDOF 1
ENDMDL
