MODEL 1
REMARK minimizedAffinity -4.78210258
REMARK minimizedRMSD -1
REMARK  1 active torsions:
REMARK  status: ('A' for Active; 'I' for Inactive)
REMARK    1  A    between atoms: C1_2  and  C2_3 
ROOT
ATOM      1  C2  UNL d   1      -0.883  -0.308  -0.137  0.00  0.00    -0.081 A 
ATOM      2  C3  UNL d   1      -0.259  -1.560  -0.182  0.00  0.00     0.006 A 
ATOM      3  C4  UNL d   1       1.064  -1.677  -0.616  0.00  0.00     0.002 A 
ATOM      4  C5  UNL d   1       1.786  -0.543  -1.004  0.00  0.00    -0.080 A 
ATOM      5  C6  UNL d   1       3.217  -0.651  -1.443  0.00  0.00     0.076 C 
ATOM      6  C7  UNL d   1       1.157   0.706  -0.976  0.00  0.00     0.002 A 
ATOM      7  C8  UNL d   1      -0.166   0.823  -0.543  0.00  0.00     0.006 A 
ENDROOT
BRANCH   1   8
ATOM      8  C1  UNL d   1      -2.288  -0.171   0.392  0.00  0.00     0.054 C 
ATOM      9  C   UNL d   1      -2.320  -0.273   1.910  0.00  0.00     0.018 C 
ENDBRANCH   1   8
TORSDOF 1
ENDMDL
