MODEL 1
REMARK minimizedAffinity -3.83581352
REMARK minimizedRMSD -1
REMARK  0 active torsions:
REMARK  status: ('A' for Active; 'I' for Inactive)
ROOT
ATOM      1  C   UNL d   1      -0.014   0.371   0.002  0.00  0.00     0.172 C 
ATOM      2  N   UNL d   1      -0.292  -0.998  -0.363  0.00  0.00    -0.070 N 
ATOM      3  C1  UNL d   1      -0.785  -1.963   0.474  0.00  0.00    -0.004 A 
ATOM      4  C2  UNL d   1      -0.910  -3.128  -0.252  0.00  0.00    -0.047 A 
ATOM      5  C3  UNL d   1      -0.476  -2.853  -1.571  0.00  0.00    -0.047 A 
ATOM      6  C4  UNL d   1      -0.099  -1.528  -1.612  0.00  0.00    -0.004 A 
ENDROOT
TORSDOF 0
ENDMDL
