MODEL 1
REMARK minimizedAffinity -1.72160769
REMARK minimizedRMSD -1
REMARK  0 active torsions:
REMARK  status: ('A' for Active; 'I' for Inactive)
ROOT
ATOM      1  C   UNL d   1       0.793   2.463   0.198  0.00  0.00     0.172 C 
ATOM      2  N   UNL d   1       0.178   1.227   0.623  0.00  0.00    -0.070 N 
ATOM      3  C1  UNL d   1      -0.140   0.896   1.913  0.00  0.00    -0.004 A 
ATOM      4  C2  UNL d   1      -0.707  -0.360   1.899  0.00  0.00    -0.047 A 
ATOM      5  C3  UNL d   1      -0.729  -0.799   0.554  0.00  0.00    -0.047 A 
ATOM      6  C4  UNL d   1      -0.175   0.203  -0.215  0.00  0.00    -0.004 A 
ENDROOT
TORSDOF 0
ENDMDL
