MODEL 1
REMARK minimizedAffinity -1.91511321
REMARK minimizedRMSD -1
REMARK  0 active torsions:
REMARK  status: ('A' for Active; 'I' for Inactive)
ROOT
ATOM      1  C   UNL d   1      -0.863  -2.314   0.939  0.00  0.00     0.172 C 
ATOM      2  N   UNL d   1      -0.640  -0.935   0.575  0.00  0.00    -0.070 N 
ATOM      3  C1  UNL d   1      -1.064   0.157   1.285  0.00  0.00    -0.004 A 
ATOM      4  C2  UNL d   1      -0.653   1.285   0.610  0.00  0.00    -0.047 A 
ATOM      5  C3  UNL d   1       0.041   0.857  -0.547  0.00  0.00    -0.047 A 
ATOM      6  C4  UNL d   1       0.034  -0.521  -0.543  0.00  0.00    -0.004 A 
ENDROOT
TORSDOF 0
ENDMDL
