MODEL 1
REMARK minimizedAffinity -2.92753625
REMARK minimizedRMSD -1
REMARK  0 active torsions:
REMARK  status: ('A' for Active; 'I' for Inactive)
ROOT
ATOM      1  C   UNL d   1      -0.455  -2.617   0.811  0.00  0.00     0.172 C 
ATOM      2  N   UNL d   1      -0.276  -1.212   0.530  0.00  0.00    -0.070 N 
ATOM      3  C1  UNL d   1      -0.816  -0.179   1.248  0.00  0.00    -0.004 A 
ATOM      4  C2  UNL d   1      -0.411   1.001   0.662  0.00  0.00    -0.047 A 
ATOM      5  C3  UNL d   1       0.399   0.665  -0.448  0.00  0.00    -0.047 A 
ATOM      6  C4  UNL d   1       0.466  -0.711  -0.507  0.00  0.00    -0.004 A 
ENDROOT
TORSDOF 0
ENDMDL
