MODEL 1
REMARK minimizedAffinity -3.2094202
REMARK minimizedRMSD -1
REMARK  0 active torsions:
REMARK  status: ('A' for Active; 'I' for Inactive)
ROOT
ATOM      1  C   UNL d   1       0.188   1.605   0.765  0.00  0.00     0.172 C 
ATOM      2  N   UNL d   1      -0.309   0.270   1.005  0.00  0.00    -0.070 N 
ATOM      3  C1  UNL d   1      -0.998  -0.499   0.105  0.00  0.00    -0.004 A 
ATOM      4  C2  UNL d   1      -1.292  -1.699   0.713  0.00  0.00    -0.047 A 
ATOM      5  C3  UNL d   1      -0.762  -1.651   2.025  0.00  0.00    -0.047 A 
ATOM      6  C4  UNL d   1      -0.159  -0.420   2.178  0.00  0.00    -0.004 A 
ENDROOT
TORSDOF 0
ENDMDL
