MODEL 1
REMARK minimizedAffinity -2.51391149
REMARK minimizedRMSD -1
REMARK  0 active torsions:
REMARK  status: ('A' for Active; 'I' for Inactive)
ROOT
ATOM      1  C   UNL d   1      -0.877  -2.366   0.575  0.00  0.00     0.172 C 
ATOM      2  N   UNL d   1      -0.562  -1.048   0.077  0.00  0.00    -0.070 N 
ATOM      3  C1  UNL d   1      -0.477   0.091   0.833  0.00  0.00    -0.004 A 
ATOM      4  C2  UNL d   1      -0.157   1.134  -0.010  0.00  0.00    -0.047 A 
ATOM      5  C3  UNL d   1      -0.047   0.603  -1.318  0.00  0.00    -0.047 A 
ATOM      6  C4  UNL d   1      -0.303  -0.750  -1.234  0.00  0.00    -0.004 A 
ENDROOT
TORSDOF 0
ENDMDL
