MODEL 1
REMARK minimizedAffinity -2.43482351
REMARK minimizedRMSD -1
REMARK  0 active torsions:
REMARK  status: ('A' for Active; 'I' for Inactive)
ROOT
ATOM      1  C   UNL d   1       0.412   0.786   0.299  0.00  0.00     0.172 C 
ATOM      2  N   UNL d   1       0.023  -0.605   0.315  0.00  0.00    -0.070 N 
ATOM      3  C1  UNL d   1       0.208  -1.497  -0.707  0.00  0.00    -0.004 A 
ATOM      4  C2  UNL d   1      -0.296  -2.713  -0.302  0.00  0.00    -0.047 A 
ATOM      5  C3  UNL d   1      -0.804  -2.546   1.008  0.00  0.00    -0.047 A 
ATOM      6  C4  UNL d   1      -0.593  -1.231   1.366  0.00  0.00    -0.004 A 
ENDROOT
TORSDOF 0
ENDMDL
