MODEL 1
REMARK minimizedAffinity -2.93873382
REMARK minimizedRMSD -1
REMARK  0 active torsions:
REMARK  status: ('A' for Active; 'I' for Inactive)
ROOT
ATOM      1  C   UNL d   1       0.150  -2.162  -2.572  0.00  0.00     0.172 C 
ATOM      2  N   UNL d   1      -0.205  -1.944  -1.189  0.00  0.00    -0.070 N 
ATOM      3  C1  UNL d   1      -0.013  -0.783  -0.489  0.00  0.00    -0.004 A 
ATOM      4  C2  UNL d   1      -0.482  -0.980   0.792  0.00  0.00    -0.047 A 
ATOM      5  C3  UNL d   1      -0.972  -2.306   0.864  0.00  0.00    -0.047 A 
ATOM      6  C4  UNL d   1      -0.788  -2.880  -0.376  0.00  0.00    -0.004 A 
ENDROOT
TORSDOF 0
ENDMDL
