MODEL 1
REMARK minimizedAffinity -2.87346506
REMARK minimizedRMSD -1
REMARK  0 active torsions:
REMARK  status: ('A' for Active; 'I' for Inactive)
ROOT
ATOM      1  C   UNL d   1       0.227   1.164  -0.027  0.00  0.00     0.172 C 
ATOM      2  N   UNL d   1      -0.262  -0.188   0.107  0.00  0.00    -0.070 N 
ATOM      3  C1  UNL d   1       0.058  -1.237  -0.713  0.00  0.00    -0.004 A 
ATOM      4  C2  UNL d   1      -0.610  -2.351  -0.252  0.00  0.00    -0.047 A 
ATOM      5  C3  UNL d   1      -1.358  -1.957   0.882  0.00  0.00    -0.047 A 
ATOM      6  C4  UNL d   1      -1.124  -0.613   1.082  0.00  0.00    -0.004 A 
ENDROOT
TORSDOF 0
ENDMDL
