MODEL 1
REMARK minimizedAffinity -1.68508744
REMARK minimizedRMSD -1
REMARK  0 active torsions:
REMARK  status: ('A' for Active; 'I' for Inactive)
ROOT
ATOM      1  C   UNL d   1      -1.163  -2.310   0.849  0.00  0.00     0.172 C 
ATOM      2  N   UNL d   1      -0.651  -1.011   0.478  0.00  0.00    -0.070 N 
ATOM      3  C1  UNL d   1       0.186  -0.754  -0.575  0.00  0.00    -0.004 A 
ATOM      4  C2  UNL d   1       0.440   0.600  -0.590  0.00  0.00    -0.047 A 
ATOM      5  C3  UNL d   1      -0.268   1.177   0.491  0.00  0.00    -0.047 A 
ATOM      6  C4  UNL d   1      -0.935   0.157   1.135  0.00  0.00    -0.004 A 
ENDROOT
TORSDOF 0
ENDMDL
