MODEL 1
REMARK minimizedAffinity -2.04312301
REMARK minimizedRMSD -1
REMARK  0 active torsions:
REMARK  status: ('A' for Active; 'I' for Inactive)
ROOT
ATOM      1  C   UNL d   1       0.286   0.058   0.203  0.00  0.00     0.172 C 
ATOM      2  N   UNL d   1       0.002  -1.146  -0.543  0.00  0.00    -0.070 N 
ATOM      3  C1  UNL d   1      -0.602  -2.269  -0.046  0.00  0.00    -0.004 A 
ATOM      4  C2  UNL d   1      -0.691  -3.189  -1.068  0.00  0.00    -0.047 A 
ATOM      5  C3  UNL d   1      -0.119  -2.598  -2.220  0.00  0.00    -0.047 A 
ATOM      6  C4  UNL d   1       0.301  -1.333  -1.867  0.00  0.00    -0.004 A 
ENDROOT
TORSDOF 0
ENDMDL
