MODEL 1
REMARK minimizedAffinity -2.58723903
REMARK minimizedRMSD -1
REMARK  0 active torsions:
REMARK  status: ('A' for Active; 'I' for Inactive)
ROOT
ATOM      1  C   UNL d   1       0.159   0.975  -0.115  0.00  0.00     0.172 C 
ATOM      2  N   UNL d   1      -0.145  -0.420   0.106  0.00  0.00    -0.070 N 
ATOM      3  C1  UNL d   1      -0.258  -1.376  -0.867  0.00  0.00    -0.004 A 
ATOM      4  C2  UNL d   1      -0.554  -2.573  -0.251  0.00  0.00    -0.047 A 
ATOM      5  C3  UNL d   1      -0.622  -2.326   1.141  0.00  0.00    -0.047 A 
ATOM      6  C4  UNL d   1      -0.365  -0.986   1.334  0.00  0.00    -0.004 A 
ENDROOT
TORSDOF 0
ENDMDL
