MODEL 1
REMARK minimizedAffinity -0.497667819
REMARK minimizedRMSD -1
REMARK  0 active torsions:
REMARK  status: ('A' for Active; 'I' for Inactive)
ROOT
ATOM      1  C   UNL d   1      -0.091   0.203  -1.296  0.00  0.00     0.172 C 
ATOM      2  N   UNL d   1      -0.576  -0.482  -0.120  0.00  0.00    -0.070 N 
ATOM      3  C1  UNL d   1      -0.743  -1.836   0.003  0.00  0.00    -0.004 A 
ATOM      4  C2  UNL d   1      -1.221  -2.089   1.270  0.00  0.00    -0.047 A 
ATOM      5  C3  UNL d   1      -1.346  -0.844   1.932  0.00  0.00    -0.047 A 
ATOM      6  C4  UNL d   1      -0.940   0.134   1.048  0.00  0.00    -0.004 A 
ENDROOT
TORSDOF 0
ENDMDL
