MODEL 1
REMARK minimizedAffinity -2.83360267
REMARK minimizedRMSD -1
REMARK  0 active torsions:
REMARK  status: ('A' for Active; 'I' for Inactive)
ROOT
ATOM      1  C   UNL d   1      -0.304   0.368  -1.222  0.00  0.00     0.172 C 
ATOM      2  N   UNL d   1      -0.616  -0.252   0.044  0.00  0.00    -0.070 N 
ATOM      3  C1  UNL d   1      -0.803  -1.593   0.252  0.00  0.00    -0.004 A 
ATOM      4  C2  UNL d   1      -1.080  -1.778   1.589  0.00  0.00    -0.047 A 
ATOM      5  C3  UNL d   1      -1.060  -0.505   2.206  0.00  0.00    -0.047 A 
ATOM      6  C4  UNL d   1      -0.770   0.421   1.227  0.00  0.00    -0.004 A 
ENDROOT
TORSDOF 0
ENDMDL
