MODEL 1
REMARK minimizedAffinity 2.23893547
REMARK minimizedRMSD -1
REMARK  1 active torsions:
REMARK  status: ('A' for Active; 'I' for Inactive)
REMARK    1  A    between atoms: C3_4  and  O_7 
ROOT
ATOM      1  C   UNL d   1      -0.040   0.021   1.045  0.00  0.00    -0.033 A 
ATOM      2  C1  UNL d   1      -0.496  -1.299   1.074  0.00  0.00     0.039 A 
ATOM      3  C2  UNL d   1      -1.259  -1.752   2.152  0.00  0.00    -0.080 A 
ATOM      4  C3  UNL d   1      -1.559  -0.877   3.193  0.00  0.00     0.150 A 
ATOM      5  C4  UNL d   1      -1.112   0.440   3.168  0.00  0.00    -0.007 A 
ATOM      6  C5  UNL d   1      -0.350   0.891   2.091  0.00  0.00     0.039 A 
ENDROOT
BRANCH   4   7
ATOM      7  O   UNL d   1      -2.297  -1.275   4.268  0.00  0.00    -0.526 OA
ATOM      8  H5  UNL d   1      -2.512  -2.217   4.162  0.00  0.00     0.418 HD
ENDBRANCH   4   7
TORSDOF 1
ENDMDL
