MODEL 1
REMARK minimizedAffinity 4.0678277
REMARK minimizedRMSD -1
REMARK  1 active torsions:
REMARK  status: ('A' for Active; 'I' for Inactive)
REMARK    1  A    between atoms: C3_4  and  O_7 
ROOT
ATOM      1  C   UNL d   1      -0.754  -6.000   3.724  0.00  0.00    -0.033 A 
ATOM      2  C1  UNL d   1       0.362  -5.998   4.564  0.00  0.00     0.039 A 
ATOM      3  C2  UNL d   1       1.648  -5.996   4.020  0.00  0.00    -0.080 A 
ATOM      4  C3  UNL d   1       1.804  -5.996   2.637  0.00  0.00     0.150 A 
ATOM      5  C4  UNL d   1       0.697  -5.994   1.794  0.00  0.00    -0.007 A 
ATOM      6  C5  UNL d   1      -0.586  -5.997   2.339  0.00  0.00     0.039 A 
ENDROOT
BRANCH   4   7
ATOM      7  O   UNL d   1       3.039  -6.000   2.059  0.00  0.00    -0.526 OA
ATOM      8  H5  UNL d   1       3.708  -6.030   2.764  0.00  0.00     0.418 HD
ENDBRANCH   4   7
TORSDOF 1
ENDMDL
