MODEL 1
REMARK minimizedAffinity 1.75765121
REMARK minimizedRMSD -1
REMARK  1 active torsions:
REMARK  status: ('A' for Active; 'I' for Inactive)
REMARK    1  A    between atoms: C3_4  and  O_7 
ROOT
ATOM      1  C   UNL d   1       5.366   2.375  -5.612  0.00  0.00    -0.033 A 
ATOM      2  C1  UNL d   1       6.000   1.869  -4.475  0.00  0.00     0.039 A 
ATOM      3  C2  UNL d   1       5.389   0.864  -3.723  0.00  0.00    -0.080 A 
ATOM      4  C3  UNL d   1       4.147   0.374  -4.117  0.00  0.00     0.150 A 
ATOM      5  C4  UNL d   1       3.512   0.871  -5.250  0.00  0.00    -0.007 A 
ATOM      6  C5  UNL d   1       4.123   1.875  -6.000  0.00  0.00     0.039 A 
ENDROOT
BRANCH   4   7
ATOM      7  O   UNL d   1       3.510  -0.603  -3.411  0.00  0.00    -0.526 OA
ATOM      8  H5  UNL d   1       4.054  -0.829  -2.638  0.00  0.00     0.418 HD
ENDBRANCH   4   7
TORSDOF 1
ENDMDL
