MODEL 1
REMARK minimizedAffinity 5.18922329
REMARK minimizedRMSD -1
REMARK  1 active torsions:
REMARK  status: ('A' for Active; 'I' for Inactive)
REMARK    1  A    between atoms: C3_4  and  O_7 
ROOT
ATOM      1  C   UNL d   1      -0.011  -6.000   4.476  0.00  0.00    -0.033 A 
ATOM      2  C1  UNL d   1       1.149  -5.938   5.250  0.00  0.00     0.039 A 
ATOM      3  C2  UNL d   1       2.200  -5.101   4.871  0.00  0.00    -0.080 A 
ATOM      4  C3  UNL d   1       2.078  -4.331   3.718  0.00  0.00     0.150 A 
ATOM      5  C4  UNL d   1       0.924  -4.385   2.944  0.00  0.00    -0.007 A 
ATOM      6  C5  UNL d   1      -0.124  -5.222   3.323  0.00  0.00     0.039 A 
ENDROOT
BRANCH   4   7
ATOM      7  O   UNL d   1       3.079  -3.503   3.305  0.00  0.00    -0.526 OA
ATOM      8  H5  UNL d   1       3.826  -3.591   3.921  0.00  0.00     0.418 HD
ENDBRANCH   4   7
TORSDOF 1
ENDMDL
