MODEL 1
REMARK minimizedAffinity 2.69576144
REMARK minimizedRMSD -1
REMARK  1 active torsions:
REMARK  status: ('A' for Active; 'I' for Inactive)
REMARK    1  A    between atoms: C3_4  and  O_7 
ROOT
ATOM      1  C   UNL d   1      -2.398  -2.000  -3.357  0.00  0.00    -0.033 A 
ATOM      2  C1  UNL d   1      -1.456  -1.001  -3.607  0.00  0.00     0.039 A 
ATOM      3  C2  UNL d   1      -0.250  -1.318  -4.236  0.00  0.00    -0.080 A 
ATOM      4  C3  UNL d   1      -0.000  -2.635  -4.610  0.00  0.00     0.150 A 
ATOM      5  C4  UNL d   1      -0.936  -3.635  -4.368  0.00  0.00    -0.007 A 
ATOM      6  C5  UNL d   1      -2.139  -3.317  -3.739  0.00  0.00     0.039 A 
ENDROOT
BRANCH   4   7
ATOM      7  O   UNL d   1       1.164  -2.993  -5.222  0.00  0.00    -0.526 OA
ATOM      8  H5  UNL d   1       1.727  -2.205  -5.299  0.00  0.00     0.418 HD
ENDBRANCH   4   7
TORSDOF 1
ENDMDL
