MODEL 1
REMARK minimizedAffinity 4.29769516
REMARK minimizedRMSD -1
REMARK  1 active torsions:
REMARK  status: ('A' for Active; 'I' for Inactive)
REMARK    1  A    between atoms: C3_4  and  O_7 
ROOT
ATOM      1  C   UNL d   1       0.165  -5.990   1.815  0.00  0.00    -0.033 A 
ATOM      2  C1  UNL d   1       1.513  -5.991   2.178  0.00  0.00     0.039 A 
ATOM      3  C2  UNL d   1       1.875  -5.988   3.527  0.00  0.00    -0.080 A 
ATOM      4  C3  UNL d   1       0.880  -5.984   4.501  0.00  0.00     0.150 A 
ATOM      5  C4  UNL d   1      -0.465  -5.987   4.146  0.00  0.00    -0.007 A 
ATOM      6  C5  UNL d   1      -0.824  -5.989   2.799  0.00  0.00     0.039 A 
ENDROOT
BRANCH   4   7
ATOM      7  O   UNL d   1       1.184  -5.976   5.830  0.00  0.00    -0.526 OA
ATOM      8  H5  UNL d   1       2.151  -5.945   5.924  0.00  0.00     0.418 HD
ENDBRANCH   4   7
TORSDOF 1
ENDMDL
