MODEL 1
REMARK minimizedAffinity -0.0620461702
REMARK minimizedRMSD -1
REMARK  1 active torsions:
REMARK  status: ('A' for Active; 'I' for Inactive)
REMARK    1  A    between atoms: C3_4  and  O_7 
ROOT
ATOM      1  C   UNL d   1      -1.045  -5.998   2.083  0.00  0.00    -0.033 A 
ATOM      2  C1  UNL d   1      -0.620  -5.995   3.413  0.00  0.00     0.039 A 
ATOM      3  C2  UNL d   1       0.744  -5.994   3.712  0.00  0.00    -0.080 A 
ATOM      4  C3  UNL d   1       1.671  -5.995   2.674  0.00  0.00     0.150 A 
ATOM      5  C4  UNL d   1       1.255  -5.994   1.347  0.00  0.00    -0.007 A 
ATOM      6  C5  UNL d   1      -0.107  -5.996   1.050  0.00  0.00     0.039 A 
ENDROOT
BRANCH   4   7
ATOM      7  O   UNL d   1       3.013  -5.999   2.917  0.00  0.00    -0.526 OA
ATOM      8  H5  UNL d   1       3.152  -6.028   3.878  0.00  0.00     0.418 HD
ENDBRANCH   4   7
TORSDOF 1
ENDMDL
