MODEL 1
REMARK minimizedAffinity 0.651156843
REMARK minimizedRMSD -1
REMARK  1 active torsions:
REMARK  status: ('A' for Active; 'I' for Inactive)
REMARK    1  A    between atoms: C3_4  and  O_7 
ROOT
ATOM      1  C   UNL d   1      -5.841   2.964   3.763  0.00  0.00    -0.033 A 
ATOM      2  C1  UNL d   1      -5.995   1.735   3.120  0.00  0.00     0.039 A 
ATOM      3  C2  UNL d   1      -5.964   0.550   3.858  0.00  0.00    -0.080 A 
ATOM      4  C3  UNL d   1      -5.779   0.608   5.236  0.00  0.00     0.150 A 
ATOM      5  C4  UNL d   1      -5.629   1.830   5.885  0.00  0.00    -0.007 A 
ATOM      6  C5  UNL d   1      -5.660   3.012   5.146  0.00  0.00     0.039 A 
ENDROOT
BRANCH   4   7
ATOM      7  O   UNL d   1      -5.737  -0.522   5.998  0.00  0.00    -0.526 OA
ATOM      8  H5  UNL d   1      -5.826  -1.291   5.412  0.00  0.00     0.418 HD
ENDBRANCH   4   7
TORSDOF 1
ENDMDL
