MODEL 1
REMARK minimizedAffinity 4.0381465
REMARK minimizedRMSD -1
REMARK  1 active torsions:
REMARK  status: ('A' for Active; 'I' for Inactive)
REMARK    1  A    between atoms: C3_4  and  O_7 
ROOT
ATOM      1  C   UNL d   1      -0.837  -5.920   1.666  0.00  0.00    -0.033 A 
ATOM      2  C1  UNL d   1       0.544  -5.970   1.867  0.00  0.00     0.039 A 
ATOM      3  C2  UNL d   1       1.062  -5.998   3.163  0.00  0.00    -0.080 A 
ATOM      4  C3  UNL d   1       0.190  -5.975   4.248  0.00  0.00     0.150 A 
ATOM      5  C4  UNL d   1      -1.186  -5.929   4.055  0.00  0.00    -0.007 A 
ATOM      6  C5  UNL d   1      -1.702  -5.901   2.760  0.00  0.00     0.039 A 
ENDROOT
BRANCH   4   7
ATOM      7  O   UNL d   1       0.649  -5.995   5.531  0.00  0.00    -0.526 OA
ATOM      8  H5  UNL d   1       1.621  -5.998   5.511  0.00  0.00     0.418 HD
ENDBRANCH   4   7
TORSDOF 1
ENDMDL
