MODEL 1
REMARK minimizedAffinity 7.45982885
REMARK minimizedRMSD -1
REMARK  1 active torsions:
REMARK  status: ('A' for Active; 'I' for Inactive)
REMARK    1  A    between atoms: C3_4  and  O_7 
ROOT
ATOM      1  C   UNL d   1       0.068  -1.455  -2.741  0.00  0.00    -0.033 A 
ATOM      2  C1  UNL d   1      -1.274  -1.681  -2.428  0.00  0.00     0.039 A 
ATOM      3  C2  UNL d   1      -1.991  -2.672  -3.101  0.00  0.00    -0.080 A 
ATOM      4  C3  UNL d   1      -1.356  -3.430  -4.081  0.00  0.00     0.150 A 
ATOM      5  C4  UNL d   1      -0.018  -3.213  -4.395  0.00  0.00    -0.007 A 
ATOM      6  C5  UNL d   1       0.696  -2.222  -3.723  0.00  0.00     0.039 A 
ENDROOT
BRANCH   4   7
ATOM      7  O   UNL d   1      -2.017  -4.405  -4.768  0.00  0.00    -0.526 OA
ATOM      8  H5  UNL d   1      -2.940  -4.423  -4.465  0.00  0.00     0.418 HD
ENDBRANCH   4   7
TORSDOF 1
ENDMDL
