MODEL 1
REMARK minimizedAffinity 6.24743557
REMARK minimizedRMSD -1
REMARK  1 active torsions:
REMARK  status: ('A' for Active; 'I' for Inactive)
REMARK    1  A    between atoms: C3_4  and  O_7 
ROOT
ATOM      1  C   UNL d   1      -0.380   0.966   1.960  0.00  0.00    -0.033 A 
ATOM      2  C1  UNL d   1      -1.206   0.290   2.861  0.00  0.00     0.039 A 
ATOM      3  C2  UNL d   1      -1.557  -1.040   2.625  0.00  0.00    -0.080 A 
ATOM      4  C3  UNL d   1      -1.075  -1.683   1.488  0.00  0.00     0.150 A 
ATOM      5  C4  UNL d   1      -0.249  -1.017   0.589  0.00  0.00    -0.007 A 
ATOM      6  C5  UNL d   1       0.100   0.312   0.825  0.00  0.00     0.039 A 
ENDROOT
BRANCH   4   7
ATOM      7  O   UNL d   1      -1.394  -2.979   1.213  0.00  0.00    -0.526 OA
ATOM      8  H5  UNL d   1      -1.995  -3.302   1.906  0.00  0.00     0.418 HD
ENDBRANCH   4   7
TORSDOF 1
ENDMDL
