MODEL 1
REMARK minimizedAffinity -0.314005494
REMARK minimizedRMSD -1
REMARK  0 active torsions:
REMARK  status: ('A' for Active; 'I' for Inactive)
ROOT
ATOM      1  C2' OXE d   1       3.309  -5.999  -2.042  0.00  0.00     0.078 C 
ATOM      2  C1' OXE d   1       5.896  -4.940  -2.305  0.00  0.00     0.078 C 
ATOM      3  C1  OXE d   1       5.104  -5.185  -3.565  0.00  0.00    -0.078 A 
ATOM      4  C2  OXE d   1       3.858  -5.747  -3.430  0.00  0.00    -0.078 A 
ATOM      5  C3  OXE d   1       3.064  -5.944  -4.557  0.00  0.00     0.003 A 
ATOM      6  C4  OXE d   1       3.583  -5.718  -5.837  0.00  0.00    -0.002 A 
ATOM      7  C5  OXE d   1       4.866  -5.183  -5.999  0.00  0.00    -0.002 A 
ATOM      8  C6  OXE d   1       5.622  -4.872  -4.874  0.00  0.00     0.003 A 
ENDROOT
TORSDOF 0
ENDMDL
