MODEL 1
REMARK minimizedAffinity 3.37395716
REMARK minimizedRMSD -1
REMARK  0 active torsions:
REMARK  status: ('A' for Active; 'I' for Inactive)
ROOT
ATOM      1  C2' OXE d   1       2.233   2.629   0.762  0.00  0.00     0.078 C 
ATOM      2  C1' OXE d   1       4.521   2.173  -0.800  0.00  0.00     0.078 C 
ATOM      3  C1  OXE d   1       4.672   3.019   0.440  0.00  0.00    -0.078 A 
ATOM      4  C2  OXE d   1       3.538   3.275   1.173  0.00  0.00    -0.078 A 
ATOM      5  C3  OXE d   1       3.632   4.005   2.355  0.00  0.00     0.003 A 
ATOM      6  C4  OXE d   1       4.841   4.608   2.722  0.00  0.00    -0.002 A 
ATOM      7  C5  OXE d   1       5.999   4.392   1.968  0.00  0.00    -0.002 A 
ATOM      8  C6  OXE d   1       5.941   3.567   0.850  0.00  0.00     0.003 A 
ENDROOT
TORSDOF 0
ENDMDL
