MODEL 1
REMARK minimizedAffinity 5.16342974
REMARK minimizedRMSD -1
REMARK  0 active torsions:
REMARK  status: ('A' for Active; 'I' for Inactive)
ROOT
ATOM      1  C2' OXE d   1       4.832  -3.787  -2.847  0.00  0.00     0.078 C 
ATOM      2  C1' OXE d   1       5.996  -4.644  -5.253  0.00  0.00     0.078 C 
ATOM      3  C1  OXE d   1       4.540  -4.963  -5.024  0.00  0.00    -0.078 A 
ATOM      4  C2  OXE d   1       3.991  -4.580  -3.823  0.00  0.00    -0.078 A 
ATOM      5  C3  OXE d   1       2.638  -4.801  -3.583  0.00  0.00     0.003 A 
ATOM      6  C4  OXE d   1       1.870  -5.545  -4.486  0.00  0.00    -0.002 A 
ATOM      7  C5  OXE d   1       2.420  -5.979  -5.697  0.00  0.00    -0.002 A 
ATOM      8  C6  OXE d   1       3.739  -5.660  -5.999  0.00  0.00     0.003 A 
ENDROOT
TORSDOF 0
ENDMDL
