MODEL 1
REMARK minimizedAffinity 17.3413372
REMARK minimizedRMSD -1
REMARK  0 active torsions:
REMARK  status: ('A' for Active; 'I' for Inactive)
ROOT
ATOM      1  C2' OXE d   1      -1.890  -0.919   1.103  0.00  0.00     0.078 C 
ATOM      2  C1' OXE d   1      -1.164  -3.273   2.449  0.00  0.00     0.078 C 
ATOM      3  C1  OXE d   1      -1.356  -3.347   0.954  0.00  0.00    -0.078 A 
ATOM      4  C2  OXE d   1      -1.756  -2.201   0.311  0.00  0.00    -0.078 A 
ATOM      5  C3  OXE d   1      -1.895  -2.201  -1.074  0.00  0.00     0.003 A 
ATOM      6  C4  OXE d   1      -1.779  -3.394  -1.798  0.00  0.00    -0.002 A 
ATOM      7  C5  OXE d   1      -1.411  -4.581  -1.157  0.00  0.00    -0.002 A 
ATOM      8  C6  OXE d   1      -1.154  -4.566   0.210  0.00  0.00     0.003 A 
ENDROOT
TORSDOF 0
ENDMDL
