MODEL 1
REMARK minimizedAffinity 14.410347
REMARK minimizedRMSD -1
REMARK  0 active torsions:
REMARK  status: ('A' for Active; 'I' for Inactive)
ROOT
ATOM      1  C2' OXE d   1       2.187   1.829   3.588  0.00  0.00     0.078 C 
ATOM      2  C1' OXE d   1      -0.502   2.631   3.536  0.00  0.00     0.078 C 
ATOM      3  C1  OXE d   1       0.160   2.303   2.221  0.00  0.00    -0.078 A 
ATOM      4  C2  OXE d   1       1.489   1.956   2.251  0.00  0.00    -0.078 A 
ATOM      5  C3  OXE d   1       2.133   1.590   1.073  0.00  0.00     0.003 A 
ATOM      6  C4  OXE d   1       1.483   1.720  -0.160  0.00  0.00    -0.002 A 
ATOM      7  C5  OXE d   1       0.141   2.110  -0.217  0.00  0.00    -0.002 A 
ATOM      8  C6  OXE d   1      -0.546   2.363   0.965  0.00  0.00     0.003 A 
ENDROOT
TORSDOF 0
ENDMDL
