MODEL 1
REMARK minimizedAffinity 14.9838219
REMARK minimizedRMSD -1
REMARK  0 active torsions:
REMARK  status: ('A' for Active; 'I' for Inactive)
ROOT
ATOM      1  C2' OXE d   1       5.002  -3.397  -6.000  0.00  0.00     0.078 C 
ATOM      2  C1' OXE d   1       4.558  -3.023  -3.254  0.00  0.00     0.078 C 
ATOM      3  C1  OXE d   1       3.752  -4.085  -3.958  0.00  0.00    -0.078 A 
ATOM      4  C2  OXE d   1       3.942  -4.230  -5.311  0.00  0.00    -0.078 A 
ATOM      5  C3  OXE d   1       3.264  -5.232  -6.000  0.00  0.00     0.003 A 
ATOM      6  C4  OXE d   1       2.278  -5.991  -5.357  0.00  0.00    -0.002 A 
ATOM      7  C5  OXE d   1       2.040  -5.832  -3.988  0.00  0.00    -0.002 A 
ATOM      8  C6  OXE d   1       2.797  -4.915  -3.266  0.00  0.00     0.003 A 
ENDROOT
TORSDOF 0
ENDMDL
