MODEL 1
REMARK minimizedAffinity 12.1841087
REMARK minimizedRMSD -1
REMARK  0 active torsions:
REMARK  status: ('A' for Active; 'I' for Inactive)
ROOT
ATOM      1  C2' OXE d   1       3.811   6.000   0.755  0.00  0.00     0.078 C 
ATOM      2  C1' OXE d   1       4.834   5.053   3.192  0.00  0.00     0.078 C 
ATOM      3  C1  OXE d   1       4.040   4.093   2.342  0.00  0.00    -0.078 A 
ATOM      4  C2  OXE d   1       3.504   4.578   1.173  0.00  0.00    -0.078 A 
ATOM      5  C3  OXE d   1       2.810   3.720   0.325  0.00  0.00     0.003 A 
ATOM      6  C4  OXE d   1       2.521   2.409   0.723  0.00  0.00    -0.002 A 
ATOM      7  C5  OXE d   1       3.024   1.907   1.928  0.00  0.00    -0.002 A 
ATOM      8  C6  OXE d   1       3.819   2.721   2.727  0.00  0.00     0.003 A 
ENDROOT
TORSDOF 0
ENDMDL
