MODEL 1
REMARK minimizedAffinity 9.72541714
REMARK minimizedRMSD -1
REMARK  0 active torsions:
REMARK  status: ('A' for Active; 'I' for Inactive)
ROOT
ATOM      1  C2' OXE d   1       4.241  -4.139  -6.000  0.00  0.00     0.078 C 
ATOM      2  C1' OXE d   1       2.138  -5.997  -6.000  0.00  0.00     0.078 C 
ATOM      3  C1  OXE d   1       2.665  -5.532  -4.666  0.00  0.00    -0.078 A 
ATOM      4  C2  OXE d   1       3.726  -4.658  -4.675  0.00  0.00    -0.078 A 
ATOM      5  C3  OXE d   1       4.215  -4.155  -3.473  0.00  0.00     0.003 A 
ATOM      6  C4  OXE d   1       3.740  -4.648  -2.252  0.00  0.00    -0.002 A 
ATOM      7  C5  OXE d   1       2.687  -5.569  -2.220  0.00  0.00    -0.002 A 
ATOM      8  C6  OXE d   1       2.111  -5.988  -3.415  0.00  0.00     0.003 A 
ENDROOT
TORSDOF 0
ENDMDL
