MODEL 1
REMARK minimizedAffinity 4.94675922
REMARK minimizedRMSD -1
REMARK  0 active torsions:
REMARK  status: ('A' for Active; 'I' for Inactive)
ROOT
ATOM      1  C2' OXE d   1      -3.835   2.085  -4.017  0.00  0.00     0.078 C 
ATOM      2  C1' OXE d   1      -5.371   3.348  -5.999  0.00  0.00     0.078 C 
ATOM      3  C1  OXE d   1      -4.151   4.072  -5.486  0.00  0.00    -0.078 A 
ATOM      4  C2  OXE d   1      -3.432   3.467  -4.484  0.00  0.00    -0.078 A 
ATOM      5  C3  OXE d   1      -2.267   4.066  -4.013  0.00  0.00     0.003 A 
ATOM      6  C4  OXE d   1      -1.906   5.349  -4.442  0.00  0.00    -0.002 A 
ATOM      7  C5  OXE d   1      -2.647   6.000  -5.434  0.00  0.00    -0.002 A 
ATOM      8  C6  OXE d   1      -3.745   5.358  -5.996  0.00  0.00     0.003 A 
ENDROOT
TORSDOF 0
ENDMDL
