MODEL 1
REMARK minimizedAffinity 0.0853617042
REMARK minimizedRMSD -1
REMARK  0 active torsions:
REMARK  status: ('A' for Active; 'I' for Inactive)
ROOT
ATOM      1  C2' OXE d   1       5.099   2.640   1.081  0.00  0.00     0.078 C 
ATOM      2  C1' OXE d   1       3.786   1.889  -1.284  0.00  0.00     0.078 C 
ATOM      3  C1  OXE d   1       2.937   2.199  -0.076  0.00  0.00    -0.078 A 
ATOM      4  C2  OXE d   1       3.590   2.520   1.089  0.00  0.00    -0.078 A 
ATOM      5  C3  OXE d   1       2.853   2.868   2.218  0.00  0.00     0.003 A 
ATOM      6  C4  OXE d   1       1.459   2.745   2.220  0.00  0.00    -0.002 A 
ATOM      7  C5  OXE d   1       0.776   2.381   1.055  0.00  0.00    -0.002 A 
ATOM      8  C6  OXE d   1       1.497   2.146  -0.111  0.00  0.00     0.003 A 
ENDROOT
TORSDOF 0
ENDMDL
