MODEL 1
REMARK minimizedAffinity -2.55486059
REMARK minimizedRMSD -1
REMARK  0 active torsions:
REMARK  status: ('A' for Active; 'I' for Inactive)
ROOT
ATOM      1  C2' OXE d   1       5.936  -4.502  -2.653  0.00  0.00     0.078 C 
ATOM      2  C1' OXE d   1       3.257  -4.933  -1.935  0.00  0.00     0.078 C 
ATOM      3  C1  OXE d   1       3.666  -5.252  -3.351  0.00  0.00    -0.078 A 
ATOM      4  C2  OXE d   1       4.968  -4.995  -3.707  0.00  0.00    -0.078 A 
ATOM      5  C3  OXE d   1       5.411  -5.322  -4.985  0.00  0.00     0.003 A 
ATOM      6  C4  OXE d   1       4.506  -5.768  -5.956  0.00  0.00    -0.002 A 
ATOM      7  C5  OXE d   1       3.167  -5.999  -5.626  0.00  0.00    -0.002 A 
ATOM      8  C6  OXE d   1       2.741  -5.788  -4.319  0.00  0.00     0.003 A 
ENDROOT
TORSDOF 0
ENDMDL
