MODEL 1
REMARK minimizedAffinity 7.04989529
REMARK minimizedRMSD -1
REMARK  0 active torsions:
REMARK  status: ('A' for Active; 'I' for Inactive)
ROOT
ATOM      1  C2' OXE d   1       0.150   1.369   0.920  0.00  0.00     0.078 C 
ATOM      2  C1' OXE d   1       0.854   1.349  -1.797  0.00  0.00     0.078 C 
ATOM      3  C1  OXE d   1       1.945   1.613  -0.789  0.00  0.00    -0.078 A 
ATOM      4  C2  OXE d   1       1.583   1.668   0.535  0.00  0.00    -0.078 A 
ATOM      5  C3  OXE d   1       2.559   1.854   1.510  0.00  0.00     0.003 A 
ATOM      6  C4  OXE d   1       3.880   2.139   1.144  0.00  0.00    -0.002 A 
ATOM      7  C5  OXE d   1       4.263   2.128  -0.201  0.00  0.00    -0.002 A 
ATOM      8  C6  OXE d   1       3.318   1.825  -1.176  0.00  0.00     0.003 A 
ENDROOT
TORSDOF 0
ENDMDL
