MODEL 1
REMARK minimizedAffinity 10.0906792
REMARK minimizedRMSD -1
REMARK  0 active torsions:
REMARK  status: ('A' for Active; 'I' for Inactive)
ROOT
ATOM      1  C2' OXE d   1      -6.000   3.743  -5.863  0.00  0.00     0.078 C 
ATOM      2  C1' OXE d   1      -6.000   2.012  -3.653  0.00  0.00     0.078 C 
ATOM      3  C1  OXE d   1      -4.673   2.335  -4.294  0.00  0.00    -0.078 A 
ATOM      4  C2  OXE d   1      -4.687   3.146  -5.403  0.00  0.00    -0.078 A 
ATOM      5  C3  OXE d   1      -3.486   3.519  -5.999  0.00  0.00     0.003 A 
ATOM      6  C4  OXE d   1      -2.278   2.954  -5.574  0.00  0.00    -0.002 A 
ATOM      7  C5  OXE d   1      -2.245   2.095  -4.471  0.00  0.00    -0.002 A 
ATOM      8  C6  OXE d   1      -3.426   1.809  -3.795  0.00  0.00     0.003 A 
ENDROOT
TORSDOF 0
ENDMDL
