MODEL 1
REMARK minimizedAffinity 8.46140194
REMARK minimizedRMSD -1
REMARK  0 active torsions:
REMARK  status: ('A' for Active; 'I' for Inactive)
ROOT
ATOM      1  C2' OXE d   1       1.111  -3.080   1.121  0.00  0.00     0.078 C 
ATOM      2  C1' OXE d   1      -0.928  -4.856   0.367  0.00  0.00     0.078 C 
ATOM      3  C1  OXE d   1      -0.388  -4.959   1.772  0.00  0.00    -0.078 A 
ATOM      4  C2  OXE d   1       0.642  -4.118   2.117  0.00  0.00    -0.078 A 
ATOM      5  C3  OXE d   1       1.139  -4.135   3.417  0.00  0.00     0.003 A 
ATOM      6  C4  OXE d   1       0.706  -5.105   4.329  0.00  0.00    -0.002 A 
ATOM      7  C5  OXE d   1      -0.314  -5.998   3.985  0.00  0.00    -0.002 A 
ATOM      8  C6  OXE d   1      -0.900  -5.910   2.727  0.00  0.00     0.003 A 
ENDROOT
TORSDOF 0
ENDMDL
