MODEL 1
REMARK minimizedAffinity 12.4924812
REMARK minimizedRMSD -1
REMARK  0 active torsions:
REMARK  status: ('A' for Active; 'I' for Inactive)
ROOT
ATOM      1  C2' OXE d   1      -1.573  -4.653   1.476  0.00  0.00     0.078 C 
ATOM      2  C1' OXE d   1      -4.261  -4.907   0.711  0.00  0.00     0.078 C 
ATOM      3  C1  OXE d   1      -3.267  -4.483  -0.342  0.00  0.00    -0.078 A 
ATOM      4  C2  OXE d   1      -1.962  -4.316   0.053  0.00  0.00    -0.078 A 
ATOM      5  C3  OXE d   1      -0.994  -3.979  -0.890  0.00  0.00     0.003 A 
ATOM      6  C4  OXE d   1      -1.364  -3.660  -2.202  0.00  0.00    -0.002 A 
ATOM      7  C5  OXE d   1      -2.695  -3.785  -2.615  0.00  0.00    -0.002 A 
ATOM      8  C6  OXE d   1      -3.650  -4.235  -1.710  0.00  0.00     0.003 A 
ENDROOT
TORSDOF 0
ENDMDL
