MODEL 1
REMARK minimizedAffinity 12.0636797
REMARK minimizedRMSD -1
REMARK  0 active torsions:
REMARK  status: ('A' for Active; 'I' for Inactive)
ROOT
ATOM      1  C2' OXE d   1      -2.238   3.004   0.013  0.00  0.00     0.078 C 
ATOM      2  C1' OXE d   1      -2.257   0.526   1.332  0.00  0.00     0.078 C 
ATOM      3  C1  OXE d   1      -3.577   1.230   1.138  0.00  0.00    -0.078 A 
ATOM      4  C2  OXE d   1      -3.552   2.464   0.533  0.00  0.00    -0.078 A 
ATOM      5  C3  OXE d   1      -4.747   3.131   0.280  0.00  0.00     0.003 A 
ATOM      6  C4  OXE d   1      -5.958   2.628   0.772  0.00  0.00    -0.002 A 
ATOM      7  C5  OXE d   1      -6.000   1.392   1.426  0.00  0.00    -0.002 A 
ATOM      8  C6  OXE d   1      -4.827   0.662   1.579  0.00  0.00     0.003 A 
ENDROOT
TORSDOF 0
ENDMDL
