MODEL 1
REMARK minimizedAffinity 3.17749071
REMARK minimizedRMSD -1
REMARK  0 active torsions:
REMARK  status: ('A' for Active; 'I' for Inactive)
ROOT
ATOM      1  C2' OXE d   1       1.515   0.736  -3.384  0.00  0.00     0.078 C 
ATOM      2  C1' OXE d   1       2.216  -1.590  -1.976  0.00  0.00     0.078 C 
ATOM      3  C1  OXE d   1       2.328  -0.270  -1.255  0.00  0.00    -0.078 A 
ATOM      4  C2  OXE d   1       2.028   0.867  -1.966  0.00  0.00    -0.078 A 
ATOM      5  C3  OXE d   1       2.062   2.105  -1.332  0.00  0.00     0.003 A 
ATOM      6  C4  OXE d   1       2.548   2.219  -0.024  0.00  0.00    -0.002 A 
ATOM      7  C5  OXE d   1       2.897   1.077   0.706  0.00  0.00    -0.002 A 
ATOM      8  C6  OXE d   1       2.753  -0.176   0.120  0.00  0.00     0.003 A 
ENDROOT
TORSDOF 0
ENDMDL
