MODEL 1
REMARK minimizedAffinity 4.31279612
REMARK minimizedRMSD -1
REMARK  0 active torsions:
REMARK  status: ('A' for Active; 'I' for Inactive)
ROOT
ATOM      1  C2' OXE d   1       1.909   4.199   0.378  0.00  0.00     0.078 C 
ATOM      2  C1' OXE d   1      -0.439   2.663   0.470  0.00  0.00     0.078 C 
ATOM      3  C1  OXE d   1       0.878   1.931   0.420  0.00  0.00    -0.078 A 
ATOM      4  C2  OXE d   1       2.020   2.690   0.328  0.00  0.00    -0.078 A 
ATOM      5  C3  OXE d   1       3.265   2.066   0.334  0.00  0.00     0.003 A 
ATOM      6  C4  OXE d   1       3.358   0.671   0.277  0.00  0.00    -0.002 A 
ATOM      7  C5  OXE d   1       2.206  -0.121   0.330  0.00  0.00    -0.002 A 
ATOM      8  C6  OXE d   1       0.963   0.492   0.444  0.00  0.00     0.003 A 
ENDROOT
TORSDOF 0
ENDMDL
