MODEL 1
REMARK minimizedAffinity 10.3114882
REMARK minimizedRMSD -1
REMARK  0 active torsions:
REMARK  status: ('A' for Active; 'I' for Inactive)
ROOT
ATOM      1  C2' OXE d   1      -1.183   3.208   0.007  0.00  0.00     0.078 C 
ATOM      2  C1' OXE d   1      -0.732   1.406   2.112  0.00  0.00     0.078 C 
ATOM      3  C1  OXE d   1       0.472   2.004   1.428  0.00  0.00    -0.078 A 
ATOM      4  C2  OXE d   1       0.242   2.849   0.368  0.00  0.00    -0.078 A 
ATOM      5  C3  OXE d   1       1.316   3.471  -0.263  0.00  0.00     0.003 A 
ATOM      6  C4  OXE d   1       2.631   3.126   0.071  0.00  0.00    -0.002 A 
ATOM      7  C5  OXE d   1       2.887   2.237   1.121  0.00  0.00    -0.002 A 
ATOM      8  C6  OXE d   1       1.822   1.701   1.835  0.00  0.00     0.003 A 
ENDROOT
TORSDOF 0
ENDMDL
