MODEL 1
REMARK minimizedAffinity 7.38484621
REMARK minimizedRMSD -1
REMARK  0 active torsions:
REMARK  status: ('A' for Active; 'I' for Inactive)
ROOT
ATOM      1  C   UNL d   1       1.451   4.299   0.683  0.00  0.00     0.077 C 
ATOM      2  C1  UNL d   1       2.820   4.888   0.514  0.00  0.00    -0.074 A 
ATOM      3  C2  UNL d   1       3.218   5.446  -0.705  0.00  0.00    -0.005 A 
ATOM      4  C3  UNL d   1       4.491   5.998  -0.845  0.00  0.00     0.006 A 
ATOM      5  C4  UNL d   1       5.378   5.999   0.232  0.00  0.00    -0.005 A 
ATOM      6  C5  UNL d   1       4.998   5.446   1.460  0.00  0.00    -0.074 A 
ATOM      7  C6  UNL d   1       5.936   5.447   2.630  0.00  0.00     0.077 C 
ATOM      8  C7  UNL d   1       3.715   4.899   1.594  0.00  0.00    -0.001 A 
ENDROOT
TORSDOF 0
ENDMDL
