MODEL 1
REMARK minimizedAffinity 5.17503738
REMARK minimizedRMSD -1
REMARK  0 active torsions:
REMARK  status: ('A' for Active; 'I' for Inactive)
ROOT
ATOM      1  C   UNL d   1      -0.731  -3.144   4.242  0.00  0.00     0.077 C 
ATOM      2  C1  UNL d   1      -0.321  -2.027   3.328  0.00  0.00    -0.074 A 
ATOM      3  C2  UNL d   1       0.960  -1.472   3.400  0.00  0.00    -0.005 A 
ATOM      4  C3  UNL d   1       1.330  -0.441   2.537  0.00  0.00     0.006 A 
ATOM      5  C4  UNL d   1       0.423   0.045   1.594  0.00  0.00    -0.005 A 
ATOM      6  C5  UNL d   1      -0.863  -0.498   1.506  0.00  0.00    -0.074 A 
ATOM      7  C6  UNL d   1      -1.846   0.006   0.492  0.00  0.00     0.077 C 
ATOM      8  C7  UNL d   1      -1.224  -1.539   2.372  0.00  0.00    -0.001 A 
ENDROOT
TORSDOF 0
ENDMDL
