MODEL 1
REMARK minimizedAffinity 7.93336964
REMARK minimizedRMSD -1
REMARK  0 active torsions:
REMARK  status: ('A' for Active; 'I' for Inactive)
ROOT
ATOM      1  C   UNL d   1       1.118  -2.698   4.515  0.00  0.00     0.077 C 
ATOM      2  C1  UNL d   1       1.101  -1.633   3.459  0.00  0.00    -0.074 A 
ATOM      3  C2  UNL d   1       2.292  -1.103   2.953  0.00  0.00    -0.005 A 
ATOM      4  C3  UNL d   1       2.261  -0.120   1.964  0.00  0.00     0.006 A 
ATOM      5  C4  UNL d   1       1.040   0.342   1.472  0.00  0.00    -0.005 A 
ATOM      6  C5  UNL d   1      -0.162  -0.177   1.964  0.00  0.00    -0.074 A 
ATOM      7  C6  UNL d   1      -1.482   0.302   1.439  0.00  0.00     0.077 C 
ATOM      8  C7  UNL d   1      -0.122  -1.169   2.953  0.00  0.00    -0.001 A 
ENDROOT
TORSDOF 0
ENDMDL
