MODEL 1
REMARK minimizedAffinity 4.25428772
REMARK minimizedRMSD -1
REMARK  0 active torsions:
REMARK  status: ('A' for Active; 'I' for Inactive)
ROOT
ATOM      1  C   UNL d   1      -0.587  -1.405   2.553  0.00  0.00     0.077 C 
ATOM      2  C1  UNL d   1      -1.123  -0.396   1.582  0.00  0.00    -0.074 A 
ATOM      3  C2  UNL d   1      -0.650   0.920   1.579  0.00  0.00    -0.005 A 
ATOM      4  C3  UNL d   1      -1.152   1.845   0.663  0.00  0.00     0.006 A 
ATOM      5  C4  UNL d   1      -2.129   1.463  -0.258  0.00  0.00    -0.005 A 
ATOM      6  C5  UNL d   1      -2.612   0.151  -0.270  0.00  0.00    -0.074 A 
ATOM      7  C6  UNL d   1      -3.655  -0.277  -1.259  0.00  0.00     0.077 C 
ATOM      8  C7  UNL d   1      -2.099  -0.774   0.649  0.00  0.00    -0.001 A 
ENDROOT
TORSDOF 0
ENDMDL
