MODEL 1
REMARK minimizedAffinity 0.0771196485
REMARK minimizedRMSD -1
REMARK  0 active torsions:
REMARK  status: ('A' for Active; 'I' for Inactive)
ROOT
ATOM      1  C   UNL d   1       4.105  -1.141   5.628  0.00  0.00     0.077 C 
ATOM      2  C1  UNL d   1       2.793  -1.598   5.062  0.00  0.00    -0.074 A 
ATOM      3  C2  UNL d   1       2.208  -2.796   5.482  0.00  0.00    -0.005 A 
ATOM      4  C3  UNL d   1       0.983  -3.204   4.954  0.00  0.00     0.006 A 
ATOM      5  C4  UNL d   1       0.333  -2.419   4.000  0.00  0.00    -0.005 A 
ATOM      6  C5  UNL d   1       0.903  -1.218   3.568  0.00  0.00    -0.074 A 
ATOM      7  C6  UNL d   1       0.213  -0.357   2.552  0.00  0.00     0.077 C 
ATOM      8  C7  UNL d   1       2.130  -0.811   4.109  0.00  0.00    -0.001 A 
ENDROOT
TORSDOF 0
ENDMDL
