MODEL 1
REMARK minimizedAffinity -0.239319757
REMARK minimizedRMSD -1
REMARK  0 active torsions:
REMARK  status: ('A' for Active; 'I' for Inactive)
ROOT
ATOM      1  C   UNL d   1       2.532  -1.970   5.328  0.00  0.00     0.077 C 
ATOM      2  C1  UNL d   1       1.736  -1.518   4.140  0.00  0.00    -0.074 A 
ATOM      3  C2  UNL d   1       2.366  -1.190   2.935  0.00  0.00    -0.005 A 
ATOM      4  C3  UNL d   1       1.611  -0.780   1.835  0.00  0.00     0.006 A 
ATOM      5  C4  UNL d   1       0.222  -0.695   1.929  0.00  0.00    -0.005 A 
ATOM      6  C5  UNL d   1      -0.426  -1.020   3.125  0.00  0.00    -0.074 A 
ATOM      7  C6  UNL d   1      -1.919  -0.943   3.240  0.00  0.00     0.077 C 
ATOM      8  C7  UNL d   1       0.339  -1.437   4.224  0.00  0.00    -0.001 A 
ENDROOT
TORSDOF 0
ENDMDL
