MODEL 1
REMARK minimizedAffinity 2.92760468
REMARK minimizedRMSD -1
REMARK  0 active torsions:
REMARK  status: ('A' for Active; 'I' for Inactive)
ROOT
ATOM      1  C   UNL d   1      -3.250  -1.604   2.781  0.00  0.00     0.077 C 
ATOM      2  C1  UNL d   1      -2.010  -0.882   2.344  0.00  0.00    -0.074 A 
ATOM      3  C2  UNL d   1      -2.089   0.262   1.543  0.00  0.00    -0.005 A 
ATOM      4  C3  UNL d   1      -0.928   0.929   1.153  0.00  0.00     0.006 A 
ATOM      5  C4  UNL d   1       0.322   0.459   1.559  0.00  0.00    -0.005 A 
ATOM      6  C5  UNL d   1       0.421  -0.682   2.360  0.00  0.00    -0.074 A 
ATOM      7  C6  UNL d   1       1.755  -1.195   2.814  0.00  0.00     0.077 C 
ATOM      8  C7  UNL d   1      -0.751  -1.343   2.754  0.00  0.00    -0.001 A 
ENDROOT
TORSDOF 0
ENDMDL
