MODEL 1
REMARK minimizedAffinity 10.563427
REMARK minimizedRMSD -1
REMARK  0 active torsions:
REMARK  status: ('A' for Active; 'I' for Inactive)
ROOT
ATOM      1  C   UNL d   1       1.428  -1.726   4.090  0.00  0.00     0.077 C 
ATOM      2  C1  UNL d   1       0.469  -1.077   3.136  0.00  0.00    -0.074 A 
ATOM      3  C2  UNL d   1      -0.671  -1.755   2.691  0.00  0.00    -0.005 A 
ATOM      4  C3  UNL d   1      -1.559  -1.135   1.812  0.00  0.00     0.006 A 
ATOM      5  C4  UNL d   1      -1.316   0.166   1.370  0.00  0.00    -0.005 A 
ATOM      6  C5  UNL d   1      -0.182   0.860   1.805  0.00  0.00    -0.074 A 
ATOM      7  C6  UNL d   1       0.088   2.262   1.347  0.00  0.00     0.077 C 
ATOM      8  C7  UNL d   1       0.701   0.233   2.694  0.00  0.00    -0.001 A 
ENDROOT
TORSDOF 0
ENDMDL
