MODEL 1
REMARK minimizedAffinity 0.463327497
REMARK minimizedRMSD -1
REMARK  0 active torsions:
REMARK  status: ('A' for Active; 'I' for Inactive)
ROOT
ATOM      1  C   UNL d   1       0.437  -2.473   4.672  0.00  0.00     0.077 C 
ATOM      2  C1  UNL d   1       0.617  -1.475   3.566  0.00  0.00    -0.074 A 
ATOM      3  C2  UNL d   1       1.890  -1.019   3.210  0.00  0.00    -0.005 A 
ATOM      4  C3  UNL d   1       2.043  -0.098   2.173  0.00  0.00     0.006 A 
ATOM      5  C4  UNL d   1       0.925   0.375   1.484  0.00  0.00    -0.005 A 
ATOM      6  C5  UNL d   1      -0.355  -0.071   1.825  0.00  0.00    -0.074 A 
ATOM      7  C6  UNL d   1      -1.566   0.420   1.088  0.00  0.00     0.077 C 
ATOM      8  C7  UNL d   1      -0.500  -1.001   2.864  0.00  0.00    -0.001 A 
ENDROOT
TORSDOF 0
ENDMDL
