MODEL 1
REMARK minimizedAffinity 22.6457634
REMARK minimizedRMSD -1
REMARK  0 active torsions:
REMARK  status: ('A' for Active; 'I' for Inactive)
ROOT
ATOM      1  C2' OXE d   1       1.129  -5.060  -5.421  0.00  0.00     0.078 C 
ATOM      2  C1' OXE d   1      -1.544  -4.205  -5.496  0.00  0.00     0.078 C 
ATOM      3  C1  OXE d   1      -0.477  -3.161  -5.281  0.00  0.00    -0.078 A 
ATOM      4  C2  OXE d   1       0.824  -3.594  -5.199  0.00  0.00    -0.078 A 
ATOM      5  C3  OXE d   1       1.852  -2.666  -5.057  0.00  0.00     0.003 A 
ATOM      6  C4  OXE d   1       1.561  -1.313  -4.843  0.00  0.00    -0.002 A 
ATOM      7  C5  OXE d   1       0.239  -0.856  -4.883  0.00  0.00    -0.002 A 
ATOM      8  C6  OXE d   1      -0.786  -1.759  -5.143  0.00  0.00     0.003 A 
ENDROOT
TORSDOF 0
ENDMDL
