MODEL 1
REMARK minimizedAffinity 8.38977051
REMARK minimizedRMSD -1
REMARK  0 active torsions:
REMARK  status: ('A' for Active; 'I' for Inactive)
ROOT
ATOM      1  C2' OXE d   1      -1.207  -2.905   3.651  0.00  0.00     0.078 C 
ATOM      2  C1' OXE d   1       1.112  -2.029   4.968  0.00  0.00     0.078 C 
ATOM      3  C1  OXE d   1       0.545  -1.150   3.882  0.00  0.00    -0.078 A 
ATOM      4  C2  OXE d   1      -0.563  -1.609   3.211  0.00  0.00    -0.078 A 
ATOM      5  C3  OXE d   1      -1.158  -0.812   2.237  0.00  0.00     0.003 A 
ATOM      6  C4  OXE d   1      -0.551   0.382   1.829  0.00  0.00    -0.002 A 
ATOM      7  C5  OXE d   1       0.601   0.848   2.472  0.00  0.00    -0.002 A 
ATOM      8  C6  OXE d   1       1.136   0.117   3.527  0.00  0.00     0.003 A 
ENDROOT
TORSDOF 0
ENDMDL
