MODEL 1
REMARK minimizedAffinity 23.0213184
REMARK minimizedRMSD -1
REMARK  0 active torsions:
REMARK  status: ('A' for Active; 'I' for Inactive)
ROOT
ATOM      1  C2' OXE d   1       3.268   3.478  -5.352  0.00  0.00     0.078 C 
ATOM      2  C1' OXE d   1       5.999   3.446  -6.000  0.00  0.00     0.078 C 
ATOM      3  C1  OXE d   1       5.311   2.121  -5.788  0.00  0.00    -0.078 A 
ATOM      4  C2  OXE d   1       3.986   2.147  -5.426  0.00  0.00    -0.078 A 
ATOM      5  C3  OXE d   1       3.290   0.952  -5.272  0.00  0.00     0.003 A 
ATOM      6  C4  OXE d   1       3.963  -0.274  -5.332  0.00  0.00    -0.002 A 
ATOM      7  C5  OXE d   1       5.322  -0.322  -5.661  0.00  0.00    -0.002 A 
ATOM      8  C6  OXE d   1       5.999   0.862  -5.933  0.00  0.00     0.003 A 
ENDROOT
TORSDOF 0
ENDMDL
