MODEL 1
REMARK minimizedAffinity 14.5710869
REMARK minimizedRMSD -1
REMARK  0 active torsions:
REMARK  status: ('A' for Active; 'I' for Inactive)
ROOT
ATOM      1  C2' OXE d   1      -2.620  -1.578   0.238  0.00  0.00     0.078 C 
ATOM      2  C1' OXE d   1      -3.382   0.983   1.100  0.00  0.00     0.078 C 
ATOM      3  C1  OXE d   1      -1.987   0.515   1.432  0.00  0.00    -0.078 A 
ATOM      4  C2  OXE d   1      -1.639  -0.757   1.047  0.00  0.00    -0.078 A 
ATOM      5  C3  OXE d   1      -0.346  -1.219   1.280  0.00  0.00     0.003 A 
ATOM      6  C4  OXE d   1       0.552  -0.457   2.038  0.00  0.00    -0.002 A 
ATOM      7  C5  OXE d   1       0.204   0.826   2.473  0.00  0.00    -0.002 A 
ATOM      8  C6  OXE d   1      -1.044   1.342   2.143  0.00  0.00     0.003 A 
ENDROOT
TORSDOF 0
ENDMDL
