MODEL 1
REMARK minimizedAffinity 9.45972919
REMARK minimizedRMSD -1
REMARK  0 active torsions:
REMARK  status: ('A' for Active; 'I' for Inactive)
ROOT
ATOM      1  C2' OXE d   1      -1.100   2.828   2.964  0.00  0.00     0.078 C 
ATOM      2  C1' OXE d   1       0.351   2.657   5.361  0.00  0.00     0.078 C 
ATOM      3  C1  OXE d   1       0.356   1.456   4.448  0.00  0.00    -0.078 A 
ATOM      4  C2  OXE d   1      -0.395   1.532   3.300  0.00  0.00    -0.078 A 
ATOM      5  C3  OXE d   1      -0.381   0.473   2.396  0.00  0.00     0.003 A 
ATOM      6  C4  OXE d   1       0.266  -0.726   2.719  0.00  0.00    -0.002 A 
ATOM      7  C5  OXE d   1       1.004  -0.838   3.902  0.00  0.00    -0.002 A 
ATOM      8  C6  OXE d   1       1.094   0.256   4.755  0.00  0.00     0.003 A 
ENDROOT
TORSDOF 0
ENDMDL
