MODEL 1
REMARK minimizedAffinity 19.2276134
REMARK minimizedRMSD -1
REMARK  0 active torsions:
REMARK  status: ('A' for Active; 'I' for Inactive)
ROOT
ATOM      1  C2' OXE d   1       0.005  -0.584  -5.635  0.00  0.00     0.078 C 
ATOM      2  C1' OXE d   1      -0.484  -3.324  -6.000  0.00  0.00     0.078 C 
ATOM      3  C1  OXE d   1      -0.861  -2.712  -4.674  0.00  0.00    -0.078 A 
ATOM      4  C2  OXE d   1      -0.575  -1.381  -4.487  0.00  0.00    -0.078 A 
ATOM      5  C3  OXE d   1      -0.952  -0.755  -3.303  0.00  0.00     0.003 A 
ATOM      6  C4  OXE d   1      -1.479  -1.502  -2.242  0.00  0.00    -0.002 A 
ATOM      7  C5  OXE d   1      -1.742  -2.867  -2.397  0.00  0.00    -0.002 A 
ATOM      8  C6  OXE d   1      -1.479  -3.477  -3.619  0.00  0.00     0.003 A 
ENDROOT
TORSDOF 0
ENDMDL
