MODEL 1
REMARK minimizedAffinity 9.71118641
REMARK minimizedRMSD -1
REMARK  0 active torsions:
REMARK  status: ('A' for Active; 'I' for Inactive)
ROOT
ATOM      1  C2' OXE d   1      -2.399  -1.736  -3.690  0.00  0.00     0.078 C 
ATOM      2  C1' OXE d   1      -1.218  -3.572  -5.454  0.00  0.00     0.078 C 
ATOM      3  C1  OXE d   1      -0.435  -2.333  -5.102  0.00  0.00    -0.078 A 
ATOM      4  C2  OXE d   1      -1.040  -1.417  -4.274  0.00  0.00    -0.078 A 
ATOM      5  C3  OXE d   1      -0.340  -0.282  -3.874  0.00  0.00     0.003 A 
ATOM      6  C4  OXE d   1       0.913   0.010  -4.427  0.00  0.00    -0.002 A 
ATOM      7  C5  OXE d   1       1.530  -0.890  -5.302  0.00  0.00    -0.002 A 
ATOM      8  C6  OXE d   1       0.889  -2.084  -5.616  0.00  0.00     0.003 A 
ENDROOT
TORSDOF 0
ENDMDL
