MODEL 1
REMARK minimizedAffinity 11.6907377
REMARK minimizedRMSD -1
REMARK  0 active torsions:
REMARK  status: ('A' for Active; 'I' for Inactive)
ROOT
ATOM      1  C2' OXE d   1      -0.015   2.310   5.262  0.00  0.00     0.078 C 
ATOM      2  C1' OXE d   1      -1.155   2.722   2.730  0.00  0.00     0.078 C 
ATOM      3  C1  OXE d   1      -0.352   1.463   2.943  0.00  0.00    -0.078 A 
ATOM      4  C2  OXE d   1       0.241   1.292   4.171  0.00  0.00    -0.078 A 
ATOM      5  C3  OXE d   1       0.948   0.123   4.438  0.00  0.00     0.003 A 
ATOM      6  C4  OXE d   1       1.189  -0.808   3.421  0.00  0.00    -0.002 A 
ATOM      7  C5  OXE d   1       0.627  -0.633   2.151  0.00  0.00    -0.002 A 
ATOM      8  C6  OXE d   1      -0.179   0.473   1.909  0.00  0.00     0.003 A 
ENDROOT
TORSDOF 0
ENDMDL
