MODEL 1
REMARK minimizedAffinity 3.97883105
REMARK minimizedRMSD -1
REMARK  0 active torsions:
REMARK  status: ('A' for Active; 'I' for Inactive)
ROOT
ATOM      1  C2' OXE d   1       4.191   5.691   2.620  0.00  0.00     0.078 C 
ATOM      2  C1' OXE d   1       3.678   3.548   0.881  0.00  0.00     0.078 C 
ATOM      3  C1  OXE d   1       4.006   3.226   2.318  0.00  0.00    -0.078 A 
ATOM      4  C2  OXE d   1       4.301   4.278   3.151  0.00  0.00    -0.078 A 
ATOM      5  C3  OXE d   1       4.557   4.041   4.498  0.00  0.00     0.003 A 
ATOM      6  C4  OXE d   1       4.667   2.730   4.978  0.00  0.00    -0.002 A 
ATOM      7  C5  OXE d   1       4.408   1.642   4.138  0.00  0.00    -0.002 A 
ATOM      8  C6  OXE d   1       4.036   1.874   2.818  0.00  0.00     0.003 A 
ENDROOT
TORSDOF 0
ENDMDL
