MODEL 1
REMARK minimizedAffinity 11.5262737
REMARK minimizedRMSD -1
REMARK  0 active torsions:
REMARK  status: ('A' for Active; 'I' for Inactive)
ROOT
ATOM      1  C2' OXE d   1       4.486   1.003   5.080  0.00  0.00     0.078 C 
ATOM      2  C1' OXE d   1       4.463   3.768   5.566  0.00  0.00     0.078 C 
ATOM      3  C1  OXE d   1       3.151   3.027   5.653  0.00  0.00    -0.078 A 
ATOM      4  C2  OXE d   1       3.164   1.683   5.368  0.00  0.00    -0.078 A 
ATOM      5  C3  OXE d   1       1.992   0.942   5.487  0.00  0.00     0.003 A 
ATOM      6  C4  OXE d   1       0.773   1.580   5.744  0.00  0.00    -0.002 A 
ATOM      7  C5  OXE d   1       0.731   2.955   5.998  0.00  0.00    -0.002 A 
ATOM      8  C6  OXE d   1       1.915   3.684   5.998  0.00  0.00     0.003 A 
ENDROOT
TORSDOF 0
ENDMDL
