MODEL 1
REMARK minimizedAffinity 11.1982708
REMARK minimizedRMSD -1
REMARK  0 active torsions:
REMARK  status: ('A' for Active; 'I' for Inactive)
ROOT
ATOM      1  C2' OXE d   1       1.529  -2.091   4.342  0.00  0.00     0.078 C 
ATOM      2  C1' OXE d   1       2.056   0.638   4.733  0.00  0.00     0.078 C 
ATOM      3  C1  OXE d   1       1.024   0.262   3.700  0.00  0.00    -0.078 A 
ATOM      4  C2  OXE d   1       0.806  -1.077   3.482  0.00  0.00    -0.078 A 
ATOM      5  C3  OXE d   1      -0.174  -1.478   2.579  0.00  0.00     0.003 A 
ATOM      6  C4  OXE d   1      -0.831  -0.534   1.780  0.00  0.00    -0.002 A 
ATOM      7  C5  OXE d   1      -0.596   0.833   1.958  0.00  0.00    -0.002 A 
ATOM      8  C6  OXE d   1       0.296   1.249   2.941  0.00  0.00     0.003 A 
ENDROOT
TORSDOF 0
ENDMDL
