MODEL 1
REMARK minimizedAffinity 8.67469025
REMARK minimizedRMSD -1
REMARK  0 active torsions:
REMARK  status: ('A' for Active; 'I' for Inactive)
ROOT
ATOM      1  C2' OXE d   1       0.268  -2.077   3.842  0.00  0.00     0.078 C 
ATOM      2  C1' OXE d   1      -2.341  -1.918   2.817  0.00  0.00     0.078 C 
ATOM      3  C1  OXE d   1      -1.527  -0.649   2.872  0.00  0.00    -0.078 A 
ATOM      4  C2  OXE d   1      -0.269  -0.727   3.418  0.00  0.00    -0.078 A 
ATOM      5  C3  OXE d   1       0.544   0.402   3.442  0.00  0.00     0.003 A 
ATOM      6  C4  OXE d   1       0.036   1.649   3.057  0.00  0.00    -0.002 A 
ATOM      7  C5  OXE d   1      -1.257   1.759   2.535  0.00  0.00    -0.002 A 
ATOM      8  C6  OXE d   1      -2.035   0.614   2.396  0.00  0.00     0.003 A 
ENDROOT
TORSDOF 0
ENDMDL
