MODEL 1
REMARK minimizedAffinity 7.02151537
REMARK minimizedRMSD -1
REMARK  0 active torsions:
REMARK  status: ('A' for Active; 'I' for Inactive)
ROOT
ATOM      1  C   UNL d   1       1.170  -3.127   3.324  0.00  0.00     0.023 A 
ATOM      2  C1  UNL d   1       1.740  -1.933   2.882  0.00  0.00     0.003 A 
ATOM      3  C2  UNL d   1       3.126  -1.765   2.915  0.00  0.00     0.048 A 
ATOM      4  C3  UNL d   1       3.936  -2.796   3.390  0.00  0.00     0.023 A 
ATOM      5  C4  UNL d   1       3.371  -3.992   3.833  0.00  0.00     0.048 A 
ATOM      6  C5  UNL d   1       1.984  -4.155   3.800  0.00  0.00     0.003 A 
ATOM      7  I   UNL d   1       5.999  -2.548   3.440  0.00  0.00    -0.146 I 
ENDROOT
TORSDOF 0
ENDMDL
