MODEL 1
REMARK minimizedAffinity -0.00193093217
REMARK minimizedRMSD -1
REMARK  0 active torsions:
REMARK  status: ('A' for Active; 'I' for Inactive)
ROOT
ATOM      1  C   UNL d   1       2.768  -2.432   2.915  0.00  0.00     0.023 A 
ATOM      2  C1  UNL d   1       1.721  -1.956   3.705  0.00  0.00     0.003 A 
ATOM      3  C2  UNL d   1       1.029  -2.827   4.549  0.00  0.00     0.048 A 
ATOM      4  C3  UNL d   1       1.391  -4.173   4.600  0.00  0.00     0.023 A 
ATOM      5  C4  UNL d   1       2.438  -4.654   3.812  0.00  0.00     0.048 A 
ATOM      6  C5  UNL d   1       3.126  -3.779   2.969  0.00  0.00     0.003 A 
ATOM      7  I   UNL d   1       0.363  -5.472   5.856  0.00  0.00    -0.146 I 
ENDROOT
TORSDOF 0
ENDMDL
