MODEL 1
REMARK minimizedAffinity 4.70301342
REMARK minimizedRMSD -1
REMARK  0 active torsions:
REMARK  status: ('A' for Active; 'I' for Inactive)
ROOT
ATOM      1  C   UNL d   1       3.888  -2.783   3.015  0.00  0.00     0.023 A 
ATOM      2  C1  UNL d   1       2.535  -3.014   2.765  0.00  0.00     0.003 A 
ATOM      3  C2  UNL d   1       1.796  -3.834   3.621  0.00  0.00     0.048 A 
ATOM      4  C3  UNL d   1       2.416  -4.419   4.724  0.00  0.00     0.023 A 
ATOM      5  C4  UNL d   1       3.769  -4.190   4.978  0.00  0.00     0.048 A 
ATOM      6  C5  UNL d   1       4.504  -3.370   4.120  0.00  0.00     0.003 A 
ATOM      7  I   UNL d   1       1.318  -5.639   5.999  0.00  0.00    -0.146 I 
ENDROOT
TORSDOF 0
ENDMDL
