MODEL 1
REMARK minimizedAffinity 0.823944151
REMARK minimizedRMSD -1
REMARK  0 active torsions:
REMARK  status: ('A' for Active; 'I' for Inactive)
ROOT
ATOM      1  C   UNL d   1       2.369  -5.983  -2.179  0.00  0.00     0.023 A 
ATOM      2  C1  UNL d   1       1.877  -5.996  -3.484  0.00  0.00     0.003 A 
ATOM      3  C2  UNL d   1       2.762  -6.000  -4.565  0.00  0.00     0.048 A 
ATOM      4  C3  UNL d   1       4.137  -5.993  -4.333  0.00  0.00     0.023 A 
ATOM      5  C4  UNL d   1       4.633  -5.981  -3.029  0.00  0.00     0.048 A 
ATOM      6  C5  UNL d   1       3.746  -5.976  -1.951  0.00  0.00     0.003 A 
ATOM      7  I   UNL d   1       5.455  -6.000  -5.940  0.00  0.00    -0.146 I 
ENDROOT
TORSDOF 0
ENDMDL
