MODEL 1
REMARK minimizedAffinity 3.81253576
REMARK minimizedRMSD -1
REMARK  0 active torsions:
REMARK  status: ('A' for Active; 'I' for Inactive)
ROOT
ATOM      1  C   UNL d   1       2.827  -2.349   3.527  0.00  0.00     0.023 A 
ATOM      2  C1  UNL d   1       1.486  -2.667   3.313  0.00  0.00     0.003 A 
ATOM      3  C2  UNL d   1       0.893  -3.715   4.021  0.00  0.00     0.048 A 
ATOM      4  C3  UNL d   1       1.648  -4.440   4.942  0.00  0.00     0.023 A 
ATOM      5  C4  UNL d   1       2.990  -4.126   5.161  0.00  0.00     0.048 A 
ATOM      6  C5  UNL d   1       3.578  -3.078   4.450  0.00  0.00     0.003 A 
ATOM      7  I   UNL d   1       0.768  -6.000   5.997  0.00  0.00    -0.146 I 
ENDROOT
TORSDOF 0
ENDMDL
