MODEL 1
REMARK minimizedAffinity 13.6298532
REMARK minimizedRMSD -1
REMARK  0 active torsions:
REMARK  status: ('A' for Active; 'I' for Inactive)
ROOT
ATOM      1  C   UNL d   1       4.155  -5.999  -0.140  0.00  0.00     0.023 A 
ATOM      2  C1  UNL d   1       4.899  -5.999  -1.320  0.00  0.00     0.003 A 
ATOM      3  C2  UNL d   1       4.250  -5.998  -2.556  0.00  0.00     0.048 A 
ATOM      4  C3  UNL d   1       2.857  -5.997  -2.605  0.00  0.00     0.023 A 
ATOM      5  C4  UNL d   1       2.108  -5.997  -1.427  0.00  0.00     0.048 A 
ATOM      6  C5  UNL d   1       2.761  -5.998  -0.193  0.00  0.00     0.003 A 
ATOM      7  I   UNL d   1       1.888  -5.997  -4.444  0.00  0.00    -0.146 I 
ENDROOT
TORSDOF 0
ENDMDL
