MODEL 1
REMARK minimizedAffinity 20.2613087
REMARK minimizedRMSD -1
REMARK  0 active torsions:
REMARK  status: ('A' for Active; 'I' for Inactive)
ROOT
ATOM      1  C   UNL d   1       1.526   3.845  -0.892  0.00  0.00     0.124 A 
ATOM      2  C1  UNL d   1       1.435   2.924  -1.926  0.00  0.00     0.062 A 
ATOM      3  C2  UNL d   1       0.757   1.723  -1.737  0.00  0.00     0.162 A 
ATOM      4  C3  UNL d   1       0.162   1.437  -0.508  0.00  0.00    -0.034 A 
ATOM      5  C4  UNL d   1       0.258   2.368   0.528  0.00  0.00     0.162 A 
ATOM      6  C5  UNL d   1       0.938   3.566   0.334  0.00  0.00     0.062 A 
ATOM      7  F   UNL d   1       1.024   4.455   1.334  0.00  0.00    -0.097 F 
ATOM      8  F1  UNL d   1      -0.302   2.125   1.722  0.00  0.00    -0.096 F 
ATOM      9  I   UNL d   1      -0.854  -0.356  -0.221  0.00  0.00    -0.060 I 
ATOM     10  F2  UNL d   1       0.685   0.852  -2.754  0.00  0.00    -0.096 F 
ATOM     11  F3  UNL d   1       2.004   3.190  -3.111  0.00  0.00    -0.097 F 
ATOM     12  F4  UNL d   1       2.181   4.998  -1.076  0.00  0.00    -0.092 F 
ENDROOT
TORSDOF 0
ENDMDL
