MODEL 1
REMARK minimizedAffinity 17.2610989
REMARK minimizedRMSD -1
REMARK  0 active torsions:
REMARK  status: ('A' for Active; 'I' for Inactive)
ROOT
ATOM      1  C   UNL d   1       2.127   1.474  -4.359  0.00  0.00     0.124 A 
ATOM      2  C1  UNL d   1       1.459   0.664  -3.450  0.00  0.00     0.062 A 
ATOM      3  C2  UNL d   1       1.352   1.049  -2.117  0.00  0.00     0.162 A 
ATOM      4  C3  UNL d   1       1.913   2.251  -1.684  0.00  0.00    -0.034 A 
ATOM      5  C4  UNL d   1       2.584   3.059  -2.604  0.00  0.00     0.162 A 
ATOM      6  C5  UNL d   1       2.688   2.670  -3.935  0.00  0.00     0.062 A 
ATOM      7  F   UNL d   1       3.334   3.453  -4.812  0.00  0.00    -0.097 F 
ATOM      8  F1  UNL d   1       3.135   4.221  -2.222  0.00  0.00    -0.096 F 
ATOM      9  I   UNL d   1       1.755   2.830   0.308  0.00  0.00    -0.060 I 
ATOM     10  F2  UNL d   1       0.702   0.248  -1.261  0.00  0.00    -0.096 F 
ATOM     11  F3  UNL d   1       0.917  -0.492  -3.857  0.00  0.00    -0.097 F 
ATOM     12  F4  UNL d   1       2.229   1.100  -5.641  0.00  0.00    -0.092 F 
ENDROOT
TORSDOF 0
ENDMDL
