MODEL 1
REMARK minimizedAffinity 21.3684216
REMARK minimizedRMSD -1
REMARK  0 active torsions:
REMARK  status: ('A' for Active; 'I' for Inactive)
ROOT
ATOM      1  C   UNL d   1       2.163   1.644  -4.483  0.00  0.00     0.124 A 
ATOM      2  C1  UNL d   1       2.839   2.755  -3.998  0.00  0.00     0.062 A 
ATOM      3  C2  UNL d   1       2.849   3.029  -2.633  0.00  0.00     0.162 A 
ATOM      4  C3  UNL d   1       2.181   2.189  -1.743  0.00  0.00    -0.034 A 
ATOM      5  C4  UNL d   1       1.502   1.074  -2.237  0.00  0.00     0.162 A 
ATOM      6  C5  UNL d   1       1.495   0.805  -3.602  0.00  0.00     0.062 A 
ATOM      7  F   UNL d   1       0.841  -0.269  -4.068  0.00  0.00    -0.097 F 
ATOM      8  F1  UNL d   1       0.849   0.245  -1.409  0.00  0.00    -0.096 F 
ATOM      9  I   UNL d   1       2.193   2.594   0.299  0.00  0.00    -0.060 I 
ATOM     10  F2  UNL d   1       3.511   4.109  -2.193  0.00  0.00    -0.096 F 
ATOM     11  F3  UNL d   1       3.484   3.568  -4.847  0.00  0.00    -0.097 F 
ATOM     12  F4  UNL d   1       2.154   1.384  -5.796  0.00  0.00    -0.092 F 
ENDROOT
TORSDOF 0
ENDMDL
