MODEL 1
REMARK minimizedAffinity 19.6377354
REMARK minimizedRMSD -1
REMARK  0 active torsions:
REMARK  status: ('A' for Active; 'I' for Inactive)
ROOT
ATOM      1  C   UNL d   1       4.756   2.023   2.636  0.00  0.00     0.124 A 
ATOM      2  C1  UNL d   1       4.539   2.892   1.575  0.00  0.00     0.062 A 
ATOM      3  C2  UNL d   1       3.248   3.111   1.104  0.00  0.00     0.162 A 
ATOM      4  C3  UNL d   1       2.163   2.461   1.693  0.00  0.00    -0.034 A 
ATOM      5  C4  UNL d   1       2.390   1.588   2.758  0.00  0.00     0.162 A 
ATOM      6  C5  UNL d   1       3.682   1.372   3.226  0.00  0.00     0.062 A 
ATOM      7  F   UNL d   1       3.890   0.533   4.251  0.00  0.00    -0.097 F 
ATOM      8  F1  UNL d   1       1.370   0.946   3.348  0.00  0.00    -0.096 F 
ATOM      9  I   UNL d   1       0.231   2.785   0.990  0.00  0.00    -0.060 I 
ATOM     10  F2  UNL d   1       3.067   3.955   0.077  0.00  0.00    -0.096 F 
ATOM     11  F3  UNL d   1       5.575   3.521   1.003  0.00  0.00    -0.097 F 
ATOM     12  F4  UNL d   1       5.999   1.814   3.087  0.00  0.00    -0.092 F 
ENDROOT
TORSDOF 0
ENDMDL
