MODEL 1
REMARK minimizedAffinity 15.57197
REMARK minimizedRMSD -1
REMARK  0 active torsions:
REMARK  status: ('A' for Active; 'I' for Inactive)
ROOT
ATOM      1  C   UNL d   1       0.706  -1.082  -0.341  0.00  0.00     0.124 A 
ATOM      2  C1  UNL d   1       0.639   0.230  -0.788  0.00  0.00     0.062 A 
ATOM      3  C2  UNL d   1       1.040   0.550  -2.082  0.00  0.00     0.162 A 
ATOM      4  C3  UNL d   1       1.511  -0.445  -2.939  0.00  0.00    -0.034 A 
ATOM      5  C4  UNL d   1       1.577  -1.762  -2.481  0.00  0.00     0.162 A 
ATOM      6  C5  UNL d   1       1.175  -2.077  -1.187  0.00  0.00     0.062 A 
ATOM      7  F   UNL d   1       1.240  -3.345  -0.757  0.00  0.00    -0.097 F 
ATOM      8  F1  UNL d   1       2.025  -2.743  -3.279  0.00  0.00    -0.096 F 
ATOM      9  I   UNL d   1       2.112   0.029  -4.874  0.00  0.00    -0.060 I 
ATOM     10  F2  UNL d   1       0.964   1.826  -2.487  0.00  0.00    -0.096 F 
ATOM     11  F3  UNL d   1       0.187   1.193   0.028  0.00  0.00    -0.097 F 
ATOM     12  F4  UNL d   1       0.320  -1.387   0.905  0.00  0.00    -0.092 F 
ENDROOT
TORSDOF 0
ENDMDL
