MODEL 1
REMARK minimizedAffinity 7.33793163
REMARK minimizedRMSD -1
REMARK  0 active torsions:
REMARK  status: ('A' for Active; 'I' for Inactive)
ROOT
ATOM      1  C   UNL d   1       0.690  -0.184  -1.177  0.00  0.00     0.124 A 
ATOM      2  C1  UNL d   1      -0.502  -0.174  -0.467  0.00  0.00     0.062 A 
ATOM      3  C2  UNL d   1      -1.078  -1.370  -0.050  0.00  0.00     0.162 A 
ATOM      4  C3  UNL d   1      -0.463  -2.587  -0.342  0.00  0.00    -0.034 A 
ATOM      5  C4  UNL d   1       0.736  -2.590  -1.058  0.00  0.00     0.162 A 
ATOM      6  C5  UNL d   1       1.308  -1.391  -1.472  0.00  0.00     0.062 A 
ATOM      7  F   UNL d   1       2.460  -1.403  -2.159  0.00  0.00    -0.097 F 
ATOM      8  F1  UNL d   1       1.354  -3.742  -1.356  0.00  0.00    -0.096 F 
ATOM      9  I   UNL d   1      -1.322  -4.378   0.279  0.00  0.00    -0.060 I 
ATOM     10  F2  UNL d   1      -2.231  -1.331   0.635  0.00  0.00    -0.096 F 
ATOM     11  F3  UNL d   1      -1.101   0.991  -0.182  0.00  0.00    -0.097 F 
ATOM     12  F4  UNL d   1       1.243   0.969  -1.578  0.00  0.00    -0.092 F 
ENDROOT
TORSDOF 0
ENDMDL
