MODEL 1
REMARK minimizedAffinity 10.6766405
REMARK minimizedRMSD -1
REMARK  0 active torsions:
REMARK  status: ('A' for Active; 'I' for Inactive)
ROOT
ATOM      1  C   UNL d   1       0.789  -1.846  -0.164  0.00  0.00     0.124 A 
ATOM      2  C1  UNL d   1       1.455  -2.590  -1.128  0.00  0.00     0.062 A 
ATOM      3  C2  UNL d   1       1.684  -2.052  -2.392  0.00  0.00     0.162 A 
ATOM      4  C3  UNL d   1       1.248  -0.763  -2.698  0.00  0.00    -0.034 A 
ATOM      5  C4  UNL d   1       0.577  -0.022  -1.723  0.00  0.00     0.162 A 
ATOM      6  C5  UNL d   1       0.350  -0.564  -0.462  0.00  0.00     0.062 A 
ATOM      7  F   UNL d   1      -0.294   0.155   0.468  0.00  0.00    -0.097 F 
ATOM      8  F1  UNL d   1       0.144   1.220  -1.984  0.00  0.00    -0.096 F 
ATOM      9  I   UNL d   1       1.589   0.044  -4.585  0.00  0.00    -0.060 I 
ATOM     10  F2  UNL d   1       2.331  -2.793  -3.304  0.00  0.00    -0.096 F 
ATOM     11  F3  UNL d   1       1.879  -3.829  -0.843  0.00  0.00    -0.097 F 
ATOM     12  F4  UNL d   1       0.568  -2.367   1.050  0.00  0.00    -0.092 F 
ENDROOT
TORSDOF 0
ENDMDL
