MODEL 1
REMARK minimizedAffinity 8.32129002
REMARK minimizedRMSD -1
REMARK  0 active torsions:
REMARK  status: ('A' for Active; 'I' for Inactive)
ROOT
ATOM      1  C   UNL d   1       0.501  -1.806   0.316  0.00  0.00     0.124 A 
ATOM      2  C1  UNL d   1       1.048  -2.628  -0.660  0.00  0.00     0.062 A 
ATOM      3  C2  UNL d   1       1.365  -2.111  -1.912  0.00  0.00     0.162 A 
ATOM      4  C3  UNL d   1       1.137  -0.765  -2.197  0.00  0.00    -0.034 A 
ATOM      5  C4  UNL d   1       0.585   0.055  -1.210  0.00  0.00     0.162 A 
ATOM      6  C5  UNL d   1       0.270  -0.466   0.040  0.00  0.00     0.062 A 
ATOM      7  F   UNL d   1      -0.259   0.329   0.982  0.00  0.00    -0.097 F 
ATOM      8  F1  UNL d   1       0.353   1.354  -1.450  0.00  0.00    -0.096 F 
ATOM      9  I   UNL d   1       1.610   0.012  -4.069  0.00  0.00    -0.060 I 
ATOM     10  F2  UNL d   1       1.893  -2.928  -2.836  0.00  0.00    -0.096 F 
ATOM     11  F3  UNL d   1       1.271  -3.923  -0.395  0.00  0.00    -0.097 F 
ATOM     12  F4  UNL d   1       0.196  -2.307   1.521  0.00  0.00    -0.092 F 
ENDROOT
TORSDOF 0
ENDMDL
