MODEL 1
REMARK minimizedAffinity 10.3419704
REMARK minimizedRMSD -1
REMARK  0 active torsions:
REMARK  status: ('A' for Active; 'I' for Inactive)
ROOT
ATOM      1  C   UNL d   1       0.856   0.069  -1.898  0.00  0.00     0.124 A 
ATOM      2  C1  UNL d   1      -0.263   0.070  -1.077  0.00  0.00     0.062 A 
ATOM      3  C2  UNL d   1      -0.525  -1.019  -0.251  0.00  0.00     0.162 A 
ATOM      4  C3  UNL d   1       0.333  -2.119  -0.242  0.00  0.00    -0.034 A 
ATOM      5  C4  UNL d   1       1.456  -2.112  -1.071  0.00  0.00     0.162 A 
ATOM      6  C5  UNL d   1       1.714  -1.021  -1.895  0.00  0.00     0.062 A 
ATOM      7  F   UNL d   1       2.796  -1.024  -2.688  0.00  0.00    -0.097 F 
ATOM      8  F1  UNL d   1       2.302  -3.153  -1.087  0.00  0.00    -0.096 F 
ATOM      9  I   UNL d   1      -0.056  -3.749   0.992  0.00  0.00    -0.060 I 
ATOM     10  F2  UNL d   1      -1.614  -0.991   0.532  0.00  0.00    -0.096 F 
ATOM     11  F3  UNL d   1      -1.094   1.122  -1.079  0.00  0.00    -0.097 F 
ATOM     12  F4  UNL d   1       1.106   1.118  -2.692  0.00  0.00    -0.092 F 
ENDROOT
TORSDOF 0
ENDMDL
