MODEL 1
REMARK minimizedAffinity 8.04906082
REMARK minimizedRMSD -1
REMARK  0 active torsions:
REMARK  status: ('A' for Active; 'I' for Inactive)
ROOT
ATOM      1  C   UNL d   1       1.558  -0.970  -1.997  0.00  0.00     0.124 A 
ATOM      2  C1  UNL d   1       1.509  -1.900  -0.968  0.00  0.00     0.062 A 
ATOM      3  C2  UNL d   1       0.563  -1.774   0.045  0.00  0.00     0.162 A 
ATOM      4  C3  UNL d   1      -0.344  -0.714   0.033  0.00  0.00    -0.034 A 
ATOM      5  C4  UNL d   1      -0.288   0.217  -1.005  0.00  0.00     0.162 A 
ATOM      6  C5  UNL d   1       0.659   0.087  -2.015  0.00  0.00     0.062 A 
ATOM      7  F   UNL d   1       0.705   0.986  -3.009  0.00  0.00    -0.097 F 
ATOM      8  F1  UNL d   1      -1.145   1.248  -1.047  0.00  0.00    -0.096 F 
ATOM      9  I   UNL d   1      -1.760  -0.523   1.546  0.00  0.00    -0.060 I 
ATOM     10  F2  UNL d   1       0.539  -2.688   1.027  0.00  0.00    -0.096 F 
ATOM     11  F3  UNL d   1       2.377  -2.922  -0.948  0.00  0.00    -0.097 F 
ATOM     12  F4  UNL d   1       2.470  -1.093  -2.970  0.00  0.00    -0.092 F 
ENDROOT
TORSDOF 0
ENDMDL
