MODEL 1
REMARK minimizedAffinity 9.67784309
REMARK minimizedRMSD -1
REMARK  0 active torsions:
REMARK  status: ('A' for Active; 'I' for Inactive)
ROOT
ATOM      1  C   UNL d   1       0.670  -1.572  -0.773  0.00  0.00     0.124 A 
ATOM      2  C1  UNL d   1       1.511  -1.963  -1.806  0.00  0.00     0.062 A 
ATOM      3  C2  UNL d   1       1.776  -1.094  -2.860  0.00  0.00     0.162 A 
ATOM      4  C3  UNL d   1       1.200   0.176  -2.887  0.00  0.00    -0.034 A 
ATOM      5  C4  UNL d   1       0.354   0.562  -1.846  0.00  0.00     0.162 A 
ATOM      6  C5  UNL d   1       0.093  -0.310  -0.794  0.00  0.00     0.062 A 
ATOM      7  F   UNL d   1      -0.720   0.069   0.203  0.00  0.00    -0.097 F 
ATOM      8  F1  UNL d   1      -0.216   1.776  -1.840  0.00  0.00    -0.096 F 
ATOM      9  I   UNL d   1       1.593   1.478  -4.462  0.00  0.00    -0.060 I 
ATOM     10  F2  UNL d   1       2.593  -1.499  -3.845  0.00  0.00    -0.096 F 
ATOM     11  F3  UNL d   1       2.070  -3.182  -1.789  0.00  0.00    -0.097 F 
ATOM     12  F4  UNL d   1       0.417  -2.411   0.240  0.00  0.00    -0.092 F 
ENDROOT
TORSDOF 0
ENDMDL
