MODEL 1
REMARK minimizedAffinity 22.9282475
REMARK minimizedRMSD -1
REMARK  0 active torsions:
REMARK  status: ('A' for Active; 'I' for Inactive)
ROOT
ATOM      1  C   UNL d   1       1.289  -2.118  -2.707  0.00  0.00     0.124 A 
ATOM      2  C1  UNL d   1       1.332  -0.855  -3.281  0.00  0.00     0.062 A 
ATOM      3  C2  UNL d   1       1.265   0.281  -2.480  0.00  0.00     0.162 A 
ATOM      4  C3  UNL d   1       1.155   0.159  -1.094  0.00  0.00    -0.034 A 
ATOM      5  C4  UNL d   1       1.112  -1.114  -0.525  0.00  0.00     0.162 A 
ATOM      6  C5  UNL d   1       1.179  -2.247  -1.330  0.00  0.00     0.062 A 
ATOM      7  F   UNL d   1       1.137  -3.466  -0.774  0.00  0.00    -0.097 F 
ATOM      8  F1  UNL d   1       1.007  -1.268   0.804  0.00  0.00    -0.096 F 
ATOM      9  I   UNL d   1       1.055   1.855   0.108  0.00  0.00    -0.060 I 
ATOM     10  F2  UNL d   1       1.308   1.489  -3.061  0.00  0.00    -0.096 F 
ATOM     11  F3  UNL d   1       1.437  -0.728  -4.612  0.00  0.00    -0.097 F 
ATOM     12  F4  UNL d   1       1.352  -3.209  -3.481  0.00  0.00    -0.092 F 
ENDROOT
TORSDOF 0
ENDMDL
