MODEL 1
REMARK minimizedAffinity 3.23228788
REMARK minimizedRMSD -1
REMARK  0 active torsions:
REMARK  status: ('A' for Active; 'I' for Inactive)
ROOT
ATOM      1  C   UNL d   1       0.949   0.919  -2.272  0.00  0.00     0.124 A 
ATOM      2  C1  UNL d   1       1.685  -0.234  -2.512  0.00  0.00     0.062 A 
ATOM      3  C2  UNL d   1       1.404  -1.402  -1.810  0.00  0.00     0.162 A 
ATOM      4  C3  UNL d   1       0.383  -1.425  -0.861  0.00  0.00    -0.034 A 
ATOM      5  C4  UNL d   1      -0.352  -0.262  -0.623  0.00  0.00     0.162 A 
ATOM      6  C5  UNL d   1      -0.068   0.904  -1.328  0.00  0.00     0.062 A 
ATOM      7  F   UNL d   1      -0.780   2.016  -1.094  0.00  0.00    -0.097 F 
ATOM      8  F1  UNL d   1      -1.341  -0.248   0.282  0.00  0.00    -0.096 F 
ATOM      9  I   UNL d   1      -0.039  -3.170   0.192  0.00  0.00    -0.060 I 
ATOM     10  F2  UNL d   1       2.131  -2.501  -2.063  0.00  0.00    -0.096 F 
ATOM     11  F3  UNL d   1       2.669  -0.221  -3.423  0.00  0.00    -0.097 F 
ATOM     12  F4  UNL d   1       1.222   2.042  -2.948  0.00  0.00    -0.092 F 
ENDROOT
TORSDOF 0
ENDMDL
