MODEL 1
REMARK minimizedAffinity -2.27490783
REMARK minimizedRMSD -1
REMARK  0 active torsions:
REMARK  status: ('A' for Active; 'I' for Inactive)
ROOT
ATOM      1  C2' OXE d   1       0.661  -1.510   3.477  0.00  0.00     0.078 C 
ATOM      2  C1' OXE d   1       1.564  -0.778   0.922  0.00  0.00     0.078 C 
ATOM      3  C1  OXE d   1       2.593  -0.935   2.013  0.00  0.00    -0.078 A 
ATOM      4  C2  OXE d   1       2.137  -1.248   3.272  0.00  0.00    -0.078 A 
ATOM      5  C3  OXE d   1       3.049  -1.458   4.302  0.00  0.00     0.003 A 
ATOM      6  C4  OXE d   1       4.412  -1.204   4.106  0.00  0.00    -0.002 A 
ATOM      7  C5  OXE d   1       4.892  -0.846   2.842  0.00  0.00    -0.002 A 
ATOM      8  C6  OXE d   1       4.003  -0.749   1.777  0.00  0.00     0.003 A 
ENDROOT
TORSDOF 0
ENDMDL
