MODEL 1
REMARK minimizedAffinity 1.09051287
REMARK minimizedRMSD -1
REMARK  0 active torsions:
REMARK  status: ('A' for Active; 'I' for Inactive)
ROOT
ATOM      1  C2' OXE d   1       0.670   1.234   0.380  0.00  0.00     0.078 C 
ATOM      2  C1' OXE d   1       2.920   0.104  -0.861  0.00  0.00     0.078 C 
ATOM      3  C1  OXE d   1       2.431  -0.528   0.418  0.00  0.00    -0.078 A 
ATOM      4  C2  OXE d   1       1.357   0.060   1.043  0.00  0.00    -0.078 A 
ATOM      5  C3  OXE d   1       0.832  -0.515   2.196  0.00  0.00     0.003 A 
ATOM      6  C4  OXE d   1       1.479  -1.595   2.809  0.00  0.00    -0.002 A 
ATOM      7  C5  OXE d   1       2.598  -2.184   2.209  0.00  0.00    -0.002 A 
ATOM      8  C6  OXE d   1       3.059  -1.690   0.994  0.00  0.00     0.003 A 
ENDROOT
TORSDOF 0
ENDMDL
