MODEL 1
REMARK minimizedAffinity 2.57488537
REMARK minimizedRMSD -1
REMARK  0 active torsions:
REMARK  status: ('A' for Active; 'I' for Inactive)
ROOT
ATOM      1  C2' OXE d   1      -0.006   0.453   0.129  0.00  0.00     0.078 C 
ATOM      2  C1' OXE d   1      -0.121   1.072  -2.607  0.00  0.00     0.078 C 
ATOM      3  C1  OXE d   1      -1.425   0.936  -1.861  0.00  0.00    -0.078 A 
ATOM      4  C2  OXE d   1      -1.360   0.587  -0.533  0.00  0.00    -0.078 A 
ATOM      5  C3  OXE d   1      -2.531   0.502   0.215  0.00  0.00     0.003 A 
ATOM      6  C4  OXE d   1      -3.780   0.618  -0.408  0.00  0.00    -0.002 A 
ATOM      7  C5  OXE d   1      -3.869   0.934  -1.767  0.00  0.00    -0.002 A 
ATOM      8  C6  OXE d   1      -2.703   1.138  -2.497  0.00  0.00     0.003 A 
ENDROOT
TORSDOF 0
ENDMDL
