MODEL 1
REMARK minimizedAffinity -0.633620441
REMARK minimizedRMSD -1
REMARK  0 active torsions:
REMARK  status: ('A' for Active; 'I' for Inactive)
ROOT
ATOM      1  C2' OXE d   1       0.013  -0.138   0.586  0.00  0.00     0.078 C 
ATOM      2  C1' OXE d   1       2.442   0.081  -0.804  0.00  0.00     0.078 C 
ATOM      3  C1  OXE d   1       2.487  -0.427   0.615  0.00  0.00    -0.078 A 
ATOM      4  C2  OXE d   1       1.299  -0.487   1.303  0.00  0.00    -0.078 A 
ATOM      5  C3  OXE d   1       1.277  -1.000   2.597  0.00  0.00     0.003 A 
ATOM      6  C4  OXE d   1       2.472  -1.312   3.256  0.00  0.00    -0.002 A 
ATOM      7  C5  OXE d   1       3.697  -1.220   2.587  0.00  0.00    -0.002 A 
ATOM      8  C6  OXE d   1       3.717  -0.821   1.255  0.00  0.00     0.003 A 
ENDROOT
TORSDOF 0
ENDMDL
