MODEL 1
REMARK minimizedAffinity 5.05638599
REMARK minimizedRMSD -1
REMARK  0 active torsions:
REMARK  status: ('A' for Active; 'I' for Inactive)
ROOT
ATOM      1  C2' OXE d   1      -0.066   0.112   0.495  0.00  0.00     0.078 C 
ATOM      2  C1' OXE d   1       2.285   0.254  -1.031  0.00  0.00     0.078 C 
ATOM      3  C1  OXE d   1       2.376  -0.353   0.346  0.00  0.00    -0.078 A 
ATOM      4  C2  OXE d   1       1.230  -0.376   1.104  0.00  0.00    -0.078 A 
ATOM      5  C3  OXE d   1       1.247  -0.974   2.361  0.00  0.00     0.003 A 
ATOM      6  C4  OXE d   1       2.452  -1.414   2.921  0.00  0.00    -0.002 A 
ATOM      7  C5  OXE d   1       3.639  -1.364   2.181  0.00  0.00    -0.002 A 
ATOM      8  C6  OXE d   1       3.610  -0.876   0.879  0.00  0.00     0.003 A 
ENDROOT
TORSDOF 0
ENDMDL
