MODEL 1
REMARK minimizedAffinity 0.937681079
REMARK minimizedRMSD -1
REMARK  0 active torsions:
REMARK  status: ('A' for Active; 'I' for Inactive)
ROOT
ATOM      1  C2' OXE d   1      -0.542  -5.066  -2.589  0.00  0.00     0.078 C 
ATOM      2  C1' OXE d   1      -1.493  -5.971  -5.071  0.00  0.00     0.078 C 
ATOM      3  C1  OXE d   1      -0.009  -5.744  -4.926  0.00  0.00    -0.078 A 
ATOM      4  C2  OXE d   1       0.442  -5.257  -3.723  0.00  0.00    -0.078 A 
ATOM      5  C3  OXE d   1       1.808  -5.081  -3.519  0.00  0.00     0.003 A 
ATOM      6  C4  OXE d   1       2.711  -5.251  -4.576  0.00  0.00    -0.002 A 
ATOM      7  C5  OXE d   1       2.267  -5.708  -5.821  0.00  0.00    -0.002 A 
ATOM      8  C6  OXE d   1       0.920  -6.000  -6.000  0.00  0.00     0.003 A 
ENDROOT
TORSDOF 0
ENDMDL
