MODEL 1
REMARK minimizedAffinity 7.10511398
REMARK minimizedRMSD -1
REMARK  0 active torsions:
REMARK  status: ('A' for Active; 'I' for Inactive)
ROOT
ATOM      1  C2' OXE d   1      -2.214  -4.191   0.513  0.00  0.00     0.078 C 
ATOM      2  C1' OXE d   1      -3.595  -1.783   0.092  0.00  0.00     0.078 C 
ATOM      3  C1  OXE d   1      -2.089  -1.727   0.166  0.00  0.00    -0.078 A 
ATOM      4  C2  OXE d   1      -1.424  -2.903   0.419  0.00  0.00    -0.078 A 
ATOM      5  C3  OXE d   1      -0.033  -2.916   0.443  0.00  0.00     0.003 A 
ATOM      6  C4  OXE d   1       0.689  -1.719   0.366  0.00  0.00    -0.002 A 
ATOM      7  C5  OXE d   1       0.029  -0.505   0.148  0.00  0.00    -0.002 A 
ATOM      8  C6  OXE d   1      -1.354  -0.498   0.003  0.00  0.00     0.003 A 
ENDROOT
TORSDOF 0
ENDMDL
