MODEL 1
REMARK minimizedAffinity 5.80639553
REMARK minimizedRMSD -1
REMARK  0 active torsions:
REMARK  status: ('A' for Active; 'I' for Inactive)
ROOT
ATOM      1  C2' OXE d   1       1.904  -1.036   0.512  0.00  0.00     0.078 C 
ATOM      2  C1' OXE d   1       1.152  -1.158   3.213  0.00  0.00     0.078 C 
ATOM      3  C1  OXE d   1       2.624  -1.070   2.896  0.00  0.00    -0.078 A 
ATOM      4  C2  OXE d   1       2.985  -1.058   1.570  0.00  0.00    -0.078 A 
ATOM      5  C3  OXE d   1       4.326  -0.923   1.222  0.00  0.00     0.003 A 
ATOM      6  C4  OXE d   1       5.320  -0.954   2.208  0.00  0.00    -0.002 A 
ATOM      7  C5  OXE d   1       4.976  -1.006   3.562  0.00  0.00    -0.002 A 
ATOM      8  C6  OXE d   1       3.633  -1.022   3.924  0.00  0.00     0.003 A 
ENDROOT
TORSDOF 0
ENDMDL
