MODEL 1
REMARK minimizedAffinity 1.70004702
REMARK minimizedRMSD -1
REMARK  0 active torsions:
REMARK  status: ('A' for Active; 'I' for Inactive)
ROOT
ATOM      1  C2' OXE d   1       2.945  -5.263  -4.821  0.00  0.00     0.078 C 
ATOM      2  C1' OXE d   1       1.538  -5.058  -2.401  0.00  0.00     0.078 C 
ATOM      3  C1  OXE d   1       0.755  -5.403  -3.643  0.00  0.00    -0.078 A 
ATOM      4  C2  OXE d   1       1.444  -5.456  -4.831  0.00  0.00    -0.078 A 
ATOM      5  C3  OXE d   1       0.780  -5.824  -5.997  0.00  0.00     0.003 A 
ATOM      6  C4  OXE d   1      -0.610  -5.991  -5.999  0.00  0.00    -0.002 A 
ATOM      7  C5  OXE d   1      -1.337  -5.903  -4.808  0.00  0.00    -0.002 A 
ATOM      8  C6  OXE d   1      -0.665  -5.652  -3.616  0.00  0.00     0.003 A 
ENDROOT
TORSDOF 0
ENDMDL
