MODEL 1
REMARK minimizedAffinity 10.4250145
REMARK minimizedRMSD -1
REMARK  0 active torsions:
REMARK  status: ('A' for Active; 'I' for Inactive)
ROOT
ATOM      1  C2' OXE d   1      -0.595   0.021   0.478  0.00  0.00     0.078 C 
ATOM      2  C1' OXE d   1       1.991  -0.537  -0.460  0.00  0.00     0.078 C 
ATOM      3  C1  OXE d   1       1.603   0.910  -0.285  0.00  0.00    -0.078 A 
ATOM      4  C2  OXE d   1       0.320   1.175   0.130  0.00  0.00    -0.078 A 
ATOM      5  C3  OXE d   1      -0.072   2.490   0.360  0.00  0.00     0.003 A 
ATOM      6  C4  OXE d   1       0.777   3.552   0.026  0.00  0.00    -0.002 A 
ATOM      7  C5  OXE d   1       2.074   3.305  -0.436  0.00  0.00    -0.002 A 
ATOM      8  C6  OXE d   1       2.517   1.992  -0.556  0.00  0.00     0.003 A 
ENDROOT
TORSDOF 0
ENDMDL
