MODEL 1
REMARK minimizedAffinity 11.3421926
REMARK minimizedRMSD -1
REMARK  0 active torsions:
REMARK  status: ('A' for Active; 'I' for Inactive)
ROOT
ATOM      1  C2' OXE d   1       1.288  -0.240  -1.210  0.00  0.00     0.078 C 
ATOM      2  C1' OXE d   1      -0.444  -0.123   0.995  0.00  0.00     0.078 C 
ATOM      3  C1  OXE d   1       0.960  -0.620   1.230  0.00  0.00    -0.078 A 
ATOM      4  C2  OXE d   1       1.787  -0.718   0.137  0.00  0.00    -0.078 A 
ATOM      5  C3  OXE d   1       3.109  -1.119   0.306  0.00  0.00     0.003 A 
ATOM      6  C4  OXE d   1       3.559  -1.569   1.553  0.00  0.00    -0.002 A 
ATOM      7  C5  OXE d   1       2.722  -1.515   2.672  0.00  0.00    -0.002 A 
ATOM      8  C6  OXE d   1       1.436  -1.004   2.536  0.00  0.00     0.003 A 
ENDROOT
TORSDOF 0
ENDMDL
