MODEL 1
REMARK minimizedAffinity 6.56190157
REMARK minimizedRMSD -1
REMARK  0 active torsions:
REMARK  status: ('A' for Active; 'I' for Inactive)
ROOT
ATOM      1  C2' OXE d   1      -0.302  -0.095   0.280  0.00  0.00     0.078 C 
ATOM      2  C1' OXE d   1      -3.044  -0.589   0.621  0.00  0.00     0.078 C 
ATOM      3  C1  OXE d   1      -2.171  -1.739   0.186  0.00  0.00    -0.078 A 
ATOM      4  C2  OXE d   1      -0.838  -1.477  -0.024  0.00  0.00    -0.078 A 
ATOM      5  C3  OXE d   1       0.022  -2.514  -0.373  0.00  0.00     0.003 A 
ATOM      6  C4  OXE d   1      -0.484  -3.788  -0.661  0.00  0.00    -0.002 A 
ATOM      7  C5  OXE d   1      -1.844  -4.066  -0.493  0.00  0.00    -0.002 A 
ATOM      8  C6  OXE d   1      -2.692  -3.066  -0.030  0.00  0.00     0.003 A 
ENDROOT
TORSDOF 0
ENDMDL
