MODEL 1
REMARK minimizedAffinity 6.56853533
REMARK minimizedRMSD -1
REMARK  0 active torsions:
REMARK  status: ('A' for Active; 'I' for Inactive)
ROOT
ATOM      1  C2' OXE d   1      -1.863  -4.528  -3.585  0.00  0.00     0.078 C 
ATOM      2  C1' OXE d   1      -1.862  -5.999  -5.976  0.00  0.00     0.078 C 
ATOM      3  C1  OXE d   1      -0.528  -5.608  -5.390  0.00  0.00    -0.078 A 
ATOM      4  C2  OXE d   1      -0.539  -4.849  -4.245  0.00  0.00    -0.078 A 
ATOM      5  C3  OXE d   1       0.664  -4.508  -3.633  0.00  0.00     0.003 A 
ATOM      6  C4  OXE d   1       1.884  -4.800  -4.255  0.00  0.00    -0.002 A 
ATOM      7  C5  OXE d   1       1.916  -5.539  -5.442  0.00  0.00    -0.002 A 
ATOM      8  C6  OXE d   1       0.723  -5.986  -5.999  0.00  0.00     0.003 A 
ENDROOT
TORSDOF 0
ENDMDL
