MODEL 1
REMARK minimizedAffinity 7.98882866
REMARK minimizedRMSD -1
REMARK  0 active torsions:
REMARK  status: ('A' for Active; 'I' for Inactive)
ROOT
ATOM      1  C2' OXE d   1       0.383  -3.698  -0.908  0.00  0.00     0.078 C 
ATOM      2  C1' OXE d   1      -1.918  -3.144   0.602  0.00  0.00     0.078 C 
ATOM      3  C1  OXE d   1      -0.922  -2.029   0.402  0.00  0.00    -0.078 A 
ATOM      4  C2  OXE d   1       0.224  -2.322  -0.298  0.00  0.00    -0.078 A 
ATOM      5  C3  OXE d   1       1.150  -1.315  -0.558  0.00  0.00     0.003 A 
ATOM      6  C4  OXE d   1       0.999  -0.048   0.019  0.00  0.00    -0.002 A 
ATOM      7  C5  OXE d   1      -0.140   0.260   0.769  0.00  0.00    -0.002 A 
ATOM      8  C6  OXE d   1      -1.129  -0.704   0.934  0.00  0.00     0.003 A 
ENDROOT
TORSDOF 0
ENDMDL
