MODEL 1
REMARK minimizedAffinity 1.44006646
REMARK minimizedRMSD -1
REMARK  0 active torsions:
REMARK  status: ('A' for Active; 'I' for Inactive)
ROOT
ATOM      1  C2' OXE d   1      -3.264   0.506  -3.010  0.00  0.00     0.078 C 
ATOM      2  C1' OXE d   1      -0.500   0.812  -2.628  0.00  0.00     0.078 C 
ATOM      3  C1  OXE d   1      -1.237   1.917  -3.343  0.00  0.00    -0.078 A 
ATOM      4  C2  OXE d   1      -2.581   1.737  -3.566  0.00  0.00    -0.078 A 
ATOM      5  C3  OXE d   1      -3.320   2.750  -4.172  0.00  0.00     0.003 A 
ATOM      6  C4  OXE d   1      -2.680   3.881  -4.693  0.00  0.00    -0.002 A 
ATOM      7  C5  OXE d   1      -1.305   4.064  -4.511  0.00  0.00    -0.002 A 
ATOM      8  C6  OXE d   1      -0.578   3.114  -3.802  0.00  0.00     0.003 A 
ENDROOT
TORSDOF 0
ENDMDL
