MODEL 1
REMARK minimizedAffinity 7.83238363
REMARK minimizedRMSD -1
REMARK  0 active torsions:
REMARK  status: ('A' for Active; 'I' for Inactive)
ROOT
ATOM      1  C2' OXE d   1       2.619  -0.011  -0.668  0.00  0.00     0.078 C 
ATOM      2  C1' OXE d   1       0.590  -0.858   1.077  0.00  0.00     0.078 C 
ATOM      3  C1  OXE d   1       2.006  -0.849   1.597  0.00  0.00    -0.078 A 
ATOM      4  C2  OXE d   1       2.998  -0.477   0.721  0.00  0.00    -0.078 A 
ATOM      5  C3  OXE d   1       4.315  -0.399   1.165  0.00  0.00     0.003 A 
ATOM      6  C4  OXE d   1       4.658  -0.842   2.448  0.00  0.00    -0.002 A 
ATOM      7  C5  OXE d   1       3.668  -1.262   3.343  0.00  0.00    -0.002 A 
ATOM      8  C6  OXE d   1       2.335  -1.231   2.948  0.00  0.00     0.003 A 
ENDROOT
TORSDOF 0
ENDMDL
