MODEL 1
REMARK minimizedAffinity -1.21310961
REMARK minimizedRMSD -1
REMARK  0 active torsions:
REMARK  status: ('A' for Active; 'I' for Inactive)
ROOT
ATOM      1  C2' OXE d   1       4.067  -1.181   3.525  0.00  0.00     0.078 C 
ATOM      2  C1' OXE d   1       1.304  -1.442   3.946  0.00  0.00     0.078 C 
ATOM      3  C1  OXE d   1       1.779  -1.174   2.540  0.00  0.00    -0.078 A 
ATOM      4  C2  OXE d   1       3.129  -1.001   2.351  0.00  0.00    -0.078 A 
ATOM      5  C3  OXE d   1       3.625  -0.805   1.066  0.00  0.00     0.003 A 
ATOM      6  C4  OXE d   1       2.750  -0.629  -0.013  0.00  0.00    -0.002 A 
ATOM      7  C5  OXE d   1       1.369  -0.762   0.164  0.00  0.00    -0.002 A 
ATOM      8  C6  OXE d   1       0.871  -1.075   1.424  0.00  0.00     0.003 A 
ENDROOT
TORSDOF 0
ENDMDL
