MODEL 1
REMARK minimizedAffinity 3.32247853
REMARK minimizedRMSD -1
REMARK  0 active torsions:
REMARK  status: ('A' for Active; 'I' for Inactive)
ROOT
ATOM      1  C2' OXE d   1      -1.046  -5.598  -4.743  0.00  0.00     0.078 C 
ATOM      2  C1' OXE d   1       0.385  -4.491  -2.596  0.00  0.00     0.078 C 
ATOM      3  C1  OXE d   1       1.171  -4.990  -3.783  0.00  0.00    -0.078 A 
ATOM      4  C2  OXE d   1       0.466  -5.572  -4.809  0.00  0.00    -0.078 A 
ATOM      5  C3  OXE d   1       1.137  -6.000  -5.951  0.00  0.00     0.003 A 
ATOM      6  C4  OXE d   1       2.536  -5.981  -6.000  0.00  0.00    -0.002 A 
ATOM      7  C5  OXE d   1       3.276  -5.429  -4.949  0.00  0.00    -0.002 A 
ATOM      8  C6  OXE d   1       2.608  -4.891  -3.855  0.00  0.00     0.003 A 
ENDROOT
TORSDOF 0
ENDMDL
