MODEL 1
REMARK minimizedAffinity -3.10802078
REMARK minimizedRMSD -1
REMARK  0 active torsions:
REMARK  status: ('A' for Active; 'I' for Inactive)
ROOT
ATOM      1  C2' OXE d   1      -2.835  -5.952  -3.000  0.00  0.00     0.078 C 
ATOM      2  C1' OXE d   1      -5.558  -5.993  -2.321  0.00  0.00     0.078 C 
ATOM      3  C1  OXE d   1      -4.553  -5.973  -1.197  0.00  0.00    -0.078 A 
ATOM      4  C2  OXE d   1      -3.222  -6.000  -1.538  0.00  0.00    -0.078 A 
ATOM      5  C3  OXE d   1      -2.253  -5.927  -0.541  0.00  0.00     0.003 A 
ATOM      6  C4  OXE d   1      -2.620  -5.982   0.809  0.00  0.00    -0.002 A 
ATOM      7  C5  OXE d   1      -3.969  -5.995   1.178  0.00  0.00    -0.002 A 
ATOM      8  C6  OXE d   1      -4.946  -5.948   0.190  0.00  0.00     0.003 A 
ENDROOT
TORSDOF 0
ENDMDL
