MODEL 1
REMARK minimizedAffinity 10.4890718
REMARK minimizedRMSD -1
REMARK  0 active torsions:
REMARK  status: ('A' for Active; 'I' for Inactive)
ROOT
ATOM      1  O1  BZF d   1      -6.000  -2.382   1.096  0.00  0.00    -0.204 OA
ATOM      2  C2  BZF d   1      -5.264  -1.657   0.179  0.00  0.00     0.174 A 
ATOM      3  C3  BZF d   1      -4.297  -2.421  -0.370  0.00  0.00    -0.012 A 
ATOM      4  C3A BZF d   1      -4.497  -3.729   0.175  0.00  0.00    -0.107 A 
ATOM      5  C4  BZF d   1      -3.862  -4.925   0.000  0.00  0.00     0.055 A 
ATOM      6  C5  BZF d   1      -4.258  -5.996   0.737  0.00  0.00    -0.016 A 
ATOM      7  C6  BZF d   1      -5.279  -5.906   1.660  0.00  0.00     0.022 A 
ATOM      8  C7  BZF d   1      -5.942  -4.741   1.865  0.00  0.00     0.029 A 
ATOM      9  C7A BZF d   1      -5.566  -3.665   1.098  0.00  0.00     0.058 A 
ENDROOT
TORSDOF 0
ENDMDL
