MODEL 1
REMARK minimizedAffinity 8.33897972
REMARK minimizedRMSD -1
REMARK  0 active torsions:
REMARK  status: ('A' for Active; 'I' for Inactive)
ROOT
ATOM      1  O1  BZF d   1      -2.992  -4.895   0.382  0.00  0.00    -0.204 OA
ATOM      2  C2  BZF d   1      -3.727  -6.000  -0.000  0.00  0.00     0.174 A 
ATOM      3  C3  BZF d   1      -4.992  -5.649  -0.313  0.00  0.00    -0.012 A 
ATOM      4  C3A BZF d   1      -5.024  -4.223  -0.202  0.00  0.00    -0.107 A 
ATOM      5  C4  BZF d   1      -5.999  -3.288  -0.402  0.00  0.00     0.055 A 
ATOM      6  C5  BZF d   1      -5.728  -1.983  -0.136  0.00  0.00    -0.016 A 
ATOM      7  C6  BZF d   1      -4.496  -1.579   0.335  0.00  0.00     0.022 A 
ATOM      8  C7  BZF d   1      -3.496  -2.470   0.544  0.00  0.00     0.029 A 
ATOM      9  C7A BZF d   1      -3.757  -3.785   0.245  0.00  0.00     0.058 A 
ENDROOT
TORSDOF 0
ENDMDL
