MODEL 1
REMARK minimizedAffinity -3.58886957
REMARK minimizedRMSD -1
REMARK  0 active torsions:
REMARK  status: ('A' for Active; 'I' for Inactive)
ROOT
ATOM      1  O1  BZF d   1      -4.131  -5.726   1.715  0.00  0.00    -0.204 OA
ATOM      2  C2  BZF d   1      -5.136  -6.000   2.623  0.00  0.00     0.174 A 
ATOM      3  C3  BZF d   1      -5.994  -4.963   2.714  0.00  0.00    -0.012 A 
ATOM      4  C3A BZF d   1      -5.546  -4.017   1.739  0.00  0.00    -0.107 A 
ATOM      5  C4  BZF d   1      -5.999  -2.791   1.343  0.00  0.00     0.055 A 
ATOM      6  C5  BZF d   1      -5.292  -2.094   0.415  0.00  0.00    -0.016 A 
ATOM      7  C6  BZF d   1      -4.126  -2.589  -0.132  0.00  0.00     0.022 A 
ATOM      8  C7  BZF d   1      -3.640  -3.802   0.226  0.00  0.00     0.029 A 
ATOM      9  C7A BZF d   1      -4.370  -4.524   1.138  0.00  0.00     0.058 A 
ENDROOT
TORSDOF 0
ENDMDL
