MODEL 1
REMARK minimizedAffinity 9.24573517
REMARK minimizedRMSD -1
REMARK  0 active torsions:
REMARK  status: ('A' for Active; 'I' for Inactive)
ROOT
ATOM      1  O1  BZF d   1      -0.544   3.149   2.681  0.00  0.00    -0.204 OA
ATOM      2  C2  BZF d   1      -1.857   3.347   2.298  0.00  0.00     0.174 A 
ATOM      3  C3  BZF d   1      -2.510   2.171   2.203  0.00  0.00    -0.012 A 
ATOM      4  C3A BZF d   1      -1.571   1.183   2.638  0.00  0.00    -0.107 A 
ATOM      5  C4  BZF d   1      -1.635  -0.174   2.783  0.00  0.00     0.055 A 
ATOM      6  C5  BZF d   1      -0.519  -0.851   3.160  0.00  0.00    -0.016 A 
ATOM      7  C6  BZF d   1       0.678  -0.205   3.395  0.00  0.00     0.022 A 
ATOM      8  C7  BZF d   1       0.789   1.140   3.269  0.00  0.00     0.029 A 
ATOM      9  C7A BZF d   1      -0.346   1.831   2.920  0.00  0.00     0.058 A 
ENDROOT
TORSDOF 0
ENDMDL
