MODEL 1
REMARK minimizedAffinity 2.82383919
REMARK minimizedRMSD -1
REMARK  0 active torsions:
REMARK  status: ('A' for Active; 'I' for Inactive)
ROOT
ATOM      1  O1  BZF d   1      -3.052  -0.584   4.532  0.00  0.00    -0.204 OA
ATOM      2  C2  BZF d   1      -4.181  -0.048   5.121  0.00  0.00     0.174 A 
ATOM      3  C3  BZF d   1      -4.584   1.058   4.464  0.00  0.00    -0.012 A 
ATOM      4  C3A BZF d   1      -3.703   1.172   3.343  0.00  0.00    -0.107 A 
ATOM      5  C4  BZF d   1      -3.608   2.061   2.310  0.00  0.00     0.055 A 
ATOM      6  C5  BZF d   1      -2.588   1.932   1.420  0.00  0.00    -0.016 A 
ATOM      7  C6  BZF d   1      -1.645   0.932   1.536  0.00  0.00     0.022 A 
ATOM      8  C7  BZF d   1      -1.701   0.024   2.540  0.00  0.00     0.029 A 
ATOM      9  C7A BZF d   1      -2.749   0.131   3.422  0.00  0.00     0.058 A 
ENDROOT
TORSDOF 0
ENDMDL
