MODEL 1
REMARK minimizedAffinity 8.0781908
REMARK minimizedRMSD -1
REMARK  0 active torsions:
REMARK  status: ('A' for Active; 'I' for Inactive)
ROOT
ATOM      1  O1  BZF d   1      -3.896  -2.194   0.766  0.00  0.00    -0.204 OA
ATOM      2  C2  BZF d   1      -5.020  -1.532   0.310  0.00  0.00     0.174 A 
ATOM      3  C3  BZF d   1      -6.000  -2.407   0.007  0.00  0.00    -0.012 A 
ATOM      4  C3A BZF d   1      -5.487  -3.690   0.377  0.00  0.00    -0.107 A 
ATOM      5  C4  BZF d   1      -6.000  -4.955   0.332  0.00  0.00     0.055 A 
ATOM      6  C5  BZF d   1      -5.213  -6.000   0.701  0.00  0.00    -0.016 A 
ATOM      7  C6  BZF d   1      -3.910  -5.817   1.114  0.00  0.00     0.022 A 
ATOM      8  C7  BZF d   1      -3.359  -4.581   1.180  0.00  0.00     0.029 A 
ATOM      9  C7A BZF d   1      -4.162  -3.520   0.839  0.00  0.00     0.058 A 
ENDROOT
TORSDOF 0
ENDMDL
