MODEL 1
REMARK minimizedAffinity 14.9066191
REMARK minimizedRMSD -1
REMARK  0 active torsions:
REMARK  status: ('A' for Active; 'I' for Inactive)
ROOT
ATOM      1  O1  BZF d   1       2.753   0.114  -3.071  0.00  0.00    -0.204 OA
ATOM      2  C2  BZF d   1       1.863  -0.731  -3.704  0.00  0.00     0.174 A 
ATOM      3  C3  BZF d   1       1.456  -0.206  -4.877  0.00  0.00    -0.012 A 
ATOM      4  C3A BZF d   1       2.205   1.004  -5.028  0.00  0.00    -0.107 A 
ATOM      5  C4  BZF d   1       2.255   1.962  -6.000  0.00  0.00     0.055 A 
ATOM      6  C5  BZF d   1       3.038   3.056  -5.808  0.00  0.00    -0.016 A 
ATOM      7  C6  BZF d   1       3.779   3.226  -4.657  0.00  0.00     0.022 A 
ATOM      8  C7  BZF d   1       3.766   2.300  -3.668  0.00  0.00     0.029 A 
ATOM      9  C7A BZF d   1       3.001   1.178  -3.872  0.00  0.00     0.058 A 
ENDROOT
TORSDOF 0
ENDMDL
