MODEL 1
REMARK minimizedAffinity 9.05762291
REMARK minimizedRMSD -1
REMARK  0 active torsions:
REMARK  status: ('A' for Active; 'I' for Inactive)
ROOT
ATOM      1  O1  BZF d   1       3.858  -0.627   3.076  0.00  0.00    -0.204 OA
ATOM      2  C2  BZF d   1       4.960  -0.342   2.293  0.00  0.00     0.174 A 
ATOM      3  C3  BZF d   1       4.740   0.755   1.539  0.00  0.00    -0.012 A 
ATOM      4  C3A BZF d   1       3.453   1.235   1.941  0.00  0.00    -0.107 A 
ATOM      5  C4  BZF d   1       2.691   2.304   1.564  0.00  0.00     0.055 A 
ATOM      6  C5  BZF d   1       1.449   2.449   2.096  0.00  0.00    -0.016 A 
ATOM      7  C6  BZF d   1       0.936   1.544   3.001  0.00  0.00     0.022 A 
ATOM      8  C7  BZF d   1       1.657   0.471   3.409  0.00  0.00     0.029 A 
ATOM      9  C7A BZF d   1       2.925   0.339   2.898  0.00  0.00     0.058 A 
ENDROOT
TORSDOF 0
ENDMDL
