MODEL 1
REMARK minimizedAffinity 15.5500593
REMARK minimizedRMSD -1
REMARK  0 active torsions:
REMARK  status: ('A' for Active; 'I' for Inactive)
ROOT
ATOM      1  O1  BZF d   1       5.573  -1.349   4.518  0.00  0.00    -0.204 OA
ATOM      2  C2  BZF d   1       5.501  -1.126   3.156  0.00  0.00     0.174 A 
ATOM      3  C3  BZF d   1       5.640  -2.281   2.474  0.00  0.00    -0.012 A 
ATOM      4  C3A BZF d   1       5.716  -3.301   3.474  0.00  0.00    -0.107 A 
ATOM      5  C4  BZF d   1       5.843  -4.660   3.421  0.00  0.00     0.055 A 
ATOM      6  C5  BZF d   1       5.962  -5.358   4.581  0.00  0.00    -0.016 A 
ATOM      7  C6  BZF d   1       5.964  -4.730   5.809  0.00  0.00     0.022 A 
ATOM      8  C7  BZF d   1       5.836  -3.385   5.913  0.00  0.00     0.029 A 
ATOM      9  C7A BZF d   1       5.682  -2.680   4.744  0.00  0.00     0.058 A 
ENDROOT
TORSDOF 0
ENDMDL
