MODEL 1
REMARK minimizedAffinity 3.05416203
REMARK minimizedRMSD -1
REMARK  0 active torsions:
REMARK  status: ('A' for Active; 'I' for Inactive)
ROOT
ATOM      1  O1  BZF d   1      -2.504  -0.881  -5.335  0.00  0.00    -0.204 OA
ATOM      2  C2  BZF d   1      -1.519  -1.765  -5.732  0.00  0.00     0.174 A 
ATOM      3  C3  BZF d   1      -2.044  -2.980  -5.991  0.00  0.00    -0.012 A 
ATOM      4  C3A BZF d   1      -3.456  -2.823  -5.829  0.00  0.00    -0.107 A 
ATOM      5  C4  BZF d   1      -4.518  -3.672  -5.965  0.00  0.00     0.055 A 
ATOM      6  C5  BZF d   1      -5.764  -3.224  -5.662  0.00  0.00    -0.016 A 
ATOM      7  C6  BZF d   1      -5.986  -1.937  -5.216  0.00  0.00     0.022 A 
ATOM      8  C7  BZF d   1      -4.965  -1.057  -5.071  0.00  0.00     0.029 A 
ATOM      9  C7A BZF d   1      -3.708  -1.497  -5.407  0.00  0.00     0.058 A 
ENDROOT
TORSDOF 0
ENDMDL
