MODEL 1
REMARK minimizedAffinity 9.8608923
REMARK minimizedRMSD -1
REMARK  0 active torsions:
REMARK  status: ('A' for Active; 'I' for Inactive)
ROOT
ATOM      1  O1  BZF d   1       1.582   4.111  -2.316  0.00  0.00    -0.204 OA
ATOM      2  C2  BZF d   1       2.445   3.486  -1.437  0.00  0.00     0.174 A 
ATOM      3  C3  BZF d   1       3.661   3.322  -1.996  0.00  0.00    -0.012 A 
ATOM      4  C3A BZF d   1       3.578   3.961  -3.273  0.00  0.00    -0.107 A 
ATOM      5  C4  BZF d   1       4.470   4.147  -4.290  0.00  0.00     0.055 A 
ATOM      6  C5  BZF d   1       4.051   4.750  -5.434  0.00  0.00    -0.016 A 
ATOM      7  C6  BZF d   1       2.749   5.173  -5.597  0.00  0.00     0.022 A 
ATOM      8  C7  BZF d   1       1.829   5.015  -4.614  0.00  0.00     0.029 A 
ATOM      9  C7A BZF d   1       2.257   4.436  -3.444  0.00  0.00     0.058 A 
ENDROOT
TORSDOF 0
ENDMDL
