MODEL 1
REMARK minimizedAffinity 10.6421804
REMARK minimizedRMSD -1
REMARK  0 active torsions:
REMARK  status: ('A' for Active; 'I' for Inactive)
ROOT
ATOM      1  O1  BZF d   1       4.671   2.889  -5.969  0.00  0.00    -0.204 OA
ATOM      2  C2  BZF d   1       5.855   3.014  -5.268  0.00  0.00     0.174 A 
ATOM      3  C3  BZF d   1       5.821   4.095  -4.462  0.00  0.00    -0.012 A 
ATOM      4  C3A BZF d   1       4.502   4.629  -4.604  0.00  0.00    -0.107 A 
ATOM      5  C4  BZF d   1       3.855   5.694  -4.046  0.00  0.00     0.055 A 
ATOM      6  C5  BZF d   1       2.592   5.988  -4.452  0.00  0.00    -0.016 A 
ATOM      7  C6  BZF d   1       1.949   5.241  -5.418  0.00  0.00     0.022 A 
ATOM      8  C7  BZF d   1       2.548   4.173  -5.997  0.00  0.00     0.029 A 
ATOM      9  C7A BZF d   1       3.812   3.854  -5.565  0.00  0.00     0.058 A 
ENDROOT
TORSDOF 0
ENDMDL
