MODEL 1
REMARK minimizedAffinity 9.86911392
REMARK minimizedRMSD -1
REMARK  0 active torsions:
REMARK  status: ('A' for Active; 'I' for Inactive)
ROOT
ATOM      1  O1  BZF d   1      -1.561  -2.020  -6.000  0.00  0.00    -0.204 OA
ATOM      2  C2  BZF d   1      -1.282  -3.373  -5.960  0.00  0.00     0.174 A 
ATOM      3  C3  BZF d   1      -0.087  -3.598  -5.375  0.00  0.00    -0.012 A 
ATOM      4  C3A BZF d   1       0.369  -2.312  -4.945  0.00  0.00    -0.107 A 
ATOM      5  C4  BZF d   1       1.486  -1.885  -4.285  0.00  0.00     0.055 A 
ATOM      6  C5  BZF d   1       1.664  -0.553  -4.082  0.00  0.00    -0.016 A 
ATOM      7  C6  BZF d   1       0.750   0.378  -4.529  0.00  0.00     0.022 A 
ATOM      8  C7  BZF d   1      -0.376   0.002  -5.184  0.00  0.00     0.029 A 
ATOM      9  C7A BZF d   1      -0.575  -1.345  -5.362  0.00  0.00     0.058 A 
ENDROOT
TORSDOF 0
ENDMDL
