MODEL 1
REMARK minimizedAffinity 12.3922329
REMARK minimizedRMSD -1
REMARK  0 active torsions:
REMARK  status: ('A' for Active; 'I' for Inactive)
ROOT
ATOM      1  O1  BZF d   1       4.583   1.319  -5.906  0.00  0.00    -0.204 OA
ATOM      2  C2  BZF d   1       3.227   1.074  -6.000  0.00  0.00     0.174 A 
ATOM      3  C3  BZF d   1       2.531   2.229  -5.998  0.00  0.00    -0.012 A 
ATOM      4  C3A BZF d   1       3.520   3.264  -5.990  0.00  0.00    -0.107 A 
ATOM      5  C4  BZF d   1       3.451   4.628  -6.000  0.00  0.00     0.055 A 
ATOM      6  C5  BZF d   1       4.601   5.347  -5.913  0.00  0.00    -0.016 A 
ATOM      7  C6  BZF d   1       5.833   4.737  -5.810  0.00  0.00     0.022 A 
ATOM      8  C7  BZF d   1       5.952   3.387  -5.802  0.00  0.00     0.029 A 
ATOM      9  C7A BZF d   1       4.795   2.657  -5.923  0.00  0.00     0.058 A 
ENDROOT
TORSDOF 0
ENDMDL
