MODEL 1
REMARK minimizedAffinity 8.11357212
REMARK minimizedRMSD -1
REMARK  0 active torsions:
REMARK  status: ('A' for Active; 'I' for Inactive)
ROOT
ATOM      1  O1  BZF d   1      -3.181  -3.034  -5.963  0.00  0.00    -0.204 OA
ATOM      2  C2  BZF d   1      -3.910  -4.207  -6.000  0.00  0.00     0.174 A 
ATOM      3  C3  BZF d   1      -5.023  -4.101  -5.246  0.00  0.00    -0.012 A 
ATOM      4  C3A BZF d   1      -5.034  -2.749  -4.778  0.00  0.00    -0.107 A 
ATOM      5  C4  BZF d   1      -5.896  -2.033  -3.997  0.00  0.00     0.055 A 
ATOM      6  C5  BZF d   1      -5.579  -0.753  -3.666  0.00  0.00    -0.016 A 
ATOM      7  C6  BZF d   1      -4.410  -0.161  -4.095  0.00  0.00     0.022 A 
ATOM      8  C7  BZF d   1      -3.527  -0.830  -4.876  0.00  0.00     0.029 A 
ATOM      9  C7A BZF d   1      -3.859  -2.112  -5.239  0.00  0.00     0.058 A 
ENDROOT
TORSDOF 0
ENDMDL
