MODEL 1
REMARK minimizedAffinity 11.6703272
REMARK minimizedRMSD -1
REMARK  0 active torsions:
REMARK  status: ('A' for Active; 'I' for Inactive)
ROOT
ATOM      1  O1  BZF d   1       1.276  -1.879  -4.288  0.00  0.00    -0.204 OA
ATOM      2  C2  BZF d   1       1.714  -0.621  -3.920  0.00  0.00     0.174 A 
ATOM      3  C3  BZF d   1       0.841   0.325  -4.321  0.00  0.00    -0.012 A 
ATOM      4  C3A BZF d   1      -0.253  -0.392  -4.900  0.00  0.00    -0.107 A 
ATOM      5  C4  BZF d   1      -1.436  -0.007  -5.463  0.00  0.00     0.055 A 
ATOM      6  C5  BZF d   1      -2.251  -0.953  -6.000  0.00  0.00    -0.016 A 
ATOM      7  C6  BZF d   1      -1.913  -2.290  -5.996  0.00  0.00     0.022 A 
ATOM      8  C7  BZF d   1      -0.752  -2.721  -5.444  0.00  0.00     0.029 A 
ATOM      9  C7A BZF d   1       0.059  -1.772  -4.871  0.00  0.00     0.058 A 
ENDROOT
TORSDOF 0
ENDMDL
