MODEL 1
REMARK minimizedAffinity 17.1966534
REMARK minimizedRMSD -1
REMARK  0 active torsions:
REMARK  status: ('A' for Active; 'I' for Inactive)
ROOT
ATOM      1  O1  BZF d   1      -3.589   0.032   1.535  0.00  0.00    -0.204 OA
ATOM      2  C2  BZF d   1      -2.400   0.725   1.666  0.00  0.00     0.174 A 
ATOM      3  C3  BZF d   1      -1.346  -0.096   1.485  0.00  0.00    -0.012 A 
ATOM      4  C3A BZF d   1      -1.911  -1.363   1.134  0.00  0.00    -0.107 A 
ATOM      5  C4  BZF d   1      -1.371  -2.577   0.817  0.00  0.00     0.055 A 
ATOM      6  C5  BZF d   1      -2.199  -3.631   0.595  0.00  0.00    -0.016 A 
ATOM      7  C6  BZF d   1      -3.570  -3.508   0.685  0.00  0.00     0.022 A 
ATOM      8  C7  BZF d   1      -4.153  -2.323   0.991  0.00  0.00     0.029 A 
ATOM      9  C7A BZF d   1      -3.319  -1.248   1.184  0.00  0.00     0.058 A 
ENDROOT
TORSDOF 0
ENDMDL
