MODEL 1
REMARK minimizedAffinity 6.70025587
REMARK minimizedRMSD -1
REMARK  0 active torsions:
REMARK  status: ('A' for Active; 'I' for Inactive)
ROOT
ATOM      1  O1  BZF d   1      -4.178  -5.022  -5.964  0.00  0.00    -0.204 OA
ATOM      2  C2  BZF d   1      -5.216  -4.111  -5.922  0.00  0.00     0.174 A 
ATOM      3  C3  BZF d   1      -4.744  -2.850  -5.850  0.00  0.00    -0.012 A 
ATOM      4  C3A BZF d   1      -3.321  -2.975  -5.939  0.00  0.00    -0.107 A 
ATOM      5  C4  BZF d   1      -2.298  -2.071  -5.941  0.00  0.00     0.055 A 
ATOM      6  C5  BZF d   1      -1.017  -2.524  -5.968  0.00  0.00    -0.016 A 
ATOM      7  C6  BZF d   1      -0.724  -3.872  -5.990  0.00  0.00     0.022 A 
ATOM      8  C7  BZF d   1      -1.705  -4.806  -5.994  0.00  0.00     0.029 A 
ATOM      9  C7A BZF d   1      -3.001  -4.351  -6.000  0.00  0.00     0.058 A 
ENDROOT
TORSDOF 0
ENDMDL
