MODEL 1
REMARK minimizedAffinity 1.25282359
REMARK minimizedRMSD -1
REMARK  0 active torsions:
REMARK  status: ('A' for Active; 'I' for Inactive)
ROOT
ATOM      1  O1  BZF d   1      -3.082   0.035   5.235  0.00  0.00    -0.204 OA
ATOM      2  C2  BZF d   1      -3.997   0.735   5.998  0.00  0.00     0.174 A 
ATOM      3  C3  BZF d   1      -3.744   2.059   5.951  0.00  0.00    -0.012 A 
ATOM      4  C3A BZF d   1      -2.657   2.203   5.032  0.00  0.00    -0.107 A 
ATOM      5  C4  BZF d   1      -1.966   3.280   4.556  0.00  0.00     0.055 A 
ATOM      6  C5  BZF d   1      -0.910   3.073   3.725  0.00  0.00    -0.016 A 
ATOM      7  C6  BZF d   1      -0.516   1.805   3.355  0.00  0.00     0.022 A 
ATOM      8  C7  BZF d   1      -1.173   0.705   3.797  0.00  0.00     0.029 A 
ATOM      9  C7A BZF d   1      -2.261   0.912   4.610  0.00  0.00     0.058 A 
ENDROOT
TORSDOF 0
ENDMDL
