MODEL 1
REMARK minimizedAffinity 4.94533205
REMARK minimizedRMSD -1
REMARK  1 active torsions:
REMARK  status: ('A' for Active; 'I' for Inactive)
REMARK    1  A    between atoms: C1_2  and  C2_3 
ROOT
ATOM      1  C2  UNL d   1       0.374  -0.355   2.717  0.00  0.00    -0.081 A 
ATOM      2  C3  UNL d   1      -0.856  -0.836   2.250  0.00  0.00     0.006 A 
ATOM      3  C4  UNL d   1      -0.990  -1.275   0.931  0.00  0.00     0.002 A 
ATOM      4  C5  UNL d   1       0.104  -1.249   0.060  0.00  0.00    -0.080 A 
ATOM      5  C6  UNL d   1      -0.018  -1.747  -1.350  0.00  0.00     0.076 C 
ATOM      6  C7  UNL d   1       1.329  -0.753   0.521  0.00  0.00     0.002 A 
ATOM      7  C8  UNL d   1       1.463  -0.313   1.840  0.00  0.00     0.006 A 
ENDROOT
BRANCH   1   8
ATOM      8  C1  UNL d   1       0.538   0.059   4.157  0.00  0.00     0.054 C 
ATOM      9  C   UNL d   1      -0.797   0.444   4.778  0.00  0.00     0.018 C 
ENDBRANCH   1   8
TORSDOF 1
ENDMDL
