MODEL 1
REMARK minimizedAffinity -1.04475319
REMARK minimizedRMSD -1
REMARK  1 active torsions:
REMARK  status: ('A' for Active; 'I' for Inactive)
REMARK    1  A    between atoms: C1_2  and  C2_3 
ROOT
ATOM      1  C2  UNL d   1       2.084  -3.265  -0.042  0.00  0.00    -0.081 A 
ATOM      2  C3  UNL d   1       2.705  -2.023   0.139  0.00  0.00     0.006 A 
ATOM      3  C4  UNL d   1       1.973  -0.927   0.602  0.00  0.00     0.002 A 
ATOM      4  C5  UNL d   1       0.612  -1.056   0.898  0.00  0.00    -0.080 A 
ATOM      5  C6  UNL d   1      -0.178   0.105   1.424  0.00  0.00     0.076 C 
ATOM      6  C7  UNL d   1      -0.012  -2.292   0.700  0.00  0.00     0.002 A 
ATOM      7  C8  UNL d   1       0.719  -3.389   0.237  0.00  0.00     0.006 A 
ENDROOT
BRANCH   1   8
ATOM      8  C1  UNL d   1       2.885  -4.465  -0.479  0.00  0.00     0.054 C 
ATOM      9  C   UNL d   1       4.379  -4.181  -0.430  0.00  0.00     0.018 C 
ENDBRANCH   1   8
TORSDOF 1
ENDMDL
