MODEL 1
REMARK minimizedAffinity -1.66072011
REMARK minimizedRMSD -1
REMARK  1 active torsions:
REMARK  status: ('A' for Active; 'I' for Inactive)
REMARK    1  A    between atoms: C1_2  and  C2_3 
ROOT
ATOM      1  C2  UNL d   1       1.338  -2.384  -0.198  0.00  0.00    -0.081 A 
ATOM      2  C3  UNL d   1       1.921  -1.177   0.209  0.00  0.00     0.006 A 
ATOM      3  C4  UNL d   1       1.159  -0.210   0.868  0.00  0.00     0.002 A 
ATOM      4  C5  UNL d   1      -0.195  -0.436   1.138  0.00  0.00    -0.080 A 
ATOM      5  C6  UNL d   1      -1.017   0.582   1.872  0.00  0.00     0.076 C 
ATOM      6  C7  UNL d   1      -0.782  -1.634   0.716  0.00  0.00     0.002 A 
ATOM      7  C8  UNL d   1      -0.020  -2.601   0.056  0.00  0.00     0.006 A 
ENDROOT
BRANCH   1   8
ATOM      8  C1  UNL d   1       2.172  -3.456  -0.852  0.00  0.00     0.054 C 
ATOM      9  C   UNL d   1       3.657  -3.230  -0.603  0.00  0.00     0.018 C 
ENDBRANCH   1   8
TORSDOF 1
ENDMDL
