MODEL 1
REMARK minimizedAffinity 0.930104554
REMARK minimizedRMSD -1
REMARK  1 active torsions:
REMARK  status: ('A' for Active; 'I' for Inactive)
REMARK    1  A    between atoms: C1_2  and  C2_3 
ROOT
ATOM      1  C2  UNL d   1       0.126  -1.592   0.134  0.00  0.00    -0.081 A 
ATOM      2  C3  UNL d   1       1.514  -1.713  -0.008  0.00  0.00     0.006 A 
ATOM      3  C4  UNL d   1       2.376  -0.975   0.806  0.00  0.00     0.002 A 
ATOM      4  C5  UNL d   1       1.867  -0.110   1.780  0.00  0.00    -0.080 A 
ATOM      5  C6  UNL d   1       2.782   0.665   2.681  0.00  0.00     0.076 C 
ATOM      6  C7  UNL d   1       0.480   0.025   1.911  0.00  0.00     0.002 A 
ATOM      7  C8  UNL d   1      -0.383  -0.713   1.097  0.00  0.00     0.006 A 
ENDROOT
BRANCH   1   8
ATOM      8  C1  UNL d   1      -0.806  -2.434  -0.698  0.00  0.00     0.054 C 
ATOM      9  C   UNL d   1      -0.485  -3.916  -0.560  0.00  0.00     0.018 C 
ENDBRANCH   1   8
TORSDOF 1
ENDMDL
