MODEL 1
REMARK minimizedAffinity -0.684890866
REMARK minimizedRMSD -1
REMARK  1 active torsions:
REMARK  status: ('A' for Active; 'I' for Inactive)
REMARK    1  A    between atoms: C1_2  and  C2_3 
ROOT
ATOM      1  C2  UNL d   1      -0.753  -1.520   0.459  0.00  0.00    -0.081 A 
ATOM      2  C3  UNL d   1      -0.224  -2.669  -0.141  0.00  0.00     0.006 A 
ATOM      3  C4  UNL d   1       1.158  -2.855  -0.218  0.00  0.00     0.002 A 
ATOM      4  C5  UNL d   1       2.034  -1.900   0.310  0.00  0.00    -0.080 A 
ATOM      5  C6  UNL d   1       3.519  -2.102   0.260  0.00  0.00     0.076 C 
ATOM      6  C7  UNL d   1       1.505  -0.744   0.894  0.00  0.00     0.002 A 
ATOM      7  C8  UNL d   1       0.123  -0.557   0.971  0.00  0.00     0.006 A 
ENDROOT
BRANCH   1   8
ATOM      8  C1  UNL d   1      -2.244  -1.347   0.602  0.00  0.00     0.054 C 
ATOM      9  C   UNL d   1      -2.898  -2.610   1.144  0.00  0.00     0.018 C 
ENDBRANCH   1   8
TORSDOF 1
ENDMDL
