MODEL 1
REMARK minimizedAffinity 0.0153639223
REMARK minimizedRMSD -1
REMARK  1 active torsions:
REMARK  status: ('A' for Active; 'I' for Inactive)
REMARK    1  A    between atoms: C1_2  and  C2_3 
ROOT
ATOM      1  C2  UNL d   1       1.620  -2.987  -0.401  0.00  0.00    -0.081 A 
ATOM      2  C3  UNL d   1       2.099  -1.677  -0.276  0.00  0.00     0.006 A 
ATOM      3  C4  UNL d   1       1.387  -0.730   0.464  0.00  0.00     0.002 A 
ATOM      4  C5  UNL d   1       0.190  -1.078   1.097  0.00  0.00    -0.080 A 
ATOM      5  C6  UNL d   1      -0.569  -0.079   1.920  0.00  0.00     0.076 C 
ATOM      6  C7  UNL d   1      -0.299  -2.381   0.958  0.00  0.00     0.002 A 
ATOM      7  C8  UNL d   1       0.412  -3.329   0.218  0.00  0.00     0.006 A 
ENDROOT
BRANCH   1   8
ATOM      8  C1  UNL d   1       2.418  -4.027  -1.144  0.00  0.00     0.054 C 
ATOM      9  C   UNL d   1       3.749  -4.299  -0.458  0.00  0.00     0.018 C 
ENDBRANCH   1   8
TORSDOF 1
ENDMDL
