MODEL 1
REMARK minimizedAffinity 4.31404877
REMARK minimizedRMSD -1
REMARK  1 active torsions:
REMARK  status: ('A' for Active; 'I' for Inactive)
REMARK    1  A    between atoms: C1_2  and  C2_3 
ROOT
ATOM      1  C2  UNL d   1       0.291  -1.687   0.845  0.00  0.00    -0.081 A 
ATOM      2  C3  UNL d   1       0.058  -2.974   0.345  0.00  0.00     0.006 A 
ATOM      3  C4  UNL d   1       1.087  -3.692  -0.269  0.00  0.00     0.002 A 
ATOM      4  C5  UNL d   1       2.367  -3.140  -0.385  0.00  0.00    -0.080 A 
ATOM      5  C6  UNL d   1       3.488  -3.913  -1.014  0.00  0.00     0.076 C 
ATOM      6  C7  UNL d   1       2.595  -1.847   0.099  0.00  0.00     0.002 A 
ATOM      7  C8  UNL d   1       1.567  -1.128   0.712  0.00  0.00     0.006 A 
ENDROOT
BRANCH   1   8
ATOM      8  C1  UNL d   1      -0.800  -0.935   1.564  0.00  0.00     0.054 C 
ATOM      9  C   UNL d   1      -0.231  -0.060   2.672  0.00  0.00     0.018 C 
ENDBRANCH   1   8
TORSDOF 1
ENDMDL
