MODEL 1
REMARK minimizedAffinity 3.67370677
REMARK minimizedRMSD -1
REMARK  1 active torsions:
REMARK  status: ('A' for Active; 'I' for Inactive)
REMARK    1  A    between atoms: C1_2  and  C2_3 
ROOT
ATOM      1  C2  UNL d   1      -1.152   0.027   1.279  0.00  0.00    -0.081 A 
ATOM      2  C3  UNL d   1       0.070   0.254   1.923  0.00  0.00     0.006 A 
ATOM      3  C4  UNL d   1       1.224  -0.414   1.507  0.00  0.00     0.002 A 
ATOM      4  C5  UNL d   1       1.177  -1.314   0.437  0.00  0.00    -0.080 A 
ATOM      5  C6  UNL d   1       2.414  -2.015  -0.039  0.00  0.00     0.076 C 
ATOM      6  C7  UNL d   1      -0.048  -1.555  -0.195  0.00  0.00     0.002 A 
ATOM      7  C8  UNL d   1      -1.202  -0.887   0.221  0.00  0.00     0.006 A 
ENDROOT
BRANCH   1   8
ATOM      8  C1  UNL d   1      -2.385   0.794   1.683  0.00  0.00     0.054 C 
ATOM      9  C   UNL d   1      -3.343   0.958   0.512  0.00  0.00     0.018 C 
ENDBRANCH   1   8
TORSDOF 1
ENDMDL
