MODEL 1
REMARK minimizedAffinity 4.67420626
REMARK minimizedRMSD -1
REMARK  1 active torsions:
REMARK  status: ('A' for Active; 'I' for Inactive)
REMARK    1  A    between atoms: C1_2  and  C2_3 
ROOT
ATOM      1  C2  UNL d   1       1.402  -2.873  -0.185  0.00  0.00    -0.081 A 
ATOM      2  C3  UNL d   1       2.116  -1.768   0.294  0.00  0.00     0.006 A 
ATOM      3  C4  UNL d   1       1.442  -0.659   0.813  0.00  0.00     0.002 A 
ATOM      4  C5  UNL d   1       0.045  -0.640   0.868  0.00  0.00    -0.080 A 
ATOM      5  C6  UNL d   1      -0.690   0.530   1.450  0.00  0.00     0.076 C 
ATOM      6  C7  UNL d   1      -0.670  -1.737   0.372  0.00  0.00     0.002 A 
ATOM      7  C8  UNL d   1       0.004  -2.845  -0.147  0.00  0.00     0.006 A 
ENDROOT
BRANCH   1   8
ATOM      8  C1  UNL d   1       2.127  -4.096  -0.685  0.00  0.00     0.054 C 
ATOM      9  C   UNL d   1       3.607  -4.043  -0.336  0.00  0.00     0.018 C 
ENDBRANCH   1   8
TORSDOF 1
ENDMDL
