MODEL 1
REMARK minimizedAffinity 3.97141457
REMARK minimizedRMSD -1
REMARK  1 active torsions:
REMARK  status: ('A' for Active; 'I' for Inactive)
REMARK    1  A    between atoms: C1_2  and  C2_3 
ROOT
ATOM      1  C2  UNL d   1       2.744  -2.821  -0.324  0.00  0.00    -0.081 A 
ATOM      2  C3  UNL d   1       2.688  -1.470   0.039  0.00  0.00     0.006 A 
ATOM      3  C4  UNL d   1       1.482  -0.896   0.447  0.00  0.00     0.002 A 
ATOM      4  C5  UNL d   1       0.314  -1.664   0.507  0.00  0.00    -0.080 A 
ATOM      5  C6  UNL d   1      -0.980  -1.067   0.973  0.00  0.00     0.076 C 
ATOM      6  C7  UNL d   1       0.366  -3.010   0.128  0.00  0.00     0.002 A 
ATOM      7  C8  UNL d   1       1.572  -3.584  -0.281  0.00  0.00     0.006 A 
ENDROOT
BRANCH   1   8
ATOM      8  C1  UNL d   1       4.056  -3.460  -0.703  0.00  0.00     0.054 C 
ATOM      9  C   UNL d   1       4.115  -4.912  -0.253  0.00  0.00     0.018 C 
ENDBRANCH   1   8
TORSDOF 1
ENDMDL
