MODEL 1
REMARK minimizedAffinity 6.75640965
REMARK minimizedRMSD -1
REMARK  1 active torsions:
REMARK  status: ('A' for Active; 'I' for Inactive)
REMARK    1  A    between atoms: C1_2  and  C2_3 
ROOT
ATOM      1  C2  UNL d   1       1.505  -3.379  -0.348  0.00  0.00    -0.081 A 
ATOM      2  C3  UNL d   1       2.022  -2.085  -0.490  0.00  0.00     0.006 A 
ATOM      3  C4  UNL d   1       1.353  -0.990   0.063  0.00  0.00     0.002 A 
ATOM      4  C5  UNL d   1       0.161  -1.172   0.773  0.00  0.00    -0.080 A 
ATOM      5  C6  UNL d   1      -0.551  -0.009   1.398  0.00  0.00     0.076 C 
ATOM      6  C7  UNL d   1      -0.365  -2.462   0.900  0.00  0.00     0.002 A 
ATOM      7  C8  UNL d   1       0.303  -3.557   0.347  0.00  0.00     0.006 A 
ENDROOT
BRANCH   1   8
ATOM      8  C1  UNL d   1       2.257  -4.568  -0.888  0.00  0.00     0.054 C 
ATOM      9  C   UNL d   1       3.707  -4.562  -0.425  0.00  0.00     0.018 C 
ENDBRANCH   1   8
TORSDOF 1
ENDMDL
