MODEL 1
REMARK minimizedAffinity -0.230121598
REMARK minimizedRMSD -1
REMARK  0 active torsions:
REMARK  status: ('A' for Active; 'I' for Inactive)
ROOT
ATOM      1  C1  BNZ d   1       1.124   0.004   0.465  0.00  0.00     0.000 A 
ATOM      2  C2  BNZ d   1      -0.011  -0.730   0.245  0.00  0.00     0.000 A 
ATOM      3  C3  BNZ d   1      -1.106  -0.166  -0.349  0.00  0.00     0.000 A 
ATOM      4  C4  BNZ d   1      -1.078   1.140  -0.684  0.00  0.00     0.000 A 
ATOM      5  C5  BNZ d   1       0.055   1.896  -0.459  0.00  0.00     0.000 A 
ATOM      6  C6  BNZ d   1       1.168   1.315   0.103  0.00  0.00     0.000 A 
ENDROOT
TORSDOF 0
ENDMDL
