MODEL 1
REMARK minimizedAffinity -1.71213889
REMARK minimizedRMSD -1
REMARK  0 active torsions:
REMARK  status: ('A' for Active; 'I' for Inactive)
ROOT
ATOM      1  C1  BNZ d   1      -2.620   0.999  -3.215  0.00  0.00     0.000 A 
ATOM      2  C2  BNZ d   1      -2.548   1.041  -1.848  0.00  0.00     0.000 A 
ATOM      3  C3  BNZ d   1      -2.031  -0.009  -1.142  0.00  0.00     0.000 A 
ATOM      4  C4  BNZ d   1      -1.624  -1.114  -1.800  0.00  0.00     0.000 A 
ATOM      5  C5  BNZ d   1      -1.699  -1.175  -3.177  0.00  0.00     0.000 A 
ATOM      6  C6  BNZ d   1      -2.183  -0.101  -3.887  0.00  0.00     0.000 A 
ENDROOT
TORSDOF 0
ENDMDL
