MODEL 1
REMARK minimizedAffinity -1.90151942
REMARK minimizedRMSD -1
REMARK  0 active torsions:
REMARK  status: ('A' for Active; 'I' for Inactive)
ROOT
ATOM      1  C1  BNZ d   1      -2.918  -0.927  -2.559  0.00  0.00     0.000 A 
ATOM      2  C2  BNZ d   1      -3.404   0.004  -3.438  0.00  0.00     0.000 A 
ATOM      3  C3  BNZ d   1      -3.393   1.335  -3.125  0.00  0.00     0.000 A 
ATOM      4  C4  BNZ d   1      -2.933   1.728  -1.919  0.00  0.00     0.000 A 
ATOM      5  C5  BNZ d   1      -2.449   0.801  -1.019  0.00  0.00     0.000 A 
ATOM      6  C6  BNZ d   1      -2.426  -0.534  -1.353  0.00  0.00     0.000 A 
ENDROOT
TORSDOF 0
ENDMDL
