MODEL 1
REMARK minimizedAffinity -3.10819292
REMARK minimizedRMSD -1
REMARK  0 active torsions:
REMARK  status: ('A' for Active; 'I' for Inactive)
ROOT
ATOM      1  C1  BNZ d   1       1.147   0.057   0.929  0.00  0.00     0.000 A 
ATOM      2  C2  BNZ d   1       1.124   1.249   0.255  0.00  0.00     0.000 A 
ATOM      3  C3  BNZ d   1       0.002   1.654  -0.412  0.00  0.00     0.000 A 
ATOM      4  C4  BNZ d   1      -1.081   0.850  -0.438  0.00  0.00     0.000 A 
ATOM      5  C5  BNZ d   1      -1.070  -0.359   0.229  0.00  0.00     0.000 A 
ATOM      6  C6  BNZ d   1       0.048  -0.746   0.932  0.00  0.00     0.000 A 
ENDROOT
TORSDOF 0
ENDMDL
