MODEL 1
REMARK minimizedAffinity -2.41560078
REMARK minimizedRMSD -1
REMARK  0 active torsions:
REMARK  status: ('A' for Active; 'I' for Inactive)
ROOT
ATOM      1  C1  BNZ d   1       1.230  -0.520   0.967  0.00  0.00     0.000 A 
ATOM      2  C2  BNZ d   1       0.024  -1.134   0.759  0.00  0.00     0.000 A 
ATOM      3  C3  BNZ d   1      -1.048  -0.429   0.286  0.00  0.00     0.000 A 
ATOM      4  C4  BNZ d   1      -0.924   0.895   0.061  0.00  0.00     0.000 A 
ATOM      5  C5  BNZ d   1       0.283   1.530   0.275  0.00  0.00     0.000 A 
ATOM      6  C6  BNZ d   1       1.370   0.810   0.714  0.00  0.00     0.000 A 
ENDROOT
TORSDOF 0
ENDMDL
