MODEL 1
REMARK minimizedAffinity 22.231535
REMARK minimizedRMSD -1
REMARK  0 active torsions:
REMARK  status: ('A' for Active; 'I' for Inactive)
ROOT
ATOM      1  C   UNL d   1      -5.550   5.015  -1.535  0.00  0.00    -0.002 A 
ATOM      2  C1  UNL d   1      -6.000   4.121  -2.497  0.00  0.00     0.010 A 
ATOM      3  C2  UNL d   1      -5.834   2.746  -2.322  0.00  0.00     0.041 A 
ATOM      4  C3  UNL d   1      -5.204   2.279  -1.151  0.00  0.00    -0.075 A 
ATOM      5  S   UNL d   1      -4.893   0.639  -0.721  0.00  0.00     0.015 SA
ATOM      6  C4  UNL d   1      -4.157   1.085   0.750  0.00  0.00     0.022 A 
ATOM      7  C5  UNL d   1      -4.141   2.449   0.925  0.00  0.00     0.026 A 
ATOM      8  C6  UNL d   1      -4.744   3.160  -0.168  0.00  0.00    -0.082 A 
ATOM      9  C7  UNL d   1      -4.926   4.548  -0.375  0.00  0.00     0.045 A 
ENDROOT
TORSDOF 0
ENDMDL
