MODEL 1
REMARK minimizedAffinity 16.4756622
REMARK minimizedRMSD -1
REMARK  0 active torsions:
REMARK  status: ('A' for Active; 'I' for Inactive)
ROOT
ATOM      1  C   UNL d   1      -3.803   2.572   0.354  0.00  0.00    -0.002 A 
ATOM      2  C1  UNL d   1      -5.112   2.168   0.573  0.00  0.00     0.010 A 
ATOM      3  C2  UNL d   1      -5.863   2.725   1.610  0.00  0.00     0.041 A 
ATOM      4  C3  UNL d   1      -5.271   3.706   2.430  0.00  0.00    -0.075 A 
ATOM      5  S   UNL d   1      -6.000   4.528   3.759  0.00  0.00     0.015 SA
ATOM      6  C4  UNL d   1      -4.590   5.435   4.067  0.00  0.00     0.022 A 
ATOM      7  C5  UNL d   1      -3.579   5.130   3.187  0.00  0.00     0.026 A 
ATOM      8  C6  UNL d   1      -3.955   4.129   2.229  0.00  0.00    -0.082 A 
ATOM      9  C7  UNL d   1      -3.219   3.545   1.170  0.00  0.00     0.045 A 
ENDROOT
TORSDOF 0
ENDMDL
