MODEL 1
REMARK minimizedAffinity 10.7037783
REMARK minimizedRMSD -1
REMARK  0 active torsions:
REMARK  status: ('A' for Active; 'I' for Inactive)
ROOT
ATOM      1  C   UNL d   1       4.730   2.065  -0.684  0.00  0.00    -0.002 A 
ATOM      2  C1  UNL d   1       4.009   1.743  -1.825  0.00  0.00     0.010 A 
ATOM      3  C2  UNL d   1       3.235   0.582  -1.871  0.00  0.00     0.041 A 
ATOM      4  C3  UNL d   1       3.194  -0.256  -0.739  0.00  0.00    -0.075 A 
ATOM      5  S   UNL d   1       2.313  -1.728  -0.567  0.00  0.00     0.015 SA
ATOM      6  C4  UNL d   1       2.872  -1.962   1.026  0.00  0.00     0.022 A 
ATOM      7  C5  UNL d   1       3.711  -0.952   1.432  0.00  0.00     0.026 A 
ATOM      8  C6  UNL d   1       3.910   0.048   0.422  0.00  0.00    -0.082 A 
ATOM      9  C7  UNL d   1       4.687   1.232   0.437  0.00  0.00     0.045 A 
ENDROOT
TORSDOF 0
ENDMDL
