MODEL 1
REMARK minimizedAffinity 17.4298134
REMARK minimizedRMSD -1
REMARK  0 active torsions:
REMARK  status: ('A' for Active; 'I' for Inactive)
ROOT
ATOM      1  C   UNL d   1      -5.200   5.655   5.981  0.00  0.00    -0.002 A 
ATOM      2  C1  UNL d   1      -3.837   5.802   5.765  0.00  0.00     0.010 A 
ATOM      3  C2  UNL d   1      -3.234   5.254   4.631  0.00  0.00     0.041 A 
ATOM      4  C3  UNL d   1      -4.032   4.550   3.708  0.00  0.00    -0.075 A 
ATOM      5  S   UNL d   1      -3.512   3.794   2.249  0.00  0.00     0.015 SA
ATOM      6  C4  UNL d   1      -5.086   3.259   1.877  0.00  0.00     0.022 A 
ATOM      7  C5  UNL d   1      -5.999   3.638   2.832  0.00  0.00     0.026 A 
ATOM      8  C6  UNL d   1      -5.407   4.389   3.903  0.00  0.00    -0.082 A 
ATOM      9  C7  UNL d   1      -5.988   4.956   5.063  0.00  0.00     0.045 A 
ENDROOT
TORSDOF 0
ENDMDL
