MODEL 1
REMARK minimizedAffinity 17.4431171
REMARK minimizedRMSD -1
REMARK  0 active torsions:
REMARK  status: ('A' for Active; 'I' for Inactive)
ROOT
ATOM      1  C   UNL d   1      -4.874   4.765  -1.491  0.00  0.00    -0.002 A 
ATOM      2  C1  UNL d   1      -5.621   4.510  -2.632  0.00  0.00     0.010 A 
ATOM      3  C2  UNL d   1      -5.988   3.204  -2.963  0.00  0.00     0.041 A 
ATOM      4  C3  UNL d   1      -5.588   2.149  -2.119  0.00  0.00    -0.075 A 
ATOM      5  S   UNL d   1      -5.922   0.470  -2.323  0.00  0.00     0.015 SA
ATOM      6  C4  UNL d   1      -5.081   0.053  -0.901  0.00  0.00     0.022 A 
ATOM      7  C5  UNL d   1      -4.552   1.155  -0.273  0.00  0.00     0.026 A 
ATOM      8  C6  UNL d   1      -4.836   2.381  -0.964  0.00  0.00    -0.082 A 
ATOM      9  C7  UNL d   1      -4.479   3.717  -0.656  0.00  0.00     0.045 A 
ENDROOT
TORSDOF 0
ENDMDL
