MODEL 1
REMARK minimizedAffinity -2.00855303
REMARK minimizedRMSD -1
REMARK  0 active torsions:
REMARK  status: ('A' for Active; 'I' for Inactive)
ROOT
ATOM      1  C   UNL d   1      -4.052   2.192  -1.728  0.00  0.00     0.023 A 
ATOM      2  C1  UNL d   1      -3.218   2.563  -2.783  0.00  0.00     0.003 A 
ATOM      3  C2  UNL d   1      -3.768   2.962  -4.002  0.00  0.00     0.048 A 
ATOM      4  C3  UNL d   1      -5.154   2.989  -4.160  0.00  0.00     0.023 A 
ATOM      5  C4  UNL d   1      -5.992   2.619  -3.107  0.00  0.00     0.048 A 
ATOM      6  C5  UNL d   1      -5.437   2.220  -1.889  0.00  0.00     0.003 A 
ATOM      7  I   UNL d   1      -5.975   3.583  -5.974  0.00  0.00    -0.146 I 
ENDROOT
TORSDOF 0
ENDMDL
