MODEL 1
REMARK minimizedAffinity -1.57342243
REMARK minimizedRMSD -1
REMARK  0 active torsions:
REMARK  status: ('A' for Active; 'I' for Inactive)
ROOT
ATOM      1  C   UNL d   1      -3.105   2.103  -4.135  0.00  0.00     0.023 A 
ATOM      2  C1  UNL d   1      -3.033   2.075  -2.742  0.00  0.00     0.003 A 
ATOM      3  C2  UNL d   1      -2.427   0.996  -2.095  0.00  0.00     0.048 A 
ATOM      4  C3  UNL d   1      -1.895  -0.051  -2.846  0.00  0.00     0.023 A 
ATOM      5  C4  UNL d   1      -1.964  -0.027  -4.240  0.00  0.00     0.048 A 
ATOM      6  C5  UNL d   1      -2.571   1.053  -4.883  0.00  0.00     0.003 A 
ATOM      7  I   UNL d   1      -0.993  -1.658  -1.884  0.00  0.00    -0.146 I 
ENDROOT
TORSDOF 0
ENDMDL
