MODEL 1
REMARK minimizedAffinity 1.25283873
REMARK minimizedRMSD -1
REMARK  0 active torsions:
REMARK  status: ('A' for Active; 'I' for Inactive)
ROOT
ATOM      1  C   UNL d   1      -0.814  -1.132  -2.683  0.00  0.00     0.023 A 
ATOM      2  C1  UNL d   1      -0.285  -0.084  -3.436  0.00  0.00     0.003 A 
ATOM      3  C2  UNL d   1      -0.027   1.149  -2.834  0.00  0.00     0.048 A 
ATOM      4  C3  UNL d   1      -0.299   1.327  -1.478  0.00  0.00     0.023 A 
ATOM      5  C4  UNL d   1      -0.827   0.280  -0.720  0.00  0.00     0.048 A 
ATOM      6  C5  UNL d   1      -1.084  -0.951  -1.327  0.00  0.00     0.003 A 
ATOM      7  I   UNL d   1       0.085   3.161  -0.579  0.00  0.00    -0.146 I 
ENDROOT
TORSDOF 0
ENDMDL
