MODEL 1
REMARK minimizedAffinity 2.84756851
REMARK minimizedRMSD -1
REMARK  0 active torsions:
REMARK  status: ('A' for Active; 'I' for Inactive)
ROOT
ATOM      1  C   UNL d   1       0.117  -5.166  -1.501  0.00  0.00     0.023 A 
ATOM      2  C1  UNL d   1      -0.663  -4.340  -2.310  0.00  0.00     0.003 A 
ATOM      3  C2  UNL d   1      -0.393  -2.972  -2.379  0.00  0.00     0.048 A 
ATOM      4  C3  UNL d   1       0.659  -2.436  -1.637  0.00  0.00     0.023 A 
ATOM      5  C4  UNL d   1       1.443  -3.260  -0.827  0.00  0.00     0.048 A 
ATOM      6  C5  UNL d   1       1.169  -4.627  -0.761  0.00  0.00     0.003 A 
ATOM      7  I   UNL d   1       1.063  -0.400  -1.738  0.00  0.00    -0.146 I 
ENDROOT
TORSDOF 0
ENDMDL
