MODEL 1
REMARK minimizedAffinity 17.0081882
REMARK minimizedRMSD -1
REMARK  0 active torsions:
REMARK  status: ('A' for Active; 'I' for Inactive)
ROOT
ATOM      1  C1  DEN d   1       1.944   2.385   2.948  0.00  0.00     0.130 A 
ATOM      2  C2  DEN d   1       1.300   1.619   4.012  0.00  0.00    -0.031 A 
ATOM      3  C3  DEN d   1       1.666   0.199   3.838  0.00  0.00     0.027 A 
ATOM      4  C4  DEN d   1       3.164  -0.882   2.038  0.00  0.00     0.027 A 
ATOM      5  C5  DEN d   1       3.925  -0.637   0.916  0.00  0.00    -0.003 A 
ATOM      6  C6  DEN d   1       4.050   0.616   0.378  0.00  0.00     0.001 A 
ATOM      7  C7  DEN d   1       3.441   1.680   0.987  0.00  0.00     0.017 A 
ATOM      8  C8  DEN d   1       2.666   1.441   2.114  0.00  0.00    -0.094 A 
ATOM      9  C9  DEN d   1       2.562   0.169   2.651  0.00  0.00    -0.072 A 
ENDROOT
TORSDOF 0
ENDMDL
