MODEL 1
REMARK minimizedAffinity 4.87287903
REMARK minimizedRMSD -1
REMARK  0 active torsions:
REMARK  status: ('A' for Active; 'I' for Inactive)
ROOT
ATOM      1  C1  DEN d   1       4.006  -0.319   1.628  0.00  0.00     0.130 A 
ATOM      2  C2  DEN d   1       3.913  -0.431   0.175  0.00  0.00    -0.031 A 
ATOM      3  C3  DEN d   1       2.808   0.436  -0.280  0.00  0.00     0.027 A 
ATOM      4  C4  DEN d   1       1.244   1.939   1.116  0.00  0.00     0.027 A 
ATOM      5  C5  DEN d   1       0.931   2.354   2.391  0.00  0.00    -0.003 A 
ATOM      6  C6  DEN d   1       1.593   1.886   3.495  0.00  0.00     0.001 A 
ATOM      7  C7  DEN d   1       2.633   1.008   3.342  0.00  0.00     0.017 A 
ATOM      8  C8  DEN d   1       2.950   0.578   2.060  0.00  0.00    -0.094 A 
ATOM      9  C9  DEN d   1       2.277   1.073   0.955  0.00  0.00    -0.072 A 
ENDROOT
TORSDOF 0
ENDMDL
