MODEL 1
REMARK minimizedAffinity 3.39376426
REMARK minimizedRMSD -1
REMARK  0 active torsions:
REMARK  status: ('A' for Active; 'I' for Inactive)
ROOT
ATOM      1  C1  DEN d   1       2.595  -0.896   3.336  0.00  0.00     0.130 A 
ATOM      2  C2  DEN d   1       1.622  -1.080   2.262  0.00  0.00    -0.031 A 
ATOM      3  C3  DEN d   1       1.361  -2.527   2.126  0.00  0.00     0.027 A 
ATOM      4  C4  DEN d   1       2.358  -4.490   3.470  0.00  0.00     0.027 A 
ATOM      5  C5  DEN d   1       3.235  -4.830   4.477  0.00  0.00    -0.003 A 
ATOM      6  C6  DEN d   1       3.979  -3.894   5.145  0.00  0.00     0.001 A 
ATOM      7  C7  DEN d   1       3.827  -2.566   4.845  0.00  0.00     0.017 A 
ATOM      8  C8  DEN d   1       2.950  -2.216   3.826  0.00  0.00    -0.094 A 
ATOM      9  C9  DEN d   1       2.198  -3.176   3.171  0.00  0.00    -0.072 A 
ENDROOT
TORSDOF 0
ENDMDL
