MODEL 1
REMARK minimizedAffinity 0.171015069
REMARK minimizedRMSD -1
REMARK  0 active torsions:
REMARK  status: ('A' for Active; 'I' for Inactive)
ROOT
ATOM      1  C1  DEN d   1       1.759  -5.993  -3.996  0.00  0.00     0.130 A 
ATOM      2  C2  DEN d   1       3.194  -5.933  -4.258  0.00  0.00    -0.031 A 
ATOM      3  C3  DEN d   1       3.894  -5.893  -2.958  0.00  0.00     0.027 A 
ATOM      4  C4  DEN d   1       2.899  -5.924  -0.578  0.00  0.00     0.027 A 
ATOM      5  C5  DEN d   1       1.730  -5.959   0.150  0.00  0.00    -0.003 A 
ATOM      6  C6  DEN d   1       0.498  -5.973  -0.448  0.00  0.00     0.001 A 
ATOM      7  C7  DEN d   1       0.407  -5.998  -1.815  0.00  0.00     0.017 A 
ATOM      8  C8  DEN d   1       1.581  -5.956  -2.556  0.00  0.00    -0.094 A 
ATOM      9  C9  DEN d   1       2.818  -5.954  -1.932  0.00  0.00    -0.072 A 
ENDROOT
TORSDOF 0
ENDMDL
