MODEL 1
REMARK minimizedAffinity 10.9835787
REMARK minimizedRMSD -1
REMARK  0 active torsions:
REMARK  status: ('A' for Active; 'I' for Inactive)
ROOT
ATOM      1  C1  DEN d   1      -0.740  -0.463   1.736  0.00  0.00     0.130 A 
ATOM      2  C2  DEN d   1      -0.785  -0.110   0.320  0.00  0.00    -0.031 A 
ATOM      3  C3  DEN d   1       0.557  -0.340  -0.251  0.00  0.00     0.027 A 
ATOM      4  C4  DEN d   1       2.688  -1.210   0.913  0.00  0.00     0.027 A 
ATOM      5  C5  DEN d   1       3.220  -1.632   2.112  0.00  0.00    -0.003 A 
ATOM      6  C6  DEN d   1       2.484  -1.663   3.266  0.00  0.00     0.001 A 
ATOM      7  C7  DEN d   1       1.162  -1.306   3.239  0.00  0.00     0.017 A 
ATOM      8  C8  DEN d   1       0.621  -0.871   2.036  0.00  0.00    -0.094 A 
ATOM      9  C9  DEN d   1       1.378  -0.859   0.876  0.00  0.00    -0.072 A 
ENDROOT
TORSDOF 0
ENDMDL
