MODEL 1
REMARK minimizedAffinity 5.97137213
REMARK minimizedRMSD -1
REMARK  0 active torsions:
REMARK  status: ('A' for Active; 'I' for Inactive)
ROOT
ATOM      1  C1  DEN d   1       1.771  -0.048   2.984  0.00  0.00     0.130 A 
ATOM      2  C2  DEN d   1       2.410  -0.123   1.673  0.00  0.00    -0.031 A 
ATOM      3  C3  DEN d   1       2.877  -1.509   1.472  0.00  0.00     0.027 A 
ATOM      4  C4  DEN d   1       2.670  -3.537   3.052  0.00  0.00     0.027 A 
ATOM      5  C5  DEN d   1       2.216  -3.960   4.282  0.00  0.00    -0.003 A 
ATOM      6  C6  DEN d   1       1.617  -3.108   5.172  0.00  0.00     0.001 A 
ATOM      7  C7  DEN d   1       1.415  -1.798   4.826  0.00  0.00     0.017 A 
ATOM      8  C8  DEN d   1       1.877  -1.363   3.591  0.00  0.00    -0.094 A 
ATOM      9  C9  DEN d   1       2.469  -2.242   2.701  0.00  0.00    -0.072 A 
ENDROOT
TORSDOF 0
ENDMDL
