MODEL 1
REMARK minimizedAffinity -4.47544956
REMARK minimizedRMSD -1
REMARK  0 active torsions:
REMARK  status: ('A' for Active; 'I' for Inactive)
ROOT
ATOM      1  C1  DEN d   1       3.296  -5.957  -0.826  0.00  0.00     0.130 A 
ATOM      2  C2  DEN d   1       1.862  -5.993  -0.552  0.00  0.00    -0.031 A 
ATOM      3  C3  DEN d   1       1.149  -5.987  -1.845  0.00  0.00     0.027 A 
ATOM      4  C4  DEN d   1       2.121  -5.932  -4.233  0.00  0.00     0.027 A 
ATOM      5  C5  DEN d   1       3.283  -5.885  -4.971  0.00  0.00    -0.003 A 
ATOM      6  C6  DEN d   1       4.519  -5.824  -4.384  0.00  0.00     0.001 A 
ATOM      7  C7  DEN d   1       4.624  -5.855  -3.019  0.00  0.00     0.017 A 
ATOM      8  C8  DEN d   1       3.457  -5.896  -2.268  0.00  0.00    -0.094 A 
ATOM      9  C9  DEN d   1       2.218  -5.969  -2.880  0.00  0.00    -0.072 A 
ENDROOT
TORSDOF 0
ENDMDL
