MODEL 1
REMARK minimizedAffinity 6.1099081
REMARK minimizedRMSD -1
REMARK  0 active torsions:
REMARK  status: ('A' for Active; 'I' for Inactive)
ROOT
ATOM      1  C1  DEN d   1      -5.304   2.645  -2.131  0.00  0.00     0.130 A 
ATOM      2  C2  DEN d   1      -4.148   2.344  -2.971  0.00  0.00    -0.031 A 
ATOM      3  C3  DEN d   1      -2.967   2.216  -2.093  0.00  0.00     0.027 A 
ATOM      4  C4  DEN d   1      -2.819   2.448   0.471  0.00  0.00     0.027 A 
ATOM      5  C5  DEN d   1      -3.536   2.710   1.618  0.00  0.00    -0.003 A 
ATOM      6  C6  DEN d   1      -4.874   3.000   1.592  0.00  0.00     0.001 A 
ATOM      7  C7  DEN d   1      -5.548   2.990   0.400  0.00  0.00     0.017 A 
ATOM      8  C8  DEN d   1      -4.831   2.734  -0.761  0.00  0.00    -0.094 A 
ATOM      9  C9  DEN d   1      -3.481   2.431  -0.713  0.00  0.00    -0.072 A 
ENDROOT
TORSDOF 0
ENDMDL
