MODEL 1
REMARK minimizedAffinity 11.5363216
REMARK minimizedRMSD -1
REMARK  0 active torsions:
REMARK  status: ('A' for Active; 'I' for Inactive)
ROOT
ATOM      1  C1  DEN d   1       2.744  -5.653  -2.243  0.00  0.00     0.130 A 
ATOM      2  C2  DEN d   1       3.910  -5.880  -1.393  0.00  0.00    -0.031 A 
ATOM      3  C3  DEN d   1       5.095  -6.000  -2.266  0.00  0.00     0.027 A 
ATOM      4  C4  DEN d   1       5.238  -5.851  -4.837  0.00  0.00     0.027 A 
ATOM      5  C5  DEN d   1       4.510  -5.680  -5.994  0.00  0.00    -0.003 A 
ATOM      6  C6  DEN d   1       3.149  -5.523  -5.984  0.00  0.00     0.001 A 
ATOM      7  C7  DEN d   1       2.478  -5.489  -4.790  0.00  0.00     0.017 A 
ATOM      8  C8  DEN d   1       3.205  -5.669  -3.620  0.00  0.00    -0.094 A 
ATOM      9  C9  DEN d   1       4.581  -5.813  -3.650  0.00  0.00    -0.072 A 
ENDROOT
TORSDOF 0
ENDMDL
