MODEL 1
REMARK minimizedAffinity 5.59082127
REMARK minimizedRMSD -1
REMARK  0 active torsions:
REMARK  status: ('A' for Active; 'I' for Inactive)
ROOT
ATOM      1  C1  DEN d   1       1.219  -5.949  -3.361  0.00  0.00     0.130 A 
ATOM      2  C2  DEN d   1       1.587  -5.975  -1.948  0.00  0.00    -0.031 A 
ATOM      3  C3  DEN d   1       3.061  -5.998  -1.860  0.00  0.00     0.027 A 
ATOM      4  C4  DEN d   1       4.800  -5.991  -3.765  0.00  0.00     0.027 A 
ATOM      5  C5  DEN d   1       4.967  -5.984  -5.132  0.00  0.00    -0.003 A 
ATOM      6  C6  DEN d   1       3.906  -6.000  -5.998  0.00  0.00     0.001 A 
ATOM      7  C7  DEN d   1       2.628  -5.977  -5.505  0.00  0.00     0.017 A 
ATOM      8  C8  DEN d   1       2.451  -5.991  -4.128  0.00  0.00    -0.094 A 
ATOM      9  C9  DEN d   1       3.537  -5.963  -3.269  0.00  0.00    -0.072 A 
ENDROOT
TORSDOF 0
ENDMDL
