MODEL 1
REMARK minimizedAffinity -3.50926733
REMARK minimizedRMSD -1
REMARK  0 active torsions:
REMARK  status: ('A' for Active; 'I' for Inactive)
ROOT
ATOM      1  C   UNL d   1      -0.696  -0.122  -1.203  0.00  0.00     0.020 A 
ATOM      2  C1  UNL d   1      -1.446  -0.016  -0.032  0.00  0.00     0.020 A 
ATOM      3  C2  UNL d   1      -0.825  -0.169   1.210  0.00  0.00     0.034 A 
ATOM      4  C3  UNL d   1       0.548  -0.430   1.283  0.00  0.00     0.017 A 
ATOM      5  C4  UNL d   1       1.299  -0.536   0.107  0.00  0.00     0.017 A 
ATOM      6  C5  UNL d   1       0.673  -0.381  -1.134  0.00  0.00     0.034 A 
ATOM      7 Cl   UNL d   1       2.998  -0.855   0.118  0.00  0.00    -0.070 Cl
ATOM      8 Cl1  UNL d   1       1.249  -0.608   2.852  0.00  0.00    -0.070 Cl
ENDROOT
TORSDOF 0
ENDMDL
