MODEL 1
REMARK minimizedAffinity -5.07302856
REMARK minimizedRMSD -1
REMARK  0 active torsions:
REMARK  status: ('A' for Active; 'I' for Inactive)
ROOT
ATOM      1  C   UNL d   1       0.013  -0.408  -1.209  0.00  0.00     0.020 A 
ATOM      2  C1  UNL d   1       1.303  -0.812  -0.868  0.00  0.00     0.020 A 
ATOM      3  C2  UNL d   1       1.683  -0.875   0.475  0.00  0.00     0.034 A 
ATOM      4  C3  UNL d   1       0.772  -0.534   1.481  0.00  0.00     0.017 A 
ATOM      5  C4  UNL d   1      -0.523  -0.128   1.137  0.00  0.00     0.017 A 
ATOM      6  C5  UNL d   1      -0.898  -0.066  -0.208  0.00  0.00     0.034 A 
ATOM      7 Cl   UNL d   1      -1.702   0.309   2.323  0.00  0.00    -0.070 Cl
ATOM      8 Cl1  UNL d   1       1.310  -0.635   3.120  0.00  0.00    -0.070 Cl
ENDROOT
TORSDOF 0
ENDMDL
