MODEL 1
REMARK minimizedAffinity -2.58012605
REMARK minimizedRMSD -1
REMARK  0 active torsions:
REMARK  status: ('A' for Active; 'I' for Inactive)
ROOT
ATOM      1  C   UNL d   1      -1.444  -0.005   0.210  0.00  0.00     0.020 A 
ATOM      2  C1  UNL d   1      -0.721  -0.152  -0.973  0.00  0.00     0.020 A 
ATOM      3  C2  UNL d   1       0.621  -0.534  -0.927  0.00  0.00     0.034 A 
ATOM      4  C3  UNL d   1       1.245  -0.770   0.304  0.00  0.00     0.017 A 
ATOM      5  C4  UNL d   1       0.518  -0.621   1.490  0.00  0.00     0.017 A 
ATOM      6  C5  UNL d   1      -0.826  -0.239   1.439  0.00  0.00     0.034 A 
ATOM      7 Cl   UNL d   1       1.218  -0.894   3.047  0.00  0.00    -0.070 Cl
ATOM      8 Cl1  UNL d   1       2.907  -1.240   0.285  0.00  0.00    -0.070 Cl
ENDROOT
TORSDOF 0
ENDMDL
