MODEL 1
REMARK minimizedAffinity -2.02993107
REMARK minimizedRMSD -1
REMARK  0 active torsions:
REMARK  status: ('A' for Active; 'I' for Inactive)
ROOT
ATOM      1  C   UNL d   1      -1.582  -0.066   0.767  0.00  0.00     0.020 A 
ATOM      2  C1  UNL d   1      -1.059  -0.212  -0.518  0.00  0.00     0.020 A 
ATOM      3  C2  UNL d   1       0.315  -0.389  -0.696  0.00  0.00     0.034 A 
ATOM      4  C3  UNL d   1       1.171  -0.419   0.411  0.00  0.00     0.017 A 
ATOM      5  C4  UNL d   1       0.645  -0.272   1.700  0.00  0.00     0.017 A 
ATOM      6  C5  UNL d   1      -0.732  -0.096   1.873  0.00  0.00     0.034 A 
ATOM      7 Cl   UNL d   1       1.637  -0.299   3.114  0.00  0.00    -0.070 Cl
ATOM      8 Cl1  UNL d   1       2.858  -0.642   0.116  0.00  0.00    -0.070 Cl
ENDROOT
TORSDOF 0
ENDMDL
