MODEL 1
REMARK minimizedAffinity -3.75741029
REMARK minimizedRMSD -1
REMARK  0 active torsions:
REMARK  status: ('A' for Active; 'I' for Inactive)
ROOT
ATOM      1  C   UNL d   1       1.330  -0.373   2.787  0.00  0.00     0.020 A 
ATOM      2  C1  UNL d   1       2.125  -0.009   1.700  0.00  0.00     0.020 A 
ATOM      3  C2  UNL d   1       1.538   0.238   0.457  0.00  0.00     0.034 A 
ATOM      4  C3  UNL d   1       0.153   0.123   0.298  0.00  0.00     0.017 A 
ATOM      5  C4  UNL d   1      -0.645  -0.242   1.389  0.00  0.00     0.017 A 
ATOM      6  C5  UNL d   1      -0.052  -0.489   2.631  0.00  0.00     0.034 A 
ATOM      7 Cl   UNL d   1      -2.361  -0.405   1.270  0.00  0.00    -0.070 Cl
ATOM      8 Cl1  UNL d   1      -0.506   0.444  -1.267  0.00  0.00    -0.070 Cl
ENDROOT
TORSDOF 0
ENDMDL
