MODEL 1
REMARK minimizedAffinity -2.93449974
REMARK minimizedRMSD -1
REMARK  0 active torsions:
REMARK  status: ('A' for Active; 'I' for Inactive)
ROOT
ATOM      1  C   UNL d   1       1.056  -0.903   2.716  0.00  0.00     0.020 A 
ATOM      2  C1  UNL d   1       1.889  -0.053   1.990  0.00  0.00     0.020 A 
ATOM      3  C2  UNL d   1       1.415   0.569   0.834  0.00  0.00     0.034 A 
ATOM      4  C3  UNL d   1       0.104   0.343   0.399  0.00  0.00     0.017 A 
ATOM      5  C4  UNL d   1      -0.732  -0.510   1.129  0.00  0.00     0.017 A 
ATOM      6  C5  UNL d   1      -0.252  -1.131   2.286  0.00  0.00     0.034 A 
ATOM      7 Cl   UNL d   1      -2.362  -0.839   0.656  0.00  0.00    -0.070 Cl
ATOM      8 Cl1  UNL d   1      -0.416   1.146  -1.040  0.00  0.00    -0.070 Cl
ENDROOT
TORSDOF 0
ENDMDL
