MODEL 1
REMARK minimizedAffinity -2.67913294
REMARK minimizedRMSD -1
REMARK  0 active torsions:
REMARK  status: ('A' for Active; 'I' for Inactive)
ROOT
ATOM      1  C   UNL d   1       2.149  -0.580   1.501  0.00  0.00     0.020 A 
ATOM      2  C1  UNL d   1       1.307  -0.623   2.612  0.00  0.00     0.020 A 
ATOM      3  C2  UNL d   1      -0.055  -0.351   2.466  0.00  0.00     0.034 A 
ATOM      4  C3  UNL d   1      -0.578  -0.034   1.207  0.00  0.00     0.017 A 
ATOM      5  C4  UNL d   1       0.268   0.010   0.093  0.00  0.00     0.017 A 
ATOM      6  C5  UNL d   1       1.631  -0.264   0.245  0.00  0.00     0.034 A 
ATOM      7 Cl   UNL d   1      -0.305   0.393  -1.492  0.00  0.00    -0.070 Cl
ATOM      8 Cl1  UNL d   1      -2.272   0.292   1.100  0.00  0.00    -0.070 Cl
ENDROOT
TORSDOF 0
ENDMDL
