MODEL 1
REMARK minimizedAffinity 3.43616056
REMARK minimizedRMSD -1
REMARK  0 active torsions:
REMARK  status: ('A' for Active; 'I' for Inactive)
ROOT
ATOM      1  C   UNL d   1       0.163   0.788  -3.557  0.00  0.00     0.078 C 
ATOM      2  C1  UNL d   1       0.504   0.056  -2.293  0.00  0.00    -0.077 A 
ATOM      3  C2  UNL d   1      -0.438  -0.761  -1.656  0.00  0.00    -0.001 A 
ATOM      4  C3  UNL d   1      -0.110  -1.428  -0.475  0.00  0.00     0.003 A 
ATOM      5  C4  UNL d   1       1.160  -1.284   0.081  0.00  0.00    -0.005 A 
ATOM      6  C5  UNL d   1       2.103  -0.470  -0.544  0.00  0.00     0.003 A 
ATOM      7  C6  UNL d   1       1.777   0.197  -1.726  0.00  0.00    -0.001 A 
ENDROOT
TORSDOF 0
ENDMDL
