MODEL 1
REMARK minimizedAffinity -4.13834572
REMARK minimizedRMSD -1
REMARK  0 active torsions:
REMARK  status: ('A' for Active; 'I' for Inactive)
ROOT
ATOM      1  C   UNL d   1      -6.000  -0.765   2.192  0.00  0.00     0.078 C 
ATOM      2  C1  UNL d   1      -4.805  -0.297   2.969  0.00  0.00    -0.077 A 
ATOM      3  C2  UNL d   1      -4.677   1.042   3.359  0.00  0.00    -0.001 A 
ATOM      4  C3  UNL d   1      -3.555   1.465   4.073  0.00  0.00     0.003 A 
ATOM      5  C4  UNL d   1      -2.551   0.556   4.402  0.00  0.00    -0.005 A 
ATOM      6  C5  UNL d   1      -2.669  -0.777   4.016  0.00  0.00     0.003 A 
ATOM      7  C6  UNL d   1      -3.790  -1.203   3.302  0.00  0.00    -0.001 A 
ENDROOT
TORSDOF 0
ENDMDL
