MODEL 1
REMARK minimizedAffinity -3.58973789
REMARK minimizedRMSD -1
REMARK  0 active torsions:
REMARK  status: ('A' for Active; 'I' for Inactive)
ROOT
ATOM      1  C   UNL d   1       1.215  -4.406   1.251  0.00  0.00     0.078 C 
ATOM      2  C1  UNL d   1       0.925  -3.150   0.484  0.00  0.00    -0.077 A 
ATOM      3  C2  UNL d   1      -0.392  -2.724   0.270  0.00  0.00    -0.001 A 
ATOM      4  C3  UNL d   1      -0.648  -1.559  -0.454  0.00  0.00     0.003 A 
ATOM      5  C4  UNL d   1       0.408  -0.810  -0.970  0.00  0.00    -0.005 A 
ATOM      6  C5  UNL d   1       1.721  -1.227  -0.764  0.00  0.00     0.003 A 
ATOM      7  C6  UNL d   1       1.979  -2.392  -0.040  0.00  0.00    -0.001 A 
ENDROOT
TORSDOF 0
ENDMDL
