MODEL 1
REMARK minimizedAffinity 1.29881907
REMARK minimizedRMSD -1
REMARK  0 active torsions:
REMARK  status: ('A' for Active; 'I' for Inactive)
ROOT
ATOM      1  C   UNL d   1       0.162  -2.968  -3.091  0.00  0.00     0.078 C 
ATOM      2  C1  UNL d   1       0.490  -1.834  -2.167  0.00  0.00    -0.077 A 
ATOM      3  C2  UNL d   1       0.696  -2.055  -0.799  0.00  0.00    -0.001 A 
ATOM      4  C3  UNL d   1       0.991  -0.988   0.051  0.00  0.00     0.003 A 
ATOM      5  C4  UNL d   1       1.081   0.307  -0.456  0.00  0.00    -0.005 A 
ATOM      6  C5  UNL d   1       0.876   0.536  -1.815  0.00  0.00     0.003 A 
ATOM      7  C6  UNL d   1       0.581  -0.529  -2.667  0.00  0.00    -0.001 A 
ENDROOT
TORSDOF 0
ENDMDL
