MODEL 1
REMARK minimizedAffinity 0.504790604
REMARK minimizedRMSD -1
REMARK  0 active torsions:
REMARK  status: ('A' for Active; 'I' for Inactive)
ROOT
ATOM      1  C   UNL d   1       0.739  -0.399  -0.318  0.00  0.00     0.078 C 
ATOM      2  C1  UNL d   1       1.025  -0.821  -1.728  0.00  0.00    -0.077 A 
ATOM      3  C2  UNL d   1       1.028   0.110  -2.773  0.00  0.00    -0.001 A 
ATOM      4  C3  UNL d   1       1.287  -0.298  -4.082  0.00  0.00     0.003 A 
ATOM      5  C4  UNL d   1       1.544  -1.640  -4.358  0.00  0.00    -0.005 A 
ATOM      6  C5  UNL d   1       1.541  -2.574  -3.325  0.00  0.00     0.003 A 
ATOM      7  C6  UNL d   1       1.283  -2.168  -2.015  0.00  0.00    -0.001 A 
ENDROOT
TORSDOF 0
ENDMDL
