MODEL 1
REMARK minimizedAffinity -2.69394684
REMARK minimizedRMSD -1
REMARK  0 active torsions:
REMARK  status: ('A' for Active; 'I' for Inactive)
ROOT
ATOM      1  C   UNL d   1       1.858   1.460  -4.914  0.00  0.00     0.078 C 
ATOM      2  C1  UNL d   1       1.511   1.123  -3.495  0.00  0.00    -0.077 A 
ATOM      3  C2  UNL d   1       1.978  -0.054  -2.898  0.00  0.00    -0.001 A 
ATOM      4  C3  UNL d   1       1.639  -0.360  -1.579  0.00  0.00     0.003 A 
ATOM      5  C4  UNL d   1       0.829   0.505  -0.847  0.00  0.00    -0.005 A 
ATOM      6  C5  UNL d   1       0.357   1.678  -1.433  0.00  0.00     0.003 A 
ATOM      7  C6  UNL d   1       0.696   1.985  -2.751  0.00  0.00    -0.001 A 
ENDROOT
TORSDOF 0
ENDMDL
