MODEL 1
REMARK minimizedAffinity 6.35399103
REMARK minimizedRMSD -1
REMARK  0 active torsions:
REMARK  status: ('A' for Active; 'I' for Inactive)
ROOT
ATOM      1  C   UNL d   1       0.485  -1.135   0.181  0.00  0.00     0.078 C 
ATOM      2  C1  UNL d   1       0.741  -0.337  -1.063  0.00  0.00    -0.077 A 
ATOM      3  C2  UNL d   1       0.275   0.978  -1.184  0.00  0.00    -0.001 A 
ATOM      4  C3  UNL d   1       0.513   1.706  -2.352  0.00  0.00     0.003 A 
ATOM      5  C4  UNL d   1       1.215   1.127  -3.407  0.00  0.00    -0.005 A 
ATOM      6  C5  UNL d   1       1.680  -0.182  -3.296  0.00  0.00     0.003 A 
ATOM      7  C6  UNL d   1       1.444  -0.911  -2.129  0.00  0.00    -0.001 A 
ENDROOT
TORSDOF 0
ENDMDL
