MODEL 1
REMARK minimizedAffinity 5.68004227
REMARK minimizedRMSD -1
REMARK  0 active torsions:
REMARK  status: ('A' for Active; 'I' for Inactive)
ROOT
ATOM      1  C   UNL d   1       5.900   1.570  -4.868  0.00  0.00     0.078 C 
ATOM      2  C1  UNL d   1       4.412   1.755  -4.852  0.00  0.00    -0.077 A 
ATOM      3  C2  UNL d   1       3.661   1.464  -3.706  0.00  0.00    -0.001 A 
ATOM      4  C3  UNL d   1       2.276   1.632  -3.709  0.00  0.00     0.003 A 
ATOM      5  C4  UNL d   1       1.629   2.092  -4.854  0.00  0.00    -0.005 A 
ATOM      6  C5  UNL d   1       2.368   2.382  -6.000  0.00  0.00     0.003 A 
ATOM      7  C6  UNL d   1       3.753   2.214  -5.999  0.00  0.00    -0.001 A 
ENDROOT
TORSDOF 0
ENDMDL
