MODEL 1
REMARK minimizedAffinity 1.72162807
REMARK minimizedRMSD -1
REMARK  0 active torsions:
REMARK  status: ('A' for Active; 'I' for Inactive)
ROOT
ATOM      1  C   UNL d   1       1.583  -2.603  -3.399  0.00  0.00     0.078 C 
ATOM      2  C1  UNL d   1       1.296  -1.378  -2.583  0.00  0.00    -0.077 A 
ATOM      3  C2  UNL d   1       1.056  -1.469  -1.206  0.00  0.00    -0.001 A 
ATOM      4  C3  UNL d   1       0.781  -0.322  -0.460  0.00  0.00     0.003 A 
ATOM      5  C4  UNL d   1       0.743   0.924  -1.082  0.00  0.00    -0.005 A 
ATOM      6  C5  UNL d   1       0.979   1.025  -2.452  0.00  0.00     0.003 A 
ATOM      7  C6  UNL d   1       1.254  -0.121  -3.199  0.00  0.00    -0.001 A 
ENDROOT
TORSDOF 0
ENDMDL
