MODEL 1
REMARK minimizedAffinity -1.05690789
REMARK minimizedRMSD -1
REMARK  0 active torsions:
REMARK  status: ('A' for Active; 'I' for Inactive)
ROOT
ATOM      1  C   UNL d   1       0.453  -0.954   0.539  0.00  0.00     0.078 C 
ATOM      2  C1  UNL d   1       0.708  -0.368  -0.817  0.00  0.00    -0.077 A 
ATOM      3  C2  UNL d   1       0.331   0.948  -1.116  0.00  0.00    -0.001 A 
ATOM      4  C3  UNL d   1       0.566   1.477  -2.386  0.00  0.00     0.003 A 
ATOM      5  C4  UNL d   1       1.176   0.699  -3.367  0.00  0.00    -0.005 A 
ATOM      6  C5  UNL d   1       1.552  -0.612  -3.080  0.00  0.00     0.003 A 
ATOM      7  C6  UNL d   1       1.319  -1.143  -1.810  0.00  0.00    -0.001 A 
ENDROOT
TORSDOF 0
ENDMDL
