MODEL 1
REMARK minimizedAffinity 6.49949789
REMARK minimizedRMSD -1
REMARK  0 active torsions:
REMARK  status: ('A' for Active; 'I' for Inactive)
ROOT
ATOM      1  C   UNL d   1       5.985  -5.980   4.014  0.00  0.00     0.078 C 
ATOM      2  C1  UNL d   1       4.493  -5.990   3.869  0.00  0.00    -0.077 A 
ATOM      3  C2  UNL d   1       3.891  -5.999   2.605  0.00  0.00    -0.001 A 
ATOM      4  C3  UNL d   1       2.500  -5.998   2.485  0.00  0.00     0.003 A 
ATOM      5  C4  UNL d   1       1.700  -5.987   3.625  0.00  0.00    -0.005 A 
ATOM      6  C5  UNL d   1       2.289  -5.976   4.887  0.00  0.00     0.003 A 
ATOM      7  C6  UNL d   1       3.680  -5.977   5.009  0.00  0.00    -0.001 A 
ENDROOT
TORSDOF 0
ENDMDL
