MODEL 1
REMARK minimizedAffinity -1.03122032
REMARK minimizedRMSD -1
REMARK  0 active torsions:
REMARK  status: ('A' for Active; 'I' for Inactive)
ROOT
ATOM      1  C   UNL d   1       1.528  -2.615  -3.002  0.00  0.00     0.078 C 
ATOM      2  C1  UNL d   1       1.259  -1.165  -2.734  0.00  0.00    -0.077 A 
ATOM      3  C2  UNL d   1       1.534  -0.189  -3.699  0.00  0.00    -0.001 A 
ATOM      4  C3  UNL d   1       1.287   1.158  -3.432  0.00  0.00     0.003 A 
ATOM      5  C4  UNL d   1       0.765   1.542  -2.198  0.00  0.00    -0.005 A 
ATOM      6  C5  UNL d   1       0.490   0.579  -1.230  0.00  0.00     0.003 A 
ATOM      7  C6  UNL d   1       0.736  -0.769  -1.496  0.00  0.00    -0.001 A 
ENDROOT
TORSDOF 0
ENDMDL
