MODEL 1
REMARK minimizedAffinity -3.4907608
REMARK minimizedRMSD -1
REMARK  0 active torsions:
REMARK  status: ('A' for Active; 'I' for Inactive)
ROOT
ATOM      1  C   UNL d   1      -3.752   1.763   5.265  0.00  0.00     0.078 C 
ATOM      2  C1  UNL d   1      -3.752   3.237   4.991  0.00  0.00    -0.077 A 
ATOM      3  C2  UNL d   1      -3.376   3.737   3.738  0.00  0.00    -0.001 A 
ATOM      4  C3  UNL d   1      -3.372   5.112   3.499  0.00  0.00     0.003 A 
ATOM      5  C4  UNL d   1      -3.741   5.999   4.509  0.00  0.00    -0.005 A 
ATOM      6  C5  UNL d   1      -4.114   5.511   5.759  0.00  0.00     0.003 A 
ATOM      7  C6  UNL d   1      -4.119   4.136   6.000  0.00  0.00    -0.001 A 
ENDROOT
TORSDOF 0
ENDMDL
