MODEL 1
REMARK minimizedAffinity 2.39487076
REMARK minimizedRMSD -1
REMARK  0 active torsions:
REMARK  status: ('A' for Active; 'I' for Inactive)
ROOT
ATOM      1  C   UNL d   1       0.750   0.750  -1.485  0.00  0.00     0.078 C 
ATOM      2  C1  UNL d   1       1.019  -0.384  -2.428  0.00  0.00    -0.077 A 
ATOM      3  C2  UNL d   1       1.464  -0.147  -3.734  0.00  0.00    -0.001 A 
ATOM      4  C3  UNL d   1       1.701  -1.212  -4.604  0.00  0.00     0.003 A 
ATOM      5  C4  UNL d   1       1.494  -2.523  -4.179  0.00  0.00    -0.005 A 
ATOM      6  C5  UNL d   1       1.049  -2.769  -2.881  0.00  0.00     0.003 A 
ATOM      7  C6  UNL d   1       0.812  -1.705  -2.010  0.00  0.00    -0.001 A 
ENDROOT
TORSDOF 0
ENDMDL
