MODEL 1
REMARK minimizedAffinity -3.87026477
REMARK minimizedRMSD -1
REMARK  0 active torsions:
REMARK  status: ('A' for Active; 'I' for Inactive)
ROOT
ATOM      1  C   UNL d   1      -2.172  -0.157   2.454  0.00  0.00     0.124 A 
ATOM      2  C1  UNL d   1      -2.724   0.462   1.341  0.00  0.00     0.062 A 
ATOM      3  C2  UNL d   1      -1.957   0.656   0.196  0.00  0.00     0.162 A 
ATOM      4  C3  UNL d   1      -0.629   0.230   0.157  0.00  0.00    -0.034 A 
ATOM      5  C4  UNL d   1      -0.081  -0.391   1.281  0.00  0.00     0.162 A 
ATOM      6  C5  UNL d   1      -0.851  -0.583   2.423  0.00  0.00     0.062 A 
ATOM      7  F   UNL d   1      -0.317  -1.181   3.497  0.00  0.00    -0.097 F 
ATOM      8  F1  UNL d   1       1.192  -0.813   1.278  0.00  0.00    -0.096 F 
ATOM      9  I   UNL d   1       0.521   0.518  -1.553  0.00  0.00    -0.060 I 
ATOM     10  F2  UNL d   1      -2.516   1.258  -0.865  0.00  0.00    -0.096 F 
ATOM     11  F3  UNL d   1      -3.999   0.876   1.369  0.00  0.00    -0.097 F 
ATOM     12  F4  UNL d   1      -2.912  -0.341   3.555  0.00  0.00    -0.092 F 
ENDROOT
TORSDOF 0
ENDMDL
