MODEL 1
REMARK minimizedAffinity -0.808360457
REMARK minimizedRMSD -1
REMARK  0 active torsions:
REMARK  status: ('A' for Active; 'I' for Inactive)
ROOT
ATOM      1  C   UNL d   1      -1.073   0.248   1.660  0.00  0.00     0.124 A 
ATOM      2  C1  UNL d   1      -1.704   0.582   0.470  0.00  0.00     0.062 A 
ATOM      3  C2  UNL d   1      -0.995   0.564  -0.728  0.00  0.00     0.162 A 
ATOM      4  C3  UNL d   1       0.354   0.211  -0.742  0.00  0.00    -0.034 A 
ATOM      5  C4  UNL d   1       0.983  -0.122   0.459  0.00  0.00     0.162 A 
ATOM      6  C5  UNL d   1       0.270  -0.103   1.654  0.00  0.00     0.062 A 
ATOM      7  F   UNL d   1       0.881  -0.425   2.803  0.00  0.00    -0.097 F 
ATOM      8  F1  UNL d   1       2.279  -0.467   0.482  0.00  0.00    -0.096 F 
ATOM      9  I   UNL d   1       1.418   0.183  -2.530  0.00  0.00    -0.060 I 
ATOM     10  F2  UNL d   1      -1.631   0.890  -1.863  0.00  0.00    -0.096 F 
ATOM     11  F3  UNL d   1      -3.001   0.922   0.473  0.00  0.00    -0.097 F 
ATOM     12  F4  UNL d   1      -1.757   0.267   2.811  0.00  0.00    -0.092 F 
ENDROOT
TORSDOF 0
ENDMDL
