MODEL 1
REMARK minimizedAffinity 1.00546873
REMARK minimizedRMSD -1
REMARK  0 active torsions:
REMARK  status: ('A' for Active; 'I' for Inactive)
ROOT
ATOM      1  C   UNL d   1      -1.094   0.354   1.702  0.00  0.00     0.124 A 
ATOM      2  C1  UNL d   1       0.194  -0.153   1.606  0.00  0.00     0.062 A 
ATOM      3  C2  UNL d   1       0.804  -0.283   0.362  0.00  0.00     0.162 A 
ATOM      4  C3  UNL d   1       0.127   0.096  -0.797  0.00  0.00    -0.034 A 
ATOM      5  C4  UNL d   1      -1.169   0.603  -0.693  0.00  0.00     0.162 A 
ATOM      6  C5  UNL d   1      -1.775   0.731   0.553  0.00  0.00     0.062 A 
ATOM      7  F   UNL d   1      -3.020   1.221   0.644  0.00  0.00    -0.097 F 
ATOM      8  F1  UNL d   1      -1.850   0.977  -1.787  0.00  0.00    -0.096 F 
ATOM      9  I   UNL d   1       1.036  -0.097  -2.659  0.00  0.00    -0.060 I 
ATOM     10  F2  UNL d   1       2.050  -0.775   0.299  0.00  0.00    -0.096 F 
ATOM     11  F3  UNL d   1       0.854  -0.519   2.715  0.00  0.00    -0.097 F 
ATOM     12  F4  UNL d   1      -1.679   0.477   2.901  0.00  0.00    -0.092 F 
ENDROOT
TORSDOF 0
ENDMDL
