MODEL 1
REMARK minimizedAffinity 0.244582996
REMARK minimizedRMSD -1
REMARK  0 active torsions:
REMARK  status: ('A' for Active; 'I' for Inactive)
ROOT
ATOM      1  C   UNL d   1      -0.308   0.422  -1.862  0.00  0.00     0.124 A 
ATOM      2  C1  UNL d   1      -1.445   0.824  -1.176  0.00  0.00     0.062 A 
ATOM      3  C2  UNL d   1      -1.556   0.593   0.192  0.00  0.00     0.162 A 
ATOM      4  C3  UNL d   1      -0.525  -0.043   0.884  0.00  0.00    -0.034 A 
ATOM      5  C4  UNL d   1       0.615  -0.445   0.187  0.00  0.00     0.162 A 
ATOM      6  C5  UNL d   1       0.721  -0.213  -1.180  0.00  0.00     0.062 A 
ATOM      7  F   UNL d   1       1.821  -0.602  -1.841  0.00  0.00    -0.097 F 
ATOM      8  F1  UNL d   1       1.625  -1.060   0.821  0.00  0.00    -0.096 F 
ATOM      9  I   UNL d   1      -0.687  -0.390   2.929  0.00  0.00    -0.060 I 
ATOM     10  F2  UNL d   1      -2.667   0.993   0.829  0.00  0.00    -0.096 F 
ATOM     11  F3  UNL d   1      -2.441   1.436  -1.833  0.00  0.00    -0.097 F 
ATOM     12  F4  UNL d   1      -0.204   0.644  -3.179  0.00  0.00    -0.092 F 
ENDROOT
TORSDOF 0
ENDMDL
