MODEL 1
REMARK minimizedAffinity -3.3016808
REMARK minimizedRMSD -1
REMARK  0 active torsions:
REMARK  status: ('A' for Active; 'I' for Inactive)
ROOT
ATOM      1  C   UNL d   1      -2.431   0.089   1.831  0.00  0.00     0.124 A 
ATOM      2  C1  UNL d   1      -2.260   0.704   0.599  0.00  0.00     0.062 A 
ATOM      3  C2  UNL d   1      -0.994   1.112   0.190  0.00  0.00     0.162 A 
ATOM      4  C3  UNL d   1       0.112   0.906   1.014  0.00  0.00    -0.034 A 
ATOM      5  C4  UNL d   1      -0.068   0.288   2.253  0.00  0.00     0.162 A 
ATOM      6  C5  UNL d   1      -1.336  -0.118   2.657  0.00  0.00     0.062 A 
ATOM      7  F   UNL d   1      -1.499  -0.712   3.848  0.00  0.00    -0.097 F 
ATOM      8  F1  UNL d   1       0.974   0.075   3.070  0.00  0.00    -0.096 F 
ATOM      9  I   UNL d   1       2.007   1.516   0.407  0.00  0.00    -0.060 I 
ATOM     10  F2  UNL d   1      -0.859   1.704  -1.006  0.00  0.00    -0.096 F 
ATOM     11  F3  UNL d   1      -3.318   0.906  -0.200  0.00  0.00    -0.097 F 
ATOM     12  F4  UNL d   1      -3.651  -0.302   2.223  0.00  0.00    -0.092 F 
ENDROOT
TORSDOF 0
ENDMDL
