MODEL 1
REMARK minimizedAffinity -1.07533193
REMARK minimizedRMSD -1
REMARK  0 active torsions:
REMARK  status: ('A' for Active; 'I' for Inactive)
ROOT
ATOM      1  C   UNL d   1      -1.982  -0.568   2.371  0.00  0.00     0.124 A 
ATOM      2  C1  UNL d   1      -2.596  -0.218   1.176  0.00  0.00     0.062 A 
ATOM      3  C2  UNL d   1      -1.827   0.126   0.068  0.00  0.00     0.162 A 
ATOM      4  C3  UNL d   1      -0.434   0.120   0.149  0.00  0.00    -0.034 A 
ATOM      5  C4  UNL d   1       0.176  -0.233   1.354  0.00  0.00     0.162 A 
ATOM      6  C5  UNL d   1      -0.597  -0.575   2.458  0.00  0.00     0.062 A 
ATOM      7  F   UNL d   1      -0.002  -0.913   3.611  0.00  0.00    -0.097 F 
ATOM      8  F1  UNL d   1       1.513  -0.249   1.466  0.00  0.00    -0.096 F 
ATOM      9  I   UNL d   1       0.719   0.633  -1.506  0.00  0.00    -0.060 I 
ATOM     10  F2  UNL d   1      -2.447   0.460  -1.073  0.00  0.00    -0.096 F 
ATOM     11  F3  UNL d   1      -3.934  -0.209   1.089  0.00  0.00    -0.097 F 
ATOM     12  F4  UNL d   1      -2.724  -0.897   3.435  0.00  0.00    -0.092 F 
ENDROOT
TORSDOF 0
ENDMDL
