MODEL 1
REMARK minimizedAffinity -1.98578656
REMARK minimizedRMSD -1
REMARK  0 active torsions:
REMARK  status: ('A' for Active; 'I' for Inactive)
ROOT
ATOM      1  C   UNL d   1      -1.470  -0.252   2.333  0.00  0.00     0.124 A 
ATOM      2  C1  UNL d   1      -2.039   0.270   1.180  0.00  0.00     0.062 A 
ATOM      3  C2  UNL d   1      -1.255   0.494   0.052  0.00  0.00     0.162 A 
ATOM      4  C3  UNL d   1       0.107   0.194   0.071  0.00  0.00    -0.034 A 
ATOM      5  C4  UNL d   1       0.673  -0.330   1.235  0.00  0.00     0.162 A 
ATOM      6  C5  UNL d   1      -0.115  -0.551   2.360  0.00  0.00     0.062 A 
ATOM      7  F   UNL d   1       0.436  -1.056   3.473  0.00  0.00    -0.097 F 
ATOM      8  F1  UNL d   1       1.979  -0.629   1.288  0.00  0.00    -0.096 F 
ATOM      9  I   UNL d   1       1.283   0.528  -1.613  0.00  0.00    -0.060 I 
ATOM     10  F2  UNL d   1      -1.831   0.999  -1.048  0.00  0.00    -0.096 F 
ATOM     11  F3  UNL d   1      -3.348   0.561   1.152  0.00  0.00    -0.097 F 
ATOM     12  F4  UNL d   1      -2.227  -0.465   3.418  0.00  0.00    -0.092 F 
ENDROOT
TORSDOF 0
ENDMDL
