MODEL 1
REMARK minimizedAffinity -0.96047157
REMARK minimizedRMSD -1
REMARK  0 active torsions:
REMARK  status: ('A' for Active; 'I' for Inactive)
ROOT
ATOM      1  C   UNL d   1      -0.340   0.544  -1.559  0.00  0.00     0.124 A 
ATOM      2  C1  UNL d   1      -1.577   0.552  -0.929  0.00  0.00     0.062 A 
ATOM      3  C2  UNL d   1      -1.687   0.167   0.404  0.00  0.00     0.162 A 
ATOM      4  C3  UNL d   1      -0.555  -0.228   1.117  0.00  0.00    -0.034 A 
ATOM      5  C4  UNL d   1       0.685  -0.234   0.478  0.00  0.00     0.162 A 
ATOM      6  C5  UNL d   1       0.790   0.151  -0.855  0.00  0.00     0.062 A 
ATOM      7  F   UNL d   1       1.986   0.143  -1.461  0.00  0.00    -0.097 F 
ATOM      8  F1  UNL d   1       1.793  -0.609   1.134  0.00  0.00    -0.096 F 
ATOM      9  I   UNL d   1      -0.715  -0.805   3.111  0.00  0.00    -0.060 I 
ATOM     10  F2  UNL d   1      -2.895   0.185   0.986  0.00  0.00    -0.096 F 
ATOM     11  F3  UNL d   1      -2.670   0.931  -1.607  0.00  0.00    -0.097 F 
ATOM     12  F4  UNL d   1      -0.237   0.914  -2.842  0.00  0.00    -0.092 F 
ENDROOT
TORSDOF 0
ENDMDL
