MODEL 1
REMARK minimizedAffinity -0.712831378
REMARK minimizedRMSD -1
REMARK  0 active torsions:
REMARK  status: ('A' for Active; 'I' for Inactive)
ROOT
ATOM      1  C   UNL d   1      -0.755  -0.273   2.211  0.00  0.00     0.124 A 
ATOM      2  C1  UNL d   1       0.604   0.002   2.141  0.00  0.00     0.062 A 
ATOM      3  C2  UNL d   1       1.235   0.103   0.905  0.00  0.00     0.162 A 
ATOM      4  C3  UNL d   1       0.507  -0.071  -0.273  0.00  0.00    -0.034 A 
ATOM      5  C4  UNL d   1      -0.859  -0.348  -0.194  0.00  0.00     0.162 A 
ATOM      6  C5  UNL d   1      -1.484  -0.448   1.044  0.00  0.00     0.062 A 
ATOM      7  F   UNL d   1      -2.797  -0.713   1.110  0.00  0.00    -0.097 F 
ATOM      8  F1  UNL d   1      -1.588  -0.520  -1.307  0.00  0.00    -0.096 F 
ATOM      9  I   UNL d   1       1.447   0.079  -2.124  0.00  0.00    -0.060 I 
ATOM     10  F2  UNL d   1       2.549   0.369   0.867  0.00  0.00    -0.096 F 
ATOM     11  F3  UNL d   1       1.312   0.170   3.268  0.00  0.00    -0.097 F 
ATOM     12  F4  UNL d   1      -1.359  -0.370   3.403  0.00  0.00    -0.092 F 
ENDROOT
TORSDOF 0
ENDMDL
