MODEL 1
REMARK minimizedAffinity -0.0957629532
REMARK minimizedRMSD -1
REMARK  0 active torsions:
REMARK  status: ('A' for Active; 'I' for Inactive)
ROOT
ATOM      1  C   UNL d   1      -0.704  -0.384   2.518  0.00  0.00     0.124 A 
ATOM      2  C1  UNL d   1      -1.400  -0.714   1.364  0.00  0.00     0.062 A 
ATOM      3  C2  UNL d   1      -0.745  -0.744   0.136  0.00  0.00     0.162 A 
ATOM      4  C3  UNL d   1       0.615  -0.444   0.057  0.00  0.00    -0.034 A 
ATOM      5  C4  UNL d   1       1.308  -0.112   1.222  0.00  0.00     0.162 A 
ATOM      6  C5  UNL d   1       0.648  -0.083   2.447  0.00  0.00     0.062 A 
ATOM      7  F   UNL d   1       1.322   0.236   3.561  0.00  0.00    -0.097 F 
ATOM      8  F1  UNL d   1       2.616   0.182   1.182  0.00  0.00    -0.096 F 
ATOM      9  I   UNL d   1       1.599  -0.488  -1.777  0.00  0.00    -0.060 I 
ATOM     10  F2  UNL d   1      -1.442  -1.067  -0.963  0.00  0.00    -0.096 F 
ATOM     11  F3  UNL d   1      -2.707  -1.004   1.430  0.00  0.00    -0.097 F 
ATOM     12  F4  UNL d   1      -1.338  -0.355   3.698  0.00  0.00    -0.092 F 
ENDROOT
TORSDOF 0
ENDMDL
