MODEL 1
REMARK minimizedAffinity -2.59086299
REMARK minimizedRMSD -1
REMARK  0 active torsions:
REMARK  status: ('A' for Active; 'I' for Inactive)
ROOT
ATOM      1  C   UNL d   1      -0.673  -0.163   1.929  0.00  0.00     0.124 A 
ATOM      2  C1  UNL d   1       0.711  -0.066   1.886  0.00  0.00     0.062 A 
ATOM      3  C2  UNL d   1       1.370   0.006   0.662  0.00  0.00     0.162 A 
ATOM      4  C3  UNL d   1       0.646  -0.017  -0.530  0.00  0.00    -0.034 A 
ATOM      5  C4  UNL d   1      -0.745  -0.115  -0.479  0.00  0.00     0.162 A 
ATOM      6  C5  UNL d   1      -1.400  -0.187   0.747  0.00  0.00     0.062 A 
ATOM      7  F   UNL d   1      -2.737  -0.280   0.786  0.00  0.00    -0.097 F 
ATOM      8  F1  UNL d   1      -1.473  -0.140  -1.605  0.00  0.00    -0.096 F 
ATOM      9  I   UNL d   1       1.628   0.090  -2.361  0.00  0.00    -0.060 I 
ATOM     10  F2  UNL d   1       2.709   0.098   0.651  0.00  0.00    -0.096 F 
ATOM     11  F3  UNL d   1       1.416  -0.044   3.027  0.00  0.00    -0.097 F 
ATOM     12  F4  UNL d   1      -1.304  -0.233   3.108  0.00  0.00    -0.092 F 
ENDROOT
TORSDOF 0
ENDMDL
