MODEL 1
REMARK minimizedAffinity -5.37009525
REMARK minimizedRMSD -1
REMARK  0 active torsions:
REMARK  status: ('A' for Active; 'I' for Inactive)
ROOT
ATOM      1  C   UNL d   1      -1.790   0.106   2.529  0.00  0.00     0.124 A 
ATOM      2  C1  UNL d   1      -0.464  -0.304   2.502  0.00  0.00     0.062 A 
ATOM      3  C2  UNL d   1       0.258  -0.260   1.313  0.00  0.00     0.162 A 
ATOM      4  C3  UNL d   1      -0.344   0.196   0.140  0.00  0.00    -0.034 A 
ATOM      5  C4  UNL d   1      -1.678   0.606   0.175  0.00  0.00     0.162 A 
ATOM      6  C5  UNL d   1      -2.395   0.561   1.366  0.00  0.00     0.062 A 
ATOM      7  F   UNL d   1      -3.676   0.957   1.390  0.00  0.00    -0.097 F 
ATOM      8  F1  UNL d   1      -2.288   1.050  -0.934  0.00  0.00    -0.096 F 
ATOM      9  I   UNL d   1       0.732   0.263  -1.640  0.00  0.00    -0.060 I 
ATOM     10  F2  UNL d   1       1.538  -0.662   1.316  0.00  0.00    -0.096 F 
ATOM     11  F3  UNL d   1       0.123  -0.744   3.624  0.00  0.00    -0.097 F 
ATOM     12  F4  UNL d   1      -2.483   0.063   3.674  0.00  0.00    -0.092 F 
ENDROOT
TORSDOF 0
ENDMDL
