MODEL 1
REMARK minimizedAffinity 1.73684728
REMARK minimizedRMSD -1
REMARK  0 active torsions:
REMARK  status: ('A' for Active; 'I' for Inactive)
ROOT
ATOM      1  C   UNL d   1       0.688   0.048  -0.637  0.00  0.00     0.124 A 
ATOM      2  C1  UNL d   1      -0.677   0.154  -0.863  0.00  0.00     0.062 A 
ATOM      3  C2  UNL d   1      -1.550   0.349   0.203  0.00  0.00     0.162 A 
ATOM      4  C3  UNL d   1      -1.061   0.442   1.506  0.00  0.00    -0.034 A 
ATOM      5  C4  UNL d   1       0.314   0.333   1.726  0.00  0.00     0.162 A 
ATOM      6  C5  UNL d   1       1.182   0.138   0.657  0.00  0.00     0.062 A 
ATOM      7  F   UNL d   1       2.501   0.036   0.877  0.00  0.00    -0.097 F 
ATOM      8  F1  UNL d   1       0.818   0.417   2.966  0.00  0.00    -0.096 F 
ATOM      9  I   UNL d   1      -2.363   0.734   3.103  0.00  0.00    -0.060 I 
ATOM     10  F2  UNL d   1      -2.865   0.448  -0.045  0.00  0.00    -0.096 F 
ATOM     11  F3  UNL d   1      -1.157   0.067  -2.112  0.00  0.00    -0.097 F 
ATOM     12  F4  UNL d   1       1.526  -0.141  -1.664  0.00  0.00    -0.092 F 
ENDROOT
TORSDOF 0
ENDMDL
