MODEL 1
REMARK minimizedAffinity -5.06019258
REMARK minimizedRMSD -1
REMARK  0 active torsions:
REMARK  status: ('A' for Active; 'I' for Inactive)
ROOT
ATOM      1  C   UNL d   1      -1.661  -0.219   2.258  0.00  0.00     0.124 A 
ATOM      2  C1  UNL d   1      -2.290   0.127   1.070  0.00  0.00     0.062 A 
ATOM      3  C2  UNL d   1      -1.605   0.030  -0.138  0.00  0.00     0.162 A 
ATOM      4  C3  UNL d   1      -0.284  -0.416  -0.165  0.00  0.00    -0.034 A 
ATOM      5  C4  UNL d   1       0.342  -0.761   1.034  0.00  0.00     0.162 A 
ATOM      6  C5  UNL d   1      -0.346  -0.663   2.239  0.00  0.00     0.062 A 
ATOM      7  F   UNL d   1       0.263  -0.997   3.386  0.00  0.00    -0.097 F 
ATOM      8  F1  UNL d   1       1.611  -1.194   1.045  0.00  0.00    -0.096 F 
ATOM      9  I   UNL d   1       0.743  -0.562  -1.969  0.00  0.00    -0.060 I 
ATOM     10  F2  UNL d   1      -2.238   0.371  -1.271  0.00  0.00    -0.096 F 
ATOM     11  F3  UNL d   1      -3.560   0.557   1.085  0.00  0.00    -0.097 F 
ATOM     12  F4  UNL d   1      -2.322  -0.123   3.419  0.00  0.00    -0.092 F 
ENDROOT
TORSDOF 0
ENDMDL
