MODEL 1
REMARK minimizedAffinity -1.70150375
REMARK minimizedRMSD -1
REMARK  0 active torsions:
REMARK  status: ('A' for Active; 'I' for Inactive)
ROOT
ATOM      1  C   UNL d   1       0.248   0.256   1.685  0.00  0.00     0.124 A 
ATOM      2  C1  UNL d   1      -0.473  -0.885   1.362  0.00  0.00     0.062 A 
ATOM      3  C2  UNL d   1      -0.563  -1.305   0.038  0.00  0.00     0.162 A 
ATOM      4  C3  UNL d   1       0.072  -0.584  -0.973  0.00  0.00    -0.034 A 
ATOM      5  C4  UNL d   1       0.794   0.563  -0.641  0.00  0.00     0.162 A 
ATOM      6  C5  UNL d   1       0.881   0.979   0.684  0.00  0.00     0.062 A 
ATOM      7  F   UNL d   1       1.578   2.081   0.995  0.00  0.00    -0.097 F 
ATOM      8  F1  UNL d   1       1.416   1.280  -1.588  0.00  0.00    -0.096 F 
ATOM      9  I   UNL d   1      -0.060  -1.208  -2.954  0.00  0.00    -0.060 I 
ATOM     10  F2  UNL d   1      -1.266  -2.412  -0.245  0.00  0.00    -0.096 F 
ATOM     11  F3  UNL d   1      -1.086  -1.585   2.327  0.00  0.00    -0.097 F 
ATOM     12  F4  UNL d   1       0.331   0.658   2.960  0.00  0.00    -0.092 F 
ENDROOT
TORSDOF 0
ENDMDL
