MODEL 1
REMARK minimizedAffinity 10.5950022
REMARK minimizedRMSD -1
REMARK  1 active torsions:
REMARK  status: ('A' for Active; 'I' for Inactive)
REMARK    1  A    between atoms: C1_2  and  C2_3 
ROOT
ATOM      1  C2  UNL d   1       0.874  -2.535   0.681  0.00  0.00    -0.073 A 
ATOM      2  C3  UNL d   1       1.539  -1.446   0.104  0.00  0.00    -0.002 A 
ATOM      3  C4  UNL d   1       2.058  -0.431   0.909  0.00  0.00     0.004 A 
ATOM      4  C5  UNL d   1       1.925  -0.497   2.296  0.00  0.00    -0.004 A 
ATOM      5  C6  UNL d   1       1.274  -1.583   2.891  0.00  0.00    -0.075 A 
ATOM      6  C7  UNL d   1       1.120  -1.667   4.381  0.00  0.00     0.076 C 
ATOM      7  C8  UNL d   1       0.753  -2.597   2.076  0.00  0.00     0.001 A 
ENDROOT
BRANCH   1   8
ATOM      8  C1  UNL d   1       0.318  -3.637  -0.184  0.00  0.00     0.053 C 
ATOM      9  C   UNL d   1       0.921  -4.989   0.158  0.00  0.00     0.018 C 
ENDBRANCH   1   8
TORSDOF 1
ENDMDL
