MODEL 1
REMARK minimizedAffinity 4.83655739
REMARK minimizedRMSD -1
REMARK  1 active torsions:
REMARK  status: ('A' for Active; 'I' for Inactive)
REMARK    1  A    between atoms: C1_2  and  C2_3 
ROOT
ATOM      1  C2  UNL d   1       1.828  -2.041   3.013  0.00  0.00    -0.073 A 
ATOM      2  C3  UNL d   1       2.094  -1.518   4.283  0.00  0.00    -0.002 A 
ATOM      3  C4  UNL d   1       2.476  -2.362   5.327  0.00  0.00     0.004 A 
ATOM      4  C5  UNL d   1       2.602  -3.734   5.110  0.00  0.00    -0.004 A 
ATOM      5  C6  UNL d   1       2.351  -4.274   3.844  0.00  0.00    -0.075 A 
ATOM      6  C7  UNL d   1       2.480  -5.748   3.595  0.00  0.00     0.076 C 
ATOM      7  C8  UNL d   1       1.966  -3.420   2.802  0.00  0.00     0.001 A 
ENDROOT
BRANCH   1   8
ATOM      8  C1  UNL d   1       1.421  -1.132   1.881  0.00  0.00     0.053 C 
ATOM      9  C   UNL d   1       2.367   0.048   1.729  0.00  0.00     0.018 C 
ENDBRANCH   1   8
TORSDOF 1
ENDMDL
