MODEL 1
REMARK minimizedAffinity 3.27648306
REMARK minimizedRMSD -1
REMARK  1 active torsions:
REMARK  status: ('A' for Active; 'I' for Inactive)
REMARK    1  A    between atoms: C1_2  and  C2_3 
ROOT
ATOM      1  C2  UNL d   1       2.671  -1.454   2.704  0.00  0.00    -0.073 A 
ATOM      2  C3  UNL d   1       3.667  -2.178   3.370  0.00  0.00    -0.002 A 
ATOM      3  C4  UNL d   1       4.966  -2.221   2.861  0.00  0.00     0.004 A 
ATOM      4  C5  UNL d   1       5.284  -1.537   1.688  0.00  0.00    -0.004 A 
ATOM      5  C6  UNL d   1       4.305  -0.798   1.015  0.00  0.00    -0.075 A 
ATOM      6  C7  UNL d   1       4.630  -0.058  -0.249  0.00  0.00     0.076 C 
ATOM      7  C8  UNL d   1       3.002  -0.762   1.530  0.00  0.00     0.001 A 
ENDROOT
BRANCH   1   8
ATOM      8  C1  UNL d   1       1.269  -1.400   3.253  0.00  0.00     0.053 C 
ATOM      9  C   UNL d   1       1.222  -1.739   4.734  0.00  0.00     0.018 C 
ENDBRANCH   1   8
TORSDOF 1
ENDMDL
