MODEL 1
REMARK minimizedAffinity 4.06461954
REMARK minimizedRMSD -1
REMARK  1 active torsions:
REMARK  status: ('A' for Active; 'I' for Inactive)
REMARK    1  A    between atoms: C1_2  and  C2_3 
ROOT
ATOM      1  C2  UNL d   1       4.126  -2.702   2.994  0.00  0.00    -0.073 A 
ATOM      2  C3  UNL d   1       3.773  -3.462   4.114  0.00  0.00    -0.002 A 
ATOM      3  C4  UNL d   1       2.441  -3.545   4.520  0.00  0.00     0.004 A 
ATOM      4  C5  UNL d   1       1.447  -2.874   3.807  0.00  0.00    -0.004 A 
ATOM      5  C6  UNL d   1       1.778  -2.118   2.677  0.00  0.00    -0.075 A 
ATOM      6  C7  UNL d   1       0.721  -1.389   1.900  0.00  0.00     0.076 C 
ATOM      7  C8  UNL d   1       3.119  -2.038   2.278  0.00  0.00     0.001 A 
ENDROOT
BRANCH   1   8
ATOM      8  C1  UNL d   1       5.562  -2.615   2.548  0.00  0.00     0.053 C 
ATOM      9  C   UNL d   1       5.999  -3.857   1.787  0.00  0.00     0.018 C 
ENDBRANCH   1   8
TORSDOF 1
ENDMDL
