MODEL 1
REMARK minimizedAffinity -3.28484392
REMARK minimizedRMSD -1
REMARK  1 active torsions:
REMARK  status: ('A' for Active; 'I' for Inactive)
REMARK    1  A    between atoms: C1_2  and  C2_3 
ROOT
ATOM      1  C2  UNL d   1      -3.360   4.482  -5.657  0.00  0.00    -0.073 A 
ATOM      2  C3  UNL d   1      -4.755   4.543  -5.740  0.00  0.00    -0.002 A 
ATOM      3  C4  UNL d   1      -5.503   3.377  -5.914  0.00  0.00     0.004 A 
ATOM      4  C5  UNL d   1      -4.864   2.140  -6.000  0.00  0.00    -0.004 A 
ATOM      5  C6  UNL d   1      -3.471   2.057  -5.907  0.00  0.00    -0.075 A 
ATOM      6  C7  UNL d   1      -2.769   0.735  -5.999  0.00  0.00     0.076 C 
ATOM      7  C8  UNL d   1      -2.727   3.233  -5.735  0.00  0.00     0.001 A 
ENDROOT
BRANCH   1   8
ATOM      8  C1  UNL d   1      -2.549   5.737  -5.463  0.00  0.00     0.053 C 
ATOM      9  C   UNL d   1      -1.210   5.454  -4.800  0.00  0.00     0.018 C 
ENDBRANCH   1   8
TORSDOF 1
ENDMDL
