MODEL 1
REMARK minimizedAffinity 1.61895478
REMARK minimizedRMSD -1
REMARK  1 active torsions:
REMARK  status: ('A' for Active; 'I' for Inactive)
REMARK    1  A    between atoms: C1_2  and  C2_3 
ROOT
ATOM      1  C2  UNL d   1       0.840   0.420  -0.614  0.00  0.00    -0.073 A 
ATOM      2  C3  UNL d   1       1.649   0.494  -1.753  0.00  0.00    -0.002 A 
ATOM      3  C4  UNL d   1       1.344  -0.263  -2.885  0.00  0.00     0.004 A 
ATOM      4  C5  UNL d   1       0.226  -1.097  -2.891  0.00  0.00    -0.004 A 
ATOM      5  C6  UNL d   1      -0.601  -1.177  -1.766  0.00  0.00    -0.075 A 
ATOM      6  C7  UNL d   1      -1.806  -2.070  -1.755  0.00  0.00     0.076 C 
ATOM      7  C8  UNL d   1      -0.287  -0.415  -0.632  0.00  0.00     0.001 A 
ENDROOT
BRANCH   1   8
ATOM      8  C1  UNL d   1       1.162   1.241   0.608  0.00  0.00     0.053 C 
ATOM      9  C   UNL d   1       1.891   2.527   0.254  0.00  0.00     0.018 C 
ENDBRANCH   1   8
TORSDOF 1
ENDMDL
