MODEL 1
REMARK minimizedAffinity -1.70895767
REMARK minimizedRMSD -1
REMARK  1 active torsions:
REMARK  status: ('A' for Active; 'I' for Inactive)
REMARK    1  A    between atoms: C1_2  and  C2_3 
ROOT
ATOM      1  C2  UNL d   1      -4.818   2.719  -5.987  0.00  0.00    -0.073 A 
ATOM      2  C3  UNL d   1      -3.512   3.224  -5.996  0.00  0.00    -0.002 A 
ATOM      3  C4  UNL d   1      -2.421   2.354  -5.991  0.00  0.00     0.004 A 
ATOM      4  C5  UNL d   1      -2.623   0.974  -5.984  0.00  0.00    -0.004 A 
ATOM      5  C6  UNL d   1      -3.920   0.451  -5.988  0.00  0.00    -0.075 A 
ATOM      6  C7  UNL d   1      -4.153  -1.031  -5.979  0.00  0.00     0.076 C 
ATOM      7  C8  UNL d   1      -5.011   1.330  -5.991  0.00  0.00     0.001 A 
ENDROOT
BRANCH   1   8
ATOM      8  C1  UNL d   1      -6.000   3.654  -5.999  0.00  0.00     0.053 C 
ATOM      9  C   UNL d   1      -5.572   5.113  -6.000  0.00  0.00     0.018 C 
ENDBRANCH   1   8
TORSDOF 1
ENDMDL
