MODEL 1
REMARK minimizedAffinity 0.994000852
REMARK minimizedRMSD -1
REMARK  1 active torsions:
REMARK  status: ('A' for Active; 'I' for Inactive)
REMARK    1  A    between atoms: C1_2  and  C2_3 
ROOT
ATOM      1  C2  UNL d   1      -3.375   1.810  -5.991  0.00  0.00    -0.073 A 
ATOM      2  C3  UNL d   1      -4.693   1.338  -5.998  0.00  0.00    -0.002 A 
ATOM      3  C4  UNL d   1      -5.762   2.234  -5.996  0.00  0.00     0.004 A 
ATOM      4  C5  UNL d   1      -5.526   3.609  -5.994  0.00  0.00    -0.004 A 
ATOM      5  C6  UNL d   1      -4.217   4.100  -5.999  0.00  0.00    -0.075 A 
ATOM      6  C7  UNL d   1      -3.946   5.576  -5.995  0.00  0.00     0.076 C 
ATOM      7  C8  UNL d   1      -3.148   3.193  -5.998  0.00  0.00     0.001 A 
ENDROOT
BRANCH   1   8
ATOM      8  C1  UNL d   1      -2.217   0.846  -5.999  0.00  0.00     0.053 C 
ATOM      9  C   UNL d   1      -1.150   1.229  -4.986  0.00  0.00     0.018 C 
ENDBRANCH   1   8
TORSDOF 1
ENDMDL
