MODEL 1
REMARK minimizedAffinity -1.1476444
REMARK minimizedRMSD -1
REMARK  1 active torsions:
REMARK  status: ('A' for Active; 'I' for Inactive)
REMARK    1  A    between atoms: C1_2  and  C2_3 
ROOT
ATOM      1  C2  UNL d   1       1.798   0.686  -1.217  0.00  0.00    -0.073 A 
ATOM      2  C3  UNL d   1       0.440   0.764  -0.889  0.00  0.00    -0.002 A 
ATOM      3  C4  UNL d   1      -0.367  -0.373  -0.952  0.00  0.00     0.004 A 
ATOM      4  C5  UNL d   1       0.176  -1.599  -1.336  0.00  0.00    -0.004 A 
ATOM      5  C6  UNL d   1       1.534  -1.700  -1.657  0.00  0.00    -0.075 A 
ATOM      6  C7  UNL d   1       2.132  -3.011  -2.074  0.00  0.00     0.076 C 
ATOM      7  C8  UNL d   1       2.337  -0.553  -1.594  0.00  0.00     0.001 A 
ENDROOT
BRANCH   1   8
ATOM      8  C1  UNL d   1       2.675   1.909  -1.145  0.00  0.00     0.053 C 
ATOM      9  C   UNL d   1       2.529   2.637   0.182  0.00  0.00     0.018 C 
ENDBRANCH   1   8
TORSDOF 1
ENDMDL
