MODEL 1
REMARK minimizedAffinity -2.25431824
REMARK minimizedRMSD -1
REMARK  1 active torsions:
REMARK  status: ('A' for Active; 'I' for Inactive)
REMARK    1  A    between atoms: C1_2  and  C2_3 
ROOT
ATOM      1  C2  UNL d   1       1.067   0.349  -0.515  0.00  0.00    -0.073 A 
ATOM      2  C3  UNL d   1       2.038   0.644  -1.479  0.00  0.00    -0.002 A 
ATOM      3  C4  UNL d   1       1.940   0.111  -2.765  0.00  0.00     0.004 A 
ATOM      4  C5  UNL d   1       0.869  -0.716  -3.102  0.00  0.00    -0.004 A 
ATOM      5  C6  UNL d   1      -0.117  -1.014  -2.156  0.00  0.00    -0.075 A 
ATOM      6  C7  UNL d   1      -1.275  -1.903  -2.503  0.00  0.00     0.076 C 
ATOM      7  C8  UNL d   1      -0.011  -0.477  -0.866  0.00  0.00     0.001 A 
ENDROOT
BRANCH   1   8
ATOM      8  C1  UNL d   1       1.166   0.927   0.873  0.00  0.00     0.053 C 
ATOM      9  C   UNL d   1       1.915   2.250   0.887  0.00  0.00     0.018 C 
ENDBRANCH   1   8
TORSDOF 1
ENDMDL
