MODEL 1
REMARK minimizedAffinity -0.975140572
REMARK minimizedRMSD -1
REMARK  0 active torsions:
REMARK  status: ('A' for Active; 'I' for Inactive)
ROOT
ATOM      1  C4' PXY d   1      -1.815  -0.181   0.459  0.00  0.00     0.077 C 
ATOM      2  C1' PXY d   1       2.629   3.309   1.682  0.00  0.00     0.077 C 
ATOM      3  C1  PXY d   1       1.471   2.386   1.354  0.00  0.00    -0.082 A 
ATOM      4  C2  PXY d   1       0.230   2.835   1.449  0.00  0.00     0.003 A 
ATOM      5  C3  PXY d   1      -0.829   2.005   1.187  0.00  0.00     0.003 A 
ATOM      6  C4  PXY d   1      -0.615   0.718   0.771  0.00  0.00    -0.082 A 
ATOM      7  C5  PXY d   1       0.649   0.256   0.661  0.00  0.00     0.003 A 
ATOM      8  C6  PXY d   1       1.709   1.102   0.972  0.00  0.00     0.003 A 
ENDROOT
TORSDOF 0
ENDMDL
