MODEL 1
REMARK minimizedAffinity -0.116848253
REMARK minimizedRMSD -1
REMARK  0 active torsions:
REMARK  status: ('A' for Active; 'I' for Inactive)
ROOT
ATOM      1  C4' PXY d   1      -5.722   5.943  -6.000  0.00  0.00     0.077 C 
ATOM      2  C1' PXY d   1      -1.189   2.356  -5.954  0.00  0.00     0.077 C 
ATOM      3  C1  PXY d   1      -2.370   3.306  -5.961  0.00  0.00    -0.082 A 
ATOM      4  C2  PXY d   1      -3.601   2.820  -5.940  0.00  0.00     0.003 A 
ATOM      5  C3  PXY d   1      -4.681   3.665  -5.978  0.00  0.00     0.003 A 
ATOM      6  C4  PXY d   1      -4.499   5.022  -5.984  0.00  0.00    -0.082 A 
ATOM      7  C5  PXY d   1      -3.247   5.525  -5.995  0.00  0.00     0.003 A 
ATOM      8  C6  PXY d   1      -2.164   4.651  -5.997  0.00  0.00     0.003 A 
ENDROOT
TORSDOF 0
ENDMDL
