MODEL 1
REMARK minimizedAffinity 0.710178554
REMARK minimizedRMSD -1
REMARK  0 active torsions:
REMARK  status: ('A' for Active; 'I' for Inactive)
ROOT
ATOM      1  C4' PXY d   1       1.685   0.342   0.612  0.00  0.00     0.077 C 
ATOM      2  C1' PXY d   1      -4.043   0.967   1.071  0.00  0.00     0.077 C 
ATOM      3  C1  PXY d   1      -2.540   0.814   0.944  0.00  0.00    -0.082 A 
ATOM      4  C2  PXY d   1      -1.994  -0.387   1.041  0.00  0.00     0.003 A 
ATOM      5  C3  PXY d   1      -0.634  -0.539   0.960  0.00  0.00     0.003 A 
ATOM      6  C4  PXY d   1       0.171   0.543   0.724  0.00  0.00    -0.082 A 
ATOM      7  C5  PXY d   1      -0.379   1.770   0.614  0.00  0.00     0.003 A 
ATOM      8  C6  PXY d   1      -1.758   1.909   0.740  0.00  0.00     0.003 A 
ENDROOT
TORSDOF 0
ENDMDL
