MODEL 1
REMARK minimizedAffinity 2.59850693
REMARK minimizedRMSD -1
REMARK  0 active torsions:
REMARK  status: ('A' for Active; 'I' for Inactive)
ROOT
ATOM      1  C4' PXY d   1      -1.816   2.814   0.465  0.00  0.00     0.077 C 
ATOM      2  C1' PXY d   1       2.201   3.603   4.546  0.00  0.00     0.077 C 
ATOM      3  C1  PXY d   1       1.139   3.392   3.485  0.00  0.00    -0.082 A 
ATOM      4  C2  PXY d   1       1.501   3.185   2.229  0.00  0.00     0.003 A 
ATOM      5  C3  PXY d   1       0.554   3.024   1.252  0.00  0.00     0.003 A 
ATOM      6  C4  PXY d   1      -0.778   3.022   1.571  0.00  0.00    -0.082 A 
ATOM      7  C5  PXY d   1      -1.155   3.222   2.852  0.00  0.00     0.003 A 
ATOM      8  C6  PXY d   1      -0.179   3.424   3.823  0.00  0.00     0.003 A 
ENDROOT
TORSDOF 0
ENDMDL
