MODEL 1
REMARK minimizedAffinity 9.96413517
REMARK minimizedRMSD -1
REMARK  0 active torsions:
REMARK  status: ('A' for Active; 'I' for Inactive)
ROOT
ATOM      1  C4' PXY d   1      -3.635   0.532   0.221  0.00  0.00     0.077 C 
ATOM      2  C1' PXY d   1       1.189   3.390   1.625  0.00  0.00     0.077 C 
ATOM      3  C1  PXY d   1      -0.069   2.635   1.247  0.00  0.00    -0.082 A 
ATOM      4  C2  PXY d   1      -1.251   3.111   1.605  0.00  0.00     0.003 A 
ATOM      5  C3  PXY d   1      -2.397   2.425   1.299  0.00  0.00     0.003 A 
ATOM      6  C4  PXY d   1      -2.338   1.266   0.573  0.00  0.00    -0.082 A 
ATOM      7  C5  PXY d   1      -1.137   0.779   0.194  0.00  0.00     0.003 A 
ATOM      8  C6  PXY d   1       0.017   1.469   0.550  0.00  0.00     0.003 A 
ENDROOT
TORSDOF 0
ENDMDL
