MODEL 1
REMARK minimizedAffinity 0.105262309
REMARK minimizedRMSD -1
REMARK  0 active torsions:
REMARK  status: ('A' for Active; 'I' for Inactive)
ROOT
ATOM      1  C4' PXY d   1       2.423   3.076   2.097  0.00  0.00     0.077 C 
ATOM      2  C1' PXY d   1      -2.057  -0.053   0.211  0.00  0.00     0.077 C 
ATOM      3  C1  PXY d   1      -0.874   0.757   0.706  0.00  0.00    -0.082 A 
ATOM      4  C2  PXY d   1      -1.084   1.892   1.352  0.00  0.00     0.003 A 
ATOM      5  C3  PXY d   1      -0.026   2.653   1.778  0.00  0.00     0.003 A 
ATOM      6  C4  PXY d   1       1.260   2.221   1.588  0.00  0.00    -0.082 A 
ATOM      7  C5  PXY d   1       1.481   1.058   0.938  0.00  0.00     0.003 A 
ATOM      8  C6  PXY d   1       0.394   0.321   0.477  0.00  0.00     0.003 A 
ENDROOT
TORSDOF 0
ENDMDL
