MODEL 1
REMARK minimizedAffinity 8.63286018
REMARK minimizedRMSD -1
REMARK  0 active torsions:
REMARK  status: ('A' for Active; 'I' for Inactive)
ROOT
ATOM      1  C4' PXY d   1      -0.245   2.979   2.340  0.00  0.00     0.077 C 
ATOM      2  C1' PXY d   1       2.018  -1.001  -1.190  0.00  0.00     0.077 C 
ATOM      3  C1  PXY d   1       1.413   0.041  -0.270  0.00  0.00    -0.082 A 
ATOM      4  C2  PXY d   1       2.194   0.945   0.298  0.00  0.00     0.003 A 
ATOM      5  C3  PXY d   1       1.668   1.875   1.157  0.00  0.00     0.003 A 
ATOM      6  C4  PXY d   1       0.321   1.913   1.397  0.00  0.00    -0.082 A 
ATOM      7  C5  PXY d   1      -0.485   1.001   0.813  0.00  0.00     0.003 A 
ATOM      8  C6  PXY d   1       0.074   0.040  -0.024  0.00  0.00     0.003 A 
ENDROOT
TORSDOF 0
ENDMDL
