MODEL 1
REMARK minimizedAffinity 10.0177641
REMARK minimizedRMSD -1
REMARK  0 active torsions:
REMARK  status: ('A' for Active; 'I' for Inactive)
ROOT
ATOM      1  C4' PXY d   1       2.949   4.556   2.931  0.00  0.00     0.077 C 
ATOM      2  C1' PXY d   1       0.079   0.616  -0.176  0.00  0.00     0.077 C 
ATOM      3  C1  PXY d   1       0.821   1.657   0.639  0.00  0.00    -0.082 A 
ATOM      4  C2  PXY d   1       2.144   1.675   0.627  0.00  0.00     0.003 A 
ATOM      5  C3  PXY d   1       2.832   2.590   1.382  0.00  0.00     0.003 A 
ATOM      6  C4  PXY d   1       2.158   3.529   2.116  0.00  0.00    -0.082 A 
ATOM      7  C5  PXY d   1       0.808   3.523   2.125  0.00  0.00     0.003 A 
ATOM      8  C6  PXY d   1       0.129   2.561   1.384  0.00  0.00     0.003 A 
ENDROOT
TORSDOF 0
ENDMDL
