MODEL 1
REMARK minimizedAffinity 4.60804367
REMARK minimizedRMSD -1
REMARK  0 active torsions:
REMARK  status: ('A' for Active; 'I' for Inactive)
ROOT
ATOM      1  C4' PXY d   1      -2.127   0.489   0.384  0.00  0.00     0.077 C 
ATOM      2  C1' PXY d   1       2.378   3.480   2.426  0.00  0.00     0.077 C 
ATOM      3  C1  PXY d   1       1.203   2.693   1.880  0.00  0.00    -0.082 A 
ATOM      4  C2  PXY d   1      -0.024   2.992   2.272  0.00  0.00     0.003 A 
ATOM      5  C3  PXY d   1      -1.095   2.269   1.813  0.00  0.00     0.003 A 
ATOM      6  C4  PXY d   1      -0.912   1.264   0.902  0.00  0.00    -0.082 A 
ATOM      7  C5  PXY d   1       0.336   0.959   0.489  0.00  0.00     0.003 A 
ATOM      8  C6  PXY d   1       1.414   1.678   0.999  0.00  0.00     0.003 A 
ENDROOT
TORSDOF 0
ENDMDL
