MODEL 1
REMARK minimizedAffinity 5.07944202
REMARK minimizedRMSD -1
REMARK  0 active torsions:
REMARK  status: ('A' for Active; 'I' for Inactive)
ROOT
ATOM      1  C4' PXY d   1       2.186  -0.371  -0.454  0.00  0.00     0.077 C 
ATOM      2  C1' PXY d   1      -3.146  -0.009   1.748  0.00  0.00     0.077 C 
ATOM      3  C1  PXY d   1      -1.750  -0.092   1.164  0.00  0.00    -0.082 A 
ATOM      4  C2  PXY d   1      -1.148  -1.267   1.073  0.00  0.00     0.003 A 
ATOM      5  C3  PXY d   1       0.127  -1.357   0.577  0.00  0.00     0.003 A 
ATOM      6  C4  PXY d   1       0.773  -0.240   0.120  0.00  0.00    -0.082 A 
ATOM      7  C5  PXY d   1       0.162   0.961   0.199  0.00  0.00     0.003 A 
ATOM      8  C6  PXY d   1      -1.117   1.037   0.744  0.00  0.00     0.003 A 
ENDROOT
TORSDOF 0
ENDMDL
