MODEL 1
REMARK minimizedAffinity 1.98304605
REMARK minimizedRMSD -1
REMARK  0 active torsions:
REMARK  status: ('A' for Active; 'I' for Inactive)
ROOT
ATOM      1  C4' PXY d   1       2.039   1.522   1.476  0.00  0.00     0.077 C 
ATOM      2  C1' PXY d   1      -3.547   1.025   0.077  0.00  0.00     0.077 C 
ATOM      3  C1  PXY d   1      -2.083   1.144   0.450  0.00  0.00    -0.082 A 
ATOM      4  C2  PXY d   1      -1.519   2.339   0.511  0.00  0.00     0.003 A 
ATOM      5  C3  PXY d   1      -0.187   2.462   0.816  0.00  0.00     0.003 A 
ATOM      6  C4  PXY d   1       0.561   1.355   1.113  0.00  0.00    -0.082 A 
ATOM      7  C5  PXY d   1      -0.010   0.133   1.063  0.00  0.00     0.003 A 
ATOM      8  C6  PXY d   1      -1.352   0.026   0.711  0.00  0.00     0.003 A 
ENDROOT
TORSDOF 0
ENDMDL
