MODEL 1
REMARK minimizedAffinity -2.55746222
REMARK minimizedRMSD -1
REMARK  0 active torsions:
REMARK  status: ('A' for Active; 'I' for Inactive)
ROOT
ATOM      1  C4' PXY d   1       2.705   2.950   2.149  0.00  0.00     0.077 C 
ATOM      2  C1' PXY d   1      -2.366   0.825   0.365  0.00  0.00     0.077 C 
ATOM      3  C1  PXY d   1      -1.032   1.370   0.836  0.00  0.00    -0.082 A 
ATOM      4  C2  PXY d   1      -0.943   2.630   1.230  0.00  0.00     0.003 A 
ATOM      5  C3  PXY d   1       0.263   3.149   1.629  0.00  0.00     0.003 A 
ATOM      6  C4  PXY d   1       1.377   2.355   1.675  0.00  0.00    -0.082 A 
ATOM      7  C5  PXY d   1       1.292   1.065   1.284  0.00  0.00     0.003 A 
ATOM      8  C6  PXY d   1       0.068   0.569   0.844  0.00  0.00     0.003 A 
ENDROOT
TORSDOF 0
ENDMDL
