MODEL 1
REMARK minimizedAffinity -0.422774255
REMARK minimizedRMSD -1
REMARK  0 active torsions:
REMARK  status: ('A' for Active; 'I' for Inactive)
ROOT
ATOM      1  C4' PXY d   1       3.044   2.558   2.299  0.00  0.00     0.077 C 
ATOM      2  C1' PXY d   1      -2.075   0.928   0.165  0.00  0.00     0.077 C 
ATOM      3  C1  PXY d   1      -0.728   1.343   0.725  0.00  0.00    -0.082 A 
ATOM      4  C2  PXY d   1      -0.616   2.490   1.376  0.00  0.00     0.003 A 
ATOM      5  C3  PXY d   1       0.601   2.896   1.860  0.00  0.00     0.003 A 
ATOM      6  C4  PXY d   1       1.703   2.095   1.725  0.00  0.00    -0.082 A 
ATOM      7  C5  PXY d   1       1.594   0.918   1.071  0.00  0.00     0.003 A 
ATOM      8  C6  PXY d   1       0.359   0.544   0.551  0.00  0.00     0.003 A 
ENDROOT
TORSDOF 0
ENDMDL
