MODEL 1
REMARK minimizedAffinity 7.6072197
REMARK minimizedRMSD -1
REMARK  0 active torsions:
REMARK  status: ('A' for Active; 'I' for Inactive)
ROOT
ATOM      1  C4' PXY d   1      -1.747  -0.483  -0.542  0.00  0.00     0.077 C 
ATOM      2  C1' PXY d   1      -2.032   3.209   3.897  0.00  0.00     0.077 C 
ATOM      3  C1  PXY d   1      -1.959   2.250   2.725  0.00  0.00    -0.082 A 
ATOM      4  C2  PXY d   1      -2.201   0.964   2.916  0.00  0.00     0.003 A 
ATOM      5  C3  PXY d   1      -2.108   0.078   1.873  0.00  0.00     0.003 A 
ATOM      6  C4  PXY d   1      -1.818   0.522   0.611  0.00  0.00    -0.082 A 
ATOM      7  C5  PXY d   1      -1.581   1.835   0.406  0.00  0.00     0.003 A 
ATOM      8  C6  PXY d   1      -1.639   2.712   1.485  0.00  0.00     0.003 A 
ENDROOT
TORSDOF 0
ENDMDL
