MODEL 1
REMARK minimizedAffinity 3.80900311
REMARK minimizedRMSD -1
REMARK  0 active torsions:
REMARK  status: ('A' for Active; 'I' for Inactive)
ROOT
ATOM      1  C4' PXY d   1      -0.803  -2.581  -1.747  0.00  0.00     0.077 C 
ATOM      2  C1' PXY d   1      -4.724  -5.998   0.775  0.00  0.00     0.077 C 
ATOM      3  C1  PXY d   1      -3.705  -5.093   0.111  0.00  0.00    -0.082 A 
ATOM      4  C2  PXY d   1      -2.578  -5.607  -0.352  0.00  0.00     0.003 A 
ATOM      5  C3  PXY d   1      -1.631  -4.798  -0.927  0.00  0.00     0.003 A 
ATOM      6  C4  PXY d   1      -1.865  -3.458  -1.077  0.00  0.00    -0.082 A 
ATOM      7  C5  PXY d   1      -3.017  -2.927  -0.617  0.00  0.00     0.003 A 
ATOM      8  C6  PXY d   1      -3.947  -3.758   0.001  0.00  0.00     0.003 A 
ENDROOT
TORSDOF 0
ENDMDL
