MODEL 1
REMARK minimizedAffinity 6.64686346
REMARK minimizedRMSD -1
REMARK  0 active torsions:
REMARK  status: ('A' for Active; 'I' for Inactive)
ROOT
ATOM      1  C4' PXY d   1       2.102   2.630   2.281  0.00  0.00     0.077 C 
ATOM      2  C1' PXY d   1      -2.802   0.490   0.093  0.00  0.00     0.077 C 
ATOM      3  C1  PXY d   1      -1.511   1.039   0.668  0.00  0.00    -0.082 A 
ATOM      4  C2  PXY d   1      -1.509   2.225   1.254  0.00  0.00     0.003 A 
ATOM      5  C3  PXY d   1      -0.344   2.751   1.751  0.00  0.00     0.003 A 
ATOM      6  C4  PXY d   1       0.820   2.032   1.695  0.00  0.00    -0.082 A 
ATOM      7  C5  PXY d   1       0.824   0.817   1.107  0.00  0.00     0.003 A 
ATOM      8  C6  PXY d   1      -0.361   0.319   0.572  0.00  0.00     0.003 A 
ENDROOT
TORSDOF 0
ENDMDL
