MODEL 1
REMARK minimizedAffinity 7.66792011
REMARK minimizedRMSD -1
REMARK  0 active torsions:
REMARK  status: ('A' for Active; 'I' for Inactive)
ROOT
ATOM      1  C4' PXY d   1       2.344   0.520   0.664  0.00  0.00     0.077 C 
ATOM      2  C1' PXY d   1      -3.374   1.368   0.633  0.00  0.00     0.077 C 
ATOM      3  C1  PXY d   1      -1.877   1.133   0.645  0.00  0.00    -0.082 A 
ATOM      4  C2  PXY d   1      -1.056   2.151   0.847  0.00  0.00     0.003 A 
ATOM      5  C3  PXY d   1       0.301   1.962   0.829  0.00  0.00     0.003 A 
ATOM      6  C4  PXY d   1       0.824   0.709   0.654  0.00  0.00    -0.082 A 
ATOM      7  C5  PXY d   1      -0.006  -0.337   0.458  0.00  0.00     0.003 A 
ATOM      8  C6  PXY d   1      -1.381  -0.117   0.439  0.00  0.00     0.003 A 
ENDROOT
TORSDOF 0
ENDMDL
