MODEL 1
REMARK minimizedAffinity 3.05986214
REMARK minimizedRMSD -1
REMARK  0 active torsions:
REMARK  status: ('A' for Active; 'I' for Inactive)
ROOT
ATOM      1  C4' PXY d   1       2.863  -0.141  -2.630  0.00  0.00     0.077 C 
ATOM      2  C1' PXY d   1       4.119   3.089   1.996  0.00  0.00     0.077 C 
ATOM      3  C1  PXY d   1       3.782   2.235   0.790  0.00  0.00    -0.082 A 
ATOM      4  C2  PXY d   1       4.639   2.153  -0.214  0.00  0.00     0.003 A 
ATOM      5  C3  PXY d   1       4.336   1.410  -1.326  0.00  0.00     0.003 A 
ATOM      6  C4  PXY d   1       3.166   0.702  -1.388  0.00  0.00    -0.082 A 
ATOM      7  C5  PXY d   1       2.291   0.772  -0.363  0.00  0.00     0.003 A 
ATOM      8  C6  PXY d   1       2.599   1.564   0.739  0.00  0.00     0.003 A 
ENDROOT
TORSDOF 0
ENDMDL
