MODEL 1
REMARK minimizedAffinity 7.20599127
REMARK minimizedRMSD -1
REMARK  0 active torsions:
REMARK  status: ('A' for Active; 'I' for Inactive)
ROOT
ATOM      1  C4' PXY d   1       2.012   0.626  -0.481  0.00  0.00     0.077 C 
ATOM      2  C1' PXY d   1      -3.479   0.257   1.287  0.00  0.00     0.077 C 
ATOM      3  C1  PXY d   1      -2.042   0.366   0.819  0.00  0.00    -0.082 A 
ATOM      4  C2  PXY d   1      -1.343  -0.735   0.591  0.00  0.00     0.003 A 
ATOM      5  C3  PXY d   1      -0.032  -0.655   0.198  0.00  0.00     0.003 A 
ATOM      6  C4  PXY d   1       0.554   0.564  -0.016  0.00  0.00    -0.082 A 
ATOM      7  C5  PXY d   1      -0.155   1.691   0.204  0.00  0.00     0.003 A 
ATOM      8  C6  PXY d   1      -1.472   1.589   0.642  0.00  0.00     0.003 A 
ENDROOT
TORSDOF 0
ENDMDL
