MODEL 1
REMARK minimizedAffinity -0.166347936
REMARK minimizedRMSD -1
REMARK  0 active torsions:
REMARK  status: ('A' for Active; 'I' for Inactive)
ROOT
ATOM      1  C4' PXY d   1       2.764   2.609   1.696  0.00  0.00     0.077 C 
ATOM      2  C1' PXY d   1      -2.613   0.871   0.482  0.00  0.00     0.077 C 
ATOM      3  C1  PXY d   1      -1.200   1.314   0.803  0.00  0.00    -0.082 A 
ATOM      4  C2  PXY d   1      -0.981   2.548   1.227  0.00  0.00     0.003 A 
ATOM      5  C3  PXY d   1       0.294   2.975   1.491  0.00  0.00     0.003 A 
ATOM      6  C4  PXY d   1       1.352   2.115   1.370  0.00  0.00    -0.082 A 
ATOM      7  C5  PXY d   1       1.137   0.851   0.947  0.00  0.00     0.003 A 
ATOM      8  C6  PXY d   1      -0.161   0.449   0.645  0.00  0.00     0.003 A 
ENDROOT
TORSDOF 0
ENDMDL
