MODEL 1
REMARK minimizedAffinity -4.16114044
REMARK minimizedRMSD -1
REMARK  1 active torsions:
REMARK  status: ('A' for Active; 'I' for Inactive)
REMARK    1  A    between atoms: C3_4  and  O_7 
ROOT
ATOM      1  C   UNL d   1       1.173  -1.096  -1.401  0.00  0.00    -0.033 A 
ATOM      2  C1  UNL d   1       0.378  -0.856  -0.278  0.00  0.00     0.039 A 
ATOM      3  C2  UNL d   1       0.421   0.387   0.357  0.00  0.00    -0.080 A 
ATOM      4  C3  UNL d   1       1.261   1.379  -0.140  0.00  0.00     0.150 A 
ATOM      5  C4  UNL d   1       2.053   1.148  -1.261  0.00  0.00    -0.007 A 
ATOM      6  C5  UNL d   1       2.009  -0.093  -1.893  0.00  0.00     0.039 A 
ENDROOT
BRANCH   4   7
ATOM      7  O   UNL d   1       1.341   2.606   0.449  0.00  0.00    -0.526 OA
ATOM      8  H5  UNL d   1       0.760   2.612   1.228  0.00  0.00     0.418 HD
ENDBRANCH   4   7
TORSDOF 1
ENDMDL
