MODEL 1
REMARK minimizedAffinity 0.344762355
REMARK minimizedRMSD -1
REMARK  1 active torsions:
REMARK  status: ('A' for Active; 'I' for Inactive)
REMARK    1  A    between atoms: C3_4  and  O_7 
ROOT
ATOM      1  C   UNL d   1      -0.645  -1.294   0.612  0.00  0.00    -0.033 A 
ATOM      2  C1  UNL d   1       0.014  -2.297  -0.101  0.00  0.00     0.039 A 
ATOM      3  C2  UNL d   1       0.716  -1.981  -1.266  0.00  0.00    -0.080 A 
ATOM      4  C3  UNL d   1       0.754  -0.661  -1.704  0.00  0.00     0.150 A 
ATOM      5  C4  UNL d   1       0.104   0.345  -0.996  0.00  0.00    -0.007 A 
ATOM      6  C5  UNL d   1      -0.598   0.027   0.166  0.00  0.00     0.039 A 
ENDROOT
BRANCH   4   7
ATOM      7  O   UNL d   1       1.423  -0.305  -2.838  0.00  0.00    -0.526 OA
ATOM      8  H5  UNL d   1       1.799  -1.107  -3.237  0.00  0.00     0.418 HD
ENDBRANCH   4   7
TORSDOF 1
ENDMDL
