MODEL 1
REMARK minimizedAffinity -4.57621479
REMARK minimizedRMSD -1
REMARK  1 active torsions:
REMARK  status: ('A' for Active; 'I' for Inactive)
REMARK    1  A    between atoms: C3_4  and  O_7 
ROOT
ATOM      1  C   UNL d   1       0.499   0.023   0.235  0.00  0.00    -0.033 A 
ATOM      2  C1  UNL d   1       0.490  -1.236  -0.368  0.00  0.00     0.039 A 
ATOM      3  C2  UNL d   1       1.086  -1.418  -1.618  0.00  0.00    -0.080 A 
ATOM      4  C3  UNL d   1       1.686  -0.334  -2.253  0.00  0.00     0.150 A 
ATOM      5  C4  UNL d   1       1.701   0.922  -1.656  0.00  0.00    -0.007 A 
ATOM      6  C5  UNL d   1       1.106   1.102  -0.409  0.00  0.00     0.039 A 
ENDROOT
BRANCH   4   7
ATOM      7  O   UNL d   1       2.276  -0.461  -3.475  0.00  0.00    -0.526 OA
ATOM      8  H5  UNL d   1       2.163  -1.378  -3.777  0.00  0.00     0.418 HD
ENDBRANCH   4   7
TORSDOF 1
ENDMDL
