MODEL 1
REMARK minimizedAffinity -3.96945739
REMARK minimizedRMSD -1
REMARK  1 active torsions:
REMARK  status: ('A' for Active; 'I' for Inactive)
REMARK    1  A    between atoms: C3_4  and  O_7 
ROOT
ATOM      1  C   UNL d   1       0.991   0.026  -2.327  0.00  0.00    -0.033 A 
ATOM      2  C1  UNL d   1       2.277   0.549  -2.183  0.00  0.00     0.039 A 
ATOM      3  C2  UNL d   1       2.584   1.363  -1.090  0.00  0.00    -0.080 A 
ATOM      4  C3  UNL d   1       1.597   1.645  -0.150  0.00  0.00     0.150 A 
ATOM      5  C4  UNL d   1       0.314   1.124  -0.285  0.00  0.00    -0.007 A 
ATOM      6  C5  UNL d   1       0.009   0.312  -1.377  0.00  0.00     0.039 A 
ENDROOT
BRANCH   4   7
ATOM      7  O   UNL d   1       1.847   2.438   0.930  0.00  0.00    -0.526 OA
ATOM      8  H5  UNL d   1       2.766   2.749   0.877  0.00  0.00     0.418 HD
ENDBRANCH   4   7
TORSDOF 1
ENDMDL
