MODEL 1
REMARK minimizedAffinity -0.650850236
REMARK minimizedRMSD -1
REMARK  1 active torsions:
REMARK  status: ('A' for Active; 'I' for Inactive)
REMARK    1  A    between atoms: C3_4  and  O_7 
ROOT
ATOM      1  C   UNL d   1       0.850  -1.332  -1.054  0.00  0.00    -0.033 A 
ATOM      2  C1  UNL d   1       0.520  -2.118   0.051  0.00  0.00     0.039 A 
ATOM      3  C2  UNL d   1      -0.379  -1.641   1.006  0.00  0.00    -0.080 A 
ATOM      4  C3  UNL d   1      -0.943  -0.378   0.844  0.00  0.00     0.150 A 
ATOM      5  C4  UNL d   1      -0.622   0.409  -0.257  0.00  0.00    -0.007 A 
ATOM      6  C5  UNL d   1       0.277  -0.069  -1.209  0.00  0.00     0.039 A 
ENDROOT
BRANCH   4   7
ATOM      7  O   UNL d   1      -1.822   0.132   1.752  0.00  0.00    -0.526 OA
ATOM      8  H5  UNL d   1      -1.927  -0.511   2.474  0.00  0.00     0.418 HD
ENDBRANCH   4   7
TORSDOF 1
ENDMDL
