MODEL 1
REMARK minimizedAffinity -3.30642509
REMARK minimizedRMSD -1
REMARK  1 active torsions:
REMARK  status: ('A' for Active; 'I' for Inactive)
REMARK    1  A    between atoms: C3_4  and  O_7 
ROOT
ATOM      1  C   UNL d   1      -0.060  -0.166   1.030  0.00  0.00    -0.033 A 
ATOM      2  C1  UNL d   1       0.441   1.132   1.146  0.00  0.00     0.039 A 
ATOM      3  C2  UNL d   1       1.271   1.653   0.151  0.00  0.00    -0.080 A 
ATOM      4  C3  UNL d   1       1.590   0.868  -0.954  0.00  0.00     0.150 A 
ATOM      5  C4  UNL d   1       1.090  -0.424  -1.078  0.00  0.00    -0.007 A 
ATOM      6  C5  UNL d   1       0.263  -0.944  -0.083  0.00  0.00     0.039 A 
ENDROOT
BRANCH   4   7
ATOM      7  O   UNL d   1       2.400   1.332  -1.947  0.00  0.00    -0.526 OA
ATOM      8  H5  UNL d   1       2.692   2.228  -1.713  0.00  0.00     0.418 HD
ENDBRANCH   4   7
TORSDOF 1
ENDMDL
