MODEL 1
REMARK minimizedAffinity -2.1384232
REMARK minimizedRMSD -1
REMARK  1 active torsions:
REMARK  status: ('A' for Active; 'I' for Inactive)
REMARK    1  A    between atoms: C3_4  and  O_7 
ROOT
ATOM      1  C   UNL d   1      -0.258  -0.392   0.577  0.00  0.00    -0.033 A 
ATOM      2  C1  UNL d   1       0.086   0.957   0.473  0.00  0.00     0.039 A 
ATOM      3  C2  UNL d   1       1.005   1.372  -0.493  0.00  0.00    -0.080 A 
ATOM      4  C3  UNL d   1       1.571   0.430  -1.348  0.00  0.00     0.150 A 
ATOM      5  C4  UNL d   1       1.230  -0.915  -1.252  0.00  0.00    -0.007 A 
ATOM      6  C5  UNL d   1       0.313  -1.328  -0.286  0.00  0.00     0.039 A 
ENDROOT
BRANCH   4   7
ATOM      7  O   UNL d   1       2.476   0.786  -2.302  0.00  0.00    -0.526 OA
ATOM      8  H5  UNL d   1       2.637   1.742  -2.232  0.00  0.00     0.418 HD
ENDBRANCH   4   7
TORSDOF 1
ENDMDL
