MODEL 1
REMARK minimizedAffinity -2.41276312
REMARK minimizedRMSD -1
REMARK  1 active torsions:
REMARK  status: ('A' for Active; 'I' for Inactive)
REMARK    1  A    between atoms: C3_4  and  O_7 
ROOT
ATOM      1  C   UNL d   1      -5.007   5.322  -5.910  0.00  0.00    -0.033 A 
ATOM      2  C1  UNL d   1      -3.673   5.731  -5.862  0.00  0.00     0.039 A 
ATOM      3  C2  UNL d   1      -2.648   4.783  -5.881  0.00  0.00    -0.080 A 
ATOM      4  C3  UNL d   1      -2.971   3.430  -5.948  0.00  0.00     0.150 A 
ATOM      5  C4  UNL d   1      -4.297   3.015  -6.000  0.00  0.00    -0.007 A 
ATOM      6  C5  UNL d   1      -5.319   3.964  -5.980  0.00  0.00     0.039 A 
ENDROOT
BRANCH   4   7
ATOM      7  O   UNL d   1      -2.005   2.468  -5.964  0.00  0.00    -0.526 OA
ATOM      8  H5  UNL d   1      -1.138   2.901  -5.894  0.00  0.00     0.418 HD
ENDBRANCH   4   7
TORSDOF 1
ENDMDL
