MODEL 1
REMARK minimizedAffinity -3.95163298
REMARK minimizedRMSD -1
REMARK  1 active torsions:
REMARK  status: ('A' for Active; 'I' for Inactive)
REMARK    1  A    between atoms: C3_4  and  O_7 
ROOT
ATOM      1  C   UNL d   1       0.291  -0.033   0.369  0.00  0.00    -0.033 A 
ATOM      2  C1  UNL d   1       0.184  -1.162  -0.446  0.00  0.00     0.039 A 
ATOM      3  C2  UNL d   1       0.760  -1.164  -1.718  0.00  0.00    -0.080 A 
ATOM      4  C3  UNL d   1       1.439  -0.033  -2.162  0.00  0.00     0.150 A 
ATOM      5  C4  UNL d   1       1.553   1.093  -1.355  0.00  0.00    -0.007 A 
ATOM      6  C5  UNL d   1       0.977   1.094  -0.085  0.00  0.00     0.039 A 
ENDROOT
BRANCH   4   7
ATOM      7  O   UNL d   1       2.013   0.013  -3.398  0.00  0.00    -0.526 OA
ATOM      8  H5  UNL d   1       1.830  -0.825  -3.854  0.00  0.00     0.418 HD
ENDBRANCH   4   7
TORSDOF 1
ENDMDL
