MODEL 1
REMARK minimizedAffinity -5.01347971
REMARK minimizedRMSD -1
REMARK  1 active torsions:
REMARK  status: ('A' for Active; 'I' for Inactive)
REMARK    1  A    between atoms: C3_4  and  O_7 
ROOT
ATOM      1  C   UNL d   1       1.688   0.008  -2.898  0.00  0.00    -0.033 A 
ATOM      2  C1  UNL d   1       1.987   0.540  -1.642  0.00  0.00     0.039 A 
ATOM      3  C2  UNL d   1       1.007   0.584  -0.650  0.00  0.00    -0.080 A 
ATOM      4  C3  UNL d   1      -0.267   0.093  -0.924  0.00  0.00     0.150 A 
ATOM      5  C4  UNL d   1      -0.571  -0.442  -2.172  0.00  0.00    -0.007 A 
ATOM      6  C5  UNL d   1       0.410  -0.484  -3.162  0.00  0.00     0.039 A 
ENDROOT
BRANCH   4   7
ATOM      7  O   UNL d   1      -1.258   0.120   0.011  0.00  0.00    -0.526 OA
ATOM      8  H5  UNL d   1      -0.912   0.543   0.815  0.00  0.00     0.418 HD
ENDBRANCH   4   7
TORSDOF 1
ENDMDL
