MODEL 1
REMARK minimizedAffinity -1.82958019
REMARK minimizedRMSD -1
REMARK  1 active torsions:
REMARK  status: ('A' for Active; 'I' for Inactive)
REMARK    1  A    between atoms: C3_4  and  O_7 
ROOT
ATOM      1  C   UNL d   1      -0.064  -1.239   0.713  0.00  0.00    -0.033 A 
ATOM      2  C1  UNL d   1       0.126   0.122   0.470  0.00  0.00     0.039 A 
ATOM      3  C2  UNL d   1       0.433   0.567  -0.817  0.00  0.00    -0.080 A 
ATOM      4  C3  UNL d   1       0.547  -0.359  -1.851  0.00  0.00     0.150 A 
ATOM      5  C4  UNL d   1       0.356  -1.716  -1.616  0.00  0.00    -0.007 A 
ATOM      6  C5  UNL d   1       0.050  -2.159  -0.330  0.00  0.00     0.039 A 
ENDROOT
BRANCH   4   7
ATOM      7  O   UNL d   1       0.851   0.027  -3.123  0.00  0.00    -0.526 OA
ATOM      8  H5  UNL d   1       0.983   0.990  -3.129  0.00  0.00     0.418 HD
ENDBRANCH   4   7
TORSDOF 1
ENDMDL
