MODEL 1
REMARK minimizedAffinity -4.2382679
REMARK minimizedRMSD -1
REMARK  1 active torsions:
REMARK  status: ('A' for Active; 'I' for Inactive)
REMARK    1  A    between atoms: C3_4  and  O_7 
ROOT
ATOM      1  C   UNL d   1       0.876   0.686  -2.051  0.00  0.00    -0.033 A 
ATOM      2  C1  UNL d   1       0.691  -0.661  -2.366  0.00  0.00     0.039 A 
ATOM      3  C2  UNL d   1       0.557  -1.606  -1.347  0.00  0.00    -0.080 A 
ATOM      4  C3  UNL d   1       0.608  -1.191  -0.019  0.00  0.00     0.150 A 
ATOM      5  C4  UNL d   1       0.788   0.150   0.302  0.00  0.00    -0.007 A 
ATOM      6  C5  UNL d   1       0.923   1.092  -0.717  0.00  0.00     0.039 A 
ENDROOT
BRANCH   4   7
ATOM      7  O   UNL d   1       0.487  -2.077   1.010  0.00  0.00    -0.526 OA
ATOM      8  H5  UNL d   1       0.397  -2.970   0.638  0.00  0.00     0.418 HD
ENDBRANCH   4   7
TORSDOF 1
ENDMDL
