MODEL 1
REMARK minimizedAffinity -1.94774616
REMARK minimizedRMSD -1
REMARK  1 active torsions:
REMARK  status: ('A' for Active; 'I' for Inactive)
REMARK    1  A    between atoms: C3_4  and  O_7 
ROOT
ATOM      1  C   UNL d   1      -0.044  -0.422   1.227  0.00  0.00    -0.033 A 
ATOM      2  C1  UNL d   1      -0.200  -1.581   0.464  0.00  0.00     0.039 A 
ATOM      3  C2  UNL d   1       0.080  -1.562  -0.904  0.00  0.00    -0.080 A 
ATOM      4  C3  UNL d   1       0.515  -0.380  -1.496  0.00  0.00     0.150 A 
ATOM      5  C4  UNL d   1       0.676   0.778  -0.741  0.00  0.00    -0.007 A 
ATOM      6  C5  UNL d   1       0.395   0.757   0.624  0.00  0.00     0.039 A 
ENDROOT
BRANCH   4   7
ATOM      7  O   UNL d   1       0.796  -0.311  -2.828  0.00  0.00    -0.526 OA
ATOM      8  H5  UNL d   1       0.612  -1.178  -3.226  0.00  0.00     0.418 HD
ENDBRANCH   4   7
TORSDOF 1
ENDMDL
