MODEL 1
REMARK minimizedAffinity -0.882475317
REMARK minimizedRMSD -1
REMARK  1 active torsions:
REMARK  status: ('A' for Active; 'I' for Inactive)
REMARK    1  A    between atoms: C3_4  and  O_7 
ROOT
ATOM      1  C   UNL d   1       0.815   3.423  -0.853  0.00  0.00    -0.033 A 
ATOM      2  C1  UNL d   1       1.918   2.870  -0.199  0.00  0.00     0.039 A 
ATOM      3  C2  UNL d   1       1.880   1.545   0.239  0.00  0.00    -0.080 A 
ATOM      4  C3  UNL d   1       0.736   0.784   0.016  0.00  0.00     0.150 A 
ATOM      5  C4  UNL d   1      -0.365   1.327  -0.638  0.00  0.00    -0.007 A 
ATOM      6  C5  UNL d   1      -0.326   2.651  -1.074  0.00  0.00     0.039 A 
ENDROOT
BRANCH   4   7
ATOM      7  O   UNL d   1       0.650  -0.512   0.430  0.00  0.00    -0.526 OA
ATOM      8  H5  UNL d   1       1.473  -0.743   0.891  0.00  0.00     0.418 HD
ENDBRANCH   4   7
TORSDOF 1
ENDMDL
