MODEL 1
REMARK minimizedAffinity -3.44176078
REMARK minimizedRMSD -1
REMARK  1 active torsions:
REMARK  status: ('A' for Active; 'I' for Inactive)
REMARK    1  A    between atoms: C3_4  and  O_7 
ROOT
ATOM      1  C   UNL d   1      -4.274   4.535  -5.764  0.00  0.00    -0.033 A 
ATOM      2  C1  UNL d   1      -5.459   3.828  -5.976  0.00  0.00     0.039 A 
ATOM      3  C2  UNL d   1      -5.446   2.432  -6.000  0.00  0.00    -0.080 A 
ATOM      4  C3  UNL d   1      -4.244   1.756  -5.810  0.00  0.00     0.150 A 
ATOM      5  C4  UNL d   1      -3.060   2.455  -5.594  0.00  0.00    -0.007 A 
ATOM      6  C5  UNL d   1      -3.075   3.848  -5.572  0.00  0.00     0.039 A 
ENDROOT
BRANCH   4   7
ATOM      7  O   UNL d   1      -4.180   0.395  -5.829  0.00  0.00    -0.526 OA
ATOM      8  H5  UNL d   1      -5.069   0.048  -6.017  0.00  0.00     0.418 HD
ENDBRANCH   4   7
TORSDOF 1
ENDMDL
