MODEL 1
REMARK minimizedAffinity 1.94849288
REMARK minimizedRMSD -1
REMARK  1 active torsions:
REMARK  status: ('A' for Active; 'I' for Inactive)
REMARK    1  A    between atoms: C3_4  and  O_7 
ROOT
ATOM      1  C   UNL d   1      -2.009   4.413  -5.895  0.00  0.00    -0.033 A 
ATOM      2  C1  UNL d   1      -2.341   3.058  -5.845  0.00  0.00     0.039 A 
ATOM      3  C2  UNL d   1      -3.681   2.664  -5.870  0.00  0.00    -0.080 A 
ATOM      4  C3  UNL d   1      -4.676   3.634  -5.945  0.00  0.00     0.150 A 
ATOM      5  C4  UNL d   1      -4.353   4.986  -5.999  0.00  0.00    -0.007 A 
ATOM      6  C5  UNL d   1      -3.015   5.377  -5.974  0.00  0.00     0.039 A 
ENDROOT
BRANCH   4   7
ATOM      7  O   UNL d   1      -5.998   3.299  -5.967  0.00  0.00    -0.526 OA
ATOM      8  H5  UNL d   1      -6.071   2.332  -5.894  0.00  0.00     0.418 HD
ENDBRANCH   4   7
TORSDOF 1
ENDMDL
