MODEL 1
REMARK minimizedAffinity 4.79799747
REMARK minimizedRMSD -1
REMARK  0 active torsions:
REMARK  status: ('A' for Active; 'I' for Inactive)
ROOT
ATOM      1  C2' OXE d   1       1.721   0.363  -0.675  0.00  0.00     0.078 C 
ATOM      2  C1' OXE d   1       3.451  -1.761  -0.058  0.00  0.00     0.078 C 
ATOM      3  C1  OXE d   1       4.066  -0.417  -0.359  0.00  0.00    -0.078 A 
ATOM      4  C2  OXE d   1       3.215   0.605  -0.706  0.00  0.00    -0.078 A 
ATOM      5  C3  OXE d   1       3.726   1.878  -0.940  0.00  0.00     0.003 A 
ATOM      6  C4  OXE d   1       5.109   2.091  -0.977  0.00  0.00    -0.002 A 
ATOM      7  C5  OXE d   1       5.996   1.054  -0.665  0.00  0.00    -0.002 A 
ATOM      8  C6  OXE d   1       5.490  -0.192  -0.314  0.00  0.00     0.003 A 
ENDROOT
TORSDOF 0
ENDMDL
