MODEL 1
REMARK minimizedAffinity -0.50801456
REMARK minimizedRMSD -1
REMARK  0 active torsions:
REMARK  status: ('A' for Active; 'I' for Inactive)
ROOT
ATOM      1  C2' OXE d   1       6.000   4.546  -0.709  0.00  0.00     0.078 C 
ATOM      2  C1' OXE d   1       6.000   3.369   1.840  0.00  0.00     0.078 C 
ATOM      3  C1  OXE d   1       5.468   2.553   0.688  0.00  0.00    -0.078 A 
ATOM      4  C2  OXE d   1       5.429   3.154  -0.547  0.00  0.00    -0.078 A 
ATOM      5  C3  OXE d   1       4.998   2.427  -1.654  0.00  0.00     0.003 A 
ATOM      6  C4  OXE d   1       4.462   1.143  -1.494  0.00  0.00    -0.002 A 
ATOM      7  C5  OXE d   1       4.457   0.528  -0.238  0.00  0.00    -0.002 A 
ATOM      8  C6  OXE d   1       4.994   1.201   0.853  0.00  0.00     0.003 A 
ENDROOT
TORSDOF 0
ENDMDL
