MODEL 1
REMARK minimizedAffinity 9.3014307
REMARK minimizedRMSD -1
REMARK  0 active torsions:
REMARK  status: ('A' for Active; 'I' for Inactive)
ROOT
ATOM      1  C2' OXE d   1       5.276   4.775  -1.299  0.00  0.00     0.078 C 
ATOM      2  C1' OXE d   1       5.511   4.055   1.404  0.00  0.00     0.078 C 
ATOM      3  C1  OXE d   1       5.142   2.975   0.418  0.00  0.00    -0.078 A 
ATOM      4  C2  OXE d   1       4.983   3.346  -0.896  0.00  0.00    -0.078 A 
ATOM      5  C3  OXE d   1       4.697   2.379  -1.856  0.00  0.00     0.003 A 
ATOM      6  C4  OXE d   1       4.418   1.062  -1.473  0.00  0.00    -0.002 A 
ATOM      7  C5  OXE d   1       4.534   0.671  -0.135  0.00  0.00    -0.002 A 
ATOM      8  C6  OXE d   1       4.936   1.604   0.815  0.00  0.00     0.003 A 
ENDROOT
TORSDOF 0
ENDMDL
