MODEL 1
REMARK minimizedAffinity 15.3000479
REMARK minimizedRMSD -1
REMARK  0 active torsions:
REMARK  status: ('A' for Active; 'I' for Inactive)
ROOT
ATOM      1  C2' OXE d   1      -0.394   0.394  -2.036  0.00  0.00     0.078 C 
ATOM      2  C1' OXE d   1       1.921  -0.191  -0.561  0.00  0.00     0.078 C 
ATOM      3  C1  OXE d   1       0.846   0.625   0.112  0.00  0.00    -0.078 A 
ATOM      4  C2  OXE d   1      -0.263   0.946  -0.633  0.00  0.00    -0.078 A 
ATOM      5  C3  OXE d   1      -1.309   1.651  -0.044  0.00  0.00     0.003 A 
ATOM      6  C4  OXE d   1      -1.175   2.166   1.251  0.00  0.00    -0.002 A 
ATOM      7  C5  OXE d   1      -0.037   1.885   2.013  0.00  0.00    -0.002 A 
ATOM      8  C6  OXE d   1       0.963   1.082   1.475  0.00  0.00     0.003 A 
ENDROOT
TORSDOF 0
ENDMDL
