MODEL 1
REMARK minimizedAffinity 10.3215427
REMARK minimizedRMSD -1
REMARK  0 active torsions:
REMARK  status: ('A' for Active; 'I' for Inactive)
ROOT
ATOM      1  C2' OXE d   1       1.369   0.496  -0.477  0.00  0.00     0.078 C 
ATOM      2  C1' OXE d   1       2.772  -1.930  -0.650  0.00  0.00     0.078 C 
ATOM      3  C1  OXE d   1       3.569  -0.651  -0.702  0.00  0.00    -0.078 A 
ATOM      4  C2  OXE d   1       2.871   0.532  -0.664  0.00  0.00    -0.078 A 
ATOM      5  C3  OXE d   1       3.561   1.740  -0.654  0.00  0.00     0.003 A 
ATOM      6  C4  OXE d   1       4.949   1.765  -0.838  0.00  0.00    -0.002 A 
ATOM      7  C5  OXE d   1       5.676   0.573  -0.919  0.00  0.00    -0.002 A 
ATOM      8  C6  OXE d   1       5.007  -0.642  -0.810  0.00  0.00     0.003 A 
ENDROOT
TORSDOF 0
ENDMDL
