MODEL 1
REMARK minimizedAffinity 4.34375477
REMARK minimizedRMSD -1
REMARK  0 active torsions:
REMARK  status: ('A' for Active; 'I' for Inactive)
ROOT
ATOM      1  C2' OXE d   1       5.941   3.457  -1.422  0.00  0.00     0.078 C 
ATOM      2  C1' OXE d   1       5.572   2.858   1.295  0.00  0.00     0.078 C 
ATOM      3  C1  OXE d   1       5.105   1.843   0.282  0.00  0.00    -0.078 A 
ATOM      4  C2  OXE d   1       5.247   2.166  -1.047  0.00  0.00    -0.078 A 
ATOM      5  C3  OXE d   1       4.882   1.242  -2.023  0.00  0.00     0.003 A 
ATOM      6  C4  OXE d   1       4.232   0.055  -1.667  0.00  0.00    -0.002 A 
ATOM      7  C5  OXE d   1       4.041  -0.275  -0.321  0.00  0.00    -0.002 A 
ATOM      8  C6  OXE d   1       4.509   0.587   0.664  0.00  0.00     0.003 A 
ENDROOT
TORSDOF 0
ENDMDL
