MODEL 1
REMARK minimizedAffinity 17.7571697
REMARK minimizedRMSD -1
REMARK  0 active torsions:
REMARK  status: ('A' for Active; 'I' for Inactive)
ROOT
ATOM      1  C2' OXE d   1      -4.908   4.098  -0.321  0.00  0.00     0.078 C 
ATOM      2  C1' OXE d   1      -5.570   3.465  -2.974  0.00  0.00     0.078 C 
ATOM      3  C1  OXE d   1      -5.611   2.354  -1.954  0.00  0.00    -0.078 A 
ATOM      4  C2  OXE d   1      -5.240   2.663  -0.668  0.00  0.00    -0.078 A 
ATOM      5  C3  OXE d   1      -5.313   1.688   0.324  0.00  0.00     0.003 A 
ATOM      6  C4  OXE d   1      -5.611   0.361  -0.008  0.00  0.00    -0.002 A 
ATOM      7  C5  OXE d   1      -5.953   0.017  -1.320  0.00  0.00    -0.002 A 
ATOM      8  C6  OXE d   1      -5.999   1.007  -2.294  0.00  0.00     0.003 A 
ENDROOT
TORSDOF 0
ENDMDL
