MODEL 1
REMARK minimizedAffinity 11.4524193
REMARK minimizedRMSD -1
REMARK  0 active torsions:
REMARK  status: ('A' for Active; 'I' for Inactive)
ROOT
ATOM      1  C2' OXE d   1       5.865   3.365  -1.430  0.00  0.00     0.078 C 
ATOM      2  C1' OXE d   1       6.000   2.972   1.346  0.00  0.00     0.078 C 
ATOM      3  C1  OXE d   1       5.218   1.972   0.532  0.00  0.00    -0.078 A 
ATOM      4  C2  OXE d   1       5.119   2.198  -0.820  0.00  0.00    -0.078 A 
ATOM      5  C3  OXE d   1       4.456   1.277  -1.626  0.00  0.00     0.003 A 
ATOM      6  C4  OXE d   1       3.760   0.205  -1.053  0.00  0.00    -0.002 A 
ATOM      7  C5  OXE d   1       3.815  -0.021   0.326  0.00  0.00    -0.002 A 
ATOM      8  C6  OXE d   1       4.574   0.827   1.126  0.00  0.00     0.003 A 
ENDROOT
TORSDOF 0
ENDMDL
