MODEL 1
REMARK minimizedAffinity -1.58746231
REMARK minimizedRMSD -1
REMARK  0 active torsions:
REMARK  status: ('A' for Active; 'I' for Inactive)
ROOT
ATOM      1  C2' OXE d   1      -6.000   2.893  -2.628  0.00  0.00     0.078 C 
ATOM      2  C1' OXE d   1      -4.886   0.748  -1.201  0.00  0.00     0.078 C 
ATOM      3  C1  OXE d   1      -4.391   0.991  -2.605  0.00  0.00    -0.078 A 
ATOM      4  C2  OXE d   1      -4.975   2.014  -3.313  0.00  0.00    -0.078 A 
ATOM      5  C3  OXE d   1      -4.517   2.317  -4.592  0.00  0.00     0.003 A 
ATOM      6  C4  OXE d   1      -3.576   1.493  -5.221  0.00  0.00    -0.002 A 
ATOM      7  C5  OXE d   1      -2.997   0.422  -4.532  0.00  0.00    -0.002 A 
ATOM      8  C6  OXE d   1      -3.361   0.184  -3.212  0.00  0.00     0.003 A 
ENDROOT
TORSDOF 0
ENDMDL
