MODEL 1
REMARK minimizedAffinity -2.88185811
REMARK minimizedRMSD -1
REMARK  0 active torsions:
REMARK  status: ('A' for Active; 'I' for Inactive)
ROOT
ATOM      1  O1  BZF d   1      -0.025   0.011  -1.609  0.00  0.00    -0.204 OA
ATOM      2  C2  BZF d   1       0.264  -0.584  -0.397  0.00  0.00     0.174 A 
ATOM      3  C3  BZF d   1      -0.620  -1.565  -0.123  0.00  0.00    -0.012 A 
ATOM      4  C3A BZF d   1      -1.462  -1.646  -1.277  0.00  0.00    -0.107 A 
ATOM      5  C4  BZF d   1      -2.520  -2.441  -1.613  0.00  0.00     0.055 A 
ATOM      6  C5  BZF d   1      -3.170  -2.214  -2.785  0.00  0.00    -0.016 A 
ATOM      7  C6  BZF d   1      -2.793  -1.200  -3.640  0.00  0.00     0.022 A 
ATOM      8  C7  BZF d   1      -1.746  -0.389  -3.352  0.00  0.00     0.029 A 
ATOM      9  C7A BZF d   1      -1.067  -0.636  -2.184  0.00  0.00     0.058 A 
ENDROOT
TORSDOF 0
ENDMDL
