MODEL 1
REMARK minimizedAffinity -5.38440561
REMARK minimizedRMSD -1
REMARK  0 active torsions:
REMARK  status: ('A' for Active; 'I' for Inactive)
ROOT
ATOM      1  O1  BZF d   1       2.779   0.191   0.027  0.00  0.00    -0.204 OA
ATOM      2  C2  BZF d   1       3.484   1.190   0.670  0.00  0.00     0.174 A 
ATOM      3  C3  BZF d   1       2.656   1.963   1.403  0.00  0.00    -0.012 A 
ATOM      4  C3A BZF d   1       1.367   1.356   1.280  0.00  0.00    -0.107 A 
ATOM      5  C4  BZF d   1       0.136   1.653   1.793  0.00  0.00     0.055 A 
ATOM      6  C5  BZF d   1      -0.934   0.903   1.420  0.00  0.00    -0.016 A 
ATOM      7  C6  BZF d   1      -0.811  -0.146   0.532  0.00  0.00     0.022 A 
ATOM      8  C7  BZF d   1       0.390  -0.482   0.001  0.00  0.00     0.029 A 
ATOM      9  C7A BZF d   1       1.479   0.253   0.402  0.00  0.00     0.058 A 
ENDROOT
TORSDOF 0
ENDMDL
