MODEL 1
REMARK minimizedAffinity -4.89604139
REMARK minimizedRMSD -1
REMARK  0 active torsions:
REMARK  status: ('A' for Active; 'I' for Inactive)
ROOT
ATOM      1  O1  BZF d   1       0.804  -0.877  -0.358  0.00  0.00    -0.204 OA
ATOM      2  C2  BZF d   1      -0.532  -0.885  -0.005  0.00  0.00     0.174 A 
ATOM      3  C3  BZF d   1      -0.846   0.220   0.701  0.00  0.00    -0.012 A 
ATOM      4  C3A BZF d   1       0.348   1.009   0.717  0.00  0.00    -0.107 A 
ATOM      5  C4  BZF d   1       0.662   2.227   1.250  0.00  0.00     0.055 A 
ATOM      6  C5  BZF d   1       1.938   2.682   1.150  0.00  0.00    -0.016 A 
ATOM      7  C6  BZF d   1       2.926   1.945   0.531  0.00  0.00     0.022 A 
ATOM      8  C7  BZF d   1       2.661   0.734  -0.018  0.00  0.00     0.029 A 
ATOM      9  C7A BZF d   1       1.365   0.286   0.052  0.00  0.00     0.058 A 
ENDROOT
TORSDOF 0
ENDMDL
