MODEL 1
REMARK minimizedAffinity -3.15523648
REMARK minimizedRMSD -1
REMARK  0 active torsions:
REMARK  status: ('A' for Active; 'I' for Inactive)
ROOT
ATOM      1  O1  BZF d   1       2.768   0.129   0.006  0.00  0.00    -0.204 OA
ATOM      2  C2  BZF d   1       3.564   0.836   0.887  0.00  0.00     0.174 A 
ATOM      3  C3  BZF d   1       2.817   1.657   1.653  0.00  0.00    -0.012 A 
ATOM      4  C3A BZF d   1       1.461   1.383   1.288  0.00  0.00    -0.107 A 
ATOM      5  C4  BZF d   1       0.258   1.870   1.711  0.00  0.00     0.055 A 
ATOM      6  C5  BZF d   1      -0.879   1.446   1.099  0.00  0.00    -0.016 A 
ATOM      7  C6  BZF d   1      -0.849   0.541   0.059  0.00  0.00     0.022 A 
ATOM      8  C7  BZF d   1       0.320   0.026  -0.393  0.00  0.00     0.029 A 
ATOM      9  C7A BZF d   1       1.468   0.427   0.245  0.00  0.00     0.058 A 
ENDROOT
TORSDOF 0
ENDMDL
