MODEL 1
REMARK minimizedAffinity -5.64516258
REMARK minimizedRMSD -1
REMARK  0 active torsions:
REMARK  status: ('A' for Active; 'I' for Inactive)
ROOT
ATOM      1  O1  BZF d   1       1.165  -0.406  -0.624  0.00  0.00    -0.204 OA
ATOM      2  C2  BZF d   1      -0.175  -0.465  -0.294  0.00  0.00     0.174 A 
ATOM      3  C3  BZF d   1      -0.515   0.560   0.514  0.00  0.00    -0.012 A 
ATOM      4  C3A BZF d   1       0.667   1.358   0.627  0.00  0.00    -0.107 A 
ATOM      5  C4  BZF d   1       0.957   2.520   1.284  0.00  0.00     0.055 A 
ATOM      6  C5  BZF d   1       2.228   2.998   1.250  0.00  0.00    -0.016 A 
ATOM      7  C6  BZF d   1       3.235   2.339   0.575  0.00  0.00     0.022 A 
ATOM      8  C7  BZF d   1       2.995   1.186  -0.095  0.00  0.00     0.029 A 
ATOM      9  C7A BZF d   1       1.704   0.718  -0.091  0.00  0.00     0.058 A 
ENDROOT
TORSDOF 0
ENDMDL
