MODEL 1
REMARK minimizedAffinity -4.28740358
REMARK minimizedRMSD -1
REMARK  0 active torsions:
REMARK  status: ('A' for Active; 'I' for Inactive)
ROOT
ATOM      1  O1  BZF d   1       0.790   0.149  -0.563  0.00  0.00    -0.204 OA
ATOM      2  C2  BZF d   1      -0.566   0.192  -0.301  0.00  0.00     0.174 A 
ATOM      3  C3  BZF d   1      -0.833   1.050   0.704  0.00  0.00    -0.012 A 
ATOM      4  C3A BZF d   1       0.426   1.647   1.033  0.00  0.00    -0.107 A 
ATOM      5  C4  BZF d   1       0.808   2.590   1.944  0.00  0.00     0.055 A 
ATOM      6  C5  BZF d   1       2.126   2.898   2.062  0.00  0.00    -0.016 A 
ATOM      7  C6  BZF d   1       3.088   2.279   1.292  0.00  0.00     0.022 A 
ATOM      8  C7  BZF d   1       2.757   1.340   0.372  0.00  0.00     0.029 A 
ATOM      9  C7A BZF d   1       1.422   1.051   0.226  0.00  0.00     0.058 A 
ENDROOT
TORSDOF 0
ENDMDL
