MODEL 1
REMARK minimizedAffinity -5.44757509
REMARK minimizedRMSD -1
REMARK  0 active torsions:
REMARK  status: ('A' for Active; 'I' for Inactive)
ROOT
ATOM      1  O1  BZF d   1       0.796  -0.932  -0.574  0.00  0.00    -0.204 OA
ATOM      2  C2  BZF d   1      -0.548  -0.793  -0.286  0.00  0.00     0.174 A 
ATOM      3  C3  BZF d   1      -0.764   0.301   0.472  0.00  0.00    -0.012 A 
ATOM      4  C3A BZF d   1       0.514   0.934   0.593  0.00  0.00    -0.107 A 
ATOM      5  C4  BZF d   1       0.943   2.071   1.214  0.00  0.00     0.055 A 
ATOM      6  C5  BZF d   1       2.269   2.369   1.204  0.00  0.00    -0.016 A 
ATOM      7  C6  BZF d   1       3.192   1.550   0.587  0.00  0.00     0.022 A 
ATOM      8  C7  BZF d   1       2.813   0.414  -0.047  0.00  0.00     0.029 A 
ATOM      9  C7A BZF d   1       1.470   0.127  -0.067  0.00  0.00     0.058 A 
ENDROOT
TORSDOF 0
ENDMDL
