MODEL 1
REMARK minimizedAffinity 0.295789421
REMARK minimizedRMSD -1
REMARK  0 active torsions:
REMARK  status: ('A' for Active; 'I' for Inactive)
ROOT
ATOM      1  O1  BZF d   1       0.602  -1.460  -0.291  0.00  0.00    -0.204 OA
ATOM      2  C2  BZF d   1      -0.586  -1.885  -0.853  0.00  0.00     0.174 A 
ATOM      3  C3  BZF d   1      -1.572  -0.996  -0.614  0.00  0.00    -0.012 A 
ATOM      4  C3A BZF d   1      -0.941   0.093   0.066  0.00  0.00    -0.107 A 
ATOM      5  C4  BZF d   1      -1.395   1.286   0.552  0.00  0.00     0.055 A 
ATOM      6  C5  BZF d   1      -0.536   2.093   1.229  0.00  0.00    -0.016 A 
ATOM      7  C6  BZF d   1       0.780   1.737   1.441  0.00  0.00     0.022 A 
ATOM      8  C7  BZF d   1       1.277   0.567   0.973  0.00  0.00     0.029 A 
ATOM      9  C7A BZF d   1       0.420  -0.236   0.261  0.00  0.00     0.058 A 
ENDROOT
TORSDOF 0
ENDMDL
