MODEL 1
REMARK minimizedAffinity -0.638331175
REMARK minimizedRMSD -1
REMARK  0 active torsions:
REMARK  status: ('A' for Active; 'I' for Inactive)
ROOT
ATOM      1  O1  BZF d   1      -2.831  -0.183  -1.907  0.00  0.00    -0.204 OA
ATOM      2  C2  BZF d   1      -2.590  -1.285  -2.704  0.00  0.00     0.174 A 
ATOM      3  C3  BZF d   1      -1.383  -1.820  -2.428  0.00  0.00    -0.012 A 
ATOM      4  C3A BZF d   1      -0.875  -1.056  -1.330  0.00  0.00    -0.107 A 
ATOM      5  C4  BZF d   1       0.275  -1.116  -0.597  0.00  0.00     0.055 A 
ATOM      6  C5  BZF d   1       0.499  -0.178   0.360  0.00  0.00    -0.016 A 
ATOM      7  C6  BZF d   1      -0.403   0.836   0.607  0.00  0.00     0.022 A 
ATOM      8  C7  BZF d   1      -1.561   0.934  -0.091  0.00  0.00     0.029 A 
ATOM      9  C7A BZF d   1      -1.805  -0.032  -1.036  0.00  0.00     0.058 A 
ENDROOT
TORSDOF 0
ENDMDL
