MODEL 1
REMARK minimizedAffinity 2.47863555
REMARK minimizedRMSD -1
REMARK  0 active torsions:
REMARK  status: ('A' for Active; 'I' for Inactive)
ROOT
ATOM      1  O1  BZF d   1      -3.204  -0.685  -2.227  0.00  0.00    -0.204 OA
ATOM      2  C2  BZF d   1      -3.458  -2.043  -2.185  0.00  0.00     0.174 A 
ATOM      3  C3  BZF d   1      -2.709  -2.640  -1.235  0.00  0.00    -0.012 A 
ATOM      4  C3A BZF d   1      -2.007  -1.576  -0.585  0.00  0.00    -0.107 A 
ATOM      5  C4  BZF d   1      -1.120  -1.532   0.452  0.00  0.00     0.055 A 
ATOM      6  C5  BZF d   1      -0.562  -0.341   0.795  0.00  0.00    -0.016 A 
ATOM      7  C6  BZF d   1      -0.865   0.823   0.120  0.00  0.00     0.022 A 
ATOM      8  C7  BZF d   1      -1.744   0.831  -0.912  0.00  0.00     0.029 A 
ATOM      9  C7A BZF d   1      -2.334  -0.366  -1.240  0.00  0.00     0.058 A 
ENDROOT
TORSDOF 0
ENDMDL
