MODEL 1
REMARK minimizedAffinity -6.56835699
REMARK minimizedRMSD -1
REMARK  0 active torsions:
REMARK  status: ('A' for Active; 'I' for Inactive)
ROOT
ATOM      1  O1  BZF d   1       0.588   2.354   1.539  0.00  0.00    -0.204 OA
ATOM      2  C2  BZF d   1       1.779   2.783   0.985  0.00  0.00     0.174 A 
ATOM      3  C3  BZF d   1       2.297   1.838   0.175  0.00  0.00    -0.012 A 
ATOM      4  C3A BZF d   1       1.327   0.787   0.153  0.00  0.00    -0.107 A 
ATOM      5  C4  BZF d   1       1.262  -0.418  -0.486  0.00  0.00     0.055 A 
ATOM      6  C5  BZF d   1       0.210  -1.242  -0.237  0.00  0.00    -0.016 A 
ATOM      7  C6  BZF d   1      -0.790  -0.896   0.648  0.00  0.00     0.022 A 
ATOM      8  C7  BZF d   1      -0.771   0.291   1.302  0.00  0.00     0.029 A 
ATOM      9  C7A BZF d   1       0.273   1.140   1.028  0.00  0.00     0.058 A 
ENDROOT
TORSDOF 0
ENDMDL
