MODEL 1
REMARK minimizedAffinity 3.76813531
REMARK minimizedRMSD -1
REMARK  0 active torsions:
REMARK  status: ('A' for Active; 'I' for Inactive)
ROOT
ATOM      1  O1  BZF d   1       0.266   0.112  -1.520  0.00  0.00    -0.204 OA
ATOM      2  C2  BZF d   1       1.491  -0.496  -1.328  0.00  0.00     0.174 A 
ATOM      3  C3  BZF d   1       1.727  -0.695  -0.015  0.00  0.00    -0.012 A 
ATOM      4  C3A BZF d   1       0.536  -0.262   0.650  0.00  0.00    -0.107 A 
ATOM      5  C4  BZF d   1       0.154  -0.225   1.961  0.00  0.00     0.055 A 
ATOM      6  C5  BZF d   1      -1.047   0.325   2.283  0.00  0.00    -0.016 A 
ATOM      7  C6  BZF d   1      -1.886   0.850   1.323  0.00  0.00     0.022 A 
ATOM      8  C7  BZF d   1      -1.552   0.832   0.009  0.00  0.00     0.029 A 
ATOM      9  C7A BZF d   1      -0.354   0.247  -0.323  0.00  0.00     0.058 A 
ENDROOT
TORSDOF 0
ENDMDL
