MODEL 1
REMARK minimizedAffinity -1.53755414
REMARK minimizedRMSD -1
REMARK  0 active torsions:
REMARK  status: ('A' for Active; 'I' for Inactive)
ROOT
ATOM      1  O1  BZF d   1      -1.074  -0.132  -0.887  0.00  0.00    -0.204 OA
ATOM      2  C2  BZF d   1      -0.171  -0.601  -1.822  0.00  0.00     0.174 A 
ATOM      3  C3  BZF d   1       1.094  -0.472  -1.373  0.00  0.00    -0.012 A 
ATOM      4  C3A BZF d   1       0.970   0.029  -0.038  0.00  0.00    -0.107 A 
ATOM      5  C4  BZF d   1       1.875   0.348   0.933  0.00  0.00     0.055 A 
ATOM      6  C5  BZF d   1       1.431   0.882   2.101  0.00  0.00    -0.016 A 
ATOM      7  C6  BZF d   1       0.090   1.114   2.329  0.00  0.00     0.022 A 
ATOM      8  C7  BZF d   1      -0.846   0.810   1.398  0.00  0.00     0.029 A 
ATOM      9  C7A BZF d   1      -0.403   0.240   0.229  0.00  0.00     0.058 A 
ENDROOT
TORSDOF 0
ENDMDL
