MODEL 1
REMARK minimizedAffinity -1.7484504
REMARK minimizedRMSD -1
REMARK  0 active torsions:
REMARK  status: ('A' for Active; 'I' for Inactive)
ROOT
ATOM      1  O1  BZF d   1       1.388  -0.487  -0.480  0.00  0.00    -0.204 OA
ATOM      2  C2  BZF d   1       0.018  -0.578  -0.329  0.00  0.00     0.174 A 
ATOM      3  C3  BZF d   1      -0.415   0.271   0.626  0.00  0.00    -0.012 A 
ATOM      4  C3A BZF d   1       0.746   1.000   1.036  0.00  0.00    -0.107 A 
ATOM      5  C4  BZF d   1       0.956   1.997   1.945  0.00  0.00     0.055 A 
ATOM      6  C5  BZF d   1       2.223   2.440   2.158  0.00  0.00    -0.016 A 
ATOM      7  C6  BZF d   1       3.303   1.905   1.486  0.00  0.00     0.022 A 
ATOM      8  C7  BZF d   1       3.143   0.918   0.571  0.00  0.00     0.029 A 
ATOM      9  C7A BZF d   1       1.861   0.491   0.329  0.00  0.00     0.058 A 
ENDROOT
TORSDOF 0
ENDMDL
