MODEL 1
REMARK minimizedAffinity -3.98131704
REMARK minimizedRMSD -1
REMARK  0 active torsions:
REMARK  status: ('A' for Active; 'I' for Inactive)
ROOT
ATOM      1  O1  BZF d   1       0.267  -0.441  -1.111  0.00  0.00    -0.204 OA
ATOM      2  C2  BZF d   1      -1.084  -0.201  -0.947  0.00  0.00     0.174 A 
ATOM      3  C3  BZF d   1      -1.288   0.792  -0.058  0.00  0.00    -0.012 A 
ATOM      4  C3A BZF d   1       0.018   1.260   0.291  0.00  0.00    -0.107 A 
ATOM      5  C4  BZF d   1       0.473   2.245   1.120  0.00  0.00     0.055 A 
ATOM      6  C5  BZF d   1       1.812   2.397   1.294  0.00  0.00    -0.016 A 
ATOM      7  C6  BZF d   1       2.724   1.580   0.659  0.00  0.00     0.022 A 
ATOM      8  C7  BZF d   1       2.321   0.592  -0.178  0.00  0.00     0.029 A 
ATOM      9  C7A BZF d   1       0.969   0.457  -0.381  0.00  0.00     0.058 A 
ENDROOT
TORSDOF 0
ENDMDL
