MODEL 1
REMARK minimizedAffinity 4.40128183
REMARK minimizedRMSD -1
REMARK  1 active torsions:
REMARK  status: ('A' for Active; 'I' for Inactive)
REMARK    1  A    between atoms: C1_2  and  C2_3 
ROOT
ATOM      1  C2  UNL d   1      -2.033  -1.379  -3.237  0.00  0.00    -0.077 A 
ATOM      2  C3  UNL d   1      -0.744  -0.910  -3.529  0.00  0.00     0.002 A 
ATOM      3  C4  UNL d   1       0.210  -1.766  -4.082  0.00  0.00     0.002 A 
ATOM      4  C5  UNL d   1      -0.115  -3.093  -4.353  0.00  0.00    -0.004 A 
ATOM      5  C6  UNL d   1      -1.393  -3.570  -4.064  0.00  0.00     0.002 A 
ATOM      6  C7  UNL d   1      -2.348  -2.717  -3.509  0.00  0.00     0.002 A 
ENDROOT
BRANCH   1   7
ATOM      7  C1  UNL d   1      -3.078  -0.446  -2.685  0.00  0.00     0.055 C 
ATOM      8  C   UNL d   1      -4.481  -0.904  -3.056  0.00  0.00     0.019 C 
ENDBRANCH   1   7
TORSDOF 1
ENDMDL
