MODEL 1
REMARK minimizedAffinity 4.17222929
REMARK minimizedRMSD -1
REMARK  1 active torsions:
REMARK  status: ('A' for Active; 'I' for Inactive)
REMARK    1  A    between atoms: C1_2  and  C2_3 
ROOT
ATOM      1  C2  UNL d   1      -5.823   0.816   4.589  0.00  0.00    -0.077 A 
ATOM      2  C3  UNL d   1      -5.967  -0.011   3.465  0.00  0.00     0.002 A 
ATOM      3  C4  UNL d   1      -5.999  -1.399   3.609  0.00  0.00     0.002 A 
ATOM      4  C5  UNL d   1      -5.890  -1.973   4.874  0.00  0.00    -0.004 A 
ATOM      5  C6  UNL d   1      -5.744  -1.160   5.997  0.00  0.00     0.002 A 
ATOM      6  C7  UNL d   1      -5.711   0.228   5.855  0.00  0.00     0.002 A 
ENDROOT
BRANCH   1   7
ATOM      7  C1  UNL d   1      -5.838   2.315   4.441  0.00  0.00     0.055 C 
ATOM      8  C   UNL d   1      -6.000   2.726   2.985  0.00  0.00     0.019 C 
ENDBRANCH   1   7
TORSDOF 1
ENDMDL
