MODEL 1
REMARK minimizedAffinity 0.58444643
REMARK minimizedRMSD -1
REMARK  1 active torsions:
REMARK  status: ('A' for Active; 'I' for Inactive)
REMARK    1  A    between atoms: C1_2  and  C2_3 
ROOT
ATOM      1  C2  UNL d   1      -0.082  -5.671   3.028  0.00  0.00    -0.077 A 
ATOM      2  C3  UNL d   1       0.940  -5.940   2.108  0.00  0.00     0.002 A 
ATOM      3  C4  UNL d   1       2.272  -5.677   2.434  0.00  0.00     0.002 A 
ATOM      4  C5  UNL d   1       2.594  -5.148   3.683  0.00  0.00    -0.004 A 
ATOM      5  C6  UNL d   1       1.584  -4.876   4.605  0.00  0.00     0.002 A 
ATOM      6  C7  UNL d   1       0.252  -5.137   4.279  0.00  0.00     0.002 A 
ENDROOT
BRANCH   1   7
ATOM      7  C1  UNL d   1      -1.514  -6.000   2.697  0.00  0.00     0.055 C 
ATOM      8  C   UNL d   1      -1.749  -5.998   1.193  0.00  0.00     0.019 C 
ENDBRANCH   1   7
TORSDOF 1
ENDMDL
