MODEL 1
REMARK minimizedAffinity 4.28215694
REMARK minimizedRMSD -1
REMARK  1 active torsions:
REMARK  status: ('A' for Active; 'I' for Inactive)
REMARK    1  A    between atoms: C1_2  and  C2_3 
ROOT
ATOM      1  C2  UNL d   1      -4.136  -0.482   3.986  0.00  0.00    -0.077 A 
ATOM      2  C3  UNL d   1      -4.549  -0.802   5.287  0.00  0.00     0.002 A 
ATOM      3  C4  UNL d   1      -5.376   0.068   6.000  0.00  0.00     0.002 A 
ATOM      4  C5  UNL d   1      -5.799   1.262   5.419  0.00  0.00    -0.004 A 
ATOM      5  C6  UNL d   1      -5.392   1.590   4.127  0.00  0.00     0.002 A 
ATOM      6  C7  UNL d   1      -4.565   0.722   3.413  0.00  0.00     0.002 A 
ENDROOT
BRANCH   1   7
ATOM      7  C1  UNL d   1      -3.284  -1.442   3.197  0.00  0.00     0.055 C 
ATOM      8  C   UNL d   1      -1.822  -1.022   3.206  0.00  0.00     0.019 C 
ENDBRANCH   1   7
TORSDOF 1
ENDMDL
