MODEL 1
REMARK minimizedAffinity 1.42193866
REMARK minimizedRMSD -1
REMARK  1 active torsions:
REMARK  status: ('A' for Active; 'I' for Inactive)
REMARK    1  A    between atoms: C1_2  and  C2_3 
ROOT
ATOM      1  C2  UNL d   1      -0.638  -4.674   2.638  0.00  0.00    -0.077 A 
ATOM      2  C3  UNL d   1      -0.745  -5.612   3.674  0.00  0.00     0.002 A 
ATOM      3  C4  UNL d   1       0.386  -6.000   4.396  0.00  0.00     0.002 A 
ATOM      4  C5  UNL d   1       1.630  -5.451   4.092  0.00  0.00    -0.004 A 
ATOM      5  C6  UNL d   1       1.747  -4.518   3.063  0.00  0.00     0.002 A 
ATOM      6  C7  UNL d   1       0.618  -4.130   2.339  0.00  0.00     0.002 A 
ENDROOT
BRANCH   1   7
ATOM      7  C1  UNL d   1      -1.864  -4.218   1.891  0.00  0.00     0.055 C 
ATOM      8  C   UNL d   1      -1.973  -2.700   1.881  0.00  0.00     0.019 C 
ENDBRANCH   1   7
TORSDOF 1
ENDMDL
