MODEL 1
REMARK minimizedAffinity 7.48580027
REMARK minimizedRMSD -1
REMARK  1 active torsions:
REMARK  status: ('A' for Active; 'I' for Inactive)
REMARK    1  A    between atoms: C1_2  and  C2_3 
ROOT
ATOM      1  C2  UNL d   1       3.993   0.404  -4.088  0.00  0.00    -0.077 A 
ATOM      2  C3  UNL d   1       3.324   0.932  -5.202  0.00  0.00     0.002 A 
ATOM      3  C4  UNL d   1       3.936   1.901  -5.999  0.00  0.00     0.002 A 
ATOM      4  C5  UNL d   1       5.221   2.346  -5.695  0.00  0.00    -0.004 A 
ATOM      5  C6  UNL d   1       5.893   1.828  -4.589  0.00  0.00     0.002 A 
ATOM      6  C7  UNL d   1       5.282   0.861  -3.790  0.00  0.00     0.002 A 
ENDROOT
BRANCH   1   7
ATOM      7  C1  UNL d   1       3.354  -0.676  -3.256  0.00  0.00     0.055 C 
ATOM      8  C   UNL d   1       2.193  -1.329  -3.992  0.00  0.00     0.019 C 
ENDBRANCH   1   7
TORSDOF 1
ENDMDL
