MODEL 1
REMARK minimizedAffinity 2.03526807
REMARK minimizedRMSD -1
REMARK  1 active torsions:
REMARK  status: ('A' for Active; 'I' for Inactive)
REMARK    1  A    between atoms: C1_2  and  C2_3 
ROOT
ATOM      1  C2  UNL d   1      -3.618  -5.989   1.984  0.00  0.00    -0.077 A 
ATOM      2  C3  UNL d   1      -2.914  -5.993   3.196  0.00  0.00     0.002 A 
ATOM      3  C4  UNL d   1      -1.518  -5.997   3.203  0.00  0.00     0.002 A 
ATOM      4  C5  UNL d   1      -0.814  -5.993   2.000  0.00  0.00    -0.004 A 
ATOM      5  C6  UNL d   1      -1.505  -5.991   0.789  0.00  0.00     0.002 A 
ATOM      6  C7  UNL d   1      -2.901  -5.988   0.781  0.00  0.00     0.002 A 
ENDROOT
BRANCH   1   7
ATOM      7  C1  UNL d   1      -5.123  -5.934   1.975  0.00  0.00     0.055 C 
ATOM      8  C   UNL d   1      -5.687  -5.988   3.388  0.00  0.00     0.019 C 
ENDBRANCH   1   7
TORSDOF 1
ENDMDL
