MODEL 1
REMARK minimizedAffinity 1.31934464
REMARK minimizedRMSD -1
REMARK  1 active torsions:
REMARK  status: ('A' for Active; 'I' for Inactive)
REMARK    1  A    between atoms: C1_2  and  C2_3 
ROOT
ATOM      1  C2  UNL d   1       1.422  -5.966   2.748  0.00  0.00    -0.077 A 
ATOM      2  C3  UNL d   1       1.190  -5.966   4.130  0.00  0.00     0.002 A 
ATOM      3  C4  UNL d   1      -0.115  -5.980   4.627  0.00  0.00     0.002 A 
ATOM      4  C5  UNL d   1      -1.196  -6.000   3.749  0.00  0.00    -0.004 A 
ATOM      5  C6  UNL d   1      -0.976  -5.998   2.372  0.00  0.00     0.002 A 
ATOM      6  C7  UNL d   1       0.328  -5.982   1.874  0.00  0.00     0.002 A 
ENDROOT
BRANCH   1   7
ATOM      7  C1  UNL d   1       2.829  -6.000   2.210  0.00  0.00     0.055 C 
ATOM      8  C   UNL d   1       3.853  -5.999   3.336  0.00  0.00     0.019 C 
ENDBRANCH   1   7
TORSDOF 1
ENDMDL
