MODEL 1
REMARK minimizedAffinity 10.7347364
REMARK minimizedRMSD -1
REMARK  1 active torsions:
REMARK  status: ('A' for Active; 'I' for Inactive)
REMARK    1  A    between atoms: C1_2  and  C2_3 
ROOT
ATOM      1  C2  UNL d   1       0.593  -0.783   0.101  0.00  0.00    -0.077 A 
ATOM      2  C3  UNL d   1       0.790   0.437   0.762  0.00  0.00     0.002 A 
ATOM      3  C4  UNL d   1       0.024   0.766   1.882  0.00  0.00     0.002 A 
ATOM      4  C5  UNL d   1      -0.941  -0.122   2.353  0.00  0.00    -0.004 A 
ATOM      5  C6  UNL d   1      -1.146  -1.337   1.701  0.00  0.00     0.002 A 
ATOM      6  C7  UNL d   1      -0.382  -1.667   0.581  0.00  0.00     0.002 A 
ENDROOT
BRANCH   1   7
ATOM      7  C1  UNL d   1       1.452  -1.161  -1.077  0.00  0.00     0.055 C 
ATOM      8  C   UNL d   1       0.604  -1.502  -2.294  0.00  0.00     0.019 C 
ENDBRANCH   1   7
TORSDOF 1
ENDMDL
