MODEL 1
REMARK minimizedAffinity 14.8617725
REMARK minimizedRMSD -1
REMARK  0 active torsions:
REMARK  status: ('A' for Active; 'I' for Inactive)
ROOT
ATOM      1  C   UNL d   1       0.869   6.000  -0.937  0.00  0.00     0.023 A 
ATOM      2  C1  UNL d   1       0.842   5.769   0.438  0.00  0.00     0.003 A 
ATOM      3  C2  UNL d   1       1.114   4.494   0.939  0.00  0.00     0.048 A 
ATOM      4  C3  UNL d   1       1.415   3.455   0.059  0.00  0.00     0.023 A 
ATOM      5  C4  UNL d   1       1.445   3.682  -1.318  0.00  0.00     0.048 A 
ATOM      6  C5  UNL d   1       1.171   4.958  -1.814  0.00  0.00     0.003 A 
ATOM      7  I   UNL d   1       1.822   1.557   0.802  0.00  0.00    -0.146 I 
ENDROOT
TORSDOF 0
ENDMDL
