MODEL 1
REMARK minimizedAffinity 13.9406862
REMARK minimizedRMSD -1
REMARK  0 active torsions:
REMARK  status: ('A' for Active; 'I' for Inactive)
ROOT
ATOM      1  C   UNL d   1       0.744   1.302  -1.320  0.00  0.00     0.023 A 
ATOM      2  C1  UNL d   1      -0.166   2.201  -1.877  0.00  0.00     0.003 A 
ATOM      3  C2  UNL d   1      -0.126   3.549  -1.516  0.00  0.00     0.048 A 
ATOM      4  C3  UNL d   1       0.826   3.992  -0.599  0.00  0.00     0.023 A 
ATOM      5  C4  UNL d   1       1.739   3.097  -0.040  0.00  0.00     0.048 A 
ATOM      6  C5  UNL d   1       1.695   1.749  -0.403  0.00  0.00     0.003 A 
ATOM      7  I   UNL d   1       0.886   5.999  -0.061  0.00  0.00    -0.146 I 
ENDROOT
TORSDOF 0
ENDMDL
