MODEL 1
REMARK minimizedAffinity 14.0349302
REMARK minimizedRMSD -1
REMARK  0 active torsions:
REMARK  status: ('A' for Active; 'I' for Inactive)
ROOT
ATOM      1  C   UNL d   1      -2.558   4.332  -2.218  0.00  0.00     0.023 A 
ATOM      2  C1  UNL d   1      -3.747   4.443  -1.496  0.00  0.00     0.003 A 
ATOM      3  C2  UNL d   1      -4.736   3.465  -1.622  0.00  0.00     0.048 A 
ATOM      4  C3  UNL d   1      -4.529   2.379  -2.472  0.00  0.00     0.023 A 
ATOM      5  C4  UNL d   1      -3.341   2.264  -3.196  0.00  0.00     0.048 A 
ATOM      6  C5  UNL d   1      -2.356   3.244  -3.067  0.00  0.00     0.003 A 
ATOM      7  I   UNL d   1      -6.000   0.922  -2.662  0.00  0.00    -0.146 I 
ENDROOT
TORSDOF 0
ENDMDL
