MODEL 1
REMARK minimizedAffinity 10.7464523
REMARK minimizedRMSD -1
REMARK  0 active torsions:
REMARK  status: ('A' for Active; 'I' for Inactive)
ROOT
ATOM      1  C   UNL d   1      -3.658   3.497  -2.780  0.00  0.00     0.023 A 
ATOM      2  C1  UNL d   1      -2.687   3.409  -3.778  0.00  0.00     0.003 A 
ATOM      3  C2  UNL d   1      -1.341   3.273  -3.434  0.00  0.00     0.048 A 
ATOM      4  C3  UNL d   1      -0.972   3.223  -2.090  0.00  0.00     0.023 A 
ATOM      5  C4  UNL d   1      -1.940   3.309  -1.088  0.00  0.00     0.048 A 
ATOM      6  C5  UNL d   1      -3.285   3.447  -1.437  0.00  0.00     0.003 A 
ATOM      7  I   UNL d   1       1.031   3.019  -1.575  0.00  0.00    -0.146 I 
ENDROOT
TORSDOF 0
ENDMDL
