MODEL 1
REMARK minimizedAffinity 16.1254559
REMARK minimizedRMSD -1
REMARK  0 active torsions:
REMARK  status: ('A' for Active; 'I' for Inactive)
ROOT
ATOM      1  C   UNL d   1      -1.808   3.157  -3.130  0.00  0.00     0.023 A 
ATOM      2  C1  UNL d   1      -2.718   2.288  -2.528  0.00  0.00     0.003 A 
ATOM      3  C2  UNL d   1      -3.790   2.798  -1.792  0.00  0.00     0.048 A 
ATOM      4  C3  UNL d   1      -3.946   4.177  -1.663  0.00  0.00     0.023 A 
ATOM      5  C4  UNL d   1      -3.038   5.051  -2.265  0.00  0.00     0.048 A 
ATOM      6  C5  UNL d   1      -1.968   4.536  -2.999  0.00  0.00     0.003 A 
ATOM      7  I   UNL d   1      -5.541   4.938  -0.569  0.00  0.00    -0.146 I 
ENDROOT
TORSDOF 0
ENDMDL
