MODEL 1
REMARK minimizedAffinity 19.7342453
REMARK minimizedRMSD -1
REMARK  0 active torsions:
REMARK  status: ('A' for Active; 'I' for Inactive)
ROOT
ATOM      1  C   UNL d   1       4.969  -0.805  -2.918  0.00  0.00     0.023 A 
ATOM      2  C1  UNL d   1       4.391   0.462  -2.847  0.00  0.00     0.003 A 
ATOM      3  C2  UNL d   1       3.848   0.917  -1.644  0.00  0.00     0.048 A 
ATOM      4  C3  UNL d   1       3.887   0.100  -0.515  0.00  0.00     0.023 A 
ATOM      5  C4  UNL d   1       4.465  -1.169  -0.580  0.00  0.00     0.048 A 
ATOM      6  C5  UNL d   1       5.006  -1.620  -1.786  0.00  0.00     0.003 A 
ATOM      7  I   UNL d   1       3.079   0.776   1.277  0.00  0.00    -0.146 I 
ENDROOT
TORSDOF 0
ENDMDL
