MODEL 1
REMARK minimizedAffinity 9.37056732
REMARK minimizedRMSD -1
REMARK  0 active torsions:
REMARK  status: ('A' for Active; 'I' for Inactive)
ROOT
ATOM      1  C   UNL d   1      -1.828  -2.247   3.743  0.00  0.00     0.023 A 
ATOM      2  C1  UNL d   1      -1.327  -3.023   2.697  0.00  0.00     0.003 A 
ATOM      3  C2  UNL d   1      -0.142  -2.653   2.057  0.00  0.00     0.048 A 
ATOM      4  C3  UNL d   1       0.538  -1.507   2.469  0.00  0.00     0.023 A 
ATOM      5  C4  UNL d   1       0.040  -0.728   3.515  0.00  0.00     0.048 A 
ATOM      6  C5  UNL d   1      -1.145  -1.101   4.151  0.00  0.00     0.003 A 
ATOM      7  I   UNL d   1       2.301  -0.955   1.518  0.00  0.00    -0.146 I 
ENDROOT
TORSDOF 0
ENDMDL
