MODEL 1
REMARK minimizedAffinity 9.53243637
REMARK minimizedRMSD -1
REMARK  0 active torsions:
REMARK  status: ('A' for Active; 'I' for Inactive)
ROOT
ATOM      1  C   UNL d   1       1.388  -2.996   1.753  0.00  0.00     0.023 A 
ATOM      2  C1  UNL d   1       2.380  -2.793   0.793  0.00  0.00     0.003 A 
ATOM      3  C2  UNL d   1       2.822  -1.500   0.506  0.00  0.00     0.048 A 
ATOM      4  C3  UNL d   1       2.268  -0.414   1.183  0.00  0.00     0.023 A 
ATOM      5  C4  UNL d   1       1.276  -0.612   2.145  0.00  0.00     0.048 A 
ATOM      6  C5  UNL d   1       0.836  -1.907   2.427  0.00  0.00     0.003 A 
ATOM      7  I   UNL d   1       2.924   1.512   0.758  0.00  0.00    -0.146 I 
ENDROOT
TORSDOF 0
ENDMDL
