MODEL 1
REMARK minimizedAffinity 6.45021152
REMARK minimizedRMSD -1
REMARK  0 active torsions:
REMARK  status: ('A' for Active; 'I' for Inactive)
ROOT
ATOM      1  C   UNL d   1      -1.615  -2.229   4.615  0.00  0.00     0.023 A 
ATOM      2  C1  UNL d   1      -0.910  -1.026   4.657  0.00  0.00     0.003 A 
ATOM      3  C2  UNL d   1       0.119  -0.786   3.743  0.00  0.00     0.048 A 
ATOM      4  C3  UNL d   1       0.437  -1.753   2.790  0.00  0.00     0.023 A 
ATOM      5  C4  UNL d   1      -0.266  -2.958   2.744  0.00  0.00     0.048 A 
ATOM      6  C5  UNL d   1      -1.293  -3.194   3.660  0.00  0.00     0.003 A 
ATOM      7  I   UNL d   1       1.968  -1.398   1.430  0.00  0.00    -0.146 I 
ENDROOT
TORSDOF 0
ENDMDL
