MODEL 1
REMARK minimizedAffinity 7.75165939
REMARK minimizedRMSD -1
REMARK  0 active torsions:
REMARK  status: ('A' for Active; 'I' for Inactive)
ROOT
ATOM      1  C   UNL d   1       2.056  -1.736   1.165  0.00  0.00     0.023 A 
ATOM      2  C1  UNL d   1       2.182  -0.510   1.819  0.00  0.00     0.003 A 
ATOM      3  C2  UNL d   1       1.324  -0.187   2.872  0.00  0.00     0.048 A 
ATOM      4  C3  UNL d   1       0.342  -1.095   3.267  0.00  0.00     0.023 A 
ATOM      5  C4  UNL d   1       0.213  -2.323   2.617  0.00  0.00     0.048 A 
ATOM      6  C5  UNL d   1       1.073  -2.641   1.564  0.00  0.00     0.003 A 
ATOM      7  I   UNL d   1      -0.936  -0.616   4.834  0.00  0.00    -0.146 I 
ENDROOT
TORSDOF 0
ENDMDL
