MODEL 1
REMARK minimizedAffinity 7.25010204
REMARK minimizedRMSD -1
REMARK  0 active torsions:
REMARK  status: ('A' for Active; 'I' for Inactive)
ROOT
ATOM      1  C   UNL d   1      -2.008   5.031  -6.000  0.00  0.00     0.023 A 
ATOM      2  C1  UNL d   1      -1.993   5.907  -4.915  0.00  0.00     0.003 A 
ATOM      3  C2  UNL d   1      -2.476   5.491  -3.673  0.00  0.00     0.048 A 
ATOM      4  C3  UNL d   1      -2.971   4.196  -3.522  0.00  0.00     0.023 A 
ATOM      5  C4  UNL d   1      -2.986   3.315  -4.604  0.00  0.00     0.048 A 
ATOM      6  C5  UNL d   1      -2.504   3.736  -5.845  0.00  0.00     0.003 A 
ATOM      7  I   UNL d   1      -3.689   3.574  -1.673  0.00  0.00    -0.146 I 
ENDROOT
TORSDOF 0
ENDMDL
