MODEL 1
REMARK minimizedAffinity 18.6693802
REMARK minimizedRMSD -1
REMARK  0 active torsions:
REMARK  status: ('A' for Active; 'I' for Inactive)
ROOT
ATOM      1  C   UNL d   1      -2.111   4.715  -4.528  0.00  0.00     0.023 A 
ATOM      2  C1  UNL d   1      -2.108   3.375  -4.138  0.00  0.00     0.003 A 
ATOM      3  C2  UNL d   1      -1.391   2.977  -3.007  0.00  0.00     0.048 A 
ATOM      4  C3  UNL d   1      -0.681   3.925  -2.271  0.00  0.00     0.023 A 
ATOM      5  C4  UNL d   1      -0.682   5.266  -2.656  0.00  0.00     0.048 A 
ATOM      6  C5  UNL d   1      -1.399   5.659  -3.788  0.00  0.00     0.003 A 
ATOM      7  I   UNL d   1       0.386   3.335  -0.587  0.00  0.00    -0.146 I 
ENDROOT
TORSDOF 0
ENDMDL
