MODEL 1
REMARK minimizedAffinity 12.8349705
REMARK minimizedRMSD -1
REMARK  0 active torsions:
REMARK  status: ('A' for Active; 'I' for Inactive)
ROOT
ATOM      1  C   UNL d   1      -1.581  -2.420   3.720  0.00  0.00     0.023 A 
ATOM      2  C1  UNL d   1      -1.241  -1.092   3.976  0.00  0.00     0.003 A 
ATOM      3  C2  UNL d   1      -0.132  -0.519   3.349  0.00  0.00     0.048 A 
ATOM      4  C3  UNL d   1       0.632  -1.281   2.466  0.00  0.00     0.023 A 
ATOM      5  C4  UNL d   1       0.295  -2.610   2.205  0.00  0.00     0.048 A 
ATOM      6  C5  UNL d   1      -0.813  -3.179   2.835  0.00  0.00     0.003 A 
ATOM      7  I   UNL d   1       2.282  -0.431   1.531  0.00  0.00    -0.146 I 
ENDROOT
TORSDOF 0
ENDMDL
