MODEL 1
REMARK minimizedAffinity 11.4380035
REMARK minimizedRMSD -1
REMARK  0 active torsions:
REMARK  status: ('A' for Active; 'I' for Inactive)
ROOT
ATOM      1  C   UNL d   1      -1.729   3.905  -3.500  0.00  0.00     0.023 A 
ATOM      2  C1  UNL d   1      -2.048   5.193  -3.070  0.00  0.00     0.003 A 
ATOM      3  C2  UNL d   1      -3.050   5.385  -2.117  0.00  0.00     0.048 A 
ATOM      4  C3  UNL d   1      -3.729   4.284  -1.597  0.00  0.00     0.023 A 
ATOM      5  C4  UNL d   1      -3.413   2.993  -2.023  0.00  0.00     0.048 A 
ATOM      6  C5  UNL d   1      -2.411   2.806  -2.977  0.00  0.00     0.003 A 
ATOM      7  I   UNL d   1      -5.221   4.567  -0.177  0.00  0.00    -0.146 I 
ENDROOT
TORSDOF 0
ENDMDL
