MODEL 1
REMARK minimizedAffinity 4.17049551
REMARK minimizedRMSD -1
REMARK  0 active torsions:
REMARK  status: ('A' for Active; 'I' for Inactive)
ROOT
ATOM      1  C   UNL d   1       0.028  -1.551   2.478  0.00  0.00     0.023 A 
ATOM      2  C1  UNL d   1      -0.151  -0.746   3.603  0.00  0.00     0.003 A 
ATOM      3  C2  UNL d   1      -1.181  -1.022   4.505  0.00  0.00     0.048 A 
ATOM      4  C3  UNL d   1      -2.028  -2.106   4.276  0.00  0.00     0.023 A 
ATOM      5  C4  UNL d   1      -1.852  -2.915   3.152  0.00  0.00     0.048 A 
ATOM      6  C5  UNL d   1      -0.822  -2.634   2.253  0.00  0.00     0.003 A 
ATOM      7  I   UNL d   1      -3.562  -2.519   5.616  0.00  0.00    -0.146 I 
ENDROOT
TORSDOF 0
ENDMDL
