MODEL 1
REMARK minimizedAffinity 12.5924273
REMARK minimizedRMSD -1
REMARK  0 active torsions:
REMARK  status: ('A' for Active; 'I' for Inactive)
ROOT
ATOM      1  C   UNL d   1      -1.806  -2.269   3.803  0.00  0.00     0.023 A 
ATOM      2  C1  UNL d   1      -0.959  -3.046   3.014  0.00  0.00     0.003 A 
ATOM      3  C2  UNL d   1       0.180  -2.477   2.439  0.00  0.00     0.048 A 
ATOM      4  C3  UNL d   1       0.465  -1.130   2.658  0.00  0.00     0.023 A 
ATOM      5  C4  UNL d   1      -0.379  -0.348   3.448  0.00  0.00     0.048 A 
ATOM      6  C5  UNL d   1      -1.516  -0.921   4.020  0.00  0.00     0.003 A 
ATOM      7  I   UNL d   1       2.159  -0.281   1.804  0.00  0.00    -0.146 I 
ENDROOT
TORSDOF 0
ENDMDL
