MODEL 1
REMARK minimizedAffinity 15.0835428
REMARK minimizedRMSD -1
REMARK  0 active torsions:
REMARK  status: ('A' for Active; 'I' for Inactive)
ROOT
ATOM      1  C   UNL d   1      -1.509   5.131  -3.698  0.00  0.00     0.023 A 
ATOM      2  C1  UNL d   1      -1.820   3.771  -3.688  0.00  0.00     0.003 A 
ATOM      3  C2  UNL d   1      -2.768   3.278  -2.789  0.00  0.00     0.048 A 
ATOM      4  C3  UNL d   1      -3.402   4.150  -1.904  0.00  0.00     0.023 A 
ATOM      5  C4  UNL d   1      -3.094   5.511  -1.912  0.00  0.00     0.048 A 
ATOM      6  C5  UNL d   1      -2.145   6.000  -2.812  0.00  0.00     0.003 A 
ATOM      7  I   UNL d   1      -4.813   3.418  -0.566  0.00  0.00    -0.146 I 
ENDROOT
TORSDOF 0
ENDMDL
