MODEL 1
REMARK minimizedAffinity 9.17268085
REMARK minimizedRMSD -1
REMARK  0 active torsions:
REMARK  status: ('A' for Active; 'I' for Inactive)
ROOT
ATOM      1  C   UNL d   1      -2.132  -2.082   4.074  0.00  0.00     0.023 A 
ATOM      2  C1  UNL d   1      -1.751  -3.081   3.178  0.00  0.00     0.003 A 
ATOM      3  C2  UNL d   1      -0.592  -2.932   2.414  0.00  0.00     0.048 A 
ATOM      4  C3  UNL d   1       0.183  -1.780   2.551  0.00  0.00     0.023 A 
ATOM      5  C4  UNL d   1      -0.194  -0.778   3.447  0.00  0.00     0.048 A 
ATOM      6  C5  UNL d   1      -1.354  -0.932   4.208  0.00  0.00     0.003 A 
ATOM      7  I   UNL d   1       1.909  -1.555   1.416  0.00  0.00    -0.146 I 
ENDROOT
TORSDOF 0
ENDMDL
