MODEL 1
REMARK minimizedAffinity -0.0287440252
REMARK minimizedRMSD -1
REMARK  3 active torsions:
REMARK  status: ('A' for Active; 'I' for Inactive)
REMARK    1  A    between atoms: C3'_2  and  C2'_3 
REMARK    2  A    between atoms: C2'_3  and  C1'_4 
REMARK    3  A    between atoms: C1'_4  and  C1_5 
ROOT
ATOM      1  C1  N4B d   1      -0.362   2.328   1.116  0.00  0.00    -0.075 A 
ATOM      2  C2  N4B d   1      -0.406   1.388   0.063  0.00  0.00     0.002 A 
ATOM      3  C3  N4B d   1      -0.427   1.818  -1.241  0.00  0.00     0.002 A 
ATOM      4  C4  N4B d   1      -0.424   3.178  -1.514  0.00  0.00    -0.004 A 
ATOM      5  C5  N4B d   1      -0.356   4.079  -0.492  0.00  0.00     0.002 A 
ATOM      6  C6  N4B d   1      -0.330   3.660   0.823  0.00  0.00     0.002 A 
ENDROOT
BRANCH   1   7
ATOM      7  C1' N4B d   1      -0.425   1.907   2.559  0.00  0.00     0.057 C 
BRANCH   7   8
ATOM      8  C2' N4B d   1       0.284   0.566   2.721  0.00  0.00     0.009 C 
BRANCH   8   9
ATOM      9  C3' N4B d   1      -0.106  -0.131   4.013  0.00  0.00     0.004 C 
ATOM     10  C4' N4B d   1       0.604  -1.438   4.205  0.00  0.00     0.003 C 
ENDBRANCH   8   9
ENDBRANCH   7   8
ENDBRANCH   1   7
TORSDOF 3
ENDMDL
