MODEL 1
REMARK minimizedAffinity 4.50733662
REMARK minimizedRMSD -1
REMARK  3 active torsions:
REMARK  status: ('A' for Active; 'I' for Inactive)
REMARK    1  A    between atoms: C3'_2  and  C2'_3 
REMARK    2  A    between atoms: C2'_3  and  C1'_4 
REMARK    3  A    between atoms: C1'_4  and  C1_5 
ROOT
ATOM      1  C1  N4B d   1      -0.970   1.684  -1.677  0.00  0.00    -0.075 A 
ATOM      2  C2  N4B d   1      -0.267   0.807  -2.532  0.00  0.00     0.002 A 
ATOM      3  C3  N4B d   1      -0.827  -0.393  -2.895  0.00  0.00     0.002 A 
ATOM      4  C4  N4B d   1      -2.075  -0.745  -2.403  0.00  0.00    -0.004 A 
ATOM      5  C5  N4B d   1      -2.758   0.120  -1.598  0.00  0.00     0.002 A 
ATOM      6  C6  N4B d   1      -2.209   1.331  -1.228  0.00  0.00     0.002 A 
ENDROOT
BRANCH   1   7
ATOM      7  C1' N4B d   1      -0.362   2.969  -1.184  0.00  0.00     0.057 C 
BRANCH   7   8
ATOM      8  C2' N4B d   1      -0.871   3.254   0.226  0.00  0.00     0.009 C 
BRANCH   8   9
ATOM      9  C3' N4B d   1      -0.007   2.593   1.287  0.00  0.00     0.004 C 
ATOM     10  C4' N4B d   1      -0.814   1.924   2.359  0.00  0.00     0.003 C 
ENDBRANCH   8   9
ENDBRANCH   7   8
ENDBRANCH   1   7
TORSDOF 3
ENDMDL
