MODEL 1
REMARK minimizedAffinity 2.66556931
REMARK minimizedRMSD -1
REMARK  3 active torsions:
REMARK  status: ('A' for Active; 'I' for Inactive)
REMARK    1  A    between atoms: C3'_2  and  C2'_3 
REMARK    2  A    between atoms: C2'_3  and  C1'_4 
REMARK    3  A    between atoms: C1'_4  and  C1_5 
ROOT
ATOM      1  C1  N4B d   1       3.246  -2.287  -0.918  0.00  0.00    -0.075 A 
ATOM      2  C2  N4B d   1       3.351  -3.655  -0.583  0.00  0.00     0.002 A 
ATOM      3  C3  N4B d   1       4.486  -4.356  -0.908  0.00  0.00     0.002 A 
ATOM      4  C4  N4B d   1       5.517  -3.719  -1.583  0.00  0.00    -0.004 A 
ATOM      5  C5  N4B d   1       5.418  -2.391  -1.881  0.00  0.00     0.002 A 
ATOM      6  C6  N4B d   1       4.285  -1.673  -1.556  0.00  0.00     0.002 A 
ENDROOT
BRANCH   1   7
ATOM      7  C1' N4B d   1       1.990  -1.500  -0.659  0.00  0.00     0.057 C 
BRANCH   7   8
ATOM      8  C2' N4B d   1       0.783  -2.332  -1.082  0.00  0.00     0.009 C 
BRANCH   8   9
ATOM      9  C3' N4B d   1      -0.254  -1.497  -1.814  0.00  0.00     0.004 C 
ATOM     10  C4' N4B d   1       0.046  -0.028  -1.769  0.00  0.00     0.003 C 
ENDBRANCH   8   9
ENDBRANCH   7   8
ENDBRANCH   1   7
TORSDOF 3
ENDMDL
