MODEL 1
REMARK minimizedAffinity 8.40599918
REMARK minimizedRMSD -1
REMARK  1 active torsions:
REMARK  status: ('A' for Active; 'I' for Inactive)
REMARK    1  A    between atoms: C1_2  and  C2_3 
ROOT
ATOM      1  C2  UNL d   1       2.559   0.813   2.035  0.00  0.00    -0.076 A 
ATOM      2  C3  UNL d   1       2.843   1.450   0.814  0.00  0.00     0.004 A 
ATOM      3  C4  UNL d   1       4.122   1.403   0.261  0.00  0.00    -0.003 A 
ATOM      4  C5  UNL d   1       5.137   0.718   0.919  0.00  0.00     0.000 A 
ATOM      5  C6  UNL d   1       4.869   0.065   2.122  0.00  0.00     0.000 A 
ATOM      6  C7  UNL d   1       3.581   0.089   2.685  0.00  0.00    -0.073 A 
ATOM      7  C8  UNL d   1       3.350  -0.627   3.988  0.00  0.00     0.078 C 
ENDROOT
BRANCH   1   8
ATOM      8  C1  UNL d   1       1.161   0.920   2.600  0.00  0.00     0.053 C 
ATOM      9  C   UNL d   1       0.380   2.082   2.005  0.00  0.00     0.018 C 
ENDBRANCH   1   8
TORSDOF 1
ENDMDL
