MODEL 1
REMARK minimizedAffinity -0.357793093
REMARK minimizedRMSD -1
REMARK  1 active torsions:
REMARK  status: ('A' for Active; 'I' for Inactive)
REMARK    1  A    between atoms: C1_2  and  C2_3 
ROOT
ATOM      1  C2  UNL d   1      -5.064   3.781   3.744  0.00  0.00    -0.076 A 
ATOM      2  C3  UNL d   1      -4.834   3.700   5.128  0.00  0.00     0.004 A 
ATOM      3  C4  UNL d   1      -5.170   4.755   5.974  0.00  0.00    -0.003 A 
ATOM      4  C5  UNL d   1      -5.743   5.909   5.450  0.00  0.00     0.000 A 
ATOM      5  C6  UNL d   1      -5.994   6.000   4.081  0.00  0.00     0.000 A 
ATOM      6  C7  UNL d   1      -5.676   4.939   3.216  0.00  0.00    -0.073 A 
ATOM      7  C8  UNL d   1      -5.963   5.093   1.748  0.00  0.00     0.078 C 
ENDROOT
BRANCH   1   8
ATOM      8  C1  UNL d   1      -4.653   2.616   2.872  0.00  0.00     0.053 C 
ATOM      9  C   UNL d   1      -4.428   1.342   3.670  0.00  0.00     0.018 C 
ENDBRANCH   1   8
TORSDOF 1
ENDMDL
