MODEL 1
REMARK minimizedAffinity 4.31702852
REMARK minimizedRMSD -1
REMARK  1 active torsions:
REMARK  status: ('A' for Active; 'I' for Inactive)
REMARK    1  A    between atoms: C1_2  and  C2_3 
ROOT
ATOM      1  C2  UNL d   1       2.806   3.193   1.423  0.00  0.00    -0.076 A 
ATOM      2  C3  UNL d   1       3.916   2.332   1.422  0.00  0.00     0.004 A 
ATOM      3  C4  UNL d   1       3.765   0.967   1.185  0.00  0.00    -0.003 A 
ATOM      4  C5  UNL d   1       2.500   0.441   0.945  0.00  0.00     0.000 A 
ATOM      5  C6  UNL d   1       1.390   1.283   0.925  0.00  0.00     0.000 A 
ATOM      6  C7  UNL d   1       1.527   2.665   1.145  0.00  0.00    -0.073 A 
ATOM      7  C8  UNL d   1       0.294   3.526   1.118  0.00  0.00     0.078 C 
ENDROOT
BRANCH   1   8
ATOM      8  C1  UNL d   1       3.028   4.661   1.713  0.00  0.00     0.053 C 
ATOM      9  C   UNL d   1       4.273   5.207   1.033  0.00  0.00     0.018 C 
ENDBRANCH   1   8
TORSDOF 1
ENDMDL
