MODEL 1
REMARK minimizedAffinity 12.9121094
REMARK minimizedRMSD -1
REMARK  1 active torsions:
REMARK  status: ('A' for Active; 'I' for Inactive)
REMARK    1  A    between atoms: C1_2  and  C2_3 
ROOT
ATOM      1  C2  UNL d   1      -4.856   3.859   3.799  0.00  0.00    -0.076 A 
ATOM      2  C3  UNL d   1      -4.534   3.864   5.168  0.00  0.00     0.004 A 
ATOM      3  C4  UNL d   1      -4.913   4.924   5.990  0.00  0.00    -0.003 A 
ATOM      4  C5  UNL d   1      -5.620   5.996   5.457  0.00  0.00     0.000 A 
ATOM      5  C6  UNL d   1      -5.963   5.999   4.106  0.00  0.00     0.000 A 
ATOM      6  C7  UNL d   1      -5.603   4.931   3.266  0.00  0.00    -0.073 A 
ATOM      7  C8  UNL d   1      -5.994   4.990   1.815  0.00  0.00     0.078 C 
ENDROOT
BRANCH   1   8
ATOM      8  C1  UNL d   1      -4.395   2.695   2.951  0.00  0.00     0.053 C 
ATOM      9  C   UNL d   1      -4.355   1.388   3.728  0.00  0.00     0.018 C 
ENDBRANCH   1   8
TORSDOF 1
ENDMDL
