MODEL 1
REMARK minimizedAffinity 22.4339523
REMARK minimizedRMSD -1
REMARK  1 active torsions:
REMARK  status: ('A' for Active; 'I' for Inactive)
REMARK    1  A    between atoms: C1_2  and  C2_3 
ROOT
ATOM      1  C2  UNL d   1      -1.207   1.056   3.442  0.00  0.00    -0.076 A 
ATOM      2  C3  UNL d   1      -1.892   2.281   3.382  0.00  0.00     0.004 A 
ATOM      3  C4  UNL d   1      -3.253   2.329   3.085  0.00  0.00    -0.003 A 
ATOM      4  C5  UNL d   1      -3.951   1.150   2.844  0.00  0.00     0.000 A 
ATOM      5  C6  UNL d   1      -3.291  -0.076   2.916  0.00  0.00     0.000 A 
ATOM      6  C7  UNL d   1      -1.923  -0.142   3.230  0.00  0.00    -0.073 A 
ATOM      7  C8  UNL d   1      -1.260  -1.491   3.289  0.00  0.00     0.078 C 
ENDROOT
BRANCH   1   8
ATOM      8  C1  UNL d   1       0.275   1.069   3.742  0.00  0.00     0.053 C 
ATOM      9  C   UNL d   1       0.582   0.681   5.180  0.00  0.00     0.018 C 
ENDBRANCH   1   8
TORSDOF 1
ENDMDL
