MODEL 1
REMARK minimizedAffinity 8.21111202
REMARK minimizedRMSD -1
REMARK  1 active torsions:
REMARK  status: ('A' for Active; 'I' for Inactive)
REMARK    1  A    between atoms: C1_2  and  C2_3 
ROOT
ATOM      1  C2  UNL d   1       2.919   5.213   1.638  0.00  0.00    -0.076 A 
ATOM      2  C3  UNL d   1       1.850   6.000   2.102  0.00  0.00     0.004 A 
ATOM      3  C4  UNL d   1       0.557   5.484   2.172  0.00  0.00    -0.003 A 
ATOM      4  C5  UNL d   1       0.311   4.173   1.779  0.00  0.00     0.000 A 
ATOM      5  C6  UNL d   1       1.362   3.373   1.333  0.00  0.00     0.000 A 
ATOM      6  C7  UNL d   1       2.675   3.872   1.271  0.00  0.00    -0.073 A 
ATOM      7  C8  UNL d   1       3.769   2.966   0.776  0.00  0.00     0.078 C 
ENDROOT
BRANCH   1   8
ATOM      8  C1  UNL d   1       4.295   5.834   1.558  0.00  0.00     0.053 C 
ATOM      9  C   UNL d   1       5.110   5.607   2.822  0.00  0.00     0.018 C 
ENDBRANCH   1   8
TORSDOF 1
ENDMDL
