MODEL 1
REMARK minimizedAffinity 10.8186178
REMARK minimizedRMSD -1
REMARK  1 active torsions:
REMARK  status: ('A' for Active; 'I' for Inactive)
REMARK    1  A    between atoms: C1_2  and  C2_3 
ROOT
ATOM      1  C2  UNL d   1      -3.845  -3.714  -2.793  0.00  0.00    -0.076 A 
ATOM      2  C3  UNL d   1      -5.154  -3.378  -3.182  0.00  0.00     0.004 A 
ATOM      3  C4  UNL d   1      -5.999  -4.330  -3.749  0.00  0.00    -0.003 A 
ATOM      4  C5  UNL d   1      -5.551  -5.632  -3.937  0.00  0.00     0.000 A 
ATOM      5  C6  UNL d   1      -4.262  -5.987  -3.540  0.00  0.00     0.000 A 
ATOM      6  C7  UNL d   1      -3.402  -5.044  -2.952  0.00  0.00    -0.073 A 
ATOM      7  C8  UNL d   1      -2.020  -5.480  -2.549  0.00  0.00     0.078 C 
ENDROOT
BRANCH   1   8
ATOM      8  C1  UNL d   1      -2.964  -2.633  -2.208  0.00  0.00     0.053 C 
ATOM      9  C   UNL d   1      -2.988  -2.622  -0.687  0.00  0.00     0.018 C 
ENDBRANCH   1   8
TORSDOF 1
ENDMDL
