MODEL 1
REMARK minimizedAffinity 13.1349401
REMARK minimizedRMSD -1
REMARK  1 active torsions:
REMARK  status: ('A' for Active; 'I' for Inactive)
REMARK    1  A    between atoms: C1_2  and  C2_3 
ROOT
ATOM      1  C2  UNL d   1       0.198   3.884  -2.228  0.00  0.00    -0.076 A 
ATOM      2  C3  UNL d   1      -0.326   2.639  -1.837  0.00  0.00     0.004 A 
ATOM      3  C4  UNL d   1       0.278   1.449  -2.237  0.00  0.00    -0.003 A 
ATOM      4  C5  UNL d   1       1.417   1.483  -3.034  0.00  0.00     0.000 A 
ATOM      5  C6  UNL d   1       1.960   2.709  -3.417  0.00  0.00     0.000 A 
ATOM      6  C7  UNL d   1       1.373   3.919  -3.009  0.00  0.00    -0.073 A 
ATOM      7  C8  UNL d   1       1.998   5.212  -3.455  0.00  0.00     0.078 C 
ENDROOT
BRANCH   1   8
ATOM      8  C1  UNL d   1      -0.516   5.141  -1.786  0.00  0.00     0.053 C 
ATOM      9  C   UNL d   1      -1.944   4.873  -1.336  0.00  0.00     0.018 C 
ENDBRANCH   1   8
TORSDOF 1
ENDMDL
