MODEL 1
REMARK minimizedAffinity 5.33734417
REMARK minimizedRMSD -1
REMARK  1 active torsions:
REMARK  status: ('A' for Active; 'I' for Inactive)
REMARK    1  A    between atoms: C1_2  and  C2_3 
ROOT
ATOM      1  C2  UNL d   1       4.034   5.233  -4.619  0.00  0.00    -0.076 A 
ATOM      2  C3  UNL d   1       3.227   5.997  -5.480  0.00  0.00     0.004 A 
ATOM      3  C4  UNL d   1       1.842   5.844  -5.489  0.00  0.00    -0.003 A 
ATOM      4  C5  UNL d   1       1.240   4.925  -4.636  0.00  0.00     0.000 A 
ATOM      5  C6  UNL d   1       2.023   4.172  -3.763  0.00  0.00     0.000 A 
ATOM      6  C7  UNL d   1       3.420   4.325  -3.730  0.00  0.00    -0.073 A 
ATOM      7  C8  UNL d   1       4.216   3.482  -2.772  0.00  0.00     0.078 C 
ENDROOT
BRANCH   1   8
ATOM      8  C1  UNL d   1       5.533   5.422  -4.673  0.00  0.00     0.053 C 
ATOM      9  C   UNL d   1       6.000   6.000  -6.000  0.00  0.00     0.018 C 
ENDBRANCH   1   8
TORSDOF 1
ENDMDL
