MODEL 1
REMARK minimizedAffinity -0.89598614
REMARK minimizedRMSD -1
REMARK  1 active torsions:
REMARK  status: ('A' for Active; 'I' for Inactive)
REMARK    1  A    between atoms: C1_2  and  C2_3 
ROOT
ATOM      1  C2  UNL d   1       4.235   4.132  -4.699  0.00  0.00    -0.076 A 
ATOM      2  C3  UNL d   1       2.952   3.590  -4.511  0.00  0.00     0.004 A 
ATOM      3  C4  UNL d   1       1.820   4.243  -4.995  0.00  0.00    -0.003 A 
ATOM      4  C5  UNL d   1       1.952   5.448  -5.675  0.00  0.00     0.000 A 
ATOM      5  C6  UNL d   1       3.219   5.992  -5.886  0.00  0.00     0.000 A 
ATOM      6  C7  UNL d   1       4.372   5.338  -5.419  0.00  0.00    -0.073 A 
ATOM      7  C8  UNL d   1       5.713   5.973  -5.669  0.00  0.00     0.078 C 
ENDROOT
BRANCH   1   8
ATOM      8  C1  UNL d   1       5.425   3.393  -4.128  0.00  0.00     0.053 C 
ATOM      9  C   UNL d   1       5.245   3.048  -2.658  0.00  0.00     0.018 C 
ENDBRANCH   1   8
TORSDOF 1
ENDMDL
