MODEL 1
REMARK minimizedAffinity 11.125371
REMARK minimizedRMSD -1
REMARK  1 active torsions:
REMARK  status: ('A' for Active; 'I' for Inactive)
REMARK    1  A    between atoms: C1_2  and  C2_3 
ROOT
ATOM      1  C2  UNL d   1       3.256   0.201   0.595  0.00  0.00    -0.076 A 
ATOM      2  C3  UNL d   1       2.199   0.874  -0.041  0.00  0.00     0.004 A 
ATOM      3  C4  UNL d   1       1.155   1.430   0.696  0.00  0.00    -0.003 A 
ATOM      4  C5  UNL d   1       1.152   1.324   2.082  0.00  0.00     0.000 A 
ATOM      5  C6  UNL d   1       2.202   0.676   2.732  0.00  0.00     0.000 A 
ATOM      6  C7  UNL d   1       3.270   0.123   2.005  0.00  0.00    -0.073 A 
ATOM      7  C8  UNL d   1       4.374  -0.570   2.756  0.00  0.00     0.078 C 
ENDROOT
BRANCH   1   8
ATOM      8  C1  UNL d   1       4.347  -0.406  -0.258  0.00  0.00     0.053 C 
ATOM      9  C   UNL d   1       4.752   0.496  -1.414  0.00  0.00     0.018 C 
ENDBRANCH   1   8
TORSDOF 1
ENDMDL
