MODEL 1
REMARK minimizedAffinity 4.92373562
REMARK minimizedRMSD -1
REMARK  1 active torsions:
REMARK  status: ('A' for Active; 'I' for Inactive)
REMARK    1  A    between atoms: C1_2  and  C2_3 
ROOT
ATOM      1  C2  UNL d   1      -2.113  -2.791  -2.478  0.00  0.00    -0.076 A 
ATOM      2  C3  UNL d   1      -2.349  -2.115  -1.268  0.00  0.00     0.004 A 
ATOM      3  C4  UNL d   1      -1.360  -2.029  -0.290  0.00  0.00    -0.003 A 
ATOM      4  C5  UNL d   1      -0.119  -2.616  -0.505  0.00  0.00     0.000 A 
ATOM      5  C6  UNL d   1       0.139  -3.275  -1.707  0.00  0.00     0.000 A 
ATOM      6  C7  UNL d   1      -0.841  -3.358  -2.710  0.00  0.00    -0.073 A 
ATOM      7  C8  UNL d   1      -0.511  -4.086  -3.984  0.00  0.00     0.078 C 
ENDROOT
BRANCH   1   8
ATOM      8  C1  UNL d   1      -3.232  -2.876  -3.491  0.00  0.00     0.053 C 
ATOM      9  C   UNL d   1      -4.542  -3.343  -2.875  0.00  0.00     0.018 C 
ENDBRANCH   1   8
TORSDOF 1
ENDMDL
