MODEL 1
REMARK minimizedAffinity 11.9257822
REMARK minimizedRMSD -1
REMARK  1 active torsions:
REMARK  status: ('A' for Active; 'I' for Inactive)
REMARK    1  A    between atoms: C1_2  and  C2_3 
ROOT
ATOM      1  C2  UNL d   1       3.427   1.215  -0.488  0.00  0.00    -0.076 A 
ATOM      2  C3  UNL d   1       2.430   2.175  -0.240  0.00  0.00     0.004 A 
ATOM      3  C4  UNL d   1       1.690   2.152   0.941  0.00  0.00    -0.003 A 
ATOM      4  C5  UNL d   1       1.936   1.169   1.893  0.00  0.00     0.000 A 
ATOM      5  C6  UNL d   1       2.933   0.220   1.672  0.00  0.00     0.000 A 
ATOM      6  C7  UNL d   1       3.699   0.239   0.494  0.00  0.00    -0.073 A 
ATOM      7  C8  UNL d   1       4.758  -0.813   0.304  0.00  0.00     0.078 C 
ENDROOT
BRANCH   1   8
ATOM      8  C1  UNL d   1       4.179   1.274  -1.799  0.00  0.00     0.053 C 
ATOM      9  C   UNL d   1       5.389   2.193  -1.736  0.00  0.00     0.018 C 
ENDBRANCH   1   8
TORSDOF 1
ENDMDL
