MODEL 1
REMARK minimizedAffinity 13.114975
REMARK minimizedRMSD -1
REMARK  1 active torsions:
REMARK  status: ('A' for Active; 'I' for Inactive)
REMARK    1  A    between atoms: C1_2  and  C2_3 
ROOT
ATOM      1  C2  UNL d   1      -2.252  -3.052  -3.628  0.00  0.00    -0.076 A 
ATOM      2  C3  UNL d   1      -2.550  -3.699  -4.840  0.00  0.00     0.004 A 
ATOM      3  C4  UNL d   1      -1.830  -3.417  -6.000  0.00  0.00    -0.003 A 
ATOM      4  C5  UNL d   1      -0.800  -2.484  -5.967  0.00  0.00     0.000 A 
ATOM      5  C6  UNL d   1      -0.479  -1.845  -4.769  0.00  0.00     0.000 A 
ATOM      6  C7  UNL d   1      -1.185  -2.130  -3.587  0.00  0.00    -0.073 A 
ATOM      7  C8  UNL d   1      -0.800  -1.407  -2.326  0.00  0.00     0.078 C 
ENDROOT
BRANCH   1   8
ATOM      8  C1  UNL d   1      -3.085  -3.379  -2.409  0.00  0.00     0.053 C 
ATOM      9  C   UNL d   1      -4.363  -4.124  -2.759  0.00  0.00     0.018 C 
ENDBRANCH   1   8
TORSDOF 1
ENDMDL
