MODEL 1
REMARK minimizedAffinity 6.62678385
REMARK minimizedRMSD -1
REMARK  0 active torsions:
REMARK  status: ('A' for Active; 'I' for Inactive)
ROOT
ATOM      1  N1  IND d   1       3.374  -4.960   5.993  0.00  0.00    -0.196 N 
ATOM      2  C2  IND d   1       2.103  -5.464   6.000  0.00  0.00     0.054 A 
ATOM      3  C3  IND d   1       1.407  -4.999   4.939  0.00  0.00    -0.031 A 
ATOM      4  C4  IND d   1       2.185  -3.482   3.010  0.00  0.00     0.051 A 
ATOM      5  C5  IND d   1       3.252  -2.739   2.586  0.00  0.00    -0.031 A 
ATOM      6  C6  IND d   1       4.438  -2.701   3.289  0.00  0.00     0.015 A 
ATOM      7  C7  IND d   1       4.607  -3.415   4.442  0.00  0.00    -0.016 A 
ATOM      8  C8  IND d   1       3.524  -4.164   4.878  0.00  0.00    -0.047 A 
ATOM      9  C9  IND d   1       2.303  -4.174   4.192  0.00  0.00    -0.096 A 
ATOM     10  HN1 IND d   1       3.978  -5.114   6.586  0.00  0.00     0.298 HD
ENDROOT
TORSDOF 0
ENDMDL
