MODEL 1
REMARK minimizedAffinity 0.357223004
REMARK minimizedRMSD -1
REMARK  0 active torsions:
REMARK  status: ('A' for Active; 'I' for Inactive)
ROOT
ATOM      1  N1  IND d   1       5.211  -5.524  -2.362  0.00  0.00    -0.196 N 
ATOM      2  C2  IND d   1       4.120  -5.496  -1.538  0.00  0.00     0.054 A 
ATOM      3  C3  IND d   1       2.982  -5.589  -2.262  0.00  0.00    -0.031 A 
ATOM      4  C4  IND d   1       2.677  -5.897  -4.799  0.00  0.00     0.051 A 
ATOM      5  C5  IND d   1       3.379  -5.941  -5.971  0.00  0.00    -0.031 A 
ATOM      6  C6  IND d   1       4.756  -5.850  -6.000  0.00  0.00     0.015 A 
ATOM      7  C7  IND d   1       5.486  -5.722  -4.852  0.00  0.00    -0.016 A 
ATOM      8  C8  IND d   1       4.776  -5.669  -3.661  0.00  0.00    -0.047 A 
ATOM      9  C9  IND d   1       3.376  -5.718  -3.629  0.00  0.00    -0.096 A 
ATOM     10  HN1 IND d   1       6.031  -5.461  -2.111  0.00  0.00     0.298 HD
ENDROOT
TORSDOF 0
ENDMDL
