MODEL 1
REMARK minimizedAffinity 11.2303896
REMARK minimizedRMSD -1
REMARK  0 active torsions:
REMARK  status: ('A' for Active; 'I' for Inactive)
ROOT
ATOM      1  N1  IND d   1       0.031  -1.993   3.957  0.00  0.00    -0.196 N 
ATOM      2  C2  IND d   1       0.572  -0.740   3.868  0.00  0.00     0.054 A 
ATOM      3  C3  IND d   1       1.806  -0.799   3.318  0.00  0.00    -0.031 A 
ATOM      4  C4  IND d   1       3.091  -2.831   2.398  0.00  0.00     0.051 A 
ATOM      5  C5  IND d   1       3.021  -4.192   2.291  0.00  0.00    -0.031 A 
ATOM      6  C6  IND d   1       1.927  -4.903   2.741  0.00  0.00     0.015 A 
ATOM      7  C7  IND d   1       0.853  -4.276   3.306  0.00  0.00    -0.016 A 
ATOM      8  C8  IND d   1       0.924  -2.895   3.423  0.00  0.00    -0.047 A 
ATOM      9  C9  IND d   1       2.049  -2.172   3.007  0.00  0.00    -0.096 A 
ATOM     10  HN1 IND d   1      -0.738  -2.184   4.291  0.00  0.00     0.298 HD
ENDROOT
TORSDOF 0
ENDMDL
