MODEL 1
REMARK minimizedAffinity 15.42169
REMARK minimizedRMSD -1
REMARK  0 active torsions:
REMARK  status: ('A' for Active; 'I' for Inactive)
ROOT
ATOM      1  N1  IND d   1       1.028  -2.179   2.366  0.00  0.00    -0.196 N 
ATOM      2  C2  IND d   1       1.691  -0.987   2.279  0.00  0.00     0.054 A 
ATOM      3  C3  IND d   1       2.836  -1.031   2.998  0.00  0.00    -0.031 A 
ATOM      4  C4  IND d   1       3.867  -2.990   4.311  0.00  0.00     0.051 A 
ATOM      5  C5  IND d   1       3.611  -4.272   4.712  0.00  0.00    -0.031 A 
ATOM      6  C6  IND d   1       2.460  -4.936   4.341  0.00  0.00     0.015 A 
ATOM      7  C7  IND d   1       1.522  -4.344   3.543  0.00  0.00    -0.016 A 
ATOM      8  C8  IND d   1       1.775  -3.040   3.140  0.00  0.00    -0.047 A 
ATOM      9  C9  IND d   1       2.922  -2.347   3.548  0.00  0.00    -0.096 A 
ATOM     10  HN1 IND d   1       0.272  -2.361   1.999  0.00  0.00     0.298 HD
ENDROOT
TORSDOF 0
ENDMDL
