MODEL 1
REMARK minimizedAffinity 7.01494837
REMARK minimizedRMSD -1
REMARK  0 active torsions:
REMARK  status: ('A' for Active; 'I' for Inactive)
ROOT
ATOM      1  N1  IND d   1      -2.392  -0.039  -2.742  0.00  0.00    -0.196 N 
ATOM      2  C2  IND d   1      -3.064   0.541  -3.781  0.00  0.00     0.054 A 
ATOM      3  C3  IND d   1      -3.564   1.740  -3.407  0.00  0.00    -0.031 A 
ATOM      4  C4  IND d   1      -3.313   2.991  -1.172  0.00  0.00     0.051 A 
ATOM      5  C5  IND d   1      -2.817   2.847   0.094  0.00  0.00    -0.031 A 
ATOM      6  C6  IND d   1      -2.137   1.712   0.485  0.00  0.00     0.015 A 
ATOM      7  C7  IND d   1      -1.918   0.678  -0.381  0.00  0.00    -0.016 A 
ATOM      8  C8  IND d   1      -2.427   0.818  -1.664  0.00  0.00    -0.047 A 
ATOM      9  C9  IND d   1      -3.154   1.950  -2.055  0.00  0.00    -0.096 A 
ATOM     10  HN1 IND d   1      -2.011  -0.810  -2.759  0.00  0.00     0.298 HD
ENDROOT
TORSDOF 0
ENDMDL
