MODEL 1
REMARK minimizedAffinity 21.780304
REMARK minimizedRMSD -1
REMARK  0 active torsions:
REMARK  status: ('A' for Active; 'I' for Inactive)
ROOT
ATOM      1  N1  IND d   1       1.706  -0.459   3.898  0.00  0.00    -0.196 N 
ATOM      2  C2  IND d   1       1.604  -1.656   3.246  0.00  0.00     0.054 A 
ATOM      3  C3  IND d   1       2.001  -1.525   1.960  0.00  0.00    -0.031 A 
ATOM      4  C4  IND d   1       2.951   0.535   0.742  0.00  0.00     0.051 A 
ATOM      5  C5  IND d   1       3.199   1.868   0.913  0.00  0.00    -0.031 A 
ATOM      6  C6  IND d   1       2.959   2.506   2.113  0.00  0.00     0.015 A 
ATOM      7  C7  IND d   1       2.472   1.829   3.195  0.00  0.00    -0.016 A 
ATOM      8  C8  IND d   1       2.212   0.477   3.023  0.00  0.00    -0.047 A 
ATOM      9  C9  IND d   1       2.413  -0.167   1.795  0.00  0.00    -0.096 A 
ATOM     10  HN1 IND d   1       1.490  -0.314   4.718  0.00  0.00     0.298 HD
ENDROOT
TORSDOF 0
ENDMDL
