MODEL 1
REMARK minimizedAffinity 12.4848642
REMARK minimizedRMSD -1
REMARK  0 active torsions:
REMARK  status: ('A' for Active; 'I' for Inactive)
ROOT
ATOM      1  N1  IND d   1      -3.805   1.389  -3.360  0.00  0.00    -0.196 N 
ATOM      2  C2  IND d   1      -3.251   2.247  -2.451  0.00  0.00     0.054 A 
ATOM      3  C3  IND d   1      -2.629   1.556  -1.469  0.00  0.00    -0.031 A 
ATOM      4  C4  IND d   1      -2.308  -0.985  -1.210  0.00  0.00     0.051 A 
ATOM      5  C5  IND d   1      -2.666  -2.179  -1.771  0.00  0.00    -0.031 A 
ATOM      6  C6  IND d   1      -3.434  -2.246  -2.915  0.00  0.00     0.015 A 
ATOM      7  C7  IND d   1      -3.867  -1.116  -3.550  0.00  0.00    -0.016 A 
ATOM      8  C8  IND d   1      -3.511   0.098  -2.979  0.00  0.00    -0.047 A 
ATOM      9  C9  IND d   1      -2.767   0.171  -1.794  0.00  0.00    -0.096 A 
ATOM     10  HN1 IND d   1      -4.259   1.617  -4.053  0.00  0.00     0.298 HD
ENDROOT
TORSDOF 0
ENDMDL
