MODEL 1
REMARK minimizedAffinity 17.8063469
REMARK minimizedRMSD -1
REMARK  0 active torsions:
REMARK  status: ('A' for Active; 'I' for Inactive)
ROOT
ATOM      1  N1  IND d   1       4.139  -4.507   4.927  0.00  0.00    -0.196 N 
ATOM      2  C2  IND d   1       4.967  -3.509   5.358  0.00  0.00     0.054 A 
ATOM      3  C3  IND d   1       4.517  -2.308   4.931  0.00  0.00    -0.031 A 
ATOM      4  C4  IND d   1       2.389  -1.737   3.601  0.00  0.00     0.051 A 
ATOM      5  C5  IND d   1       1.336  -2.319   2.951  0.00  0.00    -0.031 A 
ATOM      6  C6  IND d   1       1.159  -3.687   2.929  0.00  0.00     0.015 A 
ATOM      7  C7  IND d   1       2.026  -4.528   3.568  0.00  0.00    -0.016 A 
ATOM      8  C8  IND d   1       3.100  -3.941   4.223  0.00  0.00    -0.047 A 
ATOM      9  C9  IND d   1       3.308  -2.556   4.213  0.00  0.00    -0.096 A 
ATOM     10  HN1 IND d   1       4.249  -5.348   5.072  0.00  0.00     0.298 HD
ENDROOT
TORSDOF 0
ENDMDL
