MODEL 1
REMARK minimizedAffinity 11.7888937
REMARK minimizedRMSD -1
REMARK  0 active torsions:
REMARK  status: ('A' for Active; 'I' for Inactive)
ROOT
ATOM      1  N1  IND d   1       1.771  -0.857   3.544  0.00  0.00    -0.196 N 
ATOM      2  C2  IND d   1       1.588  -1.847   2.619  0.00  0.00     0.054 A 
ATOM      3  C3  IND d   1       1.901  -1.399   1.382  0.00  0.00    -0.031 A 
ATOM      4  C4  IND d   1       2.830   0.890   0.658  0.00  0.00     0.051 A 
ATOM      5  C5  IND d   1       3.131   2.132   1.142  0.00  0.00    -0.031 A 
ATOM      6  C6  IND d   1       2.994   2.447   2.478  0.00  0.00     0.015 A 
ATOM      7  C7  IND d   1       2.559   1.524   3.387  0.00  0.00    -0.016 A 
ATOM      8  C8  IND d   1       2.246   0.264   2.898  0.00  0.00    -0.047 A 
ATOM      9  C9  IND d   1       2.343  -0.049   1.536  0.00  0.00    -0.096 A 
ATOM     10  HN1 IND d   1       1.615  -0.923   4.387  0.00  0.00     0.298 HD
ENDROOT
TORSDOF 0
ENDMDL
