MODEL 1
REMARK minimizedAffinity 7.00112534
REMARK minimizedRMSD -1
REMARK  3 active torsions:
REMARK  status: ('A' for Active; 'I' for Inactive)
REMARK    1  A    between atoms: C3'_2  and  C2'_3 
REMARK    2  A    between atoms: C2'_3  and  C1'_4 
REMARK    3  A    between atoms: C1'_4  and  C1_5 
ROOT
ATOM      1  C1  N4B d   1      -1.198   1.412  -1.171  0.00  0.00    -0.075 A 
ATOM      2  C2  N4B d   1      -2.365   0.624  -1.062  0.00  0.00     0.002 A 
ATOM      3  C3  N4B d   1      -2.459  -0.562  -1.748  0.00  0.00     0.002 A 
ATOM      4  C4  N4B d   1      -1.411  -0.969  -2.560  0.00  0.00    -0.004 A 
ATOM      5  C5  N4B d   1      -0.277  -0.215  -2.640  0.00  0.00     0.002 A 
ATOM      6  C6  N4B d   1      -0.168   0.977  -1.953  0.00  0.00     0.002 A 
ENDROOT
BRANCH   1   7
ATOM      7  C1' N4B d   1      -1.084   2.758  -0.508  0.00  0.00     0.057 C 
BRANCH   7   8
ATOM      8  C2' N4B d   1      -0.098   2.662   0.653  0.00  0.00     0.009 C 
BRANCH   8   9
ATOM      9  C3' N4B d   1      -0.796   2.366   1.969  0.00  0.00     0.004 C 
ATOM     10  C4' N4B d   1       0.076   1.620   2.934  0.00  0.00     0.003 C 
ENDBRANCH   8   9
ENDBRANCH   7   8
ENDBRANCH   1   7
TORSDOF 3
ENDMDL
