MODEL 1
REMARK minimizedAffinity 12.1076574
REMARK minimizedRMSD -1
REMARK  3 active torsions:
REMARK  status: ('A' for Active; 'I' for Inactive)
REMARK    1  A    between atoms: C3'_2  and  C2'_3 
REMARK    2  A    between atoms: C2'_3  and  C1'_4 
REMARK    3  A    between atoms: C1'_4  and  C1_5 
ROOT
ATOM      1  C1  N4B d   1      -2.802  -3.785  -5.619  0.00  0.00    -0.075 A 
ATOM      2  C2  N4B d   1      -4.161  -3.715  -5.999  0.00  0.00     0.002 A 
ATOM      3  C3  N4B d   1      -4.989  -4.789  -5.788  0.00  0.00     0.002 A 
ATOM      4  C4  N4B d   1      -4.481  -5.946  -5.217  0.00  0.00    -0.004 A 
ATOM      5  C5  N4B d   1      -3.174  -5.997  -4.829  0.00  0.00     0.002 A 
ATOM      6  C6  N4B d   1      -2.330  -4.923  -5.032  0.00  0.00     0.002 A 
ENDROOT
BRANCH   1   7
ATOM      7  C1' N4B d   1      -1.837  -2.668  -5.908  0.00  0.00     0.057 C 
BRANCH   7   8
ATOM      8  C2' N4B d   1      -2.605  -1.352  -5.991  0.00  0.00     0.009 C 
BRANCH   8   9
ATOM      9  C3' N4B d   1      -1.765  -0.174  -5.530  0.00  0.00     0.004 C 
ATOM     10  C4' N4B d   1      -0.535  -0.595  -4.782  0.00  0.00     0.003 C 
ENDBRANCH   8   9
ENDBRANCH   7   8
ENDBRANCH   1   7
TORSDOF 3
ENDMDL
