MODEL 1
REMARK minimizedAffinity 0.423507243
REMARK minimizedRMSD -1
REMARK  3 active torsions:
REMARK  status: ('A' for Active; 'I' for Inactive)
REMARK    1  A    between atoms: C3'_2  and  C2'_3 
REMARK    2  A    between atoms: C2'_3  and  C1'_4 
REMARK    3  A    between atoms: C1'_4  and  C1_5 
ROOT
ATOM      1  C1  N4B d   1      -1.356   3.136  -0.535  0.00  0.00    -0.075 A 
ATOM      2  C2  N4B d   1      -0.832   3.725  -1.706  0.00  0.00     0.002 A 
ATOM      3  C3  N4B d   1      -0.182   2.948  -2.634  0.00  0.00     0.002 A 
ATOM      4  C4  N4B d   1      -0.028   1.590  -2.404  0.00  0.00    -0.004 A 
ATOM      5  C5  N4B d   1      -0.559   1.024  -1.282  0.00  0.00     0.002 A 
ATOM      6  C6  N4B d   1      -1.218   1.791  -0.343  0.00  0.00     0.002 A 
ENDROOT
BRANCH   1   7
ATOM      7  C1' N4B d   1      -1.999   3.958   0.549  0.00  0.00     0.057 C 
BRANCH   7   8
ATOM      8  C2' N4B d   1      -2.187   3.091   1.790  0.00  0.00     0.009 C 
BRANCH   8   9
ATOM      9  C3' N4B d   1      -0.863   2.581   2.333  0.00  0.00     0.004 C 
ATOM     10  C4' N4B d   1      -0.953   1.182   2.866  0.00  0.00     0.003 C 
ENDBRANCH   8   9
ENDBRANCH   7   8
ENDBRANCH   1   7
TORSDOF 3
ENDMDL
