MODEL 1
REMARK minimizedAffinity 6.92555618
REMARK minimizedRMSD -1
REMARK  3 active torsions:
REMARK  status: ('A' for Active; 'I' for Inactive)
REMARK    1  A    between atoms: C3'_2  and  C2'_3 
REMARK    2  A    between atoms: C2'_3  and  C1'_4 
REMARK    3  A    between atoms: C1'_4  and  C1_5 
ROOT
ATOM      1  C1  N4B d   1      -1.741   1.892  -0.743  0.00  0.00    -0.075 A 
ATOM      2  C2  N4B d   1      -2.305   0.607  -0.590  0.00  0.00     0.002 A 
ATOM      3  C3  N4B d   1      -2.001  -0.387  -1.487  0.00  0.00     0.002 A 
ATOM      4  C4  N4B d   1      -1.154  -0.116  -2.551  0.00  0.00    -0.004 A 
ATOM      5  C5  N4B d   1      -0.593   1.122  -2.677  0.00  0.00     0.002 A 
ATOM      6  C6  N4B d   1      -0.886   2.129  -1.780  0.00  0.00     0.002 A 
ENDROOT
BRANCH   1   7
ATOM      7  C1' N4B d   1      -2.111   3.035   0.163  0.00  0.00     0.057 C 
BRANCH   7   8
ATOM      8  C2' N4B d   1      -1.667   2.709   1.586  0.00  0.00     0.009 C 
BRANCH   8   9
ATOM      9  C3' N4B d   1      -0.160   2.553   1.689  0.00  0.00     0.004 C 
ATOM     10  C4' N4B d   1       0.283   2.070   3.038  0.00  0.00     0.003 C 
ENDBRANCH   8   9
ENDBRANCH   7   8
ENDBRANCH   1   7
TORSDOF 3
ENDMDL
