MODEL 1
REMARK minimizedAffinity 11.0689211
REMARK minimizedRMSD -1
REMARK  3 active torsions:
REMARK  status: ('A' for Active; 'I' for Inactive)
REMARK    1  A    between atoms: C3'_2  and  C2'_3 
REMARK    2  A    between atoms: C2'_3  and  C1'_4 
REMARK    3  A    between atoms: C1'_4  and  C1_5 
ROOT
ATOM      1  C1  N4B d   1      -0.277   1.659  -1.432  0.00  0.00    -0.075 A 
ATOM      2  C2  N4B d   1      -0.205   1.834  -2.831  0.00  0.00     0.002 A 
ATOM      3  C3  N4B d   1      -0.910   1.000  -3.664  0.00  0.00     0.002 A 
ATOM      4  C4  N4B d   1      -1.673  -0.024  -3.124  0.00  0.00    -0.004 A 
ATOM      5  C5  N4B d   1      -1.757  -0.170  -1.770  0.00  0.00     0.002 A 
ATOM      6  C6  N4B d   1      -1.058   0.663  -0.921  0.00  0.00     0.002 A 
ENDROOT
BRANCH   1   7
ATOM      7  C1' N4B d   1       0.543   2.492  -0.484  0.00  0.00     0.057 C 
BRANCH   7   8
ATOM      8  C2' N4B d   1      -0.142   2.520   0.879  0.00  0.00     0.009 C 
BRANCH   8   9
ATOM      9  C3' N4B d   1       0.825   2.205   2.007  0.00  0.00     0.004 C 
ATOM     10  C4' N4B d   1       2.177   2.820   1.802  0.00  0.00     0.003 C 
ENDBRANCH   8   9
ENDBRANCH   7   8
ENDBRANCH   1   7
TORSDOF 3
ENDMDL
