MODEL 1
REMARK minimizedAffinity 10.7303934
REMARK minimizedRMSD -1
REMARK  3 active torsions:
REMARK  status: ('A' for Active; 'I' for Inactive)
REMARK    1  A    between atoms: C3'_2  and  C2'_3 
REMARK    2  A    between atoms: C2'_3  and  C1'_4 
REMARK    3  A    between atoms: C1'_4  and  C1_5 
ROOT
ATOM      1  C1  N4B d   1      -0.217   1.347  -0.406  0.00  0.00    -0.075 A 
ATOM      2  C2  N4B d   1       0.791   0.587   0.226  0.00  0.00     0.002 A 
ATOM      3  C3  N4B d   1       1.207   0.916   1.493  0.00  0.00     0.002 A 
ATOM      4  C4  N4B d   1       0.644   2.008   2.137  0.00  0.00    -0.004 A 
ATOM      5  C5  N4B d   1      -0.348   2.721   1.530  0.00  0.00     0.002 A 
ATOM      6  C6  N4B d   1      -0.778   2.399   0.258  0.00  0.00     0.002 A 
ENDROOT
BRANCH   1   7
ATOM      7  C1' N4B d   1      -0.643   1.078  -1.823  0.00  0.00     0.057 C 
BRANCH   7   8
ATOM      8  C2' N4B d   1      -0.327  -0.373  -2.175  0.00  0.00     0.009 C 
BRANCH   8   9
ATOM      9  C3' N4B d   1      -1.571  -1.141  -2.587  0.00  0.00     0.004 C 
ATOM     10  C4' N4B d   1      -1.442  -1.772  -3.941  0.00  0.00     0.003 C 
ENDBRANCH   8   9
ENDBRANCH   7   8
ENDBRANCH   1   7
TORSDOF 3
ENDMDL
