MODEL 1
REMARK minimizedAffinity 3.13494086
REMARK minimizedRMSD -1
REMARK  0 active torsions:
REMARK  status: ('A' for Active; 'I' for Inactive)
ROOT
ATOM      1  N1  IND d   1       4.716  -0.361   0.588  0.00  0.00    -0.196 N 
ATOM      2  C2  IND d   1       5.804  -1.135   0.882  0.00  0.00     0.054 A 
ATOM      3  C3  IND d   1       5.411  -2.353   1.318  0.00  0.00    -0.031 A 
ATOM      4  C4  IND d   1       3.036  -3.326   1.528  0.00  0.00     0.051 A 
ATOM      5  C5  IND d   1       1.718  -2.985   1.410  0.00  0.00    -0.031 A 
ATOM      6  C6  IND d   1       1.324  -1.727   1.001  0.00  0.00     0.015 A 
ATOM      7  C7  IND d   1       2.238  -0.763   0.683  0.00  0.00    -0.016 A 
ATOM      8  C8  IND d   1       3.577  -1.103   0.808  0.00  0.00    -0.047 A 
ATOM      9  C9  IND d   1       3.983  -2.365   1.263  0.00  0.00    -0.096 A 
ATOM     10  HN1 IND d   1       4.740   0.453   0.311  0.00  0.00     0.298 HD
ENDROOT
TORSDOF 0
ENDMDL
