MODEL 1
REMARK minimizedAffinity 6.95341969
REMARK minimizedRMSD -1
REMARK  0 active torsions:
REMARK  status: ('A' for Active; 'I' for Inactive)
ROOT
ATOM      1  N1  IND d   1       1.058  -1.416   2.926  0.00  0.00    -0.196 N 
ATOM      2  C2  IND d   1       1.524  -2.023   1.793  0.00  0.00     0.054 A 
ATOM      3  C3  IND d   1       2.019  -1.103   0.936  0.00  0.00    -0.031 A 
ATOM      4  C4  IND d   1       2.259   1.443   1.228  0.00  0.00     0.051 A 
ATOM      5  C5  IND d   1       1.942   2.464   2.079  0.00  0.00    -0.031 A 
ATOM      6  C6  IND d   1       1.304   2.240   3.282  0.00  0.00     0.015 A 
ATOM      7  C7  IND d   1       0.967   0.978   3.685  0.00  0.00    -0.016 A 
ATOM      8  C8  IND d   1       1.281  -0.060   2.819  0.00  0.00    -0.047 A 
ATOM      9  C9  IND d   1       1.891   0.166   1.579  0.00  0.00    -0.096 A 
ATOM     10  HN1 IND d   1       0.688  -1.813   3.592  0.00  0.00     0.298 HD
ENDROOT
TORSDOF 0
ENDMDL
