MODEL 1
REMARK minimizedAffinity 2.54881692
REMARK minimizedRMSD -1
REMARK  0 active torsions:
REMARK  status: ('A' for Active; 'I' for Inactive)
ROOT
ATOM      1  N1  IND d   1       5.966   0.858   2.904  0.00  0.00    -0.196 N 
ATOM      2  C2  IND d   1       5.970   2.190   2.598  0.00  0.00     0.054 A 
ATOM      3  C3  IND d   1       6.000   2.364   1.257  0.00  0.00    -0.031 A 
ATOM      4  C4  IND d   1       5.943   0.606  -0.622  0.00  0.00     0.051 A 
ATOM      5  C5  IND d   1       5.973  -0.744  -0.836  0.00  0.00    -0.031 A 
ATOM      6  C6  IND d   1       6.000  -1.646   0.207  0.00  0.00     0.015 A 
ATOM      7  C7  IND d   1       5.986  -1.232   1.509  0.00  0.00    -0.016 A 
ATOM      8  C8  IND d   1       5.963   0.138   1.730  0.00  0.00    -0.047 A 
ATOM      9  C9  IND d   1       5.979   1.060   0.675  0.00  0.00    -0.096 A 
ATOM     10  HN1 IND d   1       5.966   0.526   3.697  0.00  0.00     0.298 HD
ENDROOT
TORSDOF 0
ENDMDL
