MODEL 1
REMARK minimizedAffinity 2.06195307
REMARK minimizedRMSD -1
REMARK  0 active torsions:
REMARK  status: ('A' for Active; 'I' for Inactive)
ROOT
ATOM      1  N1  IND d   1      -0.872  -1.605  -0.548  0.00  0.00    -0.196 N 
ATOM      2  C2  IND d   1       0.330  -1.874  -1.141  0.00  0.00     0.054 A 
ATOM      3  C3  IND d   1       1.302  -1.980  -0.207  0.00  0.00    -0.031 A 
ATOM      4  C4  IND d   1       1.127  -1.852   2.358  0.00  0.00     0.051 A 
ATOM      5  C5  IND d   1       0.243  -1.587   3.365  0.00  0.00    -0.031 A 
ATOM      6  C6  IND d   1      -1.086  -1.311   3.115  0.00  0.00     0.015 A 
ATOM      7  C7  IND d   1      -1.584  -1.302   1.843  0.00  0.00    -0.016 A 
ATOM      8  C8  IND d   1      -0.687  -1.563   0.817  0.00  0.00    -0.047 A 
ATOM      9  C9  IND d   1       0.671  -1.802   1.062  0.00  0.00    -0.096 A 
ATOM     10  HN1 IND d   1      -1.617  -1.482  -0.958  0.00  0.00     0.298 HD
ENDROOT
TORSDOF 0
ENDMDL
