MODEL 1
REMARK minimizedAffinity 0.852919579
REMARK minimizedRMSD -1
REMARK  0 active torsions:
REMARK  status: ('A' for Active; 'I' for Inactive)
ROOT
ATOM      1  N1  IND d   1      -0.192  -1.509   3.746  0.00  0.00    -0.196 N 
ATOM      2  C2  IND d   1      -1.076  -0.492   3.514  0.00  0.00     0.054 A 
ATOM      3  C3  IND d   1      -1.061  -0.145   2.207  0.00  0.00    -0.031 A 
ATOM      4  C4  IND d   1       0.261  -1.179   0.256  0.00  0.00     0.051 A 
ATOM      5  C5  IND d   1       1.225  -2.108  -0.020  0.00  0.00    -0.031 A 
ATOM      6  C6  IND d   1       1.775  -2.903   0.965  0.00  0.00     0.015 A 
ATOM      7  C7  IND d   1       1.371  -2.805   2.267  0.00  0.00    -0.016 A 
ATOM      8  C8  IND d   1       0.398  -1.858   2.552  0.00  0.00    -0.047 A 
ATOM      9  C9  IND d   1      -0.133  -1.020   1.563  0.00  0.00    -0.096 A 
ATOM     10  HN1 IND d   1      -0.032  -1.869   4.510  0.00  0.00     0.298 HD
ENDROOT
TORSDOF 0
ENDMDL
