MODEL 1
REMARK minimizedAffinity 4.5679512
REMARK minimizedRMSD -1
REMARK  0 active torsions:
REMARK  status: ('A' for Active; 'I' for Inactive)
ROOT
ATOM      1  N1  IND d   1      -0.764  -2.295   3.281  0.00  0.00    -0.196 N 
ATOM      2  C2  IND d   1      -1.625  -1.261   3.039  0.00  0.00     0.054 A 
ATOM      3  C3  IND d   1      -1.276  -0.614   1.905  0.00  0.00    -0.031 A 
ATOM      4  C4  IND d   1       0.610  -1.143   0.235  0.00  0.00     0.051 A 
ATOM      5  C5  IND d   1       1.682  -1.970   0.046  0.00  0.00    -0.031 A 
ATOM      6  C6  IND d   1       1.997  -2.970   0.943  0.00  0.00     0.015 A 
ATOM      7  C7  IND d   1       1.243  -3.188   2.061  0.00  0.00    -0.016 A 
ATOM      8  C8  IND d   1       0.159  -2.345   2.259  0.00  0.00    -0.047 A 
ATOM      9  C9  IND d   1      -0.142  -1.302   1.375  0.00  0.00    -0.096 A 
ATOM     10  HN1 IND d   1      -0.794  -2.825   3.958  0.00  0.00     0.298 HD
ENDROOT
TORSDOF 0
ENDMDL
