MODEL 1
REMARK minimizedAffinity 3.70038033
REMARK minimizedRMSD -1
REMARK  0 active torsions:
REMARK  status: ('A' for Active; 'I' for Inactive)
ROOT
ATOM      1  N1  IND d   1      -0.152  -2.564   2.936  0.00  0.00    -0.196 N 
ATOM      2  C2  IND d   1      -0.342  -1.242   3.227  0.00  0.00     0.054 A 
ATOM      3  C3  IND d   1       0.457  -0.470   2.457  0.00  0.00    -0.031 A 
ATOM      4  C4  IND d   1       2.081  -1.160   0.581  0.00  0.00     0.051 A 
ATOM      5  C5  IND d   1       2.622  -2.259  -0.025  0.00  0.00    -0.031 A 
ATOM      6  C6  IND d   1       2.257  -3.542   0.330  0.00  0.00     0.015 A 
ATOM      7  C7  IND d   1       1.324  -3.774   1.301  0.00  0.00    -0.016 A 
ATOM      8  C8  IND d   1       0.778  -2.660   1.924  0.00  0.00    -0.047 A 
ATOM      9  C9  IND d   1       1.176  -1.357   1.597  0.00  0.00    -0.096 A 
ATOM     10  HN1 IND d   1      -0.547  -3.224   3.320  0.00  0.00     0.298 HD
ENDROOT
TORSDOF 0
ENDMDL
