MODEL 1
REMARK minimizedAffinity 9.64237309
REMARK minimizedRMSD -1
REMARK  1 active torsions:
REMARK  status: ('A' for Active; 'I' for Inactive)
REMARK    1  A    between atoms: C1_2  and  C2_3 
ROOT
ATOM      1  C2  UNL d   1       4.186   0.678   0.904  0.00  0.00    -0.081 A 
ATOM      2  C3  UNL d   1       3.904   1.982   0.478  0.00  0.00     0.006 A 
ATOM      3  C4  UNL d   1       2.657   2.557   0.734  0.00  0.00     0.002 A 
ATOM      4  C5  UNL d   1       1.674   1.841   1.426  0.00  0.00    -0.080 A 
ATOM      5  C6  UNL d   1       0.342   2.457   1.734  0.00  0.00     0.076 C 
ATOM      6  C7  UNL d   1       1.949   0.532   1.836  0.00  0.00     0.002 A 
ATOM      7  C8  UNL d   1       3.196  -0.043   1.580  0.00  0.00     0.006 A 
ENDROOT
BRANCH   1   8
ATOM      8  C1  UNL d   1       5.552   0.079   0.686  0.00  0.00     0.054 C 
ATOM      9  C   UNL d   1       6.000  -0.730   1.895  0.00  0.00     0.018 C 
ENDBRANCH   1   8
TORSDOF 1
ENDMDL
