MODEL 1
REMARK minimizedAffinity 10.4439907
REMARK minimizedRMSD -1
REMARK  1 active torsions:
REMARK  status: ('A' for Active; 'I' for Inactive)
REMARK    1  A    between atoms: C1_2  and  C2_3 
ROOT
ATOM      1  C2  UNL d   1       3.632   1.568   0.353  0.00  0.00    -0.081 A 
ATOM      2  C3  UNL d   1       2.800   2.694   0.371  0.00  0.00     0.006 A 
ATOM      3  C4  UNL d   1       1.578   2.662   1.047  0.00  0.00     0.002 A 
ATOM      4  C5  UNL d   1       1.171   1.507   1.722  0.00  0.00    -0.080 A 
ATOM      5  C6  UNL d   1      -0.125   1.469   2.477  0.00  0.00     0.076 C 
ATOM      6  C7  UNL d   1       1.993   0.376   1.690  0.00  0.00     0.002 A 
ATOM      7  C8  UNL d   1       3.215   0.407   1.014  0.00  0.00     0.006 A 
ENDROOT
BRANCH   1   8
ATOM      8  C1  UNL d   1       4.979   1.620  -0.320  0.00  0.00     0.054 C 
ATOM      9  C   UNL d   1       4.850   2.000  -1.788  0.00  0.00     0.018 C 
ENDBRANCH   1   8
TORSDOF 1
ENDMDL
