MODEL 1
REMARK minimizedAffinity 5.97052956
REMARK minimizedRMSD -1
REMARK  1 active torsions:
REMARK  status: ('A' for Active; 'I' for Inactive)
REMARK    1  A    between atoms: C1_2  and  C2_3 
ROOT
ATOM      1  C2  UNL d   1      -0.175   1.507   2.353  0.00  0.00    -0.081 A 
ATOM      2  C3  UNL d   1      -0.344   0.184   2.781  0.00  0.00     0.006 A 
ATOM      3  C4  UNL d   1      -1.619  -0.311   3.064  0.00  0.00     0.002 A 
ATOM      4  C5  UNL d   1      -2.746   0.505   2.917  0.00  0.00    -0.080 A 
ATOM      5  C6  UNL d   1      -4.123  -0.023   3.189  0.00  0.00     0.076 C 
ATOM      6  C7  UNL d   1      -2.575   1.831   2.506  0.00  0.00     0.002 A 
ATOM      7  C8  UNL d   1      -1.301   2.327   2.224  0.00  0.00     0.006 A 
ENDROOT
BRANCH   1   8
ATOM      8  C1  UNL d   1       1.192   2.024   1.984  0.00  0.00     0.054 C 
ATOM      9  C   UNL d   1       1.961   1.010   1.149  0.00  0.00     0.018 C 
ENDBRANCH   1   8
TORSDOF 1
ENDMDL
