MODEL 1
REMARK minimizedAffinity 5.00282812
REMARK minimizedRMSD -1
REMARK  1 active torsions:
REMARK  status: ('A' for Active; 'I' for Inactive)
REMARK    1  A    between atoms: C1_2  and  C2_3 
ROOT
ATOM      1  C2  UNL d   1       4.737   0.622   1.464  0.00  0.00    -0.081 A 
ATOM      2  C3  UNL d   1       3.485   0.022   1.647  0.00  0.00     0.006 A 
ATOM      3  C4  UNL d   1       2.321   0.673   1.231  0.00  0.00     0.002 A 
ATOM      4  C5  UNL d   1       2.390   1.929   0.620  0.00  0.00    -0.080 A 
ATOM      5  C6  UNL d   1       1.150   2.625   0.141  0.00  0.00     0.076 C 
ATOM      6  C7  UNL d   1       3.639   2.536   0.453  0.00  0.00     0.002 A 
ATOM      7  C8  UNL d   1       4.803   1.887   0.869  0.00  0.00     0.006 A 
ENDROOT
BRANCH   1   8
ATOM      8  C1  UNL d   1       5.999  -0.105   1.853  0.00  0.00     0.054 C 
ATOM      9  C   UNL d   1       6.000  -0.460   3.333  0.00  0.00     0.018 C 
ENDBRANCH   1   8
TORSDOF 1
ENDMDL
