MODEL 1
REMARK minimizedAffinity 11.0404329
REMARK minimizedRMSD -1
REMARK  1 active torsions:
REMARK  status: ('A' for Active; 'I' for Inactive)
REMARK    1  A    between atoms: C1_2  and  C2_3 
ROOT
ATOM      1  C2  UNL d   1       4.488   1.289  -0.220  0.00  0.00    -0.081 A 
ATOM      2  C3  UNL d   1       4.470   0.053   0.438  0.00  0.00     0.006 A 
ATOM      3  C4  UNL d   1       3.519  -0.208   1.427  0.00  0.00     0.002 A 
ATOM      4  C5  UNL d   1       2.565   0.757   1.768  0.00  0.00    -0.080 A 
ATOM      5  C6  UNL d   1       1.520   0.477   2.806  0.00  0.00     0.076 C 
ATOM      6  C7  UNL d   1       2.594   1.998   1.123  0.00  0.00     0.002 A 
ATOM      7  C8  UNL d   1       3.545   2.260   0.134  0.00  0.00     0.006 A 
ENDROOT
BRANCH   1   8
ATOM      8  C1  UNL d   1       5.471   1.551  -1.332  0.00  0.00     0.054 C 
ATOM      9  C   UNL d   1       4.844   2.385  -2.441  0.00  0.00     0.018 C 
ENDBRANCH   1   8
TORSDOF 1
ENDMDL
