MODEL 1
REMARK minimizedAffinity 13.1622696
REMARK minimizedRMSD -1
REMARK  1 active torsions:
REMARK  status: ('A' for Active; 'I' for Inactive)
REMARK    1  A    between atoms: C1_2  and  C2_3 
ROOT
ATOM      1  C2  UNL d   1       0.267  -2.904  -0.837  0.00  0.00    -0.081 A 
ATOM      2  C3  UNL d   1       0.062  -3.698  -1.972  0.00  0.00     0.006 A 
ATOM      3  C4  UNL d   1      -1.203  -3.782  -2.559  0.00  0.00     0.002 A 
ATOM      4  C5  UNL d   1      -2.281  -3.068  -2.025  0.00  0.00    -0.080 A 
ATOM      5  C6  UNL d   1      -3.638  -3.125  -2.663  0.00  0.00     0.076 C 
ATOM      6  C7  UNL d   1      -2.081  -2.288  -0.881  0.00  0.00     0.002 A 
ATOM      7  C8  UNL d   1      -0.816  -2.204  -0.294  0.00  0.00     0.006 A 
ENDROOT
BRANCH   1   8
ATOM      8  C1  UNL d   1       1.644  -2.760  -0.241  0.00  0.00     0.054 C 
ATOM      9  C   UNL d   1       1.960  -1.306   0.078  0.00  0.00     0.018 C 
ENDBRANCH   1   8
TORSDOF 1
ENDMDL
