MODEL 1
REMARK minimizedAffinity 18.1041756
REMARK minimizedRMSD -1
REMARK  1 active torsions:
REMARK  status: ('A' for Active; 'I' for Inactive)
REMARK    1  A    between atoms: C1_2  and  C2_3 
ROOT
ATOM      1  C2  UNL d   1       3.026   2.387   1.184  0.00  0.00    -0.081 A 
ATOM      2  C3  UNL d   1       3.414   1.402   0.267  0.00  0.00     0.006 A 
ATOM      3  C4  UNL d   1       2.653   0.241   0.110  0.00  0.00     0.002 A 
ATOM      4  C5  UNL d   1       1.489   0.049   0.862  0.00  0.00    -0.080 A 
ATOM      5  C6  UNL d   1       0.646  -1.179   0.681  0.00  0.00     0.076 C 
ATOM      6  C7  UNL d   1       1.111   1.024   1.790  0.00  0.00     0.002 A 
ATOM      7  C8  UNL d   1       1.871   2.185   1.948  0.00  0.00     0.006 A 
ENDROOT
BRANCH   1   8
ATOM      8  C1  UNL d   1       3.809   3.669   1.308  0.00  0.00     0.054 C 
ATOM      9  C   UNL d   1       2.978   4.763   1.963  0.00  0.00     0.018 C 
ENDBRANCH   1   8
TORSDOF 1
ENDMDL
