MODEL 1
REMARK minimizedAffinity 11.9630585
REMARK minimizedRMSD -1
REMARK  1 active torsions:
REMARK  status: ('A' for Active; 'I' for Inactive)
REMARK    1  A    between atoms: C1_2  and  C2_3 
ROOT
ATOM      1  C2  UNL d   1      -1.527  -3.515  -2.851  0.00  0.00    -0.081 A 
ATOM      2  C3  UNL d   1      -0.352  -3.863  -2.174  0.00  0.00     0.006 A 
ATOM      3  C4  UNL d   1      -0.260  -3.707  -0.789  0.00  0.00     0.002 A 
ATOM      4  C5  UNL d   1      -1.344  -3.208  -0.058  0.00  0.00    -0.080 A 
ATOM      5  C6  UNL d   1      -1.269  -3.064   1.433  0.00  0.00     0.076 C 
ATOM      6  C7  UNL d   1      -2.511  -2.844  -0.737  0.00  0.00     0.002 A 
ATOM      7  C8  UNL d   1      -2.603  -2.999  -2.121  0.00  0.00     0.006 A 
ENDROOT
BRANCH   1   8
ATOM      8  C1  UNL d   1      -1.652  -3.743  -4.336  0.00  0.00     0.054 C 
ATOM      9  C   UNL d   1      -1.344  -2.474  -5.119  0.00  0.00     0.018 C 
ENDBRANCH   1   8
TORSDOF 1
ENDMDL
