MODEL 1
REMARK minimizedAffinity 14.3135338
REMARK minimizedRMSD -1
REMARK  1 active torsions:
REMARK  status: ('A' for Active; 'I' for Inactive)
REMARK    1  A    between atoms: C1_2  and  C2_3 
ROOT
ATOM      1  C2  UNL d   1      -0.882  -2.685  -4.030  0.00  0.00    -0.081 A 
ATOM      2  C3  UNL d   1      -0.719  -2.198  -5.333  0.00  0.00     0.006 A 
ATOM      3  C4  UNL d   1       0.522  -2.277  -5.969  0.00  0.00     0.002 A 
ATOM      4  C5  UNL d   1       1.618  -2.852  -5.316  0.00  0.00    -0.080 A 
ATOM      5  C6  UNL d   1       2.948  -2.971  -5.999  0.00  0.00     0.076 C 
ATOM      6  C7  UNL d   1       1.460  -3.323  -4.009  0.00  0.00     0.002 A 
ATOM      7  C8  UNL d   1       0.219  -3.243  -3.372  0.00  0.00     0.006 A 
ENDROOT
BRANCH   1   8
ATOM      8  C1  UNL d   1      -2.235  -2.659  -3.366  0.00  0.00     0.054 C 
ATOM      9  C   UNL d   1      -2.191  -1.896  -2.050  0.00  0.00     0.018 C 
ENDBRANCH   1   8
TORSDOF 1
ENDMDL
