MODEL 1
REMARK minimizedAffinity 16.5630741
REMARK minimizedRMSD -1
REMARK  1 active torsions:
REMARK  status: ('A' for Active; 'I' for Inactive)
REMARK    1  A    between atoms: C1_2  and  C2_3 
ROOT
ATOM      1  C2  UNL d   1       2.228   0.952   2.375  0.00  0.00    -0.081 A 
ATOM      2  C3  UNL d   1       2.646   0.050   3.362  0.00  0.00     0.006 A 
ATOM      3  C4  UNL d   1       1.911  -0.101   4.540  0.00  0.00     0.002 A 
ATOM      4  C5  UNL d   1       0.743   0.640   4.748  0.00  0.00    -0.080 A 
ATOM      5  C6  UNL d   1      -0.072   0.464   5.995  0.00  0.00     0.076 C 
ATOM      6  C7  UNL d   1       0.335   1.553   3.770  0.00  0.00     0.002 A 
ATOM      7  C8  UNL d   1       1.070   1.705   2.592  0.00  0.00     0.006 A 
ENDROOT
BRANCH   1   8
ATOM      8  C1  UNL d   1       2.983   1.070   1.076  0.00  0.00     0.054 C 
ATOM      9  C   UNL d   1       4.056  -0.004   0.959  0.00  0.00     0.018 C 
ENDBRANCH   1   8
TORSDOF 1
ENDMDL
