MODEL 1
REMARK minimizedAffinity 5.57987833
REMARK minimizedRMSD -1
REMARK  1 active torsions:
REMARK  status: ('A' for Active; 'I' for Inactive)
REMARK    1  A    between atoms: C1_2  and  C2_3 
ROOT
ATOM      1  C2  UNL d   1       4.246   4.225  -5.292  0.00  0.00    -0.081 A 
ATOM      2  C3  UNL d   1       4.561   4.182  -3.928  0.00  0.00     0.006 A 
ATOM      3  C4  UNL d   1       4.771   2.959  -3.287  0.00  0.00     0.002 A 
ATOM      4  C5  UNL d   1       4.677   1.759  -4.000  0.00  0.00    -0.080 A 
ATOM      5  C6  UNL d   1       4.930   0.440  -3.332  0.00  0.00     0.076 C 
ATOM      6  C7  UNL d   1       4.345   1.800  -5.359  0.00  0.00     0.002 A 
ATOM      7  C8  UNL d   1       4.134   3.023  -6.000  0.00  0.00     0.006 A 
ENDROOT
BRANCH   1   8
ATOM      8  C1  UNL d   1       4.083   5.545  -6.000  0.00  0.00     0.054 C 
ATOM      9  C   UNL d   1       2.629   5.998  -5.999  0.00  0.00     0.018 C 
ENDBRANCH   1   8
TORSDOF 1
ENDMDL
