MODEL 1
REMARK minimizedAffinity 9.02981472
REMARK minimizedRMSD -1
REMARK  1 active torsions:
REMARK  status: ('A' for Active; 'I' for Inactive)
REMARK    1  A    between atoms: C1_2  and  C2_3 
ROOT
ATOM      1  C2  UNL d   1       2.028   0.886   1.794  0.00  0.00    -0.081 A 
ATOM      2  C3  UNL d   1       2.446   0.081   2.861  0.00  0.00     0.006 A 
ATOM      3  C4  UNL d   1       3.726  -0.478   2.867  0.00  0.00     0.002 A 
ATOM      4  C5  UNL d   1       4.612  -0.236   1.812  0.00  0.00    -0.080 A 
ATOM      5  C6  UNL d   1       5.999  -0.805   1.820  0.00  0.00     0.076 C 
ATOM      6  C7  UNL d   1       4.188   0.554   0.737  0.00  0.00     0.002 A 
ATOM      7  C8  UNL d   1       2.908   1.113   0.731  0.00  0.00     0.006 A 
ENDROOT
BRANCH   1   8
ATOM      8  C1  UNL d   1       0.671   1.543   1.816  0.00  0.00     0.054 C 
ATOM      9  C   UNL d   1       0.064   1.513   3.211  0.00  0.00     0.018 C 
ENDBRANCH   1   8
TORSDOF 1
ENDMDL
