MODEL 1
REMARK minimizedAffinity 7.90434122
REMARK minimizedRMSD -1
REMARK  1 active torsions:
REMARK  status: ('A' for Active; 'I' for Inactive)
REMARK    1  A    between atoms: C1_2  and  C2_3 
ROOT
ATOM      1  C2  UNL d   1      -1.873  -3.333  -1.062  0.00  0.00    -0.081 A 
ATOM      2  C3  UNL d   1      -1.625  -4.408  -1.924  0.00  0.00     0.006 A 
ATOM      3  C4  UNL d   1      -1.562  -4.209  -3.306  0.00  0.00     0.002 A 
ATOM      4  C5  UNL d   1      -1.738  -2.931  -3.847  0.00  0.00    -0.080 A 
ATOM      5  C6  UNL d   1      -1.644  -2.698  -5.326  0.00  0.00     0.076 C 
ATOM      6  C7  UNL d   1      -2.003  -1.859  -2.987  0.00  0.00     0.002 A 
ATOM      7  C8  UNL d   1      -2.066  -2.058  -1.606  0.00  0.00     0.006 A 
ENDROOT
BRANCH   1   8
ATOM      8  C1  UNL d   1      -1.876  -3.533   0.432  0.00  0.00     0.054 C 
ATOM      9  C   UNL d   1      -0.522  -3.197   1.038  0.00  0.00     0.018 C 
ENDBRANCH   1   8
TORSDOF 1
ENDMDL
