MODEL 1
REMARK minimizedAffinity -1.15206301
REMARK minimizedRMSD -1
REMARK  0 active torsions:
REMARK  status: ('A' for Active; 'I' for Inactive)
ROOT
ATOM      1  C   UNL d   1       1.114   0.547  -3.601  0.00  0.00     0.023 A 
ATOM      2  C1  UNL d   1       0.666  -0.638  -3.016  0.00  0.00     0.003 A 
ATOM      3  C2  UNL d   1      -0.228  -1.462  -3.702  0.00  0.00     0.048 A 
ATOM      4  C3  UNL d   1      -0.670  -1.097  -4.973  0.00  0.00     0.023 A 
ATOM      5  C4  UNL d   1      -0.224   0.087  -5.563  0.00  0.00     0.048 A 
ATOM      6  C5  UNL d   1       0.670   0.909  -4.872  0.00  0.00     0.003 A 
ATOM      7  I   UNL d   1      -2.000  -2.322  -5.996  0.00  0.00    -0.146 I 
ENDROOT
TORSDOF 0
ENDMDL
