MODEL 1
REMARK minimizedAffinity -2.80473876
REMARK minimizedRMSD -1
REMARK  0 active torsions:
REMARK  status: ('A' for Active; 'I' for Inactive)
ROOT
ATOM      1  C   UNL d   1      -0.996   0.841   2.910  0.00  0.00     0.023 A 
ATOM      2  C1  UNL d   1      -1.961   0.329   2.043  0.00  0.00     0.003 A 
ATOM      3  C2  UNL d   1      -1.587  -0.167   0.792  0.00  0.00     0.048 A 
ATOM      4  C3  UNL d   1      -0.245  -0.148   0.415  0.00  0.00     0.023 A 
ATOM      5  C4  UNL d   1       0.725   0.362   1.279  0.00  0.00     0.048 A 
ATOM      6  C5  UNL d   1       0.346   0.857   2.528  0.00  0.00     0.003 A 
ATOM      7  I   UNL d   1       0.316  -0.885  -1.446  0.00  0.00    -0.146 I 
ENDROOT
TORSDOF 0
ENDMDL
