MODEL 1
REMARK minimizedAffinity -3.19813371
REMARK minimizedRMSD -1
REMARK  0 active torsions:
REMARK  status: ('A' for Active; 'I' for Inactive)
ROOT
ATOM      1  C   UNL d   1       1.379  -0.057   2.166  0.00  0.00     0.023 A 
ATOM      2  C1  UNL d   1       0.255   0.542   1.600  0.00  0.00     0.003 A 
ATOM      3  C2  UNL d   1      -0.009   0.387   0.237  0.00  0.00     0.048 A 
ATOM      4  C3  UNL d   1       0.856  -0.370  -0.553  0.00  0.00     0.023 A 
ATOM      5  C4  UNL d   1       1.982  -0.972   0.010  0.00  0.00     0.048 A 
ATOM      6  C5  UNL d   1       2.242  -0.813   1.372  0.00  0.00     0.003 A 
ATOM      7  I   UNL d   1       0.465  -0.602  -2.581  0.00  0.00    -0.146 I 
ENDROOT
TORSDOF 0
ENDMDL
