MODEL 1
REMARK minimizedAffinity -3.94679403
REMARK minimizedRMSD -1
REMARK  0 active torsions:
REMARK  status: ('A' for Active; 'I' for Inactive)
ROOT
ATOM      1  C   UNL d   1      -0.117   0.703   3.644  0.00  0.00     0.023 A 
ATOM      2  C1  UNL d   1       1.120   0.383   3.085  0.00  0.00     0.003 A 
ATOM      3  C2  UNL d   1       1.220   0.106   1.720  0.00  0.00     0.048 A 
ATOM      4  C3  UNL d   1       0.079   0.153   0.920  0.00  0.00     0.023 A 
ATOM      5  C4  UNL d   1      -1.161   0.474   1.475  0.00  0.00     0.048 A 
ATOM      6  C5  UNL d   1      -1.256   0.748   2.840  0.00  0.00     0.003 A 
ATOM      7  I   UNL d   1       0.225  -0.257  -1.113  0.00  0.00    -0.146 I 
ENDROOT
TORSDOF 0
ENDMDL
