MODEL 1
REMARK minimizedAffinity -5.03434086
REMARK minimizedRMSD -1
REMARK  0 active torsions:
REMARK  status: ('A' for Active; 'I' for Inactive)
ROOT
ATOM      1  C   UNL d   1      -1.242   1.233   2.765  0.00  0.00     0.023 A 
ATOM      2  C1  UNL d   1       0.122   1.271   2.478  0.00  0.00     0.003 A 
ATOM      3  C2  UNL d   1       0.585   0.863   1.225  0.00  0.00     0.048 A 
ATOM      4  C3  UNL d   1      -0.323   0.421   0.263  0.00  0.00     0.023 A 
ATOM      5  C4  UNL d   1      -1.690   0.383   0.546  0.00  0.00     0.048 A 
ATOM      6  C5  UNL d   1      -2.147   0.790   1.800  0.00  0.00     0.003 A 
ATOM      7  I   UNL d   1       0.363  -0.185  -1.603  0.00  0.00    -0.146 I 
ENDROOT
TORSDOF 0
ENDMDL
