MODEL 1
REMARK minimizedAffinity -3.94814944
REMARK minimizedRMSD -1
REMARK  0 active torsions:
REMARK  status: ('A' for Active; 'I' for Inactive)
ROOT
ATOM      1  C   UNL d   1       0.622  -1.326  -1.082  0.00  0.00     0.023 A 
ATOM      2  C1  UNL d   1      -0.692  -0.885  -0.921  0.00  0.00     0.003 A 
ATOM      3  C2  UNL d   1      -1.063  -0.203   0.240  0.00  0.00     0.048 A 
ATOM      4  C3  UNL d   1      -0.116   0.035   1.235  0.00  0.00     0.023 A 
ATOM      5  C4  UNL d   1       1.199  -0.404   1.078  0.00  0.00     0.048 A 
ATOM      6  C5  UNL d   1       1.566  -1.086  -0.083  0.00  0.00     0.003 A 
ATOM      7  I   UNL d   1      -0.667   1.049   2.964  0.00  0.00    -0.146 I 
ENDROOT
TORSDOF 0
ENDMDL
