MODEL 1
REMARK minimizedAffinity -0.598831594
REMARK minimizedRMSD -1
REMARK  0 active torsions:
REMARK  status: ('A' for Active; 'I' for Inactive)
ROOT
ATOM      1  C   UNL d   1      -1.077   1.223   2.558  0.00  0.00     0.023 A 
ATOM      2  C1  UNL d   1      -1.942   0.465   1.769  0.00  0.00     0.003 A 
ATOM      3  C2  UNL d   1      -1.522  -0.008   0.524  0.00  0.00     0.048 A 
ATOM      4  C3  UNL d   1      -0.234   0.281   0.074  0.00  0.00     0.023 A 
ATOM      5  C4  UNL d   1       0.636   1.039   0.860  0.00  0.00     0.048 A 
ATOM      6  C5  UNL d   1       0.211   1.509   2.104  0.00  0.00     0.003 A 
ATOM      7  I   UNL d   1       0.395  -0.420  -1.778  0.00  0.00    -0.146 I 
ENDROOT
TORSDOF 0
ENDMDL
