MODEL 1
REMARK minimizedAffinity -2.98034763
REMARK minimizedRMSD -1
REMARK  0 active torsions:
REMARK  status: ('A' for Active; 'I' for Inactive)
ROOT
ATOM      1  C   UNL d   1       3.277   0.464   1.213  0.00  0.00     0.023 A 
ATOM      2  C1  UNL d   1       2.645  -0.770   1.053  0.00  0.00     0.003 A 
ATOM      3  C2  UNL d   1       1.342  -0.829   0.556  0.00  0.00     0.048 A 
ATOM      4  C3  UNL d   1       0.676   0.349   0.220  0.00  0.00     0.023 A 
ATOM      5  C4  UNL d   1       1.304   1.585   0.378  0.00  0.00     0.048 A 
ATOM      6  C5  UNL d   1       2.607   1.640   0.876  0.00  0.00     0.003 A 
ATOM      7  I   UNL d   1      -1.265   0.263  -0.520  0.00  0.00    -0.146 I 
ENDROOT
TORSDOF 0
ENDMDL
