MODEL 1
REMARK minimizedAffinity 0.73346734
REMARK minimizedRMSD -1
REMARK  0 active torsions:
REMARK  status: ('A' for Active; 'I' for Inactive)
ROOT
ATOM      1  C   UNL d   1       0.520   0.092  -0.391  0.00  0.00     0.023 A 
ATOM      2  C1  UNL d   1      -0.636  -0.590  -0.772  0.00  0.00     0.003 A 
ATOM      3  C2  UNL d   1      -1.855  -0.299  -0.156  0.00  0.00     0.048 A 
ATOM      4  C3  UNL d   1      -1.911   0.675   0.840  0.00  0.00     0.023 A 
ATOM      5  C4  UNL d   1      -0.757   1.360   1.225  0.00  0.00     0.048 A 
ATOM      6  C5  UNL d   1       0.459   1.065   0.606  0.00  0.00     0.003 A 
ATOM      7  I   UNL d   1      -3.724   1.110   1.759  0.00  0.00    -0.146 I 
ENDROOT
TORSDOF 0
ENDMDL
