MODEL 1
REMARK minimizedAffinity 2.69171977
REMARK minimizedRMSD -1
REMARK  0 active torsions:
REMARK  status: ('A' for Active; 'I' for Inactive)
ROOT
ATOM      1  C   UNL d   1       2.293  -2.456  -0.715  0.00  0.00     0.023 A 
ATOM      2  C1  UNL d   1       1.888  -1.972   0.529  0.00  0.00     0.003 A 
ATOM      3  C2  UNL d   1       0.786  -1.120   0.623  0.00  0.00     0.048 A 
ATOM      4  C3  UNL d   1       0.092  -0.757  -0.531  0.00  0.00     0.023 A 
ATOM      5  C4  UNL d   1       0.494  -1.240  -1.778  0.00  0.00     0.048 A 
ATOM      6  C5  UNL d   1       1.597  -2.090  -1.867  0.00  0.00     0.003 A 
ATOM      7  I   UNL d   1      -1.549   0.511  -0.394  0.00  0.00    -0.146 I 
ENDROOT
TORSDOF 0
ENDMDL
