MODEL 1
REMARK minimizedAffinity -2.19742298
REMARK minimizedRMSD -1
REMARK  0 active torsions:
REMARK  status: ('A' for Active; 'I' for Inactive)
ROOT
ATOM      1  C   UNL d   1       3.125  -1.296  -0.056  0.00  0.00     0.023 A 
ATOM      2  C1  UNL d   1       3.071   0.097   0.010  0.00  0.00     0.003 A 
ATOM      3  C2  UNL d   1       1.844   0.755  -0.089  0.00  0.00     0.048 A 
ATOM      4  C3  UNL d   1       0.674   0.016  -0.254  0.00  0.00     0.023 A 
ATOM      5  C4  UNL d   1       0.722  -1.378  -0.320  0.00  0.00     0.048 A 
ATOM      6  C5  UNL d   1       1.951  -2.032  -0.221  0.00  0.00     0.003 A 
ATOM      7  I   UNL d   1      -1.154   0.994  -0.401  0.00  0.00    -0.146 I 
ENDROOT
TORSDOF 0
ENDMDL
