MODEL 1
REMARK minimizedAffinity -2.21885347
REMARK minimizedRMSD -1
REMARK  0 active torsions:
REMARK  status: ('A' for Active; 'I' for Inactive)
ROOT
ATOM      1  C   UNL d   1      -1.223   1.115  -0.536  0.00  0.00     0.023 A 
ATOM      2  C1  UNL d   1      -1.205  -0.267  -0.719  0.00  0.00     0.003 A 
ATOM      3  C2  UNL d   1      -0.116  -1.018  -0.270  0.00  0.00     0.048 A 
ATOM      4  C3  UNL d   1       0.950  -0.380   0.362  0.00  0.00     0.023 A 
ATOM      5  C4  UNL d   1       0.936   1.003   0.547  0.00  0.00     0.048 A 
ATOM      6  C5  UNL d   1      -0.154   1.750   0.096  0.00  0.00     0.003 A 
ATOM      7  I   UNL d   1       2.571  -1.495   1.031  0.00  0.00    -0.146 I 
ENDROOT
TORSDOF 0
ENDMDL
