MODEL 1
REMARK minimizedAffinity -4.07154608
REMARK minimizedRMSD -1
REMARK  0 active torsions:
REMARK  status: ('A' for Active; 'I' for Inactive)
ROOT
ATOM      1  C   UNL d   1       2.712  -1.625   0.569  0.00  0.00     0.023 A 
ATOM      2  C1  UNL d   1       1.804  -1.965  -0.434  0.00  0.00     0.003 A 
ATOM      3  C2  UNL d   1       0.774  -1.085  -0.773  0.00  0.00     0.048 A 
ATOM      4  C3  UNL d   1       0.658   0.134  -0.106  0.00  0.00     0.023 A 
ATOM      5  C4  UNL d   1       1.564   0.479   0.898  0.00  0.00     0.048 A 
ATOM      6  C5  UNL d   1       2.592  -0.405   1.234  0.00  0.00     0.003 A 
ATOM      7  I   UNL d   1      -0.874   1.445  -0.609  0.00  0.00    -0.146 I 
ENDROOT
TORSDOF 0
ENDMDL
