MODEL 1
REMARK minimizedAffinity -3.00871515
REMARK minimizedRMSD -1
REMARK  0 active torsions:
REMARK  status: ('A' for Active; 'I' for Inactive)
ROOT
ATOM      1  C   UNL d   1       3.535  -0.752   0.775  0.00  0.00     0.023 A 
ATOM      2  C1  UNL d   1       2.956   0.271   1.525  0.00  0.00     0.003 A 
ATOM      3  C2  UNL d   1       1.621   0.622   1.318  0.00  0.00     0.048 A 
ATOM      4  C3  UNL d   1       0.869  -0.056   0.359  0.00  0.00     0.023 A 
ATOM      5  C4  UNL d   1       1.444  -1.082  -0.394  0.00  0.00     0.048 A 
ATOM      6  C5  UNL d   1       2.780  -1.428  -0.183  0.00  0.00     0.003 A 
ATOM      7  I   UNL d   1      -1.119   0.463   0.048  0.00  0.00    -0.146 I 
ENDROOT
TORSDOF 0
ENDMDL
