MODEL 1
REMARK minimizedAffinity -2.87738419
REMARK minimizedRMSD -1
REMARK  0 active torsions:
REMARK  status: ('A' for Active; 'I' for Inactive)
ROOT
ATOM      1  C   UNL d   1      -1.334   1.013   0.007  0.00  0.00     0.023 A 
ATOM      2  C1  UNL d   1      -0.143   1.493   0.551  0.00  0.00     0.003 A 
ATOM      3  C2  UNL d   1       0.992   0.679   0.579  0.00  0.00     0.048 A 
ATOM      4  C3  UNL d   1       0.928  -0.613   0.060  0.00  0.00     0.023 A 
ATOM      5  C4  UNL d   1      -0.261  -1.098  -0.487  0.00  0.00     0.048 A 
ATOM      6  C5  UNL d   1      -1.393  -0.281  -0.512  0.00  0.00     0.003 A 
ATOM      7  I   UNL d   1       2.615  -1.826   0.100  0.00  0.00    -0.146 I 
ENDROOT
TORSDOF 0
ENDMDL
