MODEL 1
REMARK minimizedAffinity 5.28140211
REMARK minimizedRMSD -1
REMARK  1 active torsions:
REMARK  status: ('A' for Active; 'I' for Inactive)
REMARK    1  A    between atoms: C1_2  and  C2_3 
ROOT
ATOM      1  C2  UNL d   1      -0.027   3.071   1.271  0.00  0.00    -0.081 A 
ATOM      2  C3  UNL d   1      -0.931   4.139   1.310  0.00  0.00     0.006 A 
ATOM      3  C4  UNL d   1      -1.523   4.610   0.136  0.00  0.00     0.002 A 
ATOM      4  C5  UNL d   1      -1.227   4.016  -1.096  0.00  0.00    -0.080 A 
ATOM      5  C6  UNL d   1      -1.879   4.491  -2.360  0.00  0.00     0.076 C 
ATOM      6  C7  UNL d   1      -0.310   2.960  -1.138  0.00  0.00     0.002 A 
ATOM      7  C8  UNL d   1       0.282   2.490   0.036  0.00  0.00     0.006 A 
ENDROOT
BRANCH   1   8
ATOM      8  C1  UNL d   1       0.564   2.520   2.543  0.00  0.00     0.054 C 
ATOM      9  C   UNL d   1      -0.502   1.865   3.410  0.00  0.00     0.018 C 
ENDBRANCH   1   8
TORSDOF 1
ENDMDL
