MODEL 1
REMARK minimizedAffinity 9.88557053
REMARK minimizedRMSD -1
REMARK  1 active torsions:
REMARK  status: ('A' for Active; 'I' for Inactive)
REMARK    1  A    between atoms: C1_2  and  C2_3 
ROOT
ATOM      1  C2  UNL d   1       0.226   3.106   0.100  0.00  0.00    -0.081 A 
ATOM      2  C3  UNL d   1      -0.513   2.824  -1.056  0.00  0.00     0.006 A 
ATOM      3  C4  UNL d   1      -0.469   3.687  -2.153  0.00  0.00     0.002 A 
ATOM      4  C5  UNL d   1       0.321   4.841  -2.117  0.00  0.00    -0.080 A 
ATOM      5  C6  UNL d   1       0.401   5.760  -3.300  0.00  0.00     0.076 C 
ATOM      6  C7  UNL d   1       1.046   5.132  -0.957  0.00  0.00     0.002 A 
ATOM      7  C8  UNL d   1       1.001   4.271   0.141  0.00  0.00     0.006 A 
ENDROOT
BRANCH   1   8
ATOM      8  C1  UNL d   1       0.231   2.145   1.260  0.00  0.00     0.054 C 
ATOM      9  C   UNL d   1      -0.718   2.600   2.360  0.00  0.00     0.018 C 
ENDBRANCH   1   8
TORSDOF 1
ENDMDL
