MODEL 1
REMARK minimizedAffinity -0.764622271
REMARK minimizedRMSD -1
REMARK  1 active torsions:
REMARK  status: ('A' for Active; 'I' for Inactive)
REMARK    1  A    between atoms: C1_2  and  C2_3 
ROOT
ATOM      1  C2  UNL d   1      -5.277   3.261  -4.366  0.00  0.00    -0.081 A 
ATOM      2  C3  UNL d   1      -3.967   3.679  -4.633  0.00  0.00     0.006 A 
ATOM      3  C4  UNL d   1      -3.278   4.476  -3.716  0.00  0.00     0.002 A 
ATOM      4  C5  UNL d   1      -3.883   4.861  -2.514  0.00  0.00    -0.080 A 
ATOM      5  C6  UNL d   1      -3.144   5.691  -1.508  0.00  0.00     0.076 C 
ATOM      6  C7  UNL d   1      -5.198   4.457  -2.256  0.00  0.00     0.002 A 
ATOM      7  C8  UNL d   1      -5.887   3.661  -3.173  0.00  0.00     0.006 A 
ENDROOT
BRANCH   1   8
ATOM      8  C1  UNL d   1      -5.999   2.348  -5.324  0.00  0.00     0.054 C 
ATOM      9  C   UNL d   1      -5.039   1.375  -5.992  0.00  0.00     0.018 C 
ENDBRANCH   1   8
TORSDOF 1
ENDMDL
