MODEL 1
REMARK minimizedAffinity 0.137330428
REMARK minimizedRMSD -1
REMARK  1 active torsions:
REMARK  status: ('A' for Active; 'I' for Inactive)
REMARK    1  A    between atoms: C1_2  and  C2_3 
ROOT
ATOM      1  C2  UNL d   1      -5.992   1.840  -4.961  0.00  0.00    -0.081 A 
ATOM      2  C3  UNL d   1      -5.990   3.055  -5.656  0.00  0.00     0.006 A 
ATOM      3  C4  UNL d   1      -5.985   4.268  -4.963  0.00  0.00     0.002 A 
ATOM      4  C5  UNL d   1      -5.973   4.286  -3.564  0.00  0.00    -0.080 A 
ATOM      5  C6  UNL d   1      -5.937   5.581  -2.808  0.00  0.00     0.076 C 
ATOM      6  C7  UNL d   1      -5.994   3.072  -2.869  0.00  0.00     0.002 A 
ATOM      7  C8  UNL d   1      -6.000   1.859  -3.562  0.00  0.00     0.006 A 
ENDROOT
BRANCH   1   8
ATOM      8  C1  UNL d   1      -5.933   0.530  -5.705  0.00  0.00     0.054 C 
ATOM      9  C   UNL d   1      -4.495   0.124  -5.995  0.00  0.00     0.018 C 
ENDBRANCH   1   8
TORSDOF 1
ENDMDL
