MODEL 1
REMARK minimizedAffinity 4.55674839
REMARK minimizedRMSD -1
REMARK  1 active torsions:
REMARK  status: ('A' for Active; 'I' for Inactive)
REMARK    1  A    between atoms: C1_2  and  C2_3 
ROOT
ATOM      1  C2  UNL d   1      -0.313  -3.254  -1.591  0.00  0.00    -0.081 A 
ATOM      2  C3  UNL d   1      -0.369  -1.864  -1.434  0.00  0.00     0.006 A 
ATOM      3  C4  UNL d   1       0.571  -1.204  -0.638  0.00  0.00     0.002 A 
ATOM      4  C5  UNL d   1       1.585  -1.920   0.005  0.00  0.00    -0.080 A 
ATOM      5  C6  UNL d   1       2.618  -1.220   0.838  0.00  0.00     0.076 C 
ATOM      6  C7  UNL d   1       1.631  -3.311  -0.138  0.00  0.00     0.002 A 
ATOM      7  C8  UNL d   1       0.691  -3.972  -0.933  0.00  0.00     0.006 A 
ENDROOT
BRANCH   1   8
ATOM      8  C1  UNL d   1      -1.285  -3.962  -2.500  0.00  0.00     0.054 C 
ATOM      9  C   UNL d   1      -1.228  -3.403  -3.914  0.00  0.00     0.018 C 
ENDBRANCH   1   8
TORSDOF 1
ENDMDL
