MODEL 1
REMARK minimizedAffinity 10.379015
REMARK minimizedRMSD -1
REMARK  1 active torsions:
REMARK  status: ('A' for Active; 'I' for Inactive)
REMARK    1  A    between atoms: C1_2  and  C2_3 
ROOT
ATOM      1  C2  UNL d   1      -3.258  -5.283  -5.145  0.00  0.00    -0.081 A 
ATOM      2  C3  UNL d   1      -2.190  -5.978  -5.727  0.00  0.00     0.006 A 
ATOM      3  C4  UNL d   1      -0.978  -5.331  -5.977  0.00  0.00     0.002 A 
ATOM      4  C5  UNL d   1      -0.810  -3.983  -5.643  0.00  0.00    -0.080 A 
ATOM      5  C6  UNL d   1       0.496  -3.284  -5.878  0.00  0.00     0.076 C 
ATOM      6  C7  UNL d   1      -1.883  -3.284  -5.078  0.00  0.00     0.002 A 
ATOM      7  C8  UNL d   1      -3.096  -3.930  -4.829  0.00  0.00     0.006 A 
ENDROOT
BRANCH   1   8
ATOM      8  C1  UNL d   1      -4.546  -5.995  -4.815  0.00  0.00     0.054 C 
ATOM      9  C   UNL d   1      -5.502  -5.987  -5.999  0.00  0.00     0.018 C 
ENDBRANCH   1   8
TORSDOF 1
ENDMDL
