MODEL 1
REMARK minimizedAffinity 3.70255327
REMARK minimizedRMSD -1
REMARK  1 active torsions:
REMARK  status: ('A' for Active; 'I' for Inactive)
REMARK    1  A    between atoms: C1_2  and  C2_3 
ROOT
ATOM      1  C2  UNL d   1      -5.126   5.009  -3.806  0.00  0.00    -0.081 A 
ATOM      2  C3  UNL d   1      -4.984   3.630  -4.004  0.00  0.00     0.006 A 
ATOM      3  C4  UNL d   1      -5.241   2.734  -2.964  0.00  0.00     0.002 A 
ATOM      4  C5  UNL d   1      -5.651   3.201  -1.710  0.00  0.00    -0.080 A 
ATOM      5  C6  UNL d   1      -5.959   2.248  -0.594  0.00  0.00     0.076 C 
ATOM      6  C7  UNL d   1      -5.776   4.580  -1.507  0.00  0.00     0.002 A 
ATOM      7  C8  UNL d   1      -5.519   5.476  -2.546  0.00  0.00     0.006 A 
ENDROOT
BRANCH   1   8
ATOM      8  C1  UNL d   1      -4.913   5.974  -4.944  0.00  0.00     0.054 C 
ATOM      9  C   UNL d   1      -6.000   5.832  -6.000  0.00  0.00     0.018 C 
ENDBRANCH   1   8
TORSDOF 1
ENDMDL
