MODEL 1
REMARK minimizedAffinity 5.23139572
REMARK minimizedRMSD -1
REMARK  1 active torsions:
REMARK  status: ('A' for Active; 'I' for Inactive)
REMARK    1  A    between atoms: C1_2  and  C2_3 
ROOT
ATOM      1  C2  UNL d   1      -5.210   1.267  -4.444  0.00  0.00    -0.081 A 
ATOM      2  C3  UNL d   1      -4.475   2.456  -4.522  0.00  0.00     0.006 A 
ATOM      3  C4  UNL d   1      -4.498   3.373  -3.468  0.00  0.00     0.002 A 
ATOM      4  C5  UNL d   1      -5.249   3.112  -2.317  0.00  0.00    -0.080 A 
ATOM      5  C6  UNL d   1      -5.259   4.074  -1.166  0.00  0.00     0.076 C 
ATOM      6  C7  UNL d   1      -5.997   1.932  -2.247  0.00  0.00     0.002 A 
ATOM      7  C8  UNL d   1      -5.975   1.015  -3.300  0.00  0.00     0.006 A 
ENDROOT
BRANCH   1   8
ATOM      8  C1  UNL d   1      -5.135   0.246  -5.552  0.00  0.00     0.054 C 
ATOM      9  C   UNL d   1      -6.000  -0.968  -5.244  0.00  0.00     0.018 C 
ENDBRANCH   1   8
TORSDOF 1
ENDMDL
