MODEL 1
REMARK minimizedAffinity 10.0593548
REMARK minimizedRMSD -1
REMARK  1 active torsions:
REMARK  status: ('A' for Active; 'I' for Inactive)
REMARK    1  A    between atoms: C1_2  and  C2_3 
ROOT
ATOM      1  C2  UNL d   1      -5.612   2.610  -4.779  0.00  0.00    -0.081 A 
ATOM      2  C3  UNL d   1      -6.000   2.314  -3.467  0.00  0.00     0.006 A 
ATOM      3  C4  UNL d   1      -5.711   3.200  -2.426  0.00  0.00     0.002 A 
ATOM      4  C5  UNL d   1      -5.038   4.400  -2.682  0.00  0.00    -0.080 A 
ATOM      5  C6  UNL d   1      -4.749   5.374  -1.578  0.00  0.00     0.076 C 
ATOM      6  C7  UNL d   1      -4.636   4.688  -3.990  0.00  0.00     0.002 A 
ATOM      7  C8  UNL d   1      -4.924   3.802  -5.031  0.00  0.00     0.006 A 
ENDROOT
BRANCH   1   8
ATOM      8  C1  UNL d   1      -5.979   1.687  -5.913  0.00  0.00     0.054 C 
ATOM      9  C   UNL d   1      -6.000   0.235  -5.460  0.00  0.00     0.018 C 
ENDBRANCH   1   8
TORSDOF 1
ENDMDL
