MODEL 1
REMARK minimizedAffinity 1.51572287
REMARK minimizedRMSD -1
REMARK  0 active torsions:
REMARK  status: ('A' for Active; 'I' for Inactive)
ROOT
ATOM      1  C1  BNZ d   1      -0.673  -1.431   1.231  0.00  0.00     0.000 A 
ATOM      2  C2  BNZ d   1       0.455  -2.018   1.739  0.00  0.00     0.000 A 
ATOM      3  C3  BNZ d   1       1.579  -1.279   1.984  0.00  0.00     0.000 A 
ATOM      4  C4  BNZ d   1       1.586   0.036   1.683  0.00  0.00     0.000 A 
ATOM      5  C5  BNZ d   1       0.459   0.640   1.162  0.00  0.00     0.000 A 
ATOM      6  C6  BNZ d   1      -0.683  -0.099   0.954  0.00  0.00     0.000 A 
ENDROOT
TORSDOF 0
ENDMDL
