MODEL 1
REMARK minimizedAffinity 2.71300578
REMARK minimizedRMSD -1
REMARK  0 active torsions:
REMARK  status: ('A' for Active; 'I' for Inactive)
ROOT
ATOM      1  C1  BNZ d   1      -1.307  -1.111   1.546  0.00  0.00     0.000 A 
ATOM      2  C2  BNZ d   1      -0.131  -1.725   1.890  0.00  0.00     0.000 A 
ATOM      3  C3  BNZ d   1       1.035  -1.016   1.955  0.00  0.00     0.000 A 
ATOM      4  C4  BNZ d   1       1.033   0.295   1.640  0.00  0.00     0.000 A 
ATOM      5  C5  BNZ d   1      -0.142   0.926   1.283  0.00  0.00     0.000 A 
ATOM      6  C6  BNZ d   1      -1.321   0.218   1.255  0.00  0.00     0.000 A 
ENDROOT
TORSDOF 0
ENDMDL
