MODEL 1
REMARK minimizedAffinity 3.4286809
REMARK minimizedRMSD -1
REMARK  0 active torsions:
REMARK  status: ('A' for Active; 'I' for Inactive)
ROOT
ATOM      1  C1  BNZ d   1      -2.558   0.279   0.507  0.00  0.00     0.000 A 
ATOM      2  C2  BNZ d   1      -1.867  -0.764   1.064  0.00  0.00     0.000 A 
ATOM      3  C3  BNZ d   1      -0.587  -0.595   1.512  0.00  0.00     0.000 A 
ATOM      4  C4  BNZ d   1       0.014   0.603   1.366  0.00  0.00     0.000 A 
ATOM      5  C5  BNZ d   1      -0.666   1.662   0.798  0.00  0.00     0.000 A 
ATOM      6  C6  BNZ d   1      -1.968   1.499   0.384  0.00  0.00     0.000 A 
ENDROOT
TORSDOF 0
ENDMDL
