MODEL 1
REMARK minimizedAffinity 3.64549398
REMARK minimizedRMSD -1
REMARK  0 active torsions:
REMARK  status: ('A' for Active; 'I' for Inactive)
ROOT
ATOM      1  C1  BNZ d   1      -1.755  -3.678  -2.489  0.00  0.00     0.000 A 
ATOM      2  C2  BNZ d   1      -2.411  -2.894  -3.399  0.00  0.00     0.000 A 
ATOM      3  C3  BNZ d   1      -3.063  -1.759  -3.004  0.00  0.00     0.000 A 
ATOM      4  C4  BNZ d   1      -3.092  -1.433  -1.696  0.00  0.00     0.000 A 
ATOM      5  C5  BNZ d   1      -2.443  -2.219  -0.764  0.00  0.00     0.000 A 
ATOM      6  C6  BNZ d   1      -1.755  -3.339  -1.171  0.00  0.00     0.000 A 
ENDROOT
TORSDOF 0
ENDMDL
