MODEL 1
REMARK minimizedAffinity 1.05140448
REMARK minimizedRMSD -1
REMARK  0 active torsions:
REMARK  status: ('A' for Active; 'I' for Inactive)
ROOT
ATOM      1  C1  BNZ d   1      -2.813  -0.970  -0.038  0.00  0.00     0.000 A 
ATOM      2  C2  BNZ d   1      -2.211   0.068   0.623  0.00  0.00     0.000 A 
ATOM      3  C3  BNZ d   1      -0.897  -0.005   0.993  0.00  0.00     0.000 A 
ATOM      4  C4  BNZ d   1      -0.198  -1.130   0.737  0.00  0.00     0.000 A 
ATOM      5  C5  BNZ d   1      -0.793  -2.188   0.080  0.00  0.00     0.000 A 
ATOM      6  C6  BNZ d   1      -2.105  -2.096  -0.325  0.00  0.00     0.000 A 
ENDROOT
TORSDOF 0
ENDMDL
