MODEL 1
REMARK minimizedAffinity 2.62265778
REMARK minimizedRMSD -1
REMARK  0 active torsions:
REMARK  status: ('A' for Active; 'I' for Inactive)
ROOT
ATOM      1  C1  BNZ d   1      -0.032  -3.134   0.597  0.00  0.00     0.000 A 
ATOM      2  C2  BNZ d   1       1.087  -2.394   0.871  0.00  0.00     0.000 A 
ATOM      3  C3  BNZ d   1       0.996  -1.054   1.123  0.00  0.00     0.000 A 
ATOM      4  C4  BNZ d   1      -0.208  -0.448   1.062  0.00  0.00     0.000 A 
ATOM      5  C5  BNZ d   1      -1.344  -1.179   0.777  0.00  0.00     0.000 A 
ATOM      6  C6  BNZ d   1      -1.253  -2.535   0.562  0.00  0.00     0.000 A 
ENDROOT
TORSDOF 0
ENDMDL
