MODEL 1
REMARK minimizedAffinity -0.586187541
REMARK minimizedRMSD -1
REMARK  0 active torsions:
REMARK  status: ('A' for Active; 'I' for Inactive)
ROOT
ATOM      1  C1  BNZ d   1       0.686  -2.866  -1.065  0.00  0.00     0.000 A 
ATOM      2  C2  BNZ d   1      -0.458  -2.562  -0.377  0.00  0.00     0.000 A 
ATOM      3  C3  BNZ d   1      -0.400  -1.929   0.833  0.00  0.00     0.000 A 
ATOM      4  C4  BNZ d   1       0.801  -1.638   1.372  0.00  0.00     0.000 A 
ATOM      5  C5  BNZ d   1       1.964  -1.947   0.696  0.00  0.00     0.000 A 
ATOM      6  C6  BNZ d   1       1.901  -2.548  -0.541  0.00  0.00     0.000 A 
ENDROOT
TORSDOF 0
ENDMDL
