MODEL 1
REMARK minimizedAffinity -3.32456565
REMARK minimizedRMSD -1
REMARK  0 active torsions:
REMARK  status: ('A' for Active; 'I' for Inactive)
ROOT
ATOM      1  C   UNL d   1      -3.571  -1.060   0.296  0.00  0.00    -0.002 A 
ATOM      2  C1  UNL d   1      -3.019  -0.899  -0.967  0.00  0.00     0.010 A 
ATOM      3  C2  UNL d   1      -1.644  -0.719  -1.123  0.00  0.00     0.041 A 
ATOM      4  C3  UNL d   1      -0.824  -0.705   0.022  0.00  0.00    -0.075 A 
ATOM      5  S   UNL d   1       0.887  -0.500   0.073  0.00  0.00     0.015 SA
ATOM      6  C4  UNL d   1       0.926  -0.622   1.772  0.00  0.00     0.022 A 
ATOM      7  C5  UNL d   1      -0.326  -0.814   2.304  0.00  0.00     0.026 A 
ATOM      8  C6  UNL d   1      -1.356  -0.866   1.304  0.00  0.00    -0.082 A 
ATOM      9  C7  UNL d   1      -2.754  -1.046   1.430  0.00  0.00     0.045 A 
ENDROOT
TORSDOF 0
ENDMDL
