MODEL 1
REMARK minimizedAffinity -1.93144739
REMARK minimizedRMSD -1
REMARK  0 active torsions:
REMARK  status: ('A' for Active; 'I' for Inactive)
ROOT
ATOM      1  C   UNL d   1       1.940  -1.078   2.635  0.00  0.00    -0.002 A 
ATOM      2  C1  UNL d   1       2.766  -0.995   1.523  0.00  0.00     0.010 A 
ATOM      3  C2  UNL d   1       2.226  -0.811   0.249  0.00  0.00     0.041 A 
ATOM      4  C3  UNL d   1       0.828  -0.710   0.110  0.00  0.00    -0.075 A 
ATOM      5  S   UNL d   1      -0.057  -0.483  -1.352  0.00  0.00     0.015 SA
ATOM      6  C4  UNL d   1      -1.553  -0.490  -0.536  0.00  0.00     0.022 A 
ATOM      7  C5  UNL d   1      -1.400  -0.662   0.820  0.00  0.00     0.026 A 
ATOM      8  C6  UNL d   1      -0.025  -0.791   1.214  0.00  0.00    -0.082 A 
ATOM      9  C7  UNL d   1       0.554  -0.978   2.493  0.00  0.00     0.045 A 
ENDROOT
TORSDOF 0
ENDMDL
