MODEL 1
REMARK minimizedAffinity -1.63420355
REMARK minimizedRMSD -1
REMARK  0 active torsions:
REMARK  status: ('A' for Active; 'I' for Inactive)
ROOT
ATOM      1  C   UNL d   1       0.979  -0.117   3.220  0.00  0.00    -0.002 A 
ATOM      2  C1  UNL d   1       1.950   0.175   2.274  0.00  0.00     0.010 A 
ATOM      3  C2  UNL d   1       1.642   0.162   0.912  0.00  0.00     0.041 A 
ATOM      4  C3  UNL d   1       0.328  -0.151   0.514  0.00  0.00    -0.075 A 
ATOM      5  S   UNL d   1      -0.280  -0.227  -1.098  0.00  0.00     0.015 SA
ATOM      6  C4  UNL d   1      -1.844  -0.649  -0.568  0.00  0.00     0.022 A 
ATOM      7  C5  UNL d   1      -1.919  -0.735   0.802  0.00  0.00     0.026 A 
ATOM      8  C6  UNL d   1      -0.668  -0.448   1.448  0.00  0.00    -0.082 A 
ATOM      9  C7  UNL d   1      -0.324  -0.428   2.821  0.00  0.00     0.045 A 
ENDROOT
TORSDOF 0
ENDMDL
