MODEL 1
REMARK minimizedAffinity 1.68018675
REMARK minimizedRMSD -1
REMARK  0 active torsions:
REMARK  status: ('A' for Active; 'I' for Inactive)
ROOT
ATOM      1  C   UNL d   1       1.321  -1.429   3.012  0.00  0.00    -0.002 A 
ATOM      2  C1  UNL d   1       2.103  -0.607   2.212  0.00  0.00     0.010 A 
ATOM      3  C2  UNL d   1       1.567  -0.011   1.069  0.00  0.00     0.041 A 
ATOM      4  C3  UNL d   1       0.219  -0.254   0.741  0.00  0.00    -0.075 A 
ATOM      5  S   UNL d   1      -0.651   0.370  -0.610  0.00  0.00     0.015 SA
ATOM      6  C4  UNL d   1      -2.082  -0.439  -0.157  0.00  0.00     0.022 A 
ATOM      7  C5  UNL d   1      -1.917  -1.172   0.994  0.00  0.00     0.026 A 
ATOM      8  C6  UNL d   1      -0.589  -1.077   1.531  0.00  0.00    -0.082 A 
ATOM      9  C7  UNL d   1      -0.016  -1.669   2.683  0.00  0.00     0.045 A 
ENDROOT
TORSDOF 0
ENDMDL
