MODEL 1
REMARK minimizedAffinity -2.64209199
REMARK minimizedRMSD -1
REMARK  0 active torsions:
REMARK  status: ('A' for Active; 'I' for Inactive)
ROOT
ATOM      1  C   UNL d   1       1.990  -0.414   2.168  0.00  0.00    -0.002 A 
ATOM      2  C1  UNL d   1       1.008  -0.944   2.992  0.00  0.00     0.010 A 
ATOM      3  C2  UNL d   1      -0.284  -1.161   2.509  0.00  0.00     0.041 A 
ATOM      4  C3  UNL d   1      -0.574  -0.834   1.170  0.00  0.00    -0.075 A 
ATOM      5  S   UNL d   1      -2.086  -1.015   0.361  0.00  0.00     0.015 SA
ATOM      6  C4  UNL d   1      -1.464  -0.393  -1.099  0.00  0.00     0.022 A 
ATOM      7  C5  UNL d   1      -0.137  -0.050  -0.989  0.00  0.00     0.026 A 
ATOM      8  C6  UNL d   1       0.398  -0.300   0.320  0.00  0.00    -0.082 A 
ATOM      9  C7  UNL d   1       1.698  -0.091   0.840  0.00  0.00     0.045 A 
ENDROOT
TORSDOF 0
ENDMDL
