MODEL 1
REMARK minimizedAffinity 2.58514643
REMARK minimizedRMSD -1
REMARK  0 active torsions:
REMARK  status: ('A' for Active; 'I' for Inactive)
ROOT
ATOM      1  C   UNL d   1      -1.079  -4.439   3.007  0.00  0.00    -0.002 A 
ATOM      2  C1  UNL d   1      -1.601  -3.229   2.573  0.00  0.00     0.010 A 
ATOM      3  C2  UNL d   1      -0.757  -2.211   2.126  0.00  0.00     0.041 A 
ATOM      4  C3  UNL d   1       0.634  -2.432   2.121  0.00  0.00    -0.075 A 
ATOM      5  S   UNL d   1       1.860  -1.329   1.617  0.00  0.00     0.015 SA
ATOM      6  C4  UNL d   1       3.106  -2.439   1.965  0.00  0.00     0.022 A 
ATOM      7  C5  UNL d   1       2.616  -3.627   2.455  0.00  0.00     0.026 A 
ATOM      8  C6  UNL d   1       1.184  -3.642   2.553  0.00  0.00    -0.082 A 
ATOM      9  C7  UNL d   1       0.302  -4.655   3.001  0.00  0.00     0.045 A 
ENDROOT
TORSDOF 0
ENDMDL
