MODEL 1
REMARK minimizedAffinity -3.39095187
REMARK minimizedRMSD -1
REMARK  0 active torsions:
REMARK  status: ('A' for Active; 'I' for Inactive)
ROOT
ATOM      1  C   UNL d   1      -3.948  -2.006  -0.078  0.00  0.00    -0.002 A 
ATOM      2  C1  UNL d   1      -3.533  -1.783  -1.384  0.00  0.00     0.010 A 
ATOM      3  C2  UNL d   1      -2.265  -1.261  -1.646  0.00  0.00     0.041 A 
ATOM      4  C3  UNL d   1      -1.412  -0.966  -0.565  0.00  0.00    -0.075 A 
ATOM      5  S   UNL d   1       0.185  -0.321  -0.646  0.00  0.00     0.015 SA
ATOM      6  C4  UNL d   1       0.354  -0.327   1.049  0.00  0.00     0.022 A 
ATOM      7  C5  UNL d   1      -0.770  -0.806   1.678  0.00  0.00     0.026 A 
ATOM      8  C6  UNL d   1      -1.807  -1.183   0.758  0.00  0.00    -0.082 A 
ATOM      9  C7  UNL d   1      -3.099  -1.712   0.992  0.00  0.00     0.045 A 
ENDROOT
TORSDOF 0
ENDMDL
