MODEL 1
REMARK minimizedAffinity 7.07901239
REMARK minimizedRMSD -1
REMARK  0 active torsions:
REMARK  status: ('A' for Active; 'I' for Inactive)
ROOT
ATOM      1  C   UNL d   1       3.499  -5.970   5.884  0.00  0.00     0.172 C 
ATOM      2  N   UNL d   1       4.275  -4.768   5.688  0.00  0.00    -0.070 N 
ATOM      3  C1  UNL d   1       5.599  -4.612   5.998  0.00  0.00    -0.004 A 
ATOM      4  C2  UNL d   1       5.964  -3.327   5.661  0.00  0.00    -0.047 A 
ATOM      5  C3  UNL d   1       4.818  -2.687   5.131  0.00  0.00    -0.047 A 
ATOM      6  C4  UNL d   1       3.787  -3.601   5.160  0.00  0.00    -0.004 A 
ENDROOT
TORSDOF 0
ENDMDL
