MODEL 1
REMARK minimizedAffinity 0.70040822
REMARK minimizedRMSD -1
REMARK  0 active torsions:
REMARK  status: ('A' for Active; 'I' for Inactive)
ROOT
ATOM      1  C   UNL d   1      -0.359  -1.909   3.008  0.00  0.00     0.172 C 
ATOM      2  N   UNL d   1       0.643  -2.454   2.123  0.00  0.00    -0.070 N 
ATOM      3  C1  UNL d   1       0.787  -3.777   1.798  0.00  0.00    -0.004 A 
ATOM      4  C2  UNL d   1       1.853  -3.885   0.931  0.00  0.00    -0.047 A 
ATOM      5  C3  UNL d   1       2.369  -2.583   0.729  0.00  0.00    -0.047 A 
ATOM      6  C4  UNL d   1       1.601  -1.716   1.479  0.00  0.00    -0.004 A 
ENDROOT
TORSDOF 0
ENDMDL
