MODEL 1
REMARK minimizedAffinity 2.83255768
REMARK minimizedRMSD -1
REMARK  0 active torsions:
REMARK  status: ('A' for Active; 'I' for Inactive)
ROOT
ATOM      1  C   UNL d   1      -2.701   2.670   4.873  0.00  0.00     0.172 C 
ATOM      2  N   UNL d   1      -3.983   2.006   4.915  0.00  0.00    -0.070 N 
ATOM      3  C1  UNL d   1      -4.888   1.953   3.889  0.00  0.00    -0.004 A 
ATOM      4  C2  UNL d   1      -5.978   1.231   4.325  0.00  0.00    -0.047 A 
ATOM      5  C3  UNL d   1      -5.719   0.837   5.660  0.00  0.00    -0.047 A 
ATOM      6  C4  UNL d   1      -4.477   1.330   6.000  0.00  0.00    -0.004 A 
ENDROOT
TORSDOF 0
ENDMDL
