MODEL 1
REMARK minimizedAffinity 1.46445036
REMARK minimizedRMSD -1
REMARK  0 active torsions:
REMARK  status: ('A' for Active; 'I' for Inactive)
ROOT
ATOM      1  C   UNL d   1       1.512  -4.780   0.489  0.00  0.00     0.172 C 
ATOM      2  N   UNL d   1       1.766  -3.364   0.609  0.00  0.00    -0.070 N 
ATOM      3  C1  UNL d   1       0.846  -2.369   0.413  0.00  0.00    -0.004 A 
ATOM      4  C2  UNL d   1       1.478  -1.162   0.621  0.00  0.00    -0.047 A 
ATOM      5  C3  UNL d   1       2.825  -1.442   0.952  0.00  0.00    -0.047 A 
ATOM      6  C4  UNL d   1       2.976  -2.812   0.937  0.00  0.00    -0.004 A 
ENDROOT
TORSDOF 0
ENDMDL
