MODEL 1
REMARK minimizedAffinity 6.62029076
REMARK minimizedRMSD -1
REMARK  0 active torsions:
REMARK  status: ('A' for Active; 'I' for Inactive)
ROOT
ATOM      1  C   UNL d   1      -4.060   5.223  -3.923  0.00  0.00     0.172 C 
ATOM      2  N   UNL d   1      -3.841   3.803  -3.779  0.00  0.00    -0.070 N 
ATOM      3  C1  UNL d   1      -2.871   3.219  -3.010  0.00  0.00    -0.004 A 
ATOM      4  C2  UNL d   1      -2.995   1.852  -3.140  0.00  0.00    -0.047 A 
ATOM      5  C3  UNL d   1      -4.078   1.607  -4.018  0.00  0.00    -0.047 A 
ATOM      6  C4  UNL d   1      -4.583   2.832  -4.398  0.00  0.00    -0.004 A 
ENDROOT
TORSDOF 0
ENDMDL
