MODEL 1
REMARK minimizedAffinity 3.0534637
REMARK minimizedRMSD -1
REMARK  0 active torsions:
REMARK  status: ('A' for Active; 'I' for Inactive)
ROOT
ATOM      1  C   UNL d   1       5.313   4.294  -5.386  0.00  0.00     0.172 C 
ATOM      2  N   UNL d   1       3.945   4.700  -5.607  0.00  0.00    -0.070 N 
ATOM      3  C1  UNL d   1       2.883   3.858  -5.800  0.00  0.00    -0.004 A 
ATOM      4  C2  UNL d   1       1.756   4.632  -5.973  0.00  0.00    -0.047 A 
ATOM      5  C3  UNL d   1       2.155   5.987  -5.881  0.00  0.00    -0.047 A 
ATOM      6  C4  UNL d   1       3.515   6.000  -5.654  0.00  0.00    -0.004 A 
ENDROOT
TORSDOF 0
ENDMDL
