MODEL 1
REMARK minimizedAffinity 5.75422907
REMARK minimizedRMSD -1
REMARK  0 active torsions:
REMARK  status: ('A' for Active; 'I' for Inactive)
ROOT
ATOM      1  C   UNL d   1      -6.000   0.623  -4.374  0.00  0.00     0.172 C 
ATOM      2  N   UNL d   1      -5.568  -0.551  -3.653  0.00  0.00    -0.070 N 
ATOM      3  C1  UNL d   1      -5.993  -1.832  -3.886  0.00  0.00    -0.004 A 
ATOM      4  C2  UNL d   1      -5.348  -2.659  -2.992  0.00  0.00    -0.047 A 
ATOM      5  C3  UNL d   1      -4.508  -1.848  -2.194  0.00  0.00    -0.047 A 
ATOM      6  C4  UNL d   1      -4.664  -0.547  -2.624  0.00  0.00    -0.004 A 
ENDROOT
TORSDOF 0
ENDMDL
