MODEL 1
REMARK minimizedAffinity 3.08358932
REMARK minimizedRMSD -1
REMARK  0 active torsions:
REMARK  status: ('A' for Active; 'I' for Inactive)
ROOT
ATOM      1  C   UNL d   1       4.442  -2.492   5.366  0.00  0.00     0.172 C 
ATOM      2  N   UNL d   1       4.421  -3.913   5.620  0.00  0.00    -0.070 N 
ATOM      3  C1  UNL d   1       5.521  -4.713   5.774  0.00  0.00    -0.004 A 
ATOM      4  C2  UNL d   1       5.080  -5.999   6.000  0.00  0.00    -0.047 A 
ATOM      5  C3  UNL d   1       3.665  -5.971   5.979  0.00  0.00    -0.047 A 
ATOM      6  C4  UNL d   1       3.284  -4.667   5.742  0.00  0.00    -0.004 A 
ENDROOT
TORSDOF 0
ENDMDL
