MODEL 1
REMARK minimizedAffinity 6.67908716
REMARK minimizedRMSD -1
REMARK  0 active torsions:
REMARK  status: ('A' for Active; 'I' for Inactive)
ROOT
ATOM      1  C   UNL d   1       0.487   3.084  -3.794  0.00  0.00     0.172 C 
ATOM      2  N   UNL d   1      -0.835   2.703  -3.353  0.00  0.00    -0.070 N 
ATOM      3  C1  UNL d   1      -1.116   1.876  -2.298  0.00  0.00    -0.004 A 
ATOM      4  C2  UNL d   1      -2.487   1.763  -2.204  0.00  0.00    -0.047 A 
ATOM      5  C3  UNL d   1      -3.048   2.549  -3.239  0.00  0.00    -0.047 A 
ATOM      6  C4  UNL d   1      -2.003   3.119  -3.935  0.00  0.00    -0.004 A 
ENDROOT
TORSDOF 0
ENDMDL
