MODEL 1
REMARK minimizedAffinity 5.92781162
REMARK minimizedRMSD -1
REMARK  0 active torsions:
REMARK  status: ('A' for Active; 'I' for Inactive)
ROOT
ATOM      1  C   UNL d   1       0.019  -1.802  -0.406  0.00  0.00     0.172 C 
ATOM      2  N   UNL d   1       1.292  -1.936   0.262  0.00  0.00    -0.070 N 
ATOM      3  C1  UNL d   1       1.748  -1.140   1.279  0.00  0.00    -0.004 A 
ATOM      4  C2  UNL d   1       2.998  -1.592   1.641  0.00  0.00    -0.047 A 
ATOM      5  C3  UNL d   1       3.306  -2.697   0.812  0.00  0.00    -0.047 A 
ATOM      6  C4  UNL d   1       2.232  -2.888  -0.032  0.00  0.00    -0.004 A 
ENDROOT
TORSDOF 0
ENDMDL
