MODEL 1
REMARK minimizedAffinity 4.61112309
REMARK minimizedRMSD -1
REMARK  0 active torsions:
REMARK  status: ('A' for Active; 'I' for Inactive)
ROOT
ATOM      1  C   UNL d   1       2.539  -1.432  -0.005  0.00  0.00     0.077 C 
ATOM      2  C1  UNL d   1       1.950  -0.149  -0.510  0.00  0.00    -0.074 A 
ATOM      3  C2  UNL d   1       1.506  -0.032  -1.831  0.00  0.00    -0.005 A 
ATOM      4  C3  UNL d   1       0.952   1.165  -2.284  0.00  0.00     0.006 A 
ATOM      5  C4  UNL d   1       0.836   2.256  -1.422  0.00  0.00    -0.005 A 
ATOM      6  C5  UNL d   1       1.273   2.158  -0.097  0.00  0.00    -0.074 A 
ATOM      7  C6  UNL d   1       1.146   3.318   0.846  0.00  0.00     0.077 C 
ATOM      8  C7  UNL d   1       1.823   0.949   0.352  0.00  0.00    -0.001 A 
ENDROOT
TORSDOF 0
ENDMDL
