MODEL 1
REMARK minimizedAffinity 1.75847816
REMARK minimizedRMSD -1
REMARK  0 active torsions:
REMARK  status: ('A' for Active; 'I' for Inactive)
ROOT
ATOM      1  C   UNL d   1      -1.498   5.623   4.121  0.00  0.00     0.077 C 
ATOM      2  C1  UNL d   1      -1.903   4.188   3.956  0.00  0.00    -0.074 A 
ATOM      3  C2  UNL d   1      -1.760   3.275   5.006  0.00  0.00    -0.005 A 
ATOM      4  C3  UNL d   1      -2.149   1.946   4.840  0.00  0.00     0.006 A 
ATOM      5  C4  UNL d   1      -2.686   1.517   3.625  0.00  0.00    -0.005 A 
ATOM      6  C5  UNL d   1      -2.837   2.416   2.564  0.00  0.00    -0.074 A 
ATOM      7  C6  UNL d   1      -3.421   1.974   1.255  0.00  0.00     0.077 C 
ATOM      8  C7  UNL d   1      -2.450   3.751   2.741  0.00  0.00    -0.001 A 
ENDROOT
TORSDOF 0
ENDMDL
