MODEL 1
REMARK minimizedAffinity 0.094461292
REMARK minimizedRMSD -1
REMARK  0 active torsions:
REMARK  status: ('A' for Active; 'I' for Inactive)
ROOT
ATOM      1  C   UNL d   1       1.299   3.906   1.268  0.00  0.00     0.077 C 
ATOM      2  C1  UNL d   1       1.214   2.954   0.112  0.00  0.00    -0.074 A 
ATOM      3  C2  UNL d   1       0.867   3.405  -1.166  0.00  0.00    -0.005 A 
ATOM      4  C3  UNL d   1       0.802   2.510  -2.234  0.00  0.00     0.006 A 
ATOM      5  C4  UNL d   1       1.081   1.157  -2.034  0.00  0.00    -0.005 A 
ATOM      6  C5  UNL d   1       1.430   0.688  -0.764  0.00  0.00    -0.074 A 
ATOM      7  C6  UNL d   1       1.743  -0.761  -0.535  0.00  0.00     0.077 C 
ATOM      8  C7  UNL d   1       1.501   1.595   0.302  0.00  0.00    -0.001 A 
ENDROOT
TORSDOF 0
ENDMDL
