MODEL 1
REMARK minimizedAffinity 1.72568989
REMARK minimizedRMSD -1
REMARK  0 active torsions:
REMARK  status: ('A' for Active; 'I' for Inactive)
ROOT
ATOM      1  C   UNL d   1       1.470   5.960  -1.257  0.00  0.00     0.077 C 
ATOM      2  C1  UNL d   1       1.427   4.600  -0.627  0.00  0.00    -0.074 A 
ATOM      3  C2  UNL d   1       1.482   4.450   0.763  0.00  0.00    -0.005 A 
ATOM      4  C3  UNL d   1       1.431   3.180   1.336  0.00  0.00     0.006 A 
ATOM      5  C4  UNL d   1       1.325   2.048   0.526  0.00  0.00    -0.005 A 
ATOM      6  C5  UNL d   1       1.269   2.178  -0.865  0.00  0.00    -0.074 A 
ATOM      7  C6  UNL d   1       1.145   0.973  -1.749  0.00  0.00     0.077 C 
ATOM      8  C7  UNL d   1       1.313   3.459  -1.433  0.00  0.00    -0.001 A 
ENDROOT
TORSDOF 0
ENDMDL
