MODEL 1
REMARK minimizedAffinity -0.600057125
REMARK minimizedRMSD -1
REMARK  0 active torsions:
REMARK  status: ('A' for Active; 'I' for Inactive)
ROOT
ATOM      1  C   UNL d   1       3.676   1.312   1.216  0.00  0.00     0.077 C 
ATOM      2  C1  UNL d   1       2.896   1.732   0.006  0.00  0.00    -0.074 A 
ATOM      3  C2  UNL d   1       2.774   3.083  -0.337  0.00  0.00    -0.005 A 
ATOM      4  C3  UNL d   1       2.053   3.458  -1.470  0.00  0.00     0.006 A 
ATOM      5  C4  UNL d   1       1.449   2.489  -2.271  0.00  0.00    -0.005 A 
ATOM      6  C5  UNL d   1       1.561   1.133  -1.945  0.00  0.00    -0.074 A 
ATOM      7  C6  UNL d   1       0.925   0.078  -2.801  0.00  0.00     0.077 C 
ATOM      8  C7  UNL d   1       2.293   0.764  -0.808  0.00  0.00    -0.001 A 
ENDROOT
TORSDOF 0
ENDMDL
