MODEL 1
REMARK minimizedAffinity -3.23535466
REMARK minimizedRMSD -1
REMARK  0 active torsions:
REMARK  status: ('A' for Active; 'I' for Inactive)
ROOT
ATOM      1  C   UNL d   1       1.126   5.280  -0.794  0.00  0.00     0.077 C 
ATOM      2  C1  UNL d   1       1.210   3.786  -0.687  0.00  0.00    -0.074 A 
ATOM      3  C2  UNL d   1       1.160   2.979  -1.828  0.00  0.00    -0.005 A 
ATOM      4  C3  UNL d   1       1.248   1.592  -1.713  0.00  0.00     0.006 A 
ATOM      5  C4  UNL d   1       1.387   0.998  -0.458  0.00  0.00    -0.005 A 
ATOM      6  C5  UNL d   1       1.440   1.789   0.695  0.00  0.00    -0.074 A 
ATOM      7  C6  UNL d   1       1.599   1.168   2.051  0.00  0.00     0.077 C 
ATOM      8  C7  UNL d   1       1.357   3.183   0.570  0.00  0.00    -0.001 A 
ENDROOT
TORSDOF 0
ENDMDL
