MODEL 1
REMARK minimizedAffinity -3.31126547
REMARK minimizedRMSD -1
REMARK  0 active torsions:
REMARK  status: ('A' for Active; 'I' for Inactive)
ROOT
ATOM      1  C   UNL d   1       1.268   4.947  -0.778  0.00  0.00     0.077 C 
ATOM      2  C1  UNL d   1       1.274   3.526  -0.300  0.00  0.00    -0.074 A 
ATOM      3  C2  UNL d   1       1.373   3.226   1.063  0.00  0.00    -0.005 A 
ATOM      4  C3  UNL d   1       1.368   1.899   1.493  0.00  0.00     0.006 A 
ATOM      5  C4  UNL d   1       1.264   0.861   0.567  0.00  0.00    -0.005 A 
ATOM      6  C5  UNL d   1       1.164   1.141  -0.800  0.00  0.00    -0.074 A 
ATOM      7  C6  UNL d   1       1.042   0.037  -1.807  0.00  0.00     0.077 C 
ATOM      8  C7  UNL d   1       1.163   2.477  -1.224  0.00  0.00    -0.001 A 
ENDROOT
TORSDOF 0
ENDMDL
