MODEL 1
REMARK minimizedAffinity 5.29860735
REMARK minimizedRMSD -1
REMARK  0 active torsions:
REMARK  status: ('A' for Active; 'I' for Inactive)
ROOT
ATOM      1  C   UNL d   1       1.214   4.777  -1.445  0.00  0.00     0.077 C 
ATOM      2  C1  UNL d   1       1.245   3.449  -0.749  0.00  0.00    -0.074 A 
ATOM      3  C2  UNL d   1       1.272   3.369   0.647  0.00  0.00    -0.005 A 
ATOM      4  C3  UNL d   1       1.291   2.126   1.280  0.00  0.00     0.006 A 
ATOM      5  C4  UNL d   1       1.283   0.952   0.525  0.00  0.00    -0.005 A 
ATOM      6  C5  UNL d   1       1.256   1.013  -0.872  0.00  0.00    -0.074 A 
ATOM      7  C6  UNL d   1       1.237  -0.239  -1.699  0.00  0.00     0.077 C 
ATOM      8  C7  UNL d   1       1.230   2.265  -1.501  0.00  0.00    -0.001 A 
ENDROOT
TORSDOF 0
ENDMDL
