MODEL 1
REMARK minimizedAffinity 1.01432204
REMARK minimizedRMSD -1
REMARK  0 active torsions:
REMARK  status: ('A' for Active; 'I' for Inactive)
ROOT
ATOM      1  C   UNL d   1       0.806   3.487   1.088  0.00  0.00     0.077 C 
ATOM      2  C1  UNL d   1       1.201   2.502   0.028  0.00  0.00    -0.074 A 
ATOM      3  C2  UNL d   1       1.205   2.863  -1.323  0.00  0.00    -0.005 A 
ATOM      4  C3  UNL d   1       1.584   1.938  -2.297  0.00  0.00     0.006 A 
ATOM      5  C4  UNL d   1       1.962   0.646  -1.930  0.00  0.00    -0.005 A 
ATOM      6  C5  UNL d   1       1.965   0.268  -0.583  0.00  0.00    -0.074 A 
ATOM      7  C6  UNL d   1       2.378  -1.114  -0.171  0.00  0.00     0.077 C 
ATOM      8  C7  UNL d   1       1.590   1.204   0.389  0.00  0.00    -0.001 A 
ENDROOT
TORSDOF 0
ENDMDL
