MODEL 1
REMARK minimizedAffinity 6.18569946
REMARK minimizedRMSD -1
REMARK  0 active torsions:
REMARK  status: ('A' for Active; 'I' for Inactive)
ROOT
ATOM      1  C   UNL d   1       1.421   4.132  -1.265  0.00  0.00     0.077 C 
ATOM      2  C1  UNL d   1       1.208   2.657  -1.433  0.00  0.00    -0.074 A 
ATOM      3  C2  UNL d   1       0.336   2.163  -2.408  0.00  0.00    -0.005 A 
ATOM      4  C3  UNL d   1       0.155   0.788  -2.559  0.00  0.00     0.006 A 
ATOM      5  C4  UNL d   1       0.844  -0.105  -1.738  0.00  0.00    -0.005 A 
ATOM      6  C5  UNL d   1       1.721   0.370  -0.758  0.00  0.00    -0.074 A 
ATOM      7  C6  UNL d   1       2.476  -0.577   0.127  0.00  0.00     0.077 C 
ATOM      8  C7  UNL d   1       1.902   1.753  -0.617  0.00  0.00    -0.001 A 
ENDROOT
TORSDOF 0
ENDMDL
