MODEL 1
REMARK minimizedAffinity 0.538030386
REMARK minimizedRMSD -1
REMARK  0 active torsions:
REMARK  status: ('A' for Active; 'I' for Inactive)
ROOT
ATOM      1  C   UNL d   1       1.146   4.775   0.252  0.00  0.00     0.077 C 
ATOM      2  C1  UNL d   1       1.156   3.463  -0.476  0.00  0.00    -0.074 A 
ATOM      3  C2  UNL d   1       1.229   3.417  -1.872  0.00  0.00    -0.005 A 
ATOM      4  C3  UNL d   1       1.247   2.190  -2.535  0.00  0.00     0.006 A 
ATOM      5  C4  UNL d   1       1.193   0.999  -1.810  0.00  0.00    -0.005 A 
ATOM      6  C5  UNL d   1       1.120   1.026  -0.414  0.00  0.00    -0.074 A 
ATOM      7  C6  UNL d   1       1.071  -0.245   0.381  0.00  0.00     0.077 C 
ATOM      8  C7  UNL d   1       1.110   2.262   0.245  0.00  0.00    -0.001 A 
ENDROOT
TORSDOF 0
ENDMDL
