MODEL 1
REMARK minimizedAffinity -1.23022211
REMARK minimizedRMSD -1
REMARK  0 active torsions:
REMARK  status: ('A' for Active; 'I' for Inactive)
ROOT
ATOM      1  C   UNL d   1       1.184   4.709  -1.501  0.00  0.00     0.077 C 
ATOM      2  C1  UNL d   1       1.198   3.274  -1.064  0.00  0.00    -0.074 A 
ATOM      3  C2  UNL d   1       1.152   2.237  -2.001  0.00  0.00    -0.005 A 
ATOM      4  C3  UNL d   1       1.175   0.907  -1.580  0.00  0.00     0.006 A 
ATOM      5  C4  UNL d   1       1.245   0.602  -0.220  0.00  0.00    -0.005 A 
ATOM      6  C5  UNL d   1       1.292   1.625   0.731  0.00  0.00    -0.074 A 
ATOM      7  C6  UNL d   1       1.377   1.314   2.196  0.00  0.00     0.077 C 
ATOM      8  C7  UNL d   1       1.275   2.959   0.300  0.00  0.00    -0.001 A 
ENDROOT
TORSDOF 0
ENDMDL
