MODEL 1
REMARK minimizedAffinity -3.23517275
REMARK minimizedRMSD -1
REMARK  0 active torsions:
REMARK  status: ('A' for Active; 'I' for Inactive)
ROOT
ATOM      1  C   UNL d   1       0.709   3.997   1.182  0.00  0.00     0.077 C 
ATOM      2  C1  UNL d   1       0.869   2.971   0.100  0.00  0.00    -0.074 A 
ATOM      3  C2  UNL d   1       0.758   3.325  -1.248  0.00  0.00    -0.005 A 
ATOM      4  C3  UNL d   1       0.918   2.361  -2.244  0.00  0.00     0.006 A 
ATOM      5  C4  UNL d   1       1.191   1.036  -1.902  0.00  0.00    -0.005 A 
ATOM      6  C5  UNL d   1       1.306   0.664  -0.558  0.00  0.00    -0.074 A 
ATOM      7  C6  UNL d   1       1.608  -0.754  -0.174  0.00  0.00     0.077 C 
ATOM      8  C7  UNL d   1       1.151   1.639   0.436  0.00  0.00    -0.001 A 
ENDROOT
TORSDOF 0
ENDMDL
