MODEL 1
REMARK minimizedAffinity 1.21124172
REMARK minimizedRMSD -1
REMARK  0 active torsions:
REMARK  status: ('A' for Active; 'I' for Inactive)
ROOT
ATOM      1  C   UNL d   1       1.879   0.753   1.910  0.00  0.00     0.077 C 
ATOM      2  C1  UNL d   1       1.439   0.817   0.478  0.00  0.00    -0.074 A 
ATOM      3  C2  UNL d   1       1.193  -0.352  -0.251  0.00  0.00    -0.005 A 
ATOM      4  C3  UNL d   1       0.775  -0.277  -1.579  0.00  0.00     0.006 A 
ATOM      5  C4  UNL d   1       0.599   0.964  -2.192  0.00  0.00    -0.005 A 
ATOM      6  C5  UNL d   1       0.840   2.143  -1.479  0.00  0.00    -0.074 A 
ATOM      7  C6  UNL d   1       0.646   3.486  -2.119  0.00  0.00     0.077 C 
ATOM      8  C7  UNL d   1       1.253   2.060  -0.142  0.00  0.00    -0.001 A 
ENDROOT
TORSDOF 0
ENDMDL
