MODEL 1
REMARK minimizedAffinity 5.48836088
REMARK minimizedRMSD -1
REMARK  0 active torsions:
REMARK  status: ('A' for Active; 'I' for Inactive)
ROOT
ATOM      1  C   UNL d   1       0.795  -1.978  -1.046  0.00  0.00     0.077 C 
ATOM      2  C1  UNL d   1       1.446  -0.774  -0.433  0.00  0.00    -0.074 A 
ATOM      3  C2  UNL d   1       2.750  -0.839   0.069  0.00  0.00    -0.005 A 
ATOM      4  C3  UNL d   1       3.346   0.292   0.627  0.00  0.00     0.006 A 
ATOM      5  C4  UNL d   1       2.645   1.497   0.689  0.00  0.00    -0.005 A 
ATOM      6  C5  UNL d   1       1.341   1.581   0.191  0.00  0.00    -0.074 A 
ATOM      7  C6  UNL d   1       0.578   2.871   0.241  0.00  0.00     0.077 C 
ATOM      8  C7  UNL d   1       0.752   0.442  -0.374  0.00  0.00    -0.001 A 
ENDROOT
TORSDOF 0
ENDMDL
