MODEL 1
REMARK minimizedAffinity 0.692243934
REMARK minimizedRMSD -1
REMARK  0 active torsions:
REMARK  status: ('A' for Active; 'I' for Inactive)
ROOT
ATOM      1  C   UNL d   1       1.002   3.684   1.176  0.00  0.00     0.077 C 
ATOM      2  C1  UNL d   1       1.077   2.485   0.278  0.00  0.00    -0.074 A 
ATOM      3  C2  UNL d   1       1.286   2.628  -1.097  0.00  0.00    -0.005 A 
ATOM      4  C3  UNL d   1       1.363   1.503  -1.918  0.00  0.00     0.006 A 
ATOM      5  C4  UNL d   1       1.230   0.225  -1.374  0.00  0.00    -0.005 A 
ATOM      6  C5  UNL d   1       1.021   0.062  -0.000  0.00  0.00    -0.074 A 
ATOM      7  C6  UNL d   1       0.886  -1.304   0.603  0.00  0.00     0.077 C 
ATOM      8  C7  UNL d   1       0.952   1.197   0.819  0.00  0.00    -0.001 A 
ENDROOT
TORSDOF 0
ENDMDL
