MODEL 1
REMARK minimizedAffinity 6.27897835
REMARK minimizedRMSD -1
REMARK  1 active torsions:
REMARK  status: ('A' for Active; 'I' for Inactive)
REMARK    1  A    between atoms: C1_2  and  C2_3 
ROOT
ATOM      1  C2  UNL d   1       2.768  -0.398   0.754  0.00  0.00    -0.076 A 
ATOM      2  C3  UNL d   1       1.925   0.635   0.308  0.00  0.00     0.004 A 
ATOM      3  C4  UNL d   1       2.199   1.967   0.615  0.00  0.00    -0.003 A 
ATOM      4  C5  UNL d   1       3.321   2.287   1.372  0.00  0.00     0.000 A 
ATOM      5  C6  UNL d   1       4.177   1.276   1.807  0.00  0.00     0.000 A 
ATOM      6  C7  UNL d   1       3.924  -0.070   1.493  0.00  0.00    -0.073 A 
ATOM      7  C8  UNL d   1       4.878  -1.120   1.993  0.00  0.00     0.078 C 
ENDROOT
BRANCH   1   8
ATOM      8  C1  UNL d   1       2.405  -1.826   0.413  0.00  0.00     0.053 C 
ATOM      9  C   UNL d   1       2.042  -2.001  -1.054  0.00  0.00     0.018 C 
ENDBRANCH   1   8
TORSDOF 1
ENDMDL
