MODEL 1
REMARK minimizedAffinity 5.75139999
REMARK minimizedRMSD -1
REMARK  1 active torsions:
REMARK  status: ('A' for Active; 'I' for Inactive)
REMARK    1  A    between atoms: C1_2  and  C2_3 
ROOT
ATOM      1  C2  UNL d   1       2.162   0.568   0.005  0.00  0.00    -0.076 A 
ATOM      2  C3  UNL d   1       3.513   0.948   0.085  0.00  0.00     0.004 A 
ATOM      3  C4  UNL d   1       3.874   2.237   0.474  0.00  0.00    -0.003 A 
ATOM      4  C5  UNL d   1       2.889   3.167   0.790  0.00  0.00     0.000 A 
ATOM      5  C6  UNL d   1       1.544   2.802   0.732  0.00  0.00     0.000 A 
ATOM      6  C7  UNL d   1       1.164   1.502   0.358  0.00  0.00    -0.073 A 
ATOM      7  C8  UNL d   1      -0.301   1.164   0.307  0.00  0.00     0.078 C 
ENDROOT
BRANCH   1   8
ATOM      8  C1  UNL d   1       1.830  -0.836  -0.449  0.00  0.00     0.053 C 
ATOM      9  C   UNL d   1       2.699  -1.886   0.225  0.00  0.00     0.018 C 
ENDBRANCH   1   8
TORSDOF 1
ENDMDL
