MODEL 1
REMARK minimizedAffinity 3.72508693
REMARK minimizedRMSD -1
REMARK  1 active torsions:
REMARK  status: ('A' for Active; 'I' for Inactive)
REMARK    1  A    between atoms: C1_2  and  C2_3 
ROOT
ATOM      1  C2  UNL d   1       2.547   0.881   0.312  0.00  0.00    -0.076 A 
ATOM      2  C3  UNL d   1       1.618  -0.152   0.525  0.00  0.00     0.004 A 
ATOM      3  C4  UNL d   1       1.919  -1.469   0.181  0.00  0.00    -0.003 A 
ATOM      4  C5  UNL d   1       3.154  -1.774  -0.380  0.00  0.00     0.000 A 
ATOM      5  C6  UNL d   1       4.094  -0.764  -0.582  0.00  0.00     0.000 A 
ATOM      6  C7  UNL d   1       3.813   0.566  -0.226  0.00  0.00    -0.073 A 
ATOM      7  C8  UNL d   1       4.861   1.617  -0.472  0.00  0.00     0.078 C 
ENDROOT
BRANCH   1   8
ATOM      8  C1  UNL d   1       2.154   2.295   0.679  0.00  0.00     0.053 C 
ATOM      9  C   UNL d   1       0.685   2.581   0.407  0.00  0.00     0.018 C 
ENDBRANCH   1   8
TORSDOF 1
ENDMDL
