MODEL 1
REMARK minimizedAffinity 5.09541655
REMARK minimizedRMSD -1
REMARK  1 active torsions:
REMARK  status: ('A' for Active; 'I' for Inactive)
REMARK    1  A    between atoms: C1_2  and  C2_3 
ROOT
ATOM      1  C2  UNL d   1       1.506  -0.541  -0.758  0.00  0.00    -0.076 A 
ATOM      2  C3  UNL d   1       2.251  -1.717  -0.560  0.00  0.00     0.004 A 
ATOM      3  C4  UNL d   1       1.627  -2.963  -0.518  0.00  0.00    -0.003 A 
ATOM      4  C5  UNL d   1       0.248  -3.053  -0.674  0.00  0.00     0.000 A 
ATOM      5  C6  UNL d   1      -0.504  -1.898  -0.890  0.00  0.00     0.000 A 
ATOM      6  C7  UNL d   1       0.111  -0.636  -0.951  0.00  0.00    -0.073 A 
ATOM      7  C8  UNL d   1      -0.749   0.576  -1.180  0.00  0.00     0.078 C 
ENDROOT
BRANCH   1   8
ATOM      8  C1  UNL d   1       2.234   0.784  -0.767  0.00  0.00     0.053 C 
ATOM      9  C   UNL d   1       3.668   0.658  -1.258  0.00  0.00     0.018 C 
ENDBRANCH   1   8
TORSDOF 1
ENDMDL
