MODEL 1
REMARK minimizedAffinity 12.4080153
REMARK minimizedRMSD -1
REMARK  0 active torsions:
REMARK  status: ('A' for Active; 'I' for Inactive)
ROOT
ATOM      1  C   UNL d   1      -4.210  -0.013  -0.387  0.00  0.00     0.023 A 
ATOM      2  C1  UNL d   1      -5.179   0.073  -1.387  0.00  0.00     0.003 A 
ATOM      3  C2  UNL d   1      -5.693   1.317  -1.758  0.00  0.00     0.048 A 
ATOM      4  C3  UNL d   1      -5.231   2.472  -1.126  0.00  0.00     0.023 A 
ATOM      5  C4  UNL d   1      -4.261   2.391  -0.126  0.00  0.00     0.048 A 
ATOM      6  C5  UNL d   1      -3.751   1.144   0.242  0.00  0.00     0.003 A 
ATOM      7  I   UNL d   1      -5.994   4.325  -1.677  0.00  0.00    -0.146 I 
ENDROOT
TORSDOF 0
ENDMDL
