MODEL 1
REMARK minimizedAffinity 10.7743149
REMARK minimizedRMSD -1
REMARK  0 active torsions:
REMARK  status: ('A' for Active; 'I' for Inactive)
ROOT
ATOM      1  C   UNL d   1       3.139   0.064  -0.016  0.00  0.00     0.023 A 
ATOM      2  C1  UNL d   1       2.433  -0.030  -1.215  0.00  0.00     0.003 A 
ATOM      3  C2  UNL d   1       1.582  -1.114  -1.442  0.00  0.00     0.048 A 
ATOM      4  C3  UNL d   1       1.443  -2.100  -0.465  0.00  0.00     0.023 A 
ATOM      5  C4  UNL d   1       2.147  -2.009   0.736  0.00  0.00     0.048 A 
ATOM      6  C5  UNL d   1       2.997  -0.924   0.959  0.00  0.00     0.003 A 
ATOM      7  I   UNL d   1       0.177  -3.714  -0.801  0.00  0.00    -0.146 I 
ENDROOT
TORSDOF 0
ENDMDL
