MODEL 1
REMARK minimizedAffinity 14.6473217
REMARK minimizedRMSD -1
REMARK  0 active torsions:
REMARK  status: ('A' for Active; 'I' for Inactive)
ROOT
ATOM      1  C   UNL d   1       1.852  -0.795  -0.591  0.00  0.00     0.023 A 
ATOM      2  C1  UNL d   1       2.167   0.393  -1.251  0.00  0.00     0.003 A 
ATOM      3  C2  UNL d   1       3.029   1.317  -0.656  0.00  0.00     0.048 A 
ATOM      4  C3  UNL d   1       3.574   1.045   0.599  0.00  0.00     0.023 A 
ATOM      5  C4  UNL d   1       3.263  -0.143   1.262  0.00  0.00     0.048 A 
ATOM      6  C5  UNL d   1       2.399  -1.062   0.664  0.00  0.00     0.003 A 
ATOM      7  I   UNL d   1       4.858   2.418   1.486  0.00  0.00    -0.146 I 
ENDROOT
TORSDOF 0
ENDMDL
