MODEL 1
REMARK minimizedAffinity 12.8928757
REMARK minimizedRMSD -1
REMARK  0 active torsions:
REMARK  status: ('A' for Active; 'I' for Inactive)
ROOT
ATOM      1  C   UNL d   1       0.717   4.883   5.693  0.00  0.00     0.023 A 
ATOM      2  C1  UNL d   1       1.433   5.749   4.867  0.00  0.00     0.003 A 
ATOM      3  C2  UNL d   1       2.343   5.238   3.939  0.00  0.00     0.048 A 
ATOM      4  C3  UNL d   1       2.531   3.860   3.842  0.00  0.00     0.023 A 
ATOM      5  C4  UNL d   1       1.815   2.990   4.665  0.00  0.00     0.048 A 
ATOM      6  C5  UNL d   1       0.907   3.505   5.592  0.00  0.00     0.003 A 
ATOM      7  I   UNL d   1       3.884   3.097   2.461  0.00  0.00    -0.146 I 
ENDROOT
TORSDOF 0
ENDMDL
