MODEL 1
REMARK minimizedAffinity 10.5443077
REMARK minimizedRMSD -1
REMARK  0 active torsions:
REMARK  status: ('A' for Active; 'I' for Inactive)
ROOT
ATOM      1  C   UNL d   1      -4.678   1.759   0.858  0.00  0.00     0.023 A 
ATOM      2  C1  UNL d   1      -5.685   1.181   0.085  0.00  0.00     0.003 A 
ATOM      3  C2  UNL d   1      -5.357   0.314  -0.959  0.00  0.00     0.048 A 
ATOM      4  C3  UNL d   1      -4.018   0.029  -1.225  0.00  0.00     0.023 A 
ATOM      5  C4  UNL d   1      -3.006   0.604  -0.455  0.00  0.00     0.048 A 
ATOM      6  C5  UNL d   1      -3.340   1.471   0.588  0.00  0.00     0.003 A 
ATOM      7  I   UNL d   1      -3.526  -1.260  -2.779  0.00  0.00    -0.146 I 
ENDROOT
TORSDOF 0
ENDMDL
