MODEL 1
REMARK minimizedAffinity -3.47998524
REMARK minimizedRMSD -1
REMARK  1 active torsions:
REMARK  status: ('A' for Active; 'I' for Inactive)
REMARK    1  A    between atoms: C3_4  and  O_7 
ROOT
ATOM      1  C   UNL d   1      -0.057  -0.217  -1.184  0.00  0.00    -0.033 A 
ATOM      2  C1  UNL d   1       0.164  -0.714   0.103  0.00  0.00     0.039 A 
ATOM      3  C2  UNL d   1      -0.175   0.056   1.217  0.00  0.00    -0.080 A 
ATOM      4  C3  UNL d   1      -0.733   1.317   1.033  0.00  0.00     0.150 A 
ATOM      5  C4  UNL d   1      -0.959   1.817  -0.245  0.00  0.00    -0.007 A 
ATOM      6  C5  UNL d   1      -0.619   1.048  -1.357  0.00  0.00     0.039 A 
ENDROOT
BRANCH   4   7
ATOM      7  O   UNL d   1      -1.075   2.107   2.091  0.00  0.00    -0.526 OA
ATOM      8  H5  UNL d   1      -0.836   1.644   2.911  0.00  0.00     0.418 HD
ENDBRANCH   4   7
TORSDOF 1
ENDMDL
