MODEL 1
REMARK minimizedAffinity -4.7759738
REMARK minimizedRMSD -1
REMARK  1 active torsions:
REMARK  status: ('A' for Active; 'I' for Inactive)
REMARK    1  A    between atoms: C3_4  and  O_7 
ROOT
ATOM      1  C   UNL d   1      -1.235   2.035   1.483  0.00  0.00    -0.033 A 
ATOM      2  C1  UNL d   1      -0.471   1.108   2.193  0.00  0.00     0.039 A 
ATOM      3  C2  UNL d   1       0.143   0.047   1.524  0.00  0.00    -0.080 A 
ATOM      4  C3  UNL d   1      -0.014  -0.074   0.146  0.00  0.00     0.150 A 
ATOM      5  C4  UNL d   1      -0.772   0.848  -0.569  0.00  0.00    -0.007 A 
ATOM      6  C5  UNL d   1      -1.385   1.906   0.101  0.00  0.00     0.039 A 
ENDROOT
BRANCH   4   7
ATOM      7  O   UNL d   1       0.561  -1.095  -0.550  0.00  0.00    -0.526 OA
ATOM      8  H5  UNL d   1       1.030  -1.670   0.078  0.00  0.00     0.418 HD
ENDBRANCH   4   7
TORSDOF 1
ENDMDL
