MODEL 1
REMARK minimizedAffinity -0.464099854
REMARK minimizedRMSD -1
REMARK  1 active torsions:
REMARK  status: ('A' for Active; 'I' for Inactive)
REMARK    1  A    between atoms: C3_4  and  O_7 
ROOT
ATOM      1  C   UNL d   1       1.425   0.315   0.151  0.00  0.00    -0.033 A 
ATOM      2  C1  UNL d   1       2.257  -0.330   1.068  0.00  0.00     0.039 A 
ATOM      3  C2  UNL d   1       1.776  -0.663   2.335  0.00  0.00    -0.080 A 
ATOM      4  C3  UNL d   1       0.463  -0.348   2.672  0.00  0.00     0.150 A 
ATOM      5  C4  UNL d   1      -0.373   0.291   1.762  0.00  0.00    -0.007 A 
ATOM      6  C5  UNL d   1       0.109   0.624   0.498  0.00  0.00     0.039 A 
ENDROOT
BRANCH   4   7
ATOM      7  O   UNL d   1      -0.050  -0.650   3.899  0.00  0.00    -0.526 OA
ATOM      8  H5  UNL d   1       0.650  -1.063   4.432  0.00  0.00     0.418 HD
ENDBRANCH   4   7
TORSDOF 1
ENDMDL
