MODEL 1
REMARK minimizedAffinity -4.56653929
REMARK minimizedRMSD -1
REMARK  1 active torsions:
REMARK  status: ('A' for Active; 'I' for Inactive)
REMARK    1  A    between atoms: C3_4  and  O_7 
ROOT
ATOM      1  C   UNL d   1       0.828  -0.463  -0.030  0.00  0.00    -0.033 A 
ATOM      2  C1  UNL d   1       1.040  -0.202   1.325  0.00  0.00     0.039 A 
ATOM      3  C2  UNL d   1       0.191   0.666   2.013  0.00  0.00    -0.080 A 
ATOM      4  C3  UNL d   1      -0.867   1.266   1.335  0.00  0.00     0.150 A 
ATOM      5  C4  UNL d   1      -1.088   1.008  -0.014  0.00  0.00    -0.007 A 
ATOM      6  C5  UNL d   1      -0.237   0.142  -0.699  0.00  0.00     0.039 A 
ENDROOT
BRANCH   4   7
ATOM      7  O   UNL d   1      -1.720   2.124   1.963  0.00  0.00    -0.526 OA
ATOM      8  H5  UNL d   1      -1.429   2.229   2.884  0.00  0.00     0.418 HD
ENDBRANCH   4   7
TORSDOF 1
ENDMDL
