MODEL 1
REMARK minimizedAffinity -4.17329931
REMARK minimizedRMSD -1
REMARK  1 active torsions:
REMARK  status: ('A' for Active; 'I' for Inactive)
REMARK    1  A    between atoms: C3_4  and  O_7 
ROOT
ATOM      1  C   UNL d   1      -0.328   3.264   0.009  0.00  0.00    -0.033 A 
ATOM      2  C1  UNL d   1      -0.248   2.971   1.372  0.00  0.00     0.039 A 
ATOM      3  C2  UNL d   1      -0.115   1.648   1.797  0.00  0.00    -0.080 A 
ATOM      4  C3  UNL d   1      -0.062   0.628   0.851  0.00  0.00     0.150 A 
ATOM      5  C4  UNL d   1      -0.137   0.913  -0.509  0.00  0.00    -0.007 A 
ATOM      6  C5  UNL d   1      -0.271   2.234  -0.931  0.00  0.00     0.039 A 
ENDROOT
BRANCH   4   7
ATOM      7  O   UNL d   1       0.063  -0.679   1.218  0.00  0.00    -0.526 OA
ATOM      8  H5  UNL d   1       0.074  -0.726   2.189  0.00  0.00     0.418 HD
ENDBRANCH   4   7
TORSDOF 1
ENDMDL
