MODEL 1
REMARK minimizedAffinity 0.339431137
REMARK minimizedRMSD -1
REMARK  1 active torsions:
REMARK  status: ('A' for Active; 'I' for Inactive)
REMARK    1  A    between atoms: C3_4  and  O_7 
ROOT
ATOM      1  C   UNL d   1       0.460  -1.239   1.784  0.00  0.00    -0.033 A 
ATOM      2  C1  UNL d   1       1.404  -0.570   1.001  0.00  0.00     0.039 A 
ATOM      3  C2  UNL d   1       1.357   0.820   0.885  0.00  0.00    -0.080 A 
ATOM      4  C3  UNL d   1       0.365   1.529   1.556  0.00  0.00     0.150 A 
ATOM      5  C4  UNL d   1      -0.576   0.870   2.340  0.00  0.00    -0.007 A 
ATOM      6  C5  UNL d   1      -0.529  -0.519   2.454  0.00  0.00     0.039 A 
ENDROOT
BRANCH   4   7
ATOM      7  O   UNL d   1       0.276   2.887   1.469  0.00  0.00    -0.526 OA
ATOM      8  H5  UNL d   1       0.974   3.203   0.870  0.00  0.00     0.418 HD
ENDBRANCH   4   7
TORSDOF 1
ENDMDL
