MODEL 1
REMARK minimizedAffinity -5.01732922
REMARK minimizedRMSD -1
REMARK  1 active torsions:
REMARK  status: ('A' for Active; 'I' for Inactive)
REMARK    1  A    between atoms: C3_4  and  O_7 
ROOT
ATOM      1  C   UNL d   1      -1.036   2.559   1.598  0.00  0.00    -0.033 A 
ATOM      2  C1  UNL d   1      -1.377   2.448   0.249  0.00  0.00     0.039 A 
ATOM      3  C2  UNL d   1      -1.005   1.314  -0.476  0.00  0.00    -0.080 A 
ATOM      4  C3  UNL d   1      -0.295   0.300   0.159  0.00  0.00     0.150 A 
ATOM      5  C4  UNL d   1       0.045   0.402   1.504  0.00  0.00    -0.007 A 
ATOM      6  C5  UNL d   1      -0.326   1.536   2.226  0.00  0.00     0.039 A 
ENDROOT
BRANCH   4   7
ATOM      7  O   UNL d   1       0.094  -0.823  -0.508  0.00  0.00    -0.526 OA
ATOM      8  H5  UNL d   1      -0.185  -0.743  -1.435  0.00  0.00     0.418 HD
ENDBRANCH   4   7
TORSDOF 1
ENDMDL
