MODEL 1
REMARK minimizedAffinity -3.63873053
REMARK minimizedRMSD -1
REMARK  1 active torsions:
REMARK  status: ('A' for Active; 'I' for Inactive)
REMARK    1  A    between atoms: C3_4  and  O_7 
ROOT
ATOM      1  C   UNL d   1       0.673  -0.653  -0.985  0.00  0.00    -0.033 A 
ATOM      2  C1  UNL d   1       0.695  -0.788   0.405  0.00  0.00     0.039 A 
ATOM      3  C2  UNL d   1      -0.052   0.078   1.205  0.00  0.00    -0.080 A 
ATOM      4  C3  UNL d   1      -0.817   1.074   0.604  0.00  0.00     0.150 A 
ATOM      5  C4  UNL d   1      -0.847   1.213  -0.780  0.00  0.00    -0.007 A 
ATOM      6  C5  UNL d   1      -0.099   0.347  -1.577  0.00  0.00     0.039 A 
ENDROOT
BRANCH   4   7
ATOM      7  O   UNL d   1      -1.559   1.947   1.343  0.00  0.00    -0.526 OA
ATOM      8  H5  UNL d   1      -1.419   1.749   2.284  0.00  0.00     0.418 HD
ENDBRANCH   4   7
TORSDOF 1
ENDMDL
