MODEL 1
REMARK minimizedAffinity -2.85321546
REMARK minimizedRMSD -1
REMARK  1 active torsions:
REMARK  status: ('A' for Active; 'I' for Inactive)
REMARK    1  A    between atoms: N_2  and  C1_3 
ROOT
ATOM      1  C1  UNL d   1      -0.177   5.999  -5.159  0.00  0.00     0.143 A 
ATOM      2  C2  UNL d   1      -1.471   5.966  -5.688  0.00  0.00    -0.057 A 
ATOM      3  C3  UNL d   1      -2.597   5.977  -4.855  0.00  0.00     0.033 A 
ATOM      4  C4  UNL d   1      -2.446   5.992  -3.473  0.00  0.00    -0.042 A 
ATOM      5  C5  UNL d   1      -1.168   6.000  -2.924  0.00  0.00     0.033 A 
ATOM      6  C6  UNL d   1      -0.049   5.995  -3.762  0.00  0.00    -0.057 A 
ENDROOT
BRANCH   1   7
ATOM      7  N   UNL d   1       0.982   5.890  -5.932  0.00  0.00    -0.732 N 
ATOM      8  C   UNL d   1       2.289   5.996  -5.320  0.00  0.00     0.284 C 
ATOM      9  H3  UNL d   1       0.912   5.160  -6.637  0.00  0.00     0.395 HD
ENDBRANCH   1   7
TORSDOF 1
ENDMDL
