MODEL 1
REMARK minimizedAffinity -1.33230734
REMARK minimizedRMSD -1
REMARK  1 active torsions:
REMARK  status: ('A' for Active; 'I' for Inactive)
REMARK    1  A    between atoms: N_2  and  C1_3 
ROOT
ATOM      1  C1  UNL d   1      -1.368   5.954  -4.651  0.00  0.00     0.143 A 
ATOM      2  C2  UNL d   1      -2.745   5.964  -4.898  0.00  0.00    -0.057 A 
ATOM      3  C3  UNL d   1      -3.671   5.999  -3.849  0.00  0.00     0.033 A 
ATOM      4  C4  UNL d   1      -3.235   5.995  -2.528  0.00  0.00    -0.042 A 
ATOM      5  C5  UNL d   1      -1.871   5.960  -2.258  0.00  0.00     0.033 A 
ATOM      6  C6  UNL d   1      -0.952   5.932  -3.311  0.00  0.00    -0.057 A 
ENDROOT
BRANCH   1   7
ATOM      7  N   UNL d   1      -0.400   5.821  -5.649  0.00  0.00    -0.732 N 
ATOM      8  C   UNL d   1       1.003   5.996  -5.343  0.00  0.00     0.284 C 
ATOM      9  H3  UNL d   1      -0.595   5.044  -6.278  0.00  0.00     0.395 HD
ENDBRANCH   1   7
TORSDOF 1
ENDMDL
