MODEL 1
REMARK minimizedAffinity 8.81082153
REMARK minimizedRMSD -1
REMARK  1 active torsions:
REMARK  status: ('A' for Active; 'I' for Inactive)
REMARK    1  A    between atoms: N_2  and  C1_3 
ROOT
ATOM      1  C1  UNL d   1       1.304   0.002  -4.135  0.00  0.00     0.143 A 
ATOM      2  C2  UNL d   1       0.782  -1.238  -3.751  0.00  0.00    -0.057 A 
ATOM      3  C3  UNL d   1      -0.232  -1.859  -4.490  0.00  0.00     0.033 A 
ATOM      4  C4  UNL d   1      -0.764  -1.235  -5.614  0.00  0.00    -0.042 A 
ATOM      5  C5  UNL d   1      -0.277   0.009  -6.000  0.00  0.00     0.033 A 
ATOM      6  C6  UNL d   1       0.740   0.621  -5.261  0.00  0.00    -0.057 A 
ENDROOT
BRANCH   1   7
ATOM      7  N   UNL d   1       2.243   0.716  -3.386  0.00  0.00    -0.732 N 
ATOM      8  C   UNL d   1       1.998   2.093  -3.015  0.00  0.00     0.284 C 
ATOM      9  H3  UNL d   1       2.659   0.154  -2.646  0.00  0.00     0.395 HD
ENDBRANCH   1   7
TORSDOF 1
ENDMDL
