MODEL 1
REMARK minimizedAffinity -1.14917076
REMARK minimizedRMSD -1
REMARK  1 active torsions:
REMARK  status: ('A' for Active; 'I' for Inactive)
REMARK    1  A    between atoms: N_2  and  C1_3 
ROOT
ATOM      1  C1  UNL d   1       1.398   0.631  -0.564  0.00  0.00     0.143 A 
ATOM      2  C2  UNL d   1       2.027   1.493   0.341  0.00  0.00    -0.057 A 
ATOM      3  C3  UNL d   1       1.679   1.501   1.697  0.00  0.00     0.033 A 
ATOM      4  C4  UNL d   1       0.671   0.666   2.168  0.00  0.00    -0.042 A 
ATOM      5  C5  UNL d   1       0.015  -0.181   1.282  0.00  0.00     0.033 A 
ATOM      6  C6  UNL d   1       0.372  -0.190  -0.070  0.00  0.00    -0.057 A 
ENDROOT
BRANCH   1   7
ATOM      7  N   UNL d   1       1.631   0.646  -1.941  0.00  0.00    -0.732 N 
ATOM      8  C   UNL d   1       1.911   1.888  -2.629  0.00  0.00     0.284 C 
ATOM      9  H3  UNL d   1       2.205  -0.137  -2.246  0.00  0.00     0.395 HD
ENDBRANCH   1   7
TORSDOF 1
ENDMDL
