MODEL 1
REMARK minimizedAffinity -0.0811228156
REMARK minimizedRMSD -1
REMARK  1 active torsions:
REMARK  status: ('A' for Active; 'I' for Inactive)
REMARK    1  A    between atoms: N_2  and  C1_3 
ROOT
ATOM      1  C1  UNL d   1      -2.113   5.538  -3.820  0.00  0.00     0.143 A 
ATOM      2  C2  UNL d   1      -1.537   6.000  -5.009  0.00  0.00    -0.057 A 
ATOM      3  C3  UNL d   1      -0.148   5.999  -5.190  0.00  0.00     0.033 A 
ATOM      4  C4  UNL d   1       0.692   5.563  -4.171  0.00  0.00    -0.042 A 
ATOM      5  C5  UNL d   1       0.142   5.123  -2.973  0.00  0.00     0.033 A 
ATOM      6  C6  UNL d   1      -1.245   5.120  -2.800  0.00  0.00    -0.057 A 
ENDROOT
BRANCH   1   7
ATOM      7  N   UNL d   1      -3.480   5.605  -3.542  0.00  0.00    -0.732 N 
ATOM      8  C   UNL d   1      -3.947   5.999  -2.230  0.00  0.00     0.284 C 
ATOM      9  H3  UNL d   1      -4.014   6.005  -4.310  0.00  0.00     0.395 HD
ENDBRANCH   1   7
TORSDOF 1
ENDMDL
