MODEL 1
REMARK minimizedAffinity 4.37615108
REMARK minimizedRMSD -1
REMARK  1 active torsions:
REMARK  status: ('A' for Active; 'I' for Inactive)
REMARK    1  A    between atoms: N_2  and  C1_3 
ROOT
ATOM      1  C1  UNL d   1       3.588   4.875  -5.590  0.00  0.00     0.143 A 
ATOM      2  C2  UNL d   1       2.862   6.000  -5.996  0.00  0.00    -0.057 A 
ATOM      3  C3  UNL d   1       1.462   5.998  -5.999  0.00  0.00     0.033 A 
ATOM      4  C4  UNL d   1       0.761   4.857  -5.622  0.00  0.00    -0.042 A 
ATOM      5  C5  UNL d   1       1.463   3.719  -5.239  0.00  0.00     0.033 A 
ATOM      6  C6  UNL d   1       2.861   3.730  -5.232  0.00  0.00    -0.057 A 
ENDROOT
BRANCH   1   7
ATOM      7  N   UNL d   1       4.981   4.782  -5.658  0.00  0.00    -0.732 N 
ATOM      8  C   UNL d   1       5.802   5.973  -5.613  0.00  0.00     0.284 C 
ATOM      9  H3  UNL d   1       5.345   4.004  -5.113  0.00  0.00     0.395 HD
ENDBRANCH   1   7
TORSDOF 1
ENDMDL
