MODEL 1
REMARK minimizedAffinity -0.0108770719
REMARK minimizedRMSD -1
REMARK  1 active torsions:
REMARK  status: ('A' for Active; 'I' for Inactive)
REMARK    1  A    between atoms: N_2  and  C1_3 
ROOT
ATOM      1  C1  UNL d   1       0.021   5.964  -3.945  0.00  0.00     0.143 A 
ATOM      2  C2  UNL d   1      -1.150   5.969  -4.710  0.00  0.00    -0.057 A 
ATOM      3  C3  UNL d   1      -2.412   6.000  -4.105  0.00  0.00     0.033 A 
ATOM      4  C4  UNL d   1      -2.526   5.997  -2.719  0.00  0.00    -0.042 A 
ATOM      5  C5  UNL d   1      -1.376   5.967  -1.938  0.00  0.00     0.033 A 
ATOM      6  C6  UNL d   1      -0.118   5.943  -2.548  0.00  0.00    -0.057 A 
ENDROOT
BRANCH   1   7
ATOM      7  N   UNL d   1       1.303   5.835  -4.485  0.00  0.00    -0.732 N 
ATOM      8  C   UNL d   1       1.521   5.979  -5.908  0.00  0.00     0.284 C 
ATOM      9  H3  UNL d   1       2.014   6.278  -3.908  0.00  0.00     0.395 HD
ENDBRANCH   1   7
TORSDOF 1
ENDMDL
