MODEL 1
REMARK minimizedAffinity 3.11893249
REMARK minimizedRMSD -1
REMARK  1 active torsions:
REMARK  status: ('A' for Active; 'I' for Inactive)
REMARK    1  A    between atoms: N_2  and  C1_3 
ROOT
ATOM      1  C1  UNL d   1       0.255   0.988   1.123  0.00  0.00     0.143 A 
ATOM      2  C2  UNL d   1       0.797   2.275   1.040  0.00  0.00    -0.057 A 
ATOM      3  C3  UNL d   1       0.917   2.934  -0.190  0.00  0.00     0.033 A 
ATOM      4  C4  UNL d   1       0.523   2.303  -1.365  0.00  0.00    -0.042 A 
ATOM      5  C5  UNL d   1       0.005   1.014  -1.309  0.00  0.00     0.033 A 
ATOM      6  C6  UNL d   1      -0.119   0.364  -0.077  0.00  0.00    -0.057 A 
ENDROOT
BRANCH   1   7
ATOM      7  N   UNL d   1       0.200   0.242   2.303  0.00  0.00    -0.732 N 
ATOM      8  C   UNL d   1      -1.067  -0.027   2.947  0.00  0.00     0.284 C 
ATOM      9  H3  UNL d   1       0.837  -0.551   2.291  0.00  0.00     0.395 HD
ENDBRANCH   1   7
TORSDOF 1
ENDMDL
