MODEL 1
REMARK minimizedAffinity 4.18291998
REMARK minimizedRMSD -1
REMARK  1 active torsions:
REMARK  status: ('A' for Active; 'I' for Inactive)
REMARK    1  A    between atoms: N_2  and  C1_3 
ROOT
ATOM      1  C1  UNL d   1       1.586   0.977   1.442  0.00  0.00     0.143 A 
ATOM      2  C2  UNL d   1       2.832   0.473   1.829  0.00  0.00    -0.057 A 
ATOM      3  C3  UNL d   1       4.019   1.137   1.497  0.00  0.00     0.033 A 
ATOM      4  C4  UNL d   1       3.981   2.306   0.744  0.00  0.00    -0.042 A 
ATOM      5  C5  UNL d   1       2.755   2.812   0.327  0.00  0.00     0.033 A 
ATOM      6  C6  UNL d   1       1.573   2.147   0.668  0.00  0.00    -0.057 A 
ENDROOT
BRANCH   1   7
ATOM      7  N   UNL d   1       0.377   0.311   1.657  0.00  0.00    -0.732 N 
ATOM      8  C   UNL d   1      -0.436  -0.121   0.540  0.00  0.00     0.284 C 
ATOM      9  H3  UNL d   1       0.435  -0.366   2.415  0.00  0.00     0.395 HD
ENDBRANCH   1   7
TORSDOF 1
ENDMDL
