MODEL 1
REMARK minimizedAffinity 7.43457365
REMARK minimizedRMSD -1
REMARK  1 active torsions:
REMARK  status: ('A' for Active; 'I' for Inactive)
REMARK    1  A    between atoms: N_2  and  C1_3 
ROOT
ATOM      1  C1  UNL d   1       0.602   5.917  -5.151  0.00  0.00     0.143 A 
ATOM      2  C2  UNL d   1       0.454   5.944  -3.760  0.00  0.00    -0.057 A 
ATOM      3  C3  UNL d   1      -0.813   5.970  -3.164  0.00  0.00     0.033 A 
ATOM      4  C4  UNL d   1      -1.958   5.999  -3.953  0.00  0.00    -0.042 A 
ATOM      5  C5  UNL d   1      -1.835   5.998  -5.338  0.00  0.00     0.033 A 
ATOM      6  C6  UNL d   1      -0.567   5.964  -5.927  0.00  0.00    -0.057 A 
ENDROOT
BRANCH   1   7
ATOM      7  N   UNL d   1       1.835   5.989  -5.804  0.00  0.00    -0.732 N 
ATOM      8  C   UNL d   1       3.070   5.981  -5.050  0.00  0.00     0.284 C 
ATOM      9  H3  UNL d   1       1.860   5.424  -6.650  0.00  0.00     0.395 HD
ENDBRANCH   1   7
TORSDOF 1
ENDMDL
