MODEL 1
REMARK minimizedAffinity -1.16037405
REMARK minimizedRMSD -1
REMARK  1 active torsions:
REMARK  status: ('A' for Active; 'I' for Inactive)
REMARK    1  A    between atoms: N_2  and  C1_3 
ROOT
ATOM      1  C1  UNL d   1      -1.144   5.549  -4.230  0.00  0.00     0.143 A 
ATOM      2  C2  UNL d   1      -0.359   6.000  -3.163  0.00  0.00    -0.057 A 
ATOM      3  C3  UNL d   1      -0.847   5.999  -1.851  0.00  0.00     0.033 A 
ATOM      4  C4  UNL d   1      -2.144   5.574  -1.585  0.00  0.00    -0.042 A 
ATOM      5  C5  UNL d   1      -2.952   5.146  -2.633  0.00  0.00     0.033 A 
ATOM      6  C6  UNL d   1      -2.456   5.142  -3.941  0.00  0.00    -0.057 A 
ENDROOT
BRANCH   1   7
ATOM      7  N   UNL d   1      -0.751   5.618  -5.569  0.00  0.00    -0.732 N 
ATOM      8  C   UNL d   1       0.600   5.999  -5.922  0.00  0.00     0.284 C 
ATOM      9  H3  UNL d   1      -1.124   4.850  -6.123  0.00  0.00     0.395 HD
ENDBRANCH   1   7
TORSDOF 1
ENDMDL
