MODEL 1
REMARK minimizedAffinity 3.20687199
REMARK minimizedRMSD -1
REMARK  1 active torsions:
REMARK  status: ('A' for Active; 'I' for Inactive)
REMARK    1  A    between atoms: N_2  and  C1_3 
ROOT
ATOM      1  C1  UNL d   1       3.763   3.793  -4.703  0.00  0.00     0.143 A 
ATOM      2  C2  UNL d   1       3.365   3.469  -3.401  0.00  0.00    -0.057 A 
ATOM      3  C3  UNL d   1       4.228   3.646  -2.313  0.00  0.00     0.033 A 
ATOM      4  C4  UNL d   1       5.519   4.125  -2.512  0.00  0.00    -0.042 A 
ATOM      5  C5  UNL d   1       5.944   4.430  -3.801  0.00  0.00     0.033 A 
ATOM      6  C6  UNL d   1       5.075   4.257  -4.882  0.00  0.00    -0.057 A 
ENDROOT
BRANCH   1   7
ATOM      7  N   UNL d   1       2.986   3.548  -5.838  0.00  0.00    -0.732 N 
ATOM      8  C   UNL d   1       1.543   3.483  -5.743  0.00  0.00     0.284 C 
ATOM      9  H3  UNL d   1       3.326   4.045  -6.657  0.00  0.00     0.395 HD
ENDBRANCH   1   7
TORSDOF 1
ENDMDL
