MODEL 1
REMARK minimizedAffinity 6.19685268
REMARK minimizedRMSD -1
REMARK  1 active torsions:
REMARK  status: ('A' for Active; 'I' for Inactive)
REMARK    1  A    between atoms: N_2  and  C1_3 
ROOT
ATOM      1  C1  UNL d   1      -2.483   5.649  -2.550  0.00  0.00     0.143 A 
ATOM      2  C2  UNL d   1      -1.421   5.263  -3.376  0.00  0.00    -0.057 A 
ATOM      3  C3  UNL d   1      -1.545   5.270  -4.770  0.00  0.00     0.033 A 
ATOM      4  C4  UNL d   1      -2.748   5.636  -5.365  0.00  0.00    -0.042 A 
ATOM      5  C5  UNL d   1      -3.825   6.000  -4.564  0.00  0.00     0.033 A 
ATOM      6  C6  UNL d   1      -3.692   5.997  -3.172  0.00  0.00    -0.057 A 
ENDROOT
BRANCH   1   7
ATOM      7  N   UNL d   1      -2.453   5.569  -1.156  0.00  0.00    -0.732 N 
ATOM      8  C   UNL d   1      -3.598   5.974  -0.370  0.00  0.00     0.284 C 
ATOM      9  H3  UNL d   1      -2.000   4.720  -0.825  0.00  0.00     0.395 HD
ENDBRANCH   1   7
TORSDOF 1
ENDMDL
