MODEL 1
REMARK minimizedAffinity 8.65743828
REMARK minimizedRMSD -1
REMARK  1 active torsions:
REMARK  status: ('A' for Active; 'I' for Inactive)
REMARK    1  A    between atoms: C1_2  and  C2_3 
ROOT
ATOM      1  C2  UNL d   1      -1.383  -3.661  -3.549  0.00  0.00    -0.076 A 
ATOM      2  C3  UNL d   1      -1.863  -4.982  -3.587  0.00  0.00     0.004 A 
ATOM      3  C4  UNL d   1      -2.124  -5.616  -4.801  0.00  0.00    -0.003 A 
ATOM      4  C5  UNL d   1      -1.910  -4.939  -5.997  0.00  0.00     0.000 A 
ATOM      5  C6  UNL d   1      -1.418  -3.634  -5.978  0.00  0.00     0.000 A 
ATOM      6  C7  UNL d   1      -1.134  -2.987  -4.764  0.00  0.00    -0.073 A 
ATOM      7  C8  UNL d   1      -0.610  -1.577  -4.803  0.00  0.00     0.078 C 
ENDROOT
BRANCH   1   8
ATOM      8  C1  UNL d   1      -1.144  -3.016  -2.203  0.00  0.00     0.053 C 
ATOM      9  C   UNL d   1      -2.364  -2.267  -1.691  0.00  0.00     0.018 C 
ENDBRANCH   1   8
TORSDOF 1
ENDMDL
