MODEL 1
REMARK minimizedAffinity 10.8724613
REMARK minimizedRMSD -1
REMARK  1 active torsions:
REMARK  status: ('A' for Active; 'I' for Inactive)
REMARK    1  A    between atoms: C1_2  and  C2_3 
ROOT
ATOM      1  C2  UNL d   1       4.117  -3.042   5.216  0.00  0.00    -0.076 A 
ATOM      2  C3  UNL d   1       2.860  -3.287   4.637  0.00  0.00     0.004 A 
ATOM      3  C4  UNL d   1       2.128  -2.257   4.049  0.00  0.00    -0.003 A 
ATOM      4  C5  UNL d   1       2.642  -0.965   4.029  0.00  0.00     0.000 A 
ATOM      5  C6  UNL d   1       3.895  -0.707   4.582  0.00  0.00     0.000 A 
ATOM      6  C7  UNL d   1       4.653  -1.737   5.165  0.00  0.00    -0.073 A 
ATOM      7  C8  UNL d   1       5.997  -1.401   5.753  0.00  0.00     0.078 C 
ENDROOT
BRANCH   1   8
ATOM      8  C1  UNL d   1       4.853  -4.193   5.864  0.00  0.00     0.053 C 
ATOM      9  C   UNL d   1       5.807  -4.888   4.905  0.00  0.00     0.018 C 
ENDBRANCH   1   8
TORSDOF 1
ENDMDL
