MODEL 1
REMARK minimizedAffinity 8.44444942
REMARK minimizedRMSD -1
REMARK  1 active torsions:
REMARK  status: ('A' for Active; 'I' for Inactive)
REMARK    1  A    between atoms: C1_2  and  C2_3 
ROOT
ATOM      1  C2  UNL d   1      -1.231  -3.475  -4.442  0.00  0.00    -0.076 A 
ATOM      2  C3  UNL d   1      -0.485  -3.637  -5.622  0.00  0.00     0.004 A 
ATOM      3  C4  UNL d   1      -0.001  -4.889  -6.000  0.00  0.00    -0.003 A 
ATOM      4  C5  UNL d   1      -0.257  -5.999  -5.203  0.00  0.00     0.000 A 
ATOM      5  C6  UNL d   1      -1.011  -5.861  -4.038  0.00  0.00     0.000 A 
ATOM      6  C7  UNL d   1      -1.519  -4.609  -3.652  0.00  0.00    -0.073 A 
ATOM      7  C8  UNL d   1      -2.321  -4.516  -2.382  0.00  0.00     0.078 C 
ENDROOT
BRANCH   1   8
ATOM      8  C1  UNL d   1      -1.706  -2.089  -4.069  0.00  0.00     0.053 C 
ATOM      9  C   UNL d   1      -0.726  -1.005  -4.491  0.00  0.00     0.018 C 
ENDBRANCH   1   8
TORSDOF 1
ENDMDL
