MODEL 1
REMARK minimizedAffinity 20.9092045
REMARK minimizedRMSD -1
REMARK  1 active torsions:
REMARK  status: ('A' for Active; 'I' for Inactive)
REMARK    1  A    between atoms: C1_2  and  C2_3 
ROOT
ATOM      1  C2  UNL d   1      -1.260  -2.483  -4.160  0.00  0.00    -0.076 A 
ATOM      2  C3  UNL d   1      -0.538  -1.726  -5.099  0.00  0.00     0.004 A 
ATOM      3  C4  UNL d   1       0.378  -0.759  -4.689  0.00  0.00    -0.003 A 
ATOM      4  C5  UNL d   1       0.587  -0.533  -3.333  0.00  0.00     0.000 A 
ATOM      5  C6  UNL d   1      -0.107  -1.287  -2.388  0.00  0.00     0.000 A 
ATOM      6  C7  UNL d   1      -1.022  -2.277  -2.784  0.00  0.00    -0.073 A 
ATOM      7  C8  UNL d   1      -1.748  -3.056  -1.722  0.00  0.00     0.078 C 
ENDROOT
BRANCH   1   8
ATOM      8  C1  UNL d   1      -2.260  -3.499  -4.664  0.00  0.00     0.053 C 
ATOM      9  C   UNL d   1      -1.831  -4.138  -5.976  0.00  0.00     0.018 C 
ENDBRANCH   1   8
TORSDOF 1
ENDMDL
