MODEL 1
REMARK minimizedAffinity 12.7229576
REMARK minimizedRMSD -1
REMARK  1 active torsions:
REMARK  status: ('A' for Active; 'I' for Inactive)
REMARK    1  A    between atoms: C1_2  and  C2_3 
ROOT
ATOM      1  C2  UNL d   1       2.310  -1.480   4.132  0.00  0.00    -0.076 A 
ATOM      2  C3  UNL d   1       3.627  -0.990   4.122  0.00  0.00     0.004 A 
ATOM      3  C4  UNL d   1       4.707  -1.828   4.397  0.00  0.00    -0.003 A 
ATOM      4  C5  UNL d   1       4.486  -3.170   4.687  0.00  0.00     0.000 A 
ATOM      5  C6  UNL d   1       3.187  -3.677   4.684  0.00  0.00     0.000 A 
ATOM      6  C7  UNL d   1       2.089  -2.849   4.393  0.00  0.00    -0.073 A 
ATOM      7  C8  UNL d   1       0.709  -3.448   4.410  0.00  0.00     0.078 C 
ENDROOT
BRANCH   1   8
ATOM      8  C1  UNL d   1       1.177  -0.518   3.853  0.00  0.00     0.053 C 
ATOM      9  C   UNL d   1       1.188   0.683   4.787  0.00  0.00     0.018 C 
ENDBRANCH   1   8
TORSDOF 1
ENDMDL
