MODEL 1
REMARK minimizedAffinity 9.32085609
REMARK minimizedRMSD -1
REMARK  1 active torsions:
REMARK  status: ('A' for Active; 'I' for Inactive)
REMARK    1  A    between atoms: C1_2  and  C2_3 
ROOT
ATOM      1  C2  UNL d   1       1.767   0.838  -0.543  0.00  0.00    -0.077 A 
ATOM      2  C3  UNL d   1       1.813   0.529   0.823  0.00  0.00     0.002 A 
ATOM      3  C4  UNL d   1       0.877   1.076   1.703  0.00  0.00     0.002 A 
ATOM      4  C5  UNL d   1      -0.114   1.931   1.225  0.00  0.00    -0.004 A 
ATOM      5  C6  UNL d   1      -0.167   2.246  -0.132  0.00  0.00     0.002 A 
ATOM      6  C7  UNL d   1       0.769   1.701  -1.012  0.00  0.00     0.002 A 
ENDROOT
BRANCH   1   7
ATOM      7  C1  UNL d   1       2.746   0.210  -1.501  0.00  0.00     0.055 C 
ATOM      8  C   UNL d   1       2.364   0.493  -2.947  0.00  0.00     0.019 C 
ENDBRANCH   1   7
TORSDOF 1
ENDMDL
