MODEL 1
REMARK minimizedAffinity -0.638625324
REMARK minimizedRMSD -1
REMARK  1 active torsions:
REMARK  status: ('A' for Active; 'I' for Inactive)
REMARK    1  A    between atoms: C1_2  and  C2_3 
ROOT
ATOM      1  C2  UNL d   1       2.746   2.652   2.417  0.00  0.00    -0.077 A 
ATOM      2  C3  UNL d   1       2.914   1.791   1.324  0.00  0.00     0.002 A 
ATOM      3  C4  UNL d   1       1.810   1.163   0.743  0.00  0.00     0.002 A 
ATOM      4  C5  UNL d   1       0.531   1.393   1.247  0.00  0.00    -0.004 A 
ATOM      5  C6  UNL d   1       0.355   2.246   2.336  0.00  0.00     0.002 A 
ATOM      6  C7  UNL d   1       1.457   2.874   2.917  0.00  0.00     0.002 A 
ENDROOT
BRANCH   1   7
ATOM      7  C1  UNL d   1       3.930   3.369   3.013  0.00  0.00     0.055 C 
ATOM      8  C   UNL d   1       3.893   4.857   2.696  0.00  0.00     0.019 C 
ENDBRANCH   1   7
TORSDOF 1
ENDMDL
