MODEL 1
REMARK minimizedAffinity 5.2916398
REMARK minimizedRMSD -1
REMARK  1 active torsions:
REMARK  status: ('A' for Active; 'I' for Inactive)
REMARK    1  A    between atoms: C1_2  and  C2_3 
ROOT
ATOM      1  C2  UNL d   1       2.175   0.604  -1.171  0.00  0.00    -0.077 A 
ATOM      2  C3  UNL d   1       1.430  -0.261  -0.357  0.00  0.00     0.002 A 
ATOM      3  C4  UNL d   1       1.025   0.142   0.917  0.00  0.00     0.002 A 
ATOM      4  C5  UNL d   1       1.356   1.411   1.386  0.00  0.00    -0.004 A 
ATOM      5  C6  UNL d   1       2.099   2.278   0.585  0.00  0.00     0.002 A 
ATOM      6  C7  UNL d   1       2.506   1.876  -0.688  0.00  0.00     0.002 A 
ENDROOT
BRANCH   1   7
ATOM      7  C1  UNL d   1       2.571   0.189  -2.564  0.00  0.00     0.055 C 
ATOM      8  C   UNL d   1       1.531   0.622  -3.587  0.00  0.00     0.019 C 
ENDBRANCH   1   7
TORSDOF 1
ENDMDL
