MODEL 1
REMARK minimizedAffinity 4.22372293
REMARK minimizedRMSD -1
REMARK  1 active torsions:
REMARK  status: ('A' for Active; 'I' for Inactive)
REMARK    1  A    between atoms: C1_2  and  C2_3 
ROOT
ATOM      1  C2  UNL d   1       2.195  -0.043  -1.752  0.00  0.00    -0.077 A 
ATOM      2  C3  UNL d   1       1.915  -1.337  -1.289  0.00  0.00     0.002 A 
ATOM      3  C4  UNL d   1       1.494  -1.540   0.027  0.00  0.00     0.002 A 
ATOM      4  C5  UNL d   1       1.346  -0.454   0.888  0.00  0.00    -0.004 A 
ATOM      5  C6  UNL d   1       1.624   0.835   0.437  0.00  0.00     0.002 A 
ATOM      6  C7  UNL d   1       2.046   1.040  -0.877  0.00  0.00     0.002 A 
ENDROOT
BRANCH   1   7
ATOM      7  C1  UNL d   1       2.601   0.183  -3.185  0.00  0.00     0.055 C 
ATOM      8  C   UNL d   1       1.456   0.769  -3.999  0.00  0.00     0.019 C 
ENDBRANCH   1   7
TORSDOF 1
ENDMDL
