MODEL 1
REMARK minimizedAffinity 6.35794973
REMARK minimizedRMSD -1
REMARK  1 active torsions:
REMARK  status: ('A' for Active; 'I' for Inactive)
REMARK    1  A    between atoms: C1_2  and  C2_3 
ROOT
ATOM      1  C2  UNL d   1       2.394   0.974  -0.397  0.00  0.00    -0.077 A 
ATOM      2  C3  UNL d   1       3.617   1.446  -0.895  0.00  0.00     0.002 A 
ATOM      3  C4  UNL d   1       4.037   1.098  -2.181  0.00  0.00     0.002 A 
ATOM      4  C5  UNL d   1       3.239   0.281  -2.979  0.00  0.00    -0.004 A 
ATOM      5  C6  UNL d   1       2.023  -0.195  -2.491  0.00  0.00     0.002 A 
ATOM      6  C7  UNL d   1       1.602   0.151  -1.206  0.00  0.00     0.002 A 
ENDROOT
BRANCH   1   7
ATOM      7  C1  UNL d   1       1.917   1.389   0.970  0.00  0.00     0.055 C 
ATOM      8  C   UNL d   1       2.972   2.207   1.701  0.00  0.00     0.019 C 
ENDBRANCH   1   7
TORSDOF 1
ENDMDL
