MODEL 1
REMARK minimizedAffinity 11.5218544
REMARK minimizedRMSD -1
REMARK  1 active torsions:
REMARK  status: ('A' for Active; 'I' for Inactive)
REMARK    1  A    between atoms: C1_2  and  C2_3 
ROOT
ATOM      1  C2  UNL d   1       2.911   2.630   1.890  0.00  0.00    -0.077 A 
ATOM      2  C3  UNL d   1       3.214   1.964   0.694  0.00  0.00     0.002 A 
ATOM      3  C4  UNL d   1       2.221   1.267   0.003  0.00  0.00     0.002 A 
ATOM      4  C5  UNL d   1       0.919   1.233   0.497  0.00  0.00    -0.004 A 
ATOM      5  C6  UNL d   1       0.608   1.890   1.686  0.00  0.00     0.002 A 
ATOM      6  C7  UNL d   1       1.599   2.587   2.379  0.00  0.00     0.002 A 
ENDROOT
BRANCH   1   7
ATOM      7  C1  UNL d   1       3.969   3.424   2.611  0.00  0.00     0.055 C 
ATOM      8  C   UNL d   1       4.993   2.511   3.270  0.00  0.00     0.019 C 
ENDBRANCH   1   7
TORSDOF 1
ENDMDL
