MODEL 1
REMARK minimizedAffinity 3.36310697
REMARK minimizedRMSD -1
REMARK  1 active torsions:
REMARK  status: ('A' for Active; 'I' for Inactive)
REMARK    1  A    between atoms: C1_2  and  C2_3 
ROOT
ATOM      1  C2  UNL d   1       1.354   0.802   0.576  0.00  0.00    -0.077 A 
ATOM      2  C3  UNL d   1       2.035   1.418   1.635  0.00  0.00     0.002 A 
ATOM      3  C4  UNL d   1       1.375   2.320   2.471  0.00  0.00     0.002 A 
ATOM      4  C5  UNL d   1       0.029   2.612   2.259  0.00  0.00    -0.004 A 
ATOM      5  C6  UNL d   1      -0.657   2.006   1.207  0.00  0.00     0.002 A 
ATOM      6  C7  UNL d   1       0.002   1.105   0.370  0.00  0.00     0.002 A 
ENDROOT
BRANCH   1   7
ATOM      7  C1  UNL d   1       2.052  -0.208  -0.296  0.00  0.00     0.055 C 
ATOM      8  C   UNL d   1       2.386   0.375  -1.662  0.00  0.00     0.019 C 
ENDBRANCH   1   7
TORSDOF 1
ENDMDL
