MODEL 1
REMARK minimizedAffinity 6.97621346
REMARK minimizedRMSD -1
REMARK  1 active torsions:
REMARK  status: ('A' for Active; 'I' for Inactive)
REMARK    1  A    between atoms: C1_2  and  C2_3 
ROOT
ATOM      1  C2  UNL d   1       1.807   0.913   0.695  0.00  0.00    -0.077 A 
ATOM      2  C3  UNL d   1       2.448   1.435  -0.437  0.00  0.00     0.002 A 
ATOM      3  C4  UNL d   1       2.491   0.702  -1.625  0.00  0.00     0.002 A 
ATOM      4  C5  UNL d   1       1.891  -0.554  -1.693  0.00  0.00    -0.004 A 
ATOM      5  C6  UNL d   1       1.254  -1.082  -0.571  0.00  0.00     0.002 A 
ATOM      6  C7  UNL d   1       1.211  -0.352   0.617  0.00  0.00     0.002 A 
ENDROOT
BRANCH   1   7
ATOM      7  C1  UNL d   1       1.717   1.723   1.963  0.00  0.00     0.055 C 
ATOM      8  C   UNL d   1       3.094   2.173   2.430  0.00  0.00     0.019 C 
ENDBRANCH   1   7
TORSDOF 1
ENDMDL
