MODEL 1
REMARK minimizedAffinity 3.14260221
REMARK minimizedRMSD -1
REMARK  1 active torsions:
REMARK  status: ('A' for Active; 'I' for Inactive)
REMARK    1  A    between atoms: C1_2  and  C2_3 
ROOT
ATOM      1  C2  UNL d   1       2.792   0.431  -1.214  0.00  0.00    -0.077 A 
ATOM      2  C3  UNL d   1       2.248  -0.664  -0.529  0.00  0.00     0.002 A 
ATOM      3  C4  UNL d   1       1.941  -0.566   0.829  0.00  0.00     0.002 A 
ATOM      4  C5  UNL d   1       2.172   0.626   1.513  0.00  0.00    -0.004 A 
ATOM      5  C6  UNL d   1       2.715   1.721   0.841  0.00  0.00     0.002 A 
ATOM      6  C7  UNL d   1       3.023   1.624  -0.517  0.00  0.00     0.002 A 
ENDROOT
BRANCH   1   7
ATOM      7  C1  UNL d   1       3.077   0.343  -2.691  0.00  0.00     0.055 C 
ATOM      8  C   UNL d   1       1.854   0.719  -3.515  0.00  0.00     0.019 C 
ENDBRANCH   1   7
TORSDOF 1
ENDMDL
