MODEL 1
REMARK minimizedAffinity 8.64304161
REMARK minimizedRMSD -1
REMARK  1 active torsions:
REMARK  status: ('A' for Active; 'I' for Inactive)
REMARK    1  A    between atoms: C1_2  and  C2_3 
ROOT
ATOM      1  C2  UNL d   1       2.586   0.500  -0.606  0.00  0.00    -0.077 A 
ATOM      2  C3  UNL d   1       1.264   0.300  -0.186  0.00  0.00     0.002 A 
ATOM      3  C4  UNL d   1       0.816   0.842   1.020  0.00  0.00     0.002 A 
ATOM      4  C5  UNL d   1       1.682   1.591   1.813  0.00  0.00    -0.004 A 
ATOM      5  C6  UNL d   1       3.000   1.794   1.405  0.00  0.00     0.002 A 
ATOM      6  C7  UNL d   1       3.450   1.252   0.201  0.00  0.00     0.002 A 
ENDROOT
BRANCH   1   7
ATOM      7  C1  UNL d   1       3.057  -0.043  -1.930  0.00  0.00     0.055 C 
ATOM      8  C   UNL d   1       2.143   0.396  -3.065  0.00  0.00     0.019 C 
ENDBRANCH   1   7
TORSDOF 1
ENDMDL
