MODEL 1
REMARK minimizedAffinity 8.66228485
REMARK minimizedRMSD -1
REMARK  1 active torsions:
REMARK  status: ('A' for Active; 'I' for Inactive)
REMARK    1  A    between atoms: C1_2  and  C2_3 
ROOT
ATOM      1  C2  UNL d   1       2.118   0.438  -0.775  0.00  0.00    -0.077 A 
ATOM      2  C3  UNL d   1       1.249   0.842  -1.799  0.00  0.00     0.002 A 
ATOM      3  C4  UNL d   1       1.492   0.465  -3.121  0.00  0.00     0.002 A 
ATOM      4  C5  UNL d   1       2.601  -0.320  -3.431  0.00  0.00    -0.004 A 
ATOM      5  C6  UNL d   1       3.472  -0.724  -2.420  0.00  0.00     0.002 A 
ATOM      6  C7  UNL d   1       3.231  -0.348  -1.098  0.00  0.00     0.002 A 
ENDROOT
BRANCH   1   7
ATOM      7  C1  UNL d   1       1.830   0.802   0.658  0.00  0.00     0.055 C 
ATOM      8  C   UNL d   1       0.518   1.562   0.783  0.00  0.00     0.019 C 
ENDBRANCH   1   7
TORSDOF 1
ENDMDL
