MODEL 1
REMARK minimizedAffinity 4.9193635
REMARK minimizedRMSD -1
REMARK  1 active torsions:
REMARK  status: ('A' for Active; 'I' for Inactive)
REMARK    1  A    between atoms: C1_2  and  C2_3 
ROOT
ATOM      1  C2  UNL d   1       0.657   1.683   1.500  0.00  0.00    -0.077 A 
ATOM      2  C3  UNL d   1       0.411   1.746   2.879  0.00  0.00     0.002 A 
ATOM      3  C4  UNL d   1      -0.846   2.124   3.355  0.00  0.00     0.002 A 
ATOM      4  C5  UNL d   1      -1.867   2.438   2.460  0.00  0.00    -0.004 A 
ATOM      5  C6  UNL d   1      -1.631   2.381   1.087  0.00  0.00     0.002 A 
ATOM      6  C7  UNL d   1      -0.375   2.004   0.609  0.00  0.00     0.002 A 
ENDROOT
BRANCH   1   7
ATOM      7  C1  UNL d   1       1.997   1.229   0.984  0.00  0.00     0.055 C 
ATOM      8  C   UNL d   1       1.913  -0.164   0.377  0.00  0.00     0.019 C 
ENDBRANCH   1   7
TORSDOF 1
ENDMDL
