MODEL 1
REMARK minimizedAffinity 5.9640131
REMARK minimizedRMSD -1
REMARK  1 active torsions:
REMARK  status: ('A' for Active; 'I' for Inactive)
REMARK    1  A    between atoms: C1_2  and  C2_3 
ROOT
ATOM      1  C2  UNL d   1       1.435   1.415  -3.726  0.00  0.00    -0.077 A 
ATOM      2  C3  UNL d   1       2.096   2.210  -2.778  0.00  0.00     0.002 A 
ATOM      3  C4  UNL d   1       2.879   1.619  -1.784  0.00  0.00     0.002 A 
ATOM      4  C5  UNL d   1       3.011   0.233  -1.730  0.00  0.00    -0.004 A 
ATOM      5  C6  UNL d   1       2.356  -0.566  -2.667  0.00  0.00     0.002 A 
ATOM      6  C7  UNL d   1       1.572   0.023  -3.660  0.00  0.00     0.002 A 
ENDROOT
BRANCH   1   7
ATOM      7  C1  UNL d   1       0.631   2.052  -4.828  0.00  0.00     0.055 C 
ATOM      8  C   UNL d   1      -0.859   1.800  -4.644  0.00  0.00     0.019 C 
ENDBRANCH   1   7
TORSDOF 1
ENDMDL
