MODEL 1
REMARK minimizedAffinity 6.03122139
REMARK minimizedRMSD -1
REMARK  1 active torsions:
REMARK  status: ('A' for Active; 'I' for Inactive)
REMARK    1  A    between atoms: C1_2  and  C2_3 
ROOT
ATOM      1  C2  UNL d   1       1.855   0.410   0.464  0.00  0.00    -0.077 A 
ATOM      2  C3  UNL d   1       2.236  -0.871   0.888  0.00  0.00     0.002 A 
ATOM      3  C4  UNL d   1       2.779  -1.783  -0.019  0.00  0.00     0.002 A 
ATOM      4  C5  UNL d   1       2.950  -1.423  -1.354  0.00  0.00    -0.004 A 
ATOM      5  C6  UNL d   1       2.573  -0.152  -1.786  0.00  0.00     0.002 A 
ATOM      6  C7  UNL d   1       2.028   0.760  -0.882  0.00  0.00     0.002 A 
ENDROOT
BRANCH   1   7
ATOM      7  C1  UNL d   1       1.314   1.412   1.450  0.00  0.00     0.055 C 
ATOM      8  C   UNL d   1       0.053   2.082   0.924  0.00  0.00     0.019 C 
ENDBRANCH   1   7
TORSDOF 1
ENDMDL
