MODEL 1
REMARK minimizedAffinity 5.83126307
REMARK minimizedRMSD -1
REMARK  1 active torsions:
REMARK  status: ('A' for Active; 'I' for Inactive)
REMARK    1  A    between atoms: C1_2  and  C2_3 
ROOT
ATOM      1  C2  UNL d   1      -5.256   2.605   0.548  0.00  0.00    -0.077 A 
ATOM      2  C3  UNL d   1      -5.258   3.701   1.422  0.00  0.00     0.002 A 
ATOM      3  C4  UNL d   1      -5.627   4.968   0.966  0.00  0.00     0.002 A 
ATOM      4  C5  UNL d   1      -5.999   5.150  -0.365  0.00  0.00    -0.004 A 
ATOM      5  C6  UNL d   1      -5.997   4.067  -1.243  0.00  0.00     0.002 A 
ATOM      6  C7  UNL d   1      -5.628   2.800  -0.789  0.00  0.00     0.002 A 
ENDROOT
BRANCH   1   7
ATOM      7  C1  UNL d   1      -4.906   1.229   1.050  0.00  0.00     0.055 C 
ATOM      8  C   UNL d   1      -3.403   1.068   1.222  0.00  0.00     0.019 C 
ENDBRANCH   1   7
TORSDOF 1
ENDMDL
