MODEL 1
REMARK minimizedAffinity 4.85336494
REMARK minimizedRMSD -1
REMARK  1 active torsions:
REMARK  status: ('A' for Active; 'I' for Inactive)
REMARK    1  A    between atoms: C1_2  and  C2_3 
ROOT
ATOM      1  C2  UNL d   1       1.294   0.870   0.446  0.00  0.00    -0.077 A 
ATOM      2  C3  UNL d   1       1.854   1.183  -0.801  0.00  0.00     0.002 A 
ATOM      3  C4  UNL d   1       2.299   0.168  -1.650  0.00  0.00     0.002 A 
ATOM      4  C5  UNL d   1       2.185  -1.166  -1.263  0.00  0.00    -0.004 A 
ATOM      5  C6  UNL d   1       1.632  -1.487  -0.024  0.00  0.00     0.002 A 
ATOM      6  C7  UNL d   1       1.188  -0.474   0.826  0.00  0.00     0.002 A 
ENDROOT
BRANCH   1   7
ATOM      7  C1  UNL d   1       0.769   1.961   1.342  0.00  0.00     0.055 C 
ATOM      8  C   UNL d   1      -0.656   2.345   0.970  0.00  0.00     0.019 C 
ENDBRANCH   1   7
TORSDOF 1
ENDMDL
