MODEL 1
REMARK minimizedAffinity -1.59549475
REMARK minimizedRMSD -1
REMARK  1 active torsions:
REMARK  status: ('A' for Active; 'I' for Inactive)
REMARK    1  A    between atoms: C1_2  and  C2_3 
ROOT
ATOM      1  C2  UNL d   1      -1.271  -0.068   0.286  0.00  0.00    -0.076 A 
ATOM      2  C3  UNL d   1      -0.550   0.474  -0.793  0.00  0.00     0.004 A 
ATOM      3  C4  UNL d   1       0.840   0.394  -0.839  0.00  0.00    -0.003 A 
ATOM      4  C5  UNL d   1       1.534  -0.229   0.193  0.00  0.00     0.000 A 
ATOM      5  C6  UNL d   1       0.834  -0.787   1.262  0.00  0.00     0.000 A 
ATOM      6  C7  UNL d   1      -0.569  -0.730   1.316  0.00  0.00    -0.073 A 
ATOM      7  C8  UNL d   1      -1.272  -1.344   2.496  0.00  0.00     0.078 C 
ENDROOT
BRANCH   1   8
ATOM      8  C1  UNL d   1      -2.776   0.072   0.294  0.00  0.00     0.053 C 
ATOM      9  C   UNL d   1      -3.239   1.349   0.979  0.00  0.00     0.018 C 
ENDBRANCH   1   8
TORSDOF 1
ENDMDL
