MODEL 1
REMARK minimizedAffinity -2.37667131
REMARK minimizedRMSD -1
REMARK  1 active torsions:
REMARK  status: ('A' for Active; 'I' for Inactive)
REMARK    1  A    between atoms: C1_2  and  C2_3 
ROOT
ATOM      1  C2  UNL d   1      -0.379  -0.504   0.363  0.00  0.00    -0.076 A 
ATOM      2  C3  UNL d   1       0.889   0.090   0.482  0.00  0.00     0.004 A 
ATOM      3  C4  UNL d   1       1.507   0.689  -0.616  0.00  0.00    -0.003 A 
ATOM      4  C5  UNL d   1       0.865   0.703  -1.849  0.00  0.00     0.000 A 
ATOM      5  C6  UNL d   1      -0.401   0.134  -1.981  0.00  0.00     0.000 A 
ATOM      6  C7  UNL d   1      -1.044  -0.459  -0.881  0.00  0.00    -0.073 A 
ATOM      7  C8  UNL d   1      -2.407  -1.063  -1.081  0.00  0.00     0.078 C 
ENDROOT
BRANCH   1   8
ATOM      8  C1  UNL d   1      -0.987  -1.161   1.581  0.00  0.00     0.053 C 
ATOM      9  C   UNL d   1      -0.081  -2.224   2.183  0.00  0.00     0.018 C 
ENDBRANCH   1   8
TORSDOF 1
ENDMDL
