MODEL 1
REMARK minimizedAffinity -4.75749683
REMARK minimizedRMSD -1
REMARK  1 active torsions:
REMARK  status: ('A' for Active; 'I' for Inactive)
REMARK    1  A    between atoms: C1_2  and  C2_3 
ROOT
ATOM      1  C2  UNL d   1      -1.247  -0.534  -0.119  0.00  0.00    -0.076 A 
ATOM      2  C3  UNL d   1      -0.365   0.109  -1.005  0.00  0.00     0.004 A 
ATOM      3  C4  UNL d   1       0.967   0.326  -0.659  0.00  0.00    -0.003 A 
ATOM      4  C5  UNL d   1       1.440  -0.098   0.578  0.00  0.00     0.000 A 
ATOM      5  C6  UNL d   1       0.584  -0.752   1.462  0.00  0.00     0.000 A 
ATOM      6  C7  UNL d   1      -0.759  -0.993   1.123  0.00  0.00    -0.073 A 
ATOM      7  C8  UNL d   1      -1.640  -1.699   2.117  0.00  0.00     0.078 C 
ENDROOT
BRANCH   1   8
ATOM      8  C1  UNL d   1      -2.689  -0.717  -0.538  0.00  0.00     0.053 C 
ATOM      9  C   UNL d   1      -2.823  -1.469  -1.853  0.00  0.00     0.018 C 
ENDBRANCH   1   8
TORSDOF 1
ENDMDL
