MODEL 1
REMARK minimizedAffinity -3.9859848
REMARK minimizedRMSD -1
REMARK  1 active torsions:
REMARK  status: ('A' for Active; 'I' for Inactive)
REMARK    1  A    between atoms: C1_2  and  C2_3 
ROOT
ATOM      1  C2  UNL d   1      -1.168  -0.123   0.064  0.00  0.00    -0.076 A 
ATOM      2  C3  UNL d   1      -0.649   0.536  -1.064  0.00  0.00     0.004 A 
ATOM      3  C4  UNL d   1       0.722   0.563  -1.311  0.00  0.00    -0.003 A 
ATOM      4  C5  UNL d   1       1.597  -0.068  -0.434  0.00  0.00     0.000 A 
ATOM      5  C6  UNL d   1       1.098  -0.741   0.681  0.00  0.00     0.000 A 
ATOM      6  C7  UNL d   1      -0.283  -0.793   0.935  0.00  0.00    -0.073 A 
ATOM      7  C8  UNL d   1      -0.765  -1.528   2.156  0.00  0.00     0.078 C 
ENDROOT
BRANCH   1   8
ATOM      8  C1  UNL d   1      -2.662  -0.096   0.295  0.00  0.00     0.053 C 
ATOM      9  C   UNL d   1      -3.164   1.280   0.704  0.00  0.00     0.018 C 
ENDBRANCH   1   8
TORSDOF 1
ENDMDL
