MODEL 1
REMARK minimizedAffinity -2.56536293
REMARK minimizedRMSD -1
REMARK  1 active torsions:
REMARK  status: ('A' for Active; 'I' for Inactive)
REMARK    1  A    between atoms: C1_2  and  C2_3 
ROOT
ATOM      1  C2  UNL d   1       0.265   0.166  -0.264  0.00  0.00    -0.076 A 
ATOM      2  C3  UNL d   1      -0.362   0.781  -1.362  0.00  0.00     0.004 A 
ATOM      3  C4  UNL d   1      -1.723   0.602  -1.604  0.00  0.00    -0.003 A 
ATOM      4  C5  UNL d   1      -2.480  -0.195  -0.752  0.00  0.00     0.000 A 
ATOM      5  C6  UNL d   1      -1.878  -0.798   0.352  0.00  0.00     0.000 A 
ATOM      6  C7  UNL d   1      -0.511  -0.615   0.619  0.00  0.00    -0.073 A 
ATOM      7  C8  UNL d   1       0.088  -1.295   1.820  0.00  0.00     0.078 C 
ENDROOT
BRANCH   1   8
ATOM      8  C1  UNL d   1       1.749   0.374  -0.068  0.00  0.00     0.053 C 
ATOM      9  C   UNL d   1       2.062   1.654   0.692  0.00  0.00     0.018 C 
ENDBRANCH   1   8
TORSDOF 1
ENDMDL
