MODEL 1
REMARK minimizedAffinity -4.62517548
REMARK minimizedRMSD -1
REMARK  1 active torsions:
REMARK  status: ('A' for Active; 'I' for Inactive)
REMARK    1  A    between atoms: C1_2  and  C2_3 
ROOT
ATOM      1  C2  UNL d   1       0.040  -0.251   0.042  0.00  0.00    -0.076 A 
ATOM      2  C3  UNL d   1      -0.540  -0.582   1.280  0.00  0.00     0.004 A 
ATOM      3  C4  UNL d   1      -1.917  -0.760   1.402  0.00  0.00    -0.003 A 
ATOM      4  C5  UNL d   1      -2.736  -0.613   0.288  0.00  0.00     0.000 A 
ATOM      5  C6  UNL d   1      -2.177  -0.303  -0.951  0.00  0.00     0.000 A 
ATOM      6  C7  UNL d   1      -0.789  -0.135  -1.094  0.00  0.00    -0.073 A 
ATOM      7  C8  UNL d   1      -0.239   0.204  -2.453  0.00  0.00     0.078 C 
ENDROOT
BRANCH   1   8
ATOM      8  C1  UNL d   1       1.536  -0.043  -0.024  0.00  0.00     0.053 C 
ATOM      9  C   UNL d   1       1.995   1.151   0.799  0.00  0.00     0.018 C 
ENDBRANCH   1   8
TORSDOF 1
ENDMDL
