MODEL 1
REMARK minimizedAffinity -3.73380804
REMARK minimizedRMSD -1
REMARK  1 active torsions:
REMARK  status: ('A' for Active; 'I' for Inactive)
REMARK    1  A    between atoms: C1_2  and  C2_3 
ROOT
ATOM      1  C2  UNL d   1       0.409  -0.107  -0.018  0.00  0.00    -0.076 A 
ATOM      2  C3  UNL d   1      -0.183  -0.599   1.158  0.00  0.00     0.004 A 
ATOM      3  C4  UNL d   1      -1.559  -0.808   1.236  0.00  0.00    -0.003 A 
ATOM      4  C5  UNL d   1      -2.365  -0.530   0.138  0.00  0.00     0.000 A 
ATOM      5  C6  UNL d   1      -1.793  -0.058  -1.043  0.00  0.00     0.000 A 
ATOM      6  C7  UNL d   1      -0.406   0.143  -1.143  0.00  0.00    -0.073 A 
ATOM      7  C8  UNL d   1       0.157   0.660  -2.439  0.00  0.00     0.078 C 
ENDROOT
BRANCH   1   8
ATOM      8  C1  UNL d   1       1.903   0.126  -0.035  0.00  0.00     0.053 C 
ATOM      9  C   UNL d   1       2.305   1.381   0.724  0.00  0.00     0.018 C 
ENDBRANCH   1   8
TORSDOF 1
ENDMDL
