MODEL 1
REMARK minimizedAffinity -3.86378479
REMARK minimizedRMSD -1
REMARK  1 active torsions:
REMARK  status: ('A' for Active; 'I' for Inactive)
REMARK    1  A    between atoms: C1_2  and  C2_3 
ROOT
ATOM      1  C2  UNL d   1      -1.461  -1.515   0.799  0.00  0.00    -0.076 A 
ATOM      2  C3  UNL d   1      -0.179  -0.942   0.725  0.00  0.00     0.004 A 
ATOM      3  C4  UNL d   1       0.147  -0.041  -0.287  0.00  0.00    -0.003 A 
ATOM      4  C5  UNL d   1      -0.804   0.303  -1.242  0.00  0.00     0.000 A 
ATOM      5  C6  UNL d   1      -2.086  -0.243  -1.174  0.00  0.00     0.000 A 
ATOM      6  C7  UNL d   1      -2.436  -1.140  -0.150  0.00  0.00    -0.073 A 
ATOM      7  C8  UNL d   1      -3.830  -1.702  -0.129  0.00  0.00     0.078 C 
ENDROOT
BRANCH   1   8
ATOM      8  C1  UNL d   1      -1.748  -2.507   1.903  0.00  0.00     0.053 C 
ATOM      9  C   UNL d   1      -1.985  -3.913   1.376  0.00  0.00     0.018 C 
ENDBRANCH   1   8
TORSDOF 1
ENDMDL
