MODEL 1
REMARK minimizedAffinity -6.23452854
REMARK minimizedRMSD -1
REMARK  1 active torsions:
REMARK  status: ('A' for Active; 'I' for Inactive)
REMARK    1  A    between atoms: C1_2  and  C2_3 
ROOT
ATOM      1  C2  UNL d   1      -0.204   0.263  -0.133  0.00  0.00    -0.076 A 
ATOM      2  C3  UNL d   1      -0.717  -0.472   0.950  0.00  0.00     0.004 A 
ATOM      3  C4  UNL d   1      -1.986  -1.044   0.892  0.00  0.00    -0.003 A 
ATOM      4  C5  UNL d   1      -2.763  -0.893  -0.251  0.00  0.00     0.000 A 
ATOM      5  C6  UNL d   1      -2.264  -0.183  -1.342  0.00  0.00     0.000 A 
ATOM      6  C7  UNL d   1      -0.979   0.387  -1.306  0.00  0.00    -0.073 A 
ATOM      7  C8  UNL d   1      -0.493   1.148  -2.509  0.00  0.00     0.078 C 
ENDROOT
BRANCH   1   8
ATOM      8  C1  UNL d   1       1.168   0.884  -0.002  0.00  0.00     0.053 C 
ATOM      9  C   UNL d   1       1.419   1.456   1.384  0.00  0.00     0.018 C 
ENDBRANCH   1   8
TORSDOF 1
ENDMDL
