MODEL 1
REMARK minimizedAffinity -1.7690891
REMARK minimizedRMSD -1
REMARK  1 active torsions:
REMARK  status: ('A' for Active; 'I' for Inactive)
REMARK    1  A    between atoms: C1_2  and  C2_3 
ROOT
ATOM      1  C2  UNL d   1      -1.110  -0.532  -0.087  0.00  0.00    -0.076 A 
ATOM      2  C3  UNL d   1      -0.510   0.437  -0.909  0.00  0.00     0.004 A 
ATOM      3  C4  UNL d   1       0.856   0.700  -0.829  0.00  0.00    -0.003 A 
ATOM      4  C5  UNL d   1       1.645  -0.003   0.075  0.00  0.00     0.000 A 
ATOM      5  C6  UNL d   1       1.070  -0.980   0.886  0.00  0.00     0.000 A 
ATOM      6  C7  UNL d   1      -0.303  -1.269   0.806  0.00  0.00    -0.073 A 
ATOM      7  C8  UNL d   1      -0.872  -2.329   1.709  0.00  0.00     0.078 C 
ENDROOT
BRANCH   1   8
ATOM      8  C1  UNL d   1      -2.601  -0.755  -0.199  0.00  0.00     0.053 C 
ATOM      9  C   UNL d   1      -2.955  -1.829  -1.216  0.00  0.00     0.018 C 
ENDBRANCH   1   8
TORSDOF 1
ENDMDL
