MODEL 1
REMARK minimizedAffinity 2.27966142
REMARK minimizedRMSD -1
REMARK  0 active torsions:
REMARK  status: ('A' for Active; 'I' for Inactive)
ROOT
ATOM      1  C   UNL d   1      -0.031  -4.019  -3.954  0.00  0.00    -0.002 A 
ATOM      2  C1  UNL d   1       0.339  -3.999  -5.292  0.00  0.00     0.010 A 
ATOM      3  C2  UNL d   1       0.377  -2.796  -6.000  0.00  0.00     0.041 A 
ATOM      4  C3  UNL d   1       0.036  -1.602  -5.335  0.00  0.00    -0.075 A 
ATOM      5  S   UNL d   1       0.013  -0.012  -6.000  0.00  0.00     0.015 SA
ATOM      6  C4  UNL d   1      -0.488   0.679  -4.524  0.00  0.00     0.022 A 
ATOM      7  C5  UNL d   1      -0.639  -0.267  -3.537  0.00  0.00     0.026 A 
ATOM      8  C6  UNL d   1      -0.339  -1.597  -3.988  0.00  0.00    -0.082 A 
ATOM      9  C7  UNL d   1      -0.368  -2.832  -3.298  0.00  0.00     0.045 A 
ENDROOT
TORSDOF 0
ENDMDL
