MODEL 1
REMARK minimizedAffinity 12.3910789
REMARK minimizedRMSD -1
REMARK  0 active torsions:
REMARK  status: ('A' for Active; 'I' for Inactive)
ROOT
ATOM      1  C   UNL d   1       0.689  -1.483   1.537  0.00  0.00    -0.002 A 
ATOM      2  C1  UNL d   1      -0.282  -2.279   2.129  0.00  0.00     0.010 A 
ATOM      3  C2  UNL d   1      -0.207  -2.600   3.485  0.00  0.00     0.041 A 
ATOM      4  C3  UNL d   1       0.869  -2.101   4.245  0.00  0.00    -0.075 A 
ATOM      5  S   UNL d   1       1.166  -2.363   5.923  0.00  0.00     0.015 SA
ATOM      6  C4  UNL d   1       2.588  -1.424   5.894  0.00  0.00     0.022 A 
ATOM      7  C5  UNL d   1       2.846  -0.916   4.643  0.00  0.00     0.026 A 
ATOM      8  C6  UNL d   1       1.859  -1.298   3.672  0.00  0.00    -0.082 A 
ATOM      9  C7  UNL d   1       1.755  -0.991   2.294  0.00  0.00     0.045 A 
ENDROOT
TORSDOF 0
ENDMDL
