MODEL 1
REMARK minimizedAffinity 7.09525919
REMARK minimizedRMSD -1
REMARK  0 active torsions:
REMARK  status: ('A' for Active; 'I' for Inactive)
ROOT
ATOM      1  C   UNL d   1      -1.702  -0.744  -5.252  0.00  0.00    -0.002 A 
ATOM      2  C1  UNL d   1      -1.509  -1.367  -4.027  0.00  0.00     0.010 A 
ATOM      3  C2  UNL d   1      -0.226  -1.506  -3.495  0.00  0.00     0.041 A 
ATOM      4  C3  UNL d   1       0.871  -1.003  -4.221  0.00  0.00    -0.075 A 
ATOM      5  S   UNL d   1       2.533  -1.059  -3.766  0.00  0.00     0.015 SA
ATOM      6  C4  UNL d   1       3.027  -0.257  -5.186  0.00  0.00     0.022 A 
ATOM      7  C5  UNL d   1       1.962   0.054  -5.999  0.00  0.00     0.026 A 
ATOM      8  C6  UNL d   1       0.703  -0.370  -5.456  0.00  0.00    -0.082 A 
ATOM      9  C7  UNL d   1      -0.611  -0.245  -5.969  0.00  0.00     0.045 A 
ENDROOT
TORSDOF 0
ENDMDL
