MODEL 1
REMARK minimizedAffinity 8.11523533
REMARK minimizedRMSD -1
REMARK  0 active torsions:
REMARK  status: ('A' for Active; 'I' for Inactive)
ROOT
ATOM      1  C   UNL d   1       0.734  -1.131  -3.966  0.00  0.00    -0.002 A 
ATOM      2  C1  UNL d   1       0.659  -0.743  -5.296  0.00  0.00     0.010 A 
ATOM      3  C2  UNL d   1       1.814  -0.394  -6.000  0.00  0.00     0.041 A 
ATOM      4  C3  UNL d   1       3.057  -0.444  -5.339  0.00  0.00    -0.075 A 
ATOM      5  S   UNL d   1       4.602  -0.062  -6.000  0.00  0.00     0.015 SA
ATOM      6  C4  UNL d   1       5.398  -0.406  -4.533  0.00  0.00     0.022 A 
ATOM      7  C5  UNL d   1       4.521  -0.804  -3.552  0.00  0.00     0.026 A 
ATOM      8  C6  UNL d   1       3.157  -0.833  -4.000  0.00  0.00    -0.082 A 
ATOM      9  C7  UNL d   1       1.969  -1.180  -3.313  0.00  0.00     0.045 A 
ENDROOT
TORSDOF 0
ENDMDL
