MODEL 1
REMARK minimizedAffinity 10.2968664
REMARK minimizedRMSD -1
REMARK  0 active torsions:
REMARK  status: ('A' for Active; 'I' for Inactive)
ROOT
ATOM      1  C   UNL d   1      -1.461  -1.895  -2.547  0.00  0.00    -0.002 A 
ATOM      2  C1  UNL d   1      -1.347  -1.070  -3.658  0.00  0.00     0.010 A 
ATOM      3  C2  UNL d   1      -0.091  -0.683  -4.129  0.00  0.00     0.041 A 
ATOM      4  C3  UNL d   1       1.060  -1.146  -3.462  0.00  0.00    -0.075 A 
ATOM      5  S   UNL d   1       2.702  -0.803  -3.861  0.00  0.00     0.015 SA
ATOM      6  C4  UNL d   1       3.291  -1.744  -2.568  0.00  0.00     0.022 A 
ATOM      7  C5  UNL d   1       2.274  -2.313  -1.839  0.00  0.00     0.026 A 
ATOM      8  C6  UNL d   1       0.971  -1.978  -2.342  0.00  0.00    -0.082 A 
ATOM      9  C7  UNL d   1      -0.317  -2.352  -1.888  0.00  0.00     0.045 A 
ENDROOT
TORSDOF 0
ENDMDL
