MODEL 1
REMARK minimizedAffinity 3.66060257
REMARK minimizedRMSD -1
REMARK  0 active torsions:
REMARK  status: ('A' for Active; 'I' for Inactive)
ROOT
ATOM      1  C   UNL d   1       1.088  -3.395  -2.604  0.00  0.00    -0.002 A 
ATOM      2  C1  UNL d   1       2.460  -3.233  -2.732  0.00  0.00     0.010 A 
ATOM      3  C2  UNL d   1       2.986  -2.320  -3.648  0.00  0.00     0.041 A 
ATOM      4  C3  UNL d   1       2.100  -1.564  -4.441  0.00  0.00    -0.075 A 
ATOM      5  S   UNL d   1       2.516  -0.385  -5.629  0.00  0.00     0.015 SA
ATOM      6  C4  UNL d   1       0.882  -0.068  -5.994  0.00  0.00     0.022 A 
ATOM      7  C5  UNL d   1       0.027  -0.834  -5.238  0.00  0.00     0.026 A 
ATOM      8  C6  UNL d   1       0.714  -1.708  -4.330  0.00  0.00    -0.082 A 
ATOM      9  C7  UNL d   1       0.213  -2.642  -3.392  0.00  0.00     0.045 A 
ENDROOT
TORSDOF 0
ENDMDL
