MODEL 1
REMARK minimizedAffinity 12.1873932
REMARK minimizedRMSD -1
REMARK  0 active torsions:
REMARK  status: ('A' for Active; 'I' for Inactive)
ROOT
ATOM      1  C   UNL d   1      -0.610  -0.697  -5.985  0.00  0.00    -0.002 A 
ATOM      2  C1  UNL d   1      -1.132  -1.540  -5.015  0.00  0.00     0.010 A 
ATOM      3  C2  UNL d   1      -0.307  -2.086  -4.029  0.00  0.00     0.041 A 
ATOM      4  C3  UNL d   1       1.065  -1.764  -4.034  0.00  0.00    -0.075 A 
ATOM      5  S   UNL d   1       2.265  -2.314  -2.925  0.00  0.00     0.015 SA
ATOM      6  C4  UNL d   1       3.499  -1.440  -3.712  0.00  0.00     0.022 A 
ATOM      7  C5  UNL d   1       3.025  -0.741  -4.797  0.00  0.00     0.026 A 
ATOM      8  C6  UNL d   1       1.614  -0.916  -5.000  0.00  0.00    -0.082 A 
ATOM      9  C7  UNL d   1       0.752  -0.380  -5.986  0.00  0.00     0.045 A 
ENDROOT
TORSDOF 0
ENDMDL
