MODEL 1
REMARK minimizedAffinity -3.87254453
REMARK minimizedRMSD -1
REMARK  0 active torsions:
REMARK  status: ('A' for Active; 'I' for Inactive)
ROOT
ATOM      1  C   UNL d   1       0.589  -0.024   0.454  0.00  0.00    -0.002 A 
ATOM      2  C1  UNL d   1       0.962   1.287   0.714  0.00  0.00     0.010 A 
ATOM      3  C2  UNL d   1       0.152   2.114   1.496  0.00  0.00     0.041 A 
ATOM      4  C3  UNL d   1      -1.049   1.595   2.018  0.00  0.00    -0.075 A 
ATOM      5  S   UNL d   1      -2.197   2.423   3.002  0.00  0.00     0.015 SA
ATOM      6  C4  UNL d   1      -3.210   1.055   3.100  0.00  0.00     0.022 A 
ATOM      7  C5  UNL d   1      -2.700  -0.015   2.405  0.00  0.00     0.026 A 
ATOM      8  C6  UNL d   1      -1.446   0.278   1.770  0.00  0.00    -0.082 A 
ATOM      9  C7  UNL d   1      -0.604  -0.535   0.973  0.00  0.00     0.045 A 
ENDROOT
TORSDOF 0
ENDMDL
