MODEL 1
REMARK minimizedAffinity 2.50118899
REMARK minimizedRMSD -1
REMARK  0 active torsions:
REMARK  status: ('A' for Active; 'I' for Inactive)
ROOT
ATOM      1  C   UNL d   1      -0.842   2.085   1.509  0.00  0.00    -0.002 A 
ATOM      2  C1  UNL d   1      -0.988   0.727   1.267  0.00  0.00     0.010 A 
ATOM      3  C2  UNL d   1      -1.999  -0.003   1.895  0.00  0.00     0.041 A 
ATOM      4  C3  UNL d   1      -2.871   0.663   2.779  0.00  0.00    -0.075 A 
ATOM      5  S   UNL d   1      -4.182  -0.026   3.662  0.00  0.00     0.015 SA
ATOM      6  C4  UNL d   1      -4.580   1.466   4.381  0.00  0.00     0.022 A 
ATOM      7  C5  UNL d   1      -3.743   2.477   3.970  0.00  0.00     0.026 A 
ATOM      8  C6  UNL d   1      -2.744   2.030   3.039  0.00  0.00    -0.082 A 
ATOM      9  C7  UNL d   1      -1.709   2.742   2.387  0.00  0.00     0.045 A 
ENDROOT
TORSDOF 0
ENDMDL
