MODEL 1
REMARK minimizedAffinity -0.332577854
REMARK minimizedRMSD -1
REMARK  0 active torsions:
REMARK  status: ('A' for Active; 'I' for Inactive)
ROOT
ATOM      1  C   UNL d   1      -0.357   3.607   1.276  0.00  0.00    -0.002 A 
ATOM      2  C1  UNL d   1      -1.514   3.310   1.982  0.00  0.00     0.010 A 
ATOM      3  C2  UNL d   1      -1.889   1.983   2.206  0.00  0.00     0.041 A 
ATOM      4  C3  UNL d   1      -1.073   0.951   1.704  0.00  0.00    -0.075 A 
ATOM      5  S   UNL d   1      -1.333  -0.747   1.856  0.00  0.00     0.015 SA
ATOM      6  C4  UNL d   1       0.086  -1.118   0.988  0.00  0.00     0.022 A 
ATOM      7  C5  UNL d   1       0.754   0.014   0.584  0.00  0.00     0.026 A 
ATOM      8  C6  UNL d   1       0.097   1.225   0.990  0.00  0.00    -0.082 A 
ATOM      9  C7  UNL d   1       0.450   2.579   0.779  0.00  0.00     0.045 A 
ENDROOT
TORSDOF 0
ENDMDL
