MODEL 1
REMARK minimizedAffinity 1.43350673
REMARK minimizedRMSD -1
REMARK  0 active torsions:
REMARK  status: ('A' for Active; 'I' for Inactive)
ROOT
ATOM      1  C   UNL d   1       0.975   1.468   1.032  0.00  0.00    -0.002 A 
ATOM      2  C1  UNL d   1       0.676   0.122   0.873  0.00  0.00     0.010 A 
ATOM      3  C2  UNL d   1      -0.517  -0.405   1.370  0.00  0.00     0.041 A 
ATOM      4  C3  UNL d   1      -1.415   0.452   2.036  0.00  0.00    -0.075 A 
ATOM      5  S   UNL d   1      -2.937   0.029   2.728  0.00  0.00     0.015 SA
ATOM      6  C4  UNL d   1      -3.227   1.625   3.250  0.00  0.00     0.022 A 
ATOM      7  C5  UNL d   1      -2.199   2.473   2.914  0.00  0.00     0.026 A 
ATOM      8  C6  UNL d   1      -1.138   1.811   2.208  0.00  0.00    -0.082 A 
ATOM      9  C7  UNL d   1       0.081   2.315   1.693  0.00  0.00     0.045 A 
ENDROOT
TORSDOF 0
ENDMDL
