MODEL 1
REMARK minimizedAffinity 9.53013134
REMARK minimizedRMSD -1
REMARK  0 active torsions:
REMARK  status: ('A' for Active; 'I' for Inactive)
ROOT
ATOM      1  C   UNL d   1       0.680   0.200   1.518  0.00  0.00    -0.002 A 
ATOM      2  C1  UNL d   1       1.070   1.197   0.636  0.00  0.00     0.010 A 
ATOM      3  C2  UNL d   1       0.331   2.376   0.525  0.00  0.00     0.041 A 
ATOM      4  C3  UNL d   1      -0.817   2.539   1.326  0.00  0.00    -0.075 A 
ATOM      5  S   UNL d   1      -1.876   3.899   1.360  0.00  0.00     0.015 SA
ATOM      6  C4  UNL d   1      -2.870   3.189   2.548  0.00  0.00     0.022 A 
ATOM      7  C5  UNL d   1      -2.420   1.944   2.921  0.00  0.00     0.026 A 
ATOM      8  C6  UNL d   1      -1.229   1.550   2.222  0.00  0.00    -0.082 A 
ATOM      9  C7  UNL d   1      -0.460   0.365   2.311  0.00  0.00     0.045 A 
ENDROOT
TORSDOF 0
ENDMDL
