MODEL 1
REMARK minimizedAffinity 4.11236286
REMARK minimizedRMSD -1
REMARK  0 active torsions:
REMARK  status: ('A' for Active; 'I' for Inactive)
ROOT
ATOM      1  C   UNL d   1       1.275   0.478   0.641  0.00  0.00    -0.002 A 
ATOM      2  C1  UNL d   1       0.468  -0.643   0.508  0.00  0.00     0.010 A 
ATOM      3  C2  UNL d   1      -0.737  -0.738   1.206  0.00  0.00     0.041 A 
ATOM      4  C3  UNL d   1      -1.122   0.324   2.048  0.00  0.00    -0.075 A 
ATOM      5  S   UNL d   1      -2.556   0.428   3.000  0.00  0.00     0.015 SA
ATOM      6  C4  UNL d   1      -2.132   1.963   3.606  0.00  0.00     0.022 A 
ATOM      7  C5  UNL d   1      -0.929   2.401   3.105  0.00  0.00     0.026 A 
ATOM      8  C6  UNL d   1      -0.327   1.463   2.198  0.00  0.00    -0.082 A 
ATOM      9  C7  UNL d   1       0.889   1.529   1.477  0.00  0.00     0.045 A 
ENDROOT
TORSDOF 0
ENDMDL
