MODEL 1
REMARK minimizedAffinity -1.78797972
REMARK minimizedRMSD -1
REMARK  0 active torsions:
REMARK  status: ('A' for Active; 'I' for Inactive)
ROOT
ATOM      1  C   UNL d   1       0.472   1.655   1.124  0.00  0.00    -0.002 A 
ATOM      2  C1  UNL d   1       0.176   0.314   0.924  0.00  0.00     0.010 A 
ATOM      3  C2  UNL d   1      -0.993  -0.242   1.449  0.00  0.00     0.041 A 
ATOM      4  C3  UNL d   1      -1.868   0.581   2.185  0.00  0.00    -0.075 A 
ATOM      5  S   UNL d   1      -3.357   0.119   2.921  0.00  0.00     0.015 SA
ATOM      6  C4  UNL d   1      -3.636   1.691   3.518  0.00  0.00     0.022 A 
ATOM      7  C5  UNL d   1      -2.627   2.560   3.174  0.00  0.00     0.026 A 
ATOM      8  C6  UNL d   1      -1.592   1.935   2.399  0.00  0.00    -0.082 A 
ATOM      9  C7  UNL d   1      -0.399   2.468   1.855  0.00  0.00     0.045 A 
ENDROOT
TORSDOF 0
ENDMDL
