MODEL 1
REMARK minimizedAffinity 1.74224842
REMARK minimizedRMSD -1
REMARK  0 active torsions:
REMARK  status: ('A' for Active; 'I' for Inactive)
ROOT
ATOM      1  C   UNL d   1       2.061   0.018   2.100  0.00  0.00    -0.002 A 
ATOM      2  C1  UNL d   1       2.457   0.815   1.035  0.00  0.00     0.010 A 
ATOM      3  C2  UNL d   1       1.611   1.808   0.537  0.00  0.00     0.041 A 
ATOM      4  C3  UNL d   1       0.348   1.990   1.135  0.00  0.00    -0.075 A 
ATOM      5  S   UNL d   1      -0.854   3.144   0.694  0.00  0.00     0.015 SA
ATOM      6  C4  UNL d   1      -1.921   2.608   1.909  0.00  0.00     0.022 A 
ATOM      7  C5  UNL d   1      -1.390   1.574   2.643  0.00  0.00     0.026 A 
ATOM      8  C6  UNL d   1      -0.073   1.201   2.209  0.00  0.00    -0.082 A 
ATOM      9  C7  UNL d   1       0.808   0.202   2.690  0.00  0.00     0.045 A 
ENDROOT
TORSDOF 0
ENDMDL
