MODEL 1
REMARK minimizedAffinity 0.17000483
REMARK minimizedRMSD -1
REMARK  0 active torsions:
REMARK  status: ('A' for Active; 'I' for Inactive)
ROOT
ATOM      1  C   UNL d   1       6.000  -5.836   5.502  0.00  0.00     0.172 C 
ATOM      2  N   UNL d   1       5.366  -5.772   4.206  0.00  0.00    -0.070 N 
ATOM      3  C1  UNL d   1       5.992  -5.479   3.025  0.00  0.00    -0.004 A 
ATOM      4  C2  UNL d   1       5.045  -5.519   2.024  0.00  0.00    -0.047 A 
ATOM      5  C3  UNL d   1       3.807  -5.848   2.625  0.00  0.00    -0.047 A 
ATOM      6  C4  UNL d   1       4.034  -5.999   3.977  0.00  0.00    -0.004 A 
ENDROOT
TORSDOF 0
ENDMDL
