MODEL 1
REMARK minimizedAffinity 1.22787035
REMARK minimizedRMSD -1
REMARK  0 active torsions:
REMARK  status: ('A' for Active; 'I' for Inactive)
ROOT
ATOM      1  C   UNL d   1      -2.992  -2.395  -5.998  0.00  0.00     0.172 C 
ATOM      2  N   UNL d   1      -2.944  -3.838  -5.998  0.00  0.00    -0.070 N 
ATOM      3  C1  UNL d   1      -1.806  -4.599  -5.996  0.00  0.00    -0.004 A 
ATOM      4  C2  UNL d   1      -2.184  -5.924  -5.996  0.00  0.00    -0.047 A 
ATOM      5  C3  UNL d   1      -3.599  -5.961  -5.999  0.00  0.00    -0.047 A 
ATOM      6  C4  UNL d   1      -4.044  -4.655  -6.000  0.00  0.00    -0.004 A 
ENDROOT
TORSDOF 0
ENDMDL
