MODEL 1
REMARK minimizedAffinity 1.62943447
REMARK minimizedRMSD -1
REMARK  0 active torsions:
REMARK  status: ('A' for Active; 'I' for Inactive)
ROOT
ATOM      1  C   UNL d   1      -4.125  -5.870  -5.985  0.00  0.00     0.172 C 
ATOM      2  N   UNL d   1      -3.664  -4.501  -5.990  0.00  0.00    -0.070 N 
ATOM      3  C1  UNL d   1      -4.464  -3.389  -5.996  0.00  0.00    -0.004 A 
ATOM      4  C2  UNL d   1      -3.645  -2.281  -5.999  0.00  0.00    -0.047 A 
ATOM      5  C3  UNL d   1      -2.307  -2.742  -5.997  0.00  0.00    -0.047 A 
ATOM      6  C4  UNL d   1      -2.348  -4.121  -5.991  0.00  0.00    -0.004 A 
ENDROOT
TORSDOF 0
ENDMDL
