MODEL 1
REMARK minimizedAffinity -0.169124395
REMARK minimizedRMSD -1
REMARK  0 active torsions:
REMARK  status: ('A' for Active; 'I' for Inactive)
ROOT
ATOM      1  C   UNL d   1      -0.465   0.419   3.007  0.00  0.00     0.172 C 
ATOM      2  N   UNL d   1      -1.689   0.810   2.349  0.00  0.00    -0.070 N 
ATOM      3  C1  UNL d   1      -2.611   1.697   2.839  0.00  0.00    -0.004 A 
ATOM      4  C2  UNL d   1      -3.630   1.799   1.918  0.00  0.00    -0.047 A 
ATOM      5  C3  UNL d   1      -3.311   0.943   0.836  0.00  0.00    -0.047 A 
ATOM      6  C4  UNL d   1      -2.104   0.344   1.130  0.00  0.00    -0.004 A 
ENDROOT
TORSDOF 0
ENDMDL
