MODEL 1
REMARK minimizedAffinity 5.61848497
REMARK minimizedRMSD -1
REMARK  0 active torsions:
REMARK  status: ('A' for Active; 'I' for Inactive)
ROOT
ATOM      1  C   UNL d   1      -4.127  -1.222   0.428  0.00  0.00     0.172 C 
ATOM      2  N   UNL d   1      -3.273  -0.258   1.081  0.00  0.00    -0.070 N 
ATOM      3  C1  UNL d   1      -3.679   0.935   1.616  0.00  0.00    -0.004 A 
ATOM      4  C2  UNL d   1      -2.570   1.560   2.144  0.00  0.00    -0.047 A 
ATOM      5  C3  UNL d   1      -1.458   0.713   1.917  0.00  0.00    -0.047 A 
ATOM      6  C4  UNL d   1      -1.922  -0.405   1.258  0.00  0.00    -0.004 A 
ENDROOT
TORSDOF 0
ENDMDL
