MODEL 1
REMARK minimizedAffinity 2.48919392
REMARK minimizedRMSD -1
REMARK  0 active torsions:
REMARK  status: ('A' for Active; 'I' for Inactive)
ROOT
ATOM      1  C   UNL d   1      -3.412  -2.029   0.108  0.00  0.00     0.172 C 
ATOM      2  N   UNL d   1      -3.350  -0.805   0.871  0.00  0.00    -0.070 N 
ATOM      3  C1  UNL d   1      -2.214  -0.242   1.387  0.00  0.00    -0.004 A 
ATOM      4  C2  UNL d   1      -2.576   0.913   2.045  0.00  0.00    -0.047 A 
ATOM      5  C3  UNL d   1      -3.979   1.049   1.921  0.00  0.00    -0.047 A 
ATOM      6  C4  UNL d   1      -4.433  -0.029   1.190  0.00  0.00    -0.004 A 
ENDROOT
TORSDOF 0
ENDMDL
