MODEL 1
REMARK minimizedAffinity 7.15094709
REMARK minimizedRMSD -1
REMARK  0 active torsions:
REMARK  status: ('A' for Active; 'I' for Inactive)
ROOT
ATOM      1  C   UNL d   1      -4.289  -1.466  -0.018  0.00  0.00     0.172 C 
ATOM      2  N   UNL d   1      -3.501  -0.392   0.540  0.00  0.00    -0.070 N 
ATOM      3  C1  UNL d   1      -3.844   0.933   0.538  0.00  0.00    -0.004 A 
ATOM      4  C2  UNL d   1      -2.833   1.631   1.163  0.00  0.00    -0.047 A 
ATOM      5  C3  UNL d   1      -1.848   0.693   1.552  0.00  0.00    -0.047 A 
ATOM      6  C4  UNL d   1      -2.287  -0.552   1.154  0.00  0.00    -0.004 A 
ENDROOT
TORSDOF 0
ENDMDL
