MODEL 1
REMARK minimizedAffinity 2.71729422
REMARK minimizedRMSD -1
REMARK  0 active torsions:
REMARK  status: ('A' for Active; 'I' for Inactive)
ROOT
ATOM      1  C   UNL d   1      -0.842   0.213   2.304  0.00  0.00     0.172 C 
ATOM      2  N   UNL d   1      -2.260   0.428   2.134  0.00  0.00    -0.070 N 
ATOM      3  C1  UNL d   1      -3.169   0.587   3.145  0.00  0.00    -0.004 A 
ATOM      4  C2  UNL d   1      -4.410   0.767   2.573  0.00  0.00    -0.047 A 
ATOM      5  C3  UNL d   1      -4.240   0.713   1.169  0.00  0.00    -0.047 A 
ATOM      6  C4  UNL d   1      -2.899   0.502   0.925  0.00  0.00    -0.004 A 
ENDROOT
TORSDOF 0
ENDMDL
