MODEL 1
REMARK minimizedAffinity 0.107229739
REMARK minimizedRMSD -1
REMARK  0 active torsions:
REMARK  status: ('A' for Active; 'I' for Inactive)
ROOT
ATOM      1  C   UNL d   1      -0.256   0.389   2.907  0.00  0.00     0.172 C 
ATOM      2  N   UNL d   1      -1.643   0.379   2.505  0.00  0.00    -0.070 N 
ATOM      3  C1  UNL d   1      -2.715   0.200   3.338  0.00  0.00    -0.004 A 
ATOM      4  C2  UNL d   1      -3.859   0.257   2.572  0.00  0.00    -0.047 A 
ATOM      5  C3  UNL d   1      -3.461   0.478   1.232  0.00  0.00    -0.047 A 
ATOM      6  C4  UNL d   1      -2.084   0.549   1.219  0.00  0.00    -0.004 A 
ENDROOT
TORSDOF 0
ENDMDL
