MODEL 1
REMARK minimizedAffinity -0.0970199779
REMARK minimizedRMSD -1
REMARK  0 active torsions:
REMARK  status: ('A' for Active; 'I' for Inactive)
ROOT
ATOM      1  C   UNL d   1       0.923  -5.630   1.494  0.00  0.00     0.172 C 
ATOM      2  N   UNL d   1      -0.405  -5.208   1.113  0.00  0.00    -0.070 N 
ATOM      3  C1  UNL d   1      -1.521  -6.000   1.098  0.00  0.00    -0.004 A 
ATOM      4  C2  UNL d   1      -2.582  -5.227   0.678  0.00  0.00    -0.047 A 
ATOM      5  C3  UNL d   1      -2.085  -3.925   0.431  0.00  0.00    -0.047 A 
ATOM      6  C4  UNL d   1      -0.734  -3.941   0.708  0.00  0.00    -0.004 A 
ENDROOT
TORSDOF 0
ENDMDL
