MODEL 1
REMARK minimizedAffinity 0.140968099
REMARK minimizedRMSD -1
REMARK  0 active torsions:
REMARK  status: ('A' for Active; 'I' for Inactive)
ROOT
ATOM      1  C   UNL d   1       0.864  -5.999   1.878  0.00  0.00     0.172 C 
ATOM      2  N   UNL d   1      -0.396  -5.535   1.346  0.00  0.00    -0.070 N 
ATOM      3  C1  UNL d   1      -1.636  -5.882   1.812  0.00  0.00    -0.004 A 
ATOM      4  C2  UNL d   1      -2.574  -5.230   1.042  0.00  0.00    -0.047 A 
ATOM      5  C3  UNL d   1      -1.874  -4.466   0.078  0.00  0.00    -0.047 A 
ATOM      6  C4  UNL d   1      -0.527  -4.673   0.290  0.00  0.00    -0.004 A 
ENDROOT
TORSDOF 0
ENDMDL
