MODEL 1
REMARK minimizedAffinity -0.57635206
REMARK minimizedRMSD -1
REMARK  0 active torsions:
REMARK  status: ('A' for Active; 'I' for Inactive)
ROOT
ATOM      1  C   UNL d   1       5.293  -0.251   1.829  0.00  0.00     0.172 C 
ATOM      2  N   UNL d   1       4.012   0.091   1.258  0.00  0.00    -0.070 N 
ATOM      3  C1  UNL d   1       2.881   0.406   1.964  0.00  0.00    -0.004 A 
ATOM      4  C2  UNL d   1       1.877   0.669   1.058  0.00  0.00    -0.047 A 
ATOM      5  C3  UNL d   1       2.423   0.507  -0.238  0.00  0.00    -0.047 A 
ATOM      6  C4  UNL d   1       3.746   0.149  -0.085  0.00  0.00    -0.004 A 
ENDROOT
TORSDOF 0
ENDMDL
