MODEL 1
REMARK minimizedAffinity 0.169379294
REMARK minimizedRMSD -1
REMARK  0 active torsions:
REMARK  status: ('A' for Active; 'I' for Inactive)
ROOT
ATOM      1  C   UNL d   1      -6.000   2.233   5.060  0.00  0.00     0.172 C 
ATOM      2  N   UNL d   1      -5.987   3.673   4.951  0.00  0.00    -0.070 N 
ATOM      3  C1  UNL d   1      -5.998   4.553   6.000  0.00  0.00    -0.004 A 
ATOM      4  C2  UNL d   1      -5.980   5.829   5.480  0.00  0.00    -0.047 A 
ATOM      5  C3  UNL d   1      -5.958   5.712   4.070  0.00  0.00    -0.047 A 
ATOM      6  C4  UNL d   1      -5.963   4.366   3.769  0.00  0.00    -0.004 A 
ENDROOT
TORSDOF 0
ENDMDL
