MODEL 1
REMARK minimizedAffinity 2.89483094
REMARK minimizedRMSD -1
REMARK  0 active torsions:
REMARK  status: ('A' for Active; 'I' for Inactive)
ROOT
ATOM      1  C   UNL d   1       5.989  -5.341   1.737  0.00  0.00     0.172 C 
ATOM      2  N   UNL d   1       5.351  -5.573   3.011  0.00  0.00    -0.070 N 
ATOM      3  C1  UNL d   1       5.995  -5.836   4.190  0.00  0.00    -0.004 A 
ATOM      4  C2  UNL d   1       5.037  -5.995   5.168  0.00  0.00    -0.047 A 
ATOM      5  C3  UNL d   1       3.773  -5.822   4.555  0.00  0.00    -0.047 A 
ATOM      6  C4  UNL d   1       3.997  -5.562   3.220  0.00  0.00    -0.004 A 
ENDROOT
TORSDOF 0
ENDMDL
