MODEL 1
REMARK minimizedAffinity 1.09241807
REMARK minimizedRMSD -1
REMARK  0 active torsions:
REMARK  status: ('A' for Active; 'I' for Inactive)
ROOT
ATOM      1  C   UNL d   1      -3.830  -0.045   1.051  0.00  0.00     0.172 C 
ATOM      2  N   UNL d   1      -2.675   0.361   1.818  0.00  0.00    -0.070 N 
ATOM      3  C1  UNL d   1      -2.592   0.381   3.184  0.00  0.00    -0.004 A 
ATOM      4  C2  UNL d   1      -1.333   0.827   3.523  0.00  0.00    -0.047 A 
ATOM      5  C3  UNL d   1      -0.636   1.084   2.319  0.00  0.00    -0.047 A 
ATOM      6  C4  UNL d   1      -1.490   0.787   1.279  0.00  0.00    -0.004 A 
ENDROOT
TORSDOF 0
ENDMDL
