MODEL 1
REMARK minimizedAffinity -2.70612907
REMARK minimizedRMSD -1
REMARK  0 active torsions:
REMARK  status: ('A' for Active; 'I' for Inactive)
ROOT
ATOM      1  O1  BZF d   1      -1.532  -1.093   0.516  0.00  0.00    -0.204 OA
ATOM      2  C2  BZF d   1      -1.573   0.105  -0.171  0.00  0.00     0.174 A 
ATOM      3  C3  BZF d   1      -0.354   0.681  -0.202  0.00  0.00    -0.012 A 
ATOM      4  C3A BZF d   1       0.522  -0.257   0.430  0.00  0.00    -0.107 A 
ATOM      5  C4  BZF d   1       1.863  -0.263   0.688  0.00  0.00     0.055 A 
ATOM      6  C5  BZF d   1       2.396  -1.298   1.387  0.00  0.00    -0.016 A 
ATOM      7  C6  BZF d   1       1.619  -2.341   1.848  0.00  0.00     0.022 A 
ATOM      8  C7  BZF d   1       0.285  -2.382   1.612  0.00  0.00     0.029 A 
ATOM      9  C7A BZF d   1      -0.252  -1.353   0.877  0.00  0.00     0.058 A 
ENDROOT
TORSDOF 0
ENDMDL
