MODEL 1
REMARK minimizedAffinity -2.64171767
REMARK minimizedRMSD -1
REMARK  0 active torsions:
REMARK  status: ('A' for Active; 'I' for Inactive)
ROOT
ATOM      1  O1  BZF d   1       2.425  -1.221   0.990  0.00  0.00    -0.204 OA
ATOM      2  C2  BZF d   1       3.365  -0.220   1.146  0.00  0.00     0.174 A 
ATOM      3  C3  BZF d   1       2.812   0.992   0.940  0.00  0.00    -0.012 A 
ATOM      4  C3A BZF d   1       1.420   0.740   0.727  0.00  0.00    -0.107 A 
ATOM      5  C4  BZF d   1       0.345   1.547   0.484  0.00  0.00     0.055 A 
ATOM      6  C5  BZF d   1      -0.867   0.980   0.250  0.00  0.00    -0.016 A 
ATOM      7  C6  BZF d   1      -1.040  -0.388   0.245  0.00  0.00     0.022 A 
ATOM      8  C7  BZF d   1      -0.005  -1.230   0.485  0.00  0.00     0.029 A 
ATOM      9  C7A BZF d   1       1.215  -0.659   0.755  0.00  0.00     0.058 A 
ENDROOT
TORSDOF 0
ENDMDL
