MODEL 1
REMARK minimizedAffinity -2.811373
REMARK minimizedRMSD -1
REMARK  0 active torsions:
REMARK  status: ('A' for Active; 'I' for Inactive)
ROOT
ATOM      1  O1  BZF d   1      -1.522  -0.953   1.467  0.00  0.00    -0.204 OA
ATOM      2  C2  BZF d   1      -1.880   0.310   1.036  0.00  0.00     0.174 A 
ATOM      3  C3  BZF d   1      -0.816   0.957   0.517  0.00  0.00    -0.012 A 
ATOM      4  C3A BZF d   1       0.253   0.007   0.547  0.00  0.00    -0.107 A 
ATOM      5  C4  BZF d   1       1.560   0.051   0.152  0.00  0.00     0.055 A 
ATOM      6  C5  BZF d   1       2.358  -1.023   0.387  0.00  0.00    -0.016 A 
ATOM      7  C6  BZF d   1       1.885  -2.154   1.019  0.00  0.00     0.022 A 
ATOM      8  C7  BZF d   1       0.595  -2.247   1.424  0.00  0.00     0.029 A 
ATOM      9  C7A BZF d   1      -0.222  -1.176   1.158  0.00  0.00     0.058 A 
ENDROOT
TORSDOF 0
ENDMDL
