MODEL 1
REMARK minimizedAffinity -5.73904371
REMARK minimizedRMSD -1
REMARK  0 active torsions:
REMARK  status: ('A' for Active; 'I' for Inactive)
ROOT
ATOM      1  O1  BZF d   1       1.161   1.325  -1.150  0.00  0.00    -0.204 OA
ATOM      2  C2  BZF d   1       0.639   0.361  -1.990  0.00  0.00     0.174 A 
ATOM      3  C3  BZF d   1       0.894  -0.876  -1.517  0.00  0.00    -0.012 A 
ATOM      4  C3A BZF d   1       1.542  -0.671  -0.258  0.00  0.00    -0.107 A 
ATOM      5  C4  BZF d   1       2.026  -1.517   0.698  0.00  0.00     0.055 A 
ATOM      6  C5  BZF d   1       2.667  -0.997   1.778  0.00  0.00    -0.016 A 
ATOM      7  C6  BZF d   1       2.846   0.362   1.930  0.00  0.00     0.022 A 
ATOM      8  C7  BZF d   1       2.379   1.242   1.011  0.00  0.00     0.029 A 
ATOM      9  C7A BZF d   1       1.702   0.721  -0.064  0.00  0.00     0.058 A 
ENDROOT
TORSDOF 0
ENDMDL
