MODEL 1
REMARK minimizedAffinity -1.77149355
REMARK minimizedRMSD -1
REMARK  0 active torsions:
REMARK  status: ('A' for Active; 'I' for Inactive)
ROOT
ATOM      1  O1  BZF d   1       1.748   1.548   0.425  0.00  0.00    -0.204 OA
ATOM      2  C2  BZF d   1       2.945   1.127   0.970  0.00  0.00     0.174 A 
ATOM      3  C3  BZF d   1       2.906  -0.192   1.249  0.00  0.00    -0.012 A 
ATOM      4  C3A BZF d   1       1.636  -0.641   0.768  0.00  0.00    -0.107 A 
ATOM      5  C4  BZF d   1       1.018  -1.859   0.743  0.00  0.00     0.055 A 
ATOM      6  C5  BZF d   1      -0.253  -1.945   0.270  0.00  0.00    -0.016 A 
ATOM      7  C6  BZF d   1      -0.937  -0.835  -0.181  0.00  0.00     0.022 A 
ATOM      8  C7  BZF d   1      -0.364   0.393  -0.180  0.00  0.00     0.029 A 
ATOM      9  C7A BZF d   1       0.932   0.478   0.267  0.00  0.00     0.058 A 
ENDROOT
TORSDOF 0
ENDMDL
