MODEL 1
REMARK minimizedAffinity -3.94298005
REMARK minimizedRMSD -1
REMARK  0 active torsions:
REMARK  status: ('A' for Active; 'I' for Inactive)
ROOT
ATOM      1  O1  BZF d   1      -0.417  -1.082   0.317  0.00  0.00    -0.204 OA
ATOM      2  C2  BZF d   1      -1.473  -0.340  -0.175  0.00  0.00     0.174 A 
ATOM      3  C3  BZF d   1      -1.102   0.940  -0.383  0.00  0.00    -0.012 A 
ATOM      4  C3A BZF d   1       0.297   0.979  -0.085  0.00  0.00    -0.107 A 
ATOM      5  C4  BZF d   1       1.237   1.970  -0.118  0.00  0.00     0.055 A 
ATOM      6  C5  BZF d   1       2.499   1.697   0.304  0.00  0.00    -0.016 A 
ATOM      7  C6  BZF d   1       2.855   0.448   0.770  0.00  0.00     0.022 A 
ATOM      8  C7  BZF d   1       1.959  -0.568   0.818  0.00  0.00     0.029 A 
ATOM      9  C7A BZF d   1       0.690  -0.304   0.361  0.00  0.00     0.058 A 
ENDROOT
TORSDOF 0
ENDMDL
