MODEL 1
REMARK minimizedAffinity 3.72826099
REMARK minimizedRMSD -1
REMARK  0 active torsions:
REMARK  status: ('A' for Active; 'I' for Inactive)
ROOT
ATOM      1  O1  BZF d   1      -5.864   5.395  -4.422  0.00  0.00    -0.204 OA
ATOM      2  C2  BZF d   1      -5.887   5.915  -3.142  0.00  0.00     0.174 A 
ATOM      3  C3  BZF d   1      -5.994   4.930  -2.227  0.00  0.00    -0.012 A 
ATOM      4  C3A BZF d   1      -5.948   3.713  -2.978  0.00  0.00    -0.107 A 
ATOM      5  C4  BZF d   1      -5.993   2.393  -2.630  0.00  0.00     0.055 A 
ATOM      6  C5  BZF d   1      -6.000   1.452  -3.610  0.00  0.00    -0.016 A 
ATOM      7  C6  BZF d   1      -5.967   1.794  -4.946  0.00  0.00     0.022 A 
ATOM      8  C7  BZF d   1      -5.917   3.090  -5.340  0.00  0.00     0.029 A 
ATOM      9  C7A BZF d   1      -5.877   4.043  -4.351  0.00  0.00     0.058 A 
ENDROOT
TORSDOF 0
ENDMDL
