MODEL 1
REMARK minimizedAffinity 1.29130387
REMARK minimizedRMSD -1
REMARK  0 active torsions:
REMARK  status: ('A' for Active; 'I' for Inactive)
ROOT
ATOM      1  O1  BZF d   1      -0.382   1.005  -0.451  0.00  0.00    -0.204 OA
ATOM      2  C2  BZF d   1      -1.127   0.517  -1.507  0.00  0.00     0.174 A 
ATOM      3  C3  BZF d   1      -1.565   1.524  -2.290  0.00  0.00    -0.012 A 
ATOM      4  C3A BZF d   1      -0.985   2.710  -1.736  0.00  0.00    -0.107 A 
ATOM      5  C4  BZF d   1      -1.037   4.030  -2.083  0.00  0.00     0.055 A 
ATOM      6  C5  BZF d   1      -0.418   4.945  -1.291  0.00  0.00    -0.016 A 
ATOM      7  C6  BZF d   1       0.255   4.577  -0.145  0.00  0.00     0.022 A 
ATOM      8  C7  BZF d   1       0.338   3.279   0.237  0.00  0.00     0.029 A 
ATOM      9  C7A BZF d   1      -0.258   2.348  -0.579  0.00  0.00     0.058 A 
ENDROOT
TORSDOF 0
ENDMDL
