MODEL 1
REMARK minimizedAffinity 12.7708931
REMARK minimizedRMSD -1
REMARK  0 active torsions:
REMARK  status: ('A' for Active; 'I' for Inactive)
ROOT
ATOM      1  O1  BZF d   1       3.646  -1.480  -0.981  0.00  0.00    -0.204 OA
ATOM      2  C2  BZF d   1       4.380  -2.626  -0.742  0.00  0.00     0.174 A 
ATOM      3  C3  BZF d   1       3.573  -3.704  -0.669  0.00  0.00    -0.012 A 
ATOM      4  C3A BZF d   1       2.262  -3.215  -0.966  0.00  0.00    -0.107 A 
ATOM      5  C4  BZF d   1       1.037  -3.810  -1.063  0.00  0.00     0.055 A 
ATOM      6  C5  BZF d   1      -0.056  -3.038  -1.297  0.00  0.00    -0.016 A 
ATOM      7  C6  BZF d   1       0.038  -1.668  -1.433  0.00  0.00     0.022 A 
ATOM      8  C7  BZF d   1       1.232  -1.033  -1.350  0.00  0.00     0.029 A 
ATOM      9  C7A BZF d   1       2.343  -1.815  -1.146  0.00  0.00     0.058 A 
ENDROOT
TORSDOF 0
ENDMDL
