MODEL 1
REMARK minimizedAffinity -0.0804951638
REMARK minimizedRMSD -1
REMARK  0 active torsions:
REMARK  status: ('A' for Active; 'I' for Inactive)
ROOT
ATOM      1  O1  BZF d   1      -1.886   5.346  -1.608  0.00  0.00    -0.204 OA
ATOM      2  C2  BZF d   1      -1.243   5.999  -2.642  0.00  0.00     0.174 A 
ATOM      3  C3  BZF d   1       0.095   5.873  -2.529  0.00  0.00    -0.012 A 
ATOM      4  C3A BZF d   1       0.298   5.014  -1.402  0.00  0.00    -0.107 A 
ATOM      5  C4  BZF d   1       1.412   4.505  -0.798  0.00  0.00     0.055 A 
ATOM      6  C5  BZF d   1       1.270   3.758   0.328  0.00  0.00    -0.016 A 
ATOM      7  C6  BZF d   1       0.032   3.505   0.880  0.00  0.00     0.022 A 
ATOM      8  C7  BZF d   1      -1.103   3.984   0.314  0.00  0.00     0.029 A 
ATOM      9  C7A BZF d   1      -0.965   4.712  -0.843  0.00  0.00     0.058 A 
ENDROOT
TORSDOF 0
ENDMDL
