MODEL 1
REMARK minimizedAffinity 3.78389192
REMARK minimizedRMSD -1
REMARK  0 active torsions:
REMARK  status: ('A' for Active; 'I' for Inactive)
ROOT
ATOM      1  O1  BZF d   1      -1.329   3.049   1.204  0.00  0.00    -0.204 OA
ATOM      2  C2  BZF d   1      -0.135   2.567   1.705  0.00  0.00     0.174 A 
ATOM      3  C3  BZF d   1       0.884   2.852   0.869  0.00  0.00    -0.012 A 
ATOM      4  C3A BZF d   1       0.305   3.638  -0.177  0.00  0.00    -0.107 A 
ATOM      5  C4  BZF d   1       0.814   4.235  -1.294  0.00  0.00     0.055 A 
ATOM      6  C5  BZF d   1      -0.032   4.868  -2.149  0.00  0.00    -0.016 A 
ATOM      7  C6  BZF d   1      -1.392   4.918  -1.920  0.00  0.00     0.022 A 
ATOM      8  C7  BZF d   1      -1.943   4.345  -0.823  0.00  0.00     0.029 A 
ATOM      9  C7A BZF d   1      -1.086   3.733   0.060  0.00  0.00     0.058 A 
ENDROOT
TORSDOF 0
ENDMDL
