MODEL 1
REMARK minimizedAffinity 10.3202372
REMARK minimizedRMSD -1
REMARK  0 active torsions:
REMARK  status: ('A' for Active; 'I' for Inactive)
ROOT
ATOM      1  O1  BZF d   1      -5.976   0.821  -2.341  0.00  0.00    -0.204 OA
ATOM      2  C2  BZF d   1      -5.976   1.950  -1.544  0.00  0.00     0.174 A 
ATOM      3  C3  BZF d   1      -5.902   3.067  -2.297  0.00  0.00    -0.012 A 
ATOM      4  C3A BZF d   1      -5.947   2.611  -3.652  0.00  0.00    -0.107 A 
ATOM      5  C4  BZF d   1      -5.926   3.250  -4.859  0.00  0.00     0.055 A 
ATOM      6  C5  BZF d   1      -5.910   2.510  -5.998  0.00  0.00    -0.016 A 
ATOM      7  C6  BZF d   1      -5.908   1.131  -5.968  0.00  0.00     0.022 A 
ATOM      8  C7  BZF d   1      -5.933   0.452  -4.795  0.00  0.00     0.029 A 
ATOM      9  C7A BZF d   1      -5.983   1.198  -3.643  0.00  0.00     0.058 A 
ENDROOT
TORSDOF 0
ENDMDL
