MODEL 1
REMARK minimizedAffinity 4.09407902
REMARK minimizedRMSD -1
REMARK  0 active torsions:
REMARK  status: ('A' for Active; 'I' for Inactive)
ROOT
ATOM      1  O1  BZF d   1       1.536   4.420  -0.935  0.00  0.00    -0.204 OA
ATOM      2  C2  BZF d   1       0.818   3.811   0.075  0.00  0.00     0.174 A 
ATOM      3  C3  BZF d   1      -0.508   3.947  -0.132  0.00  0.00    -0.012 A 
ATOM      4  C3A BZF d   1      -0.626   4.608  -1.395  0.00  0.00    -0.107 A 
ATOM      5  C4  BZF d   1      -1.692   5.008  -2.150  0.00  0.00     0.055 A 
ATOM      6  C5  BZF d   1      -1.466   5.693  -3.301  0.00  0.00    -0.016 A 
ATOM      7  C6  BZF d   1      -0.189   5.999  -3.725  0.00  0.00     0.022 A 
ATOM      8  C7  BZF d   1       0.900   5.619  -3.013  0.00  0.00     0.029 A 
ATOM      9  C7A BZF d   1       0.675   4.898  -1.866  0.00  0.00     0.058 A 
ENDROOT
TORSDOF 0
ENDMDL
