MODEL 1
REMARK minimizedAffinity 8.56592083
REMARK minimizedRMSD -1
REMARK  0 active torsions:
REMARK  status: ('A' for Active; 'I' for Inactive)
ROOT
ATOM      1  O1  BZF d   1       5.146  -6.000  -1.963  0.00  0.00    -0.204 OA
ATOM      2  C2  BZF d   1       4.147  -5.999  -2.918  0.00  0.00     0.174 A 
ATOM      3  C3  BZF d   1       3.497  -4.818  -2.929  0.00  0.00    -0.012 A 
ATOM      4  C3A BZF d   1       4.189  -3.998  -1.982  0.00  0.00    -0.107 A 
ATOM      5  C4  BZF d   1       4.026  -2.710  -1.559  0.00  0.00     0.055 A 
ATOM      6  C5  BZF d   1       4.825  -2.235  -0.568  0.00  0.00    -0.016 A 
ATOM      7  C6  BZF d   1       5.792  -3.020   0.025  0.00  0.00     0.022 A 
ATOM      8  C7  BZF d   1       5.994  -4.302  -0.364  0.00  0.00     0.029 A 
ATOM      9  C7A BZF d   1       5.211  -4.775  -1.388  0.00  0.00     0.058 A 
ENDROOT
TORSDOF 0
ENDMDL
