MODEL 1
REMARK minimizedAffinity 16.8195553
REMARK minimizedRMSD -1
REMARK  2 active torsions:
REMARK  status: ('A' for Active; 'I' for Inactive)
REMARK    1  A    between atoms: C2'_3  and  C1'_4 
REMARK    2  A    between atoms: C1'_4  and  C1_5 
ROOT
ATOM      1  C1  I4B d   1       5.225   4.756  -2.069  0.00  0.00    -0.075 A 
ATOM      2  C2  I4B d   1       5.616   3.604  -1.435  0.00  0.00     0.003 A 
ATOM      3  C3  I4B d   1       5.987   3.633  -0.069  0.00  0.00     0.002 A 
ATOM      4  C4  I4B d   1       6.000   4.836   0.607  0.00  0.00    -0.004 A 
ATOM      5  C5  I4B d   1       5.581   6.000  -0.032  0.00  0.00     0.002 A 
ATOM      6  C6  I4B d   1       5.179   5.958  -1.375  0.00  0.00     0.003 A 
ENDROOT
BRANCH   1   7
ATOM      7  C1' I4B d   1       4.871   4.695  -3.521  0.00  0.00     0.060 C 
BRANCH   7   8
ATOM      8  C2' I4B d   1       4.230   3.349  -3.790  0.00  0.00    -0.013 C 
ATOM      9  C4' I4B d   1       2.886   3.242  -3.120  0.00  0.00     0.013 C 
ATOM     10  C3' I4B d   1       4.110   3.181  -5.275  0.00  0.00     0.013 C 
ENDBRANCH   7   8
ENDBRANCH   1   7
TORSDOF 2
ENDMDL
