MODEL 1
REMARK minimizedAffinity 13.7823944
REMARK minimizedRMSD -1
REMARK  2 active torsions:
REMARK  status: ('A' for Active; 'I' for Inactive)
REMARK    1  A    between atoms: C2'_3  and  C1'_4 
REMARK    2  A    between atoms: C1'_4  and  C1_5 
ROOT
ATOM      1  C1  I4B d   1      -0.967  -1.798   2.503  0.00  0.00    -0.075 A 
ATOM      2  C2  I4B d   1      -1.253  -1.318   3.757  0.00  0.00     0.003 A 
ATOM      3  C3  I4B d   1      -2.313  -0.398   3.943  0.00  0.00     0.002 A 
ATOM      4  C4  I4B d   1      -3.024   0.051   2.848  0.00  0.00    -0.004 A 
ATOM      5  C5  I4B d   1      -2.747  -0.455   1.581  0.00  0.00     0.002 A 
ATOM      6  C6  I4B d   1      -1.721  -1.394   1.409  0.00  0.00     0.003 A 
ENDROOT
BRANCH   1   7
ATOM      7  C1' I4B d   1       0.180  -2.744   2.338  0.00  0.00     0.060 C 
BRANCH   7   8
ATOM      8  C2' I4B d   1       1.202  -2.429   3.411  0.00  0.00    -0.013 C 
ATOM      9  C4' I4B d   1       1.630  -3.677   4.139  0.00  0.00     0.013 C 
ATOM     10  C3' I4B d   1       2.371  -1.758   2.754  0.00  0.00     0.013 C 
ENDBRANCH   7   8
ENDBRANCH   1   7
TORSDOF 2
ENDMDL
