MODEL 1
REMARK minimizedAffinity 21.2942772
REMARK minimizedRMSD -1
REMARK  2 active torsions:
REMARK  status: ('A' for Active; 'I' for Inactive)
REMARK    1  A    between atoms: C2'_3  and  C1'_4 
REMARK    2  A    between atoms: C1'_4  and  C1_5 
ROOT
ATOM      1  C1  I4B d   1      -0.153  -1.877   2.553  0.00  0.00    -0.075 A 
ATOM      2  C2  I4B d   1       0.569  -1.034   3.361  0.00  0.00     0.003 A 
ATOM      3  C3  I4B d   1       1.876  -1.389   3.774  0.00  0.00     0.002 A 
ATOM      4  C4  I4B d   1       2.399  -2.610   3.401  0.00  0.00    -0.004 A 
ATOM      5  C5  I4B d   1       1.675  -3.453   2.563  0.00  0.00     0.002 A 
ATOM      6  C6  I4B d   1       0.396  -3.079   2.126  0.00  0.00     0.003 A 
ENDROOT
BRANCH   1   7
ATOM      7  C1' I4B d   1      -1.543  -1.486   2.162  0.00  0.00     0.060 C 
BRANCH   7   8
ATOM      8  C2' I4B d   1      -2.008  -2.437   1.078  0.00  0.00    -0.013 C 
ATOM      9  C4' I4B d   1      -3.099  -3.345   1.582  0.00  0.00     0.013 C 
ATOM     10  C3' I4B d   1      -2.479  -1.618  -0.086  0.00  0.00     0.013 C 
ENDBRANCH   7   8
ENDBRANCH   1   7
TORSDOF 2
ENDMDL
