MODEL 1
REMARK minimizedAffinity 24.4580784
REMARK minimizedRMSD -1
REMARK  2 active torsions:
REMARK  status: ('A' for Active; 'I' for Inactive)
REMARK    1  A    between atoms: C2'_3  and  C1'_4 
REMARK    2  A    between atoms: C1'_4  and  C1_5 
ROOT
ATOM      1  C1  I4B d   1      -2.605  -1.978   0.994  0.00  0.00    -0.075 A 
ATOM      2  C2  I4B d   1      -3.583  -1.215   0.406  0.00  0.00     0.003 A 
ATOM      3  C3  I4B d   1      -4.919  -1.680   0.360  0.00  0.00     0.002 A 
ATOM      4  C4  I4B d   1      -5.222  -2.928   0.866  0.00  0.00    -0.004 A 
ATOM      5  C5  I4B d   1      -4.233  -3.690   1.482  0.00  0.00     0.002 A 
ATOM      6  C6  I4B d   1      -2.919  -3.207   1.558  0.00  0.00     0.003 A 
ENDROOT
BRANCH   1   7
ATOM      7  C1' I4B d   1      -1.198  -1.470   0.995  0.00  0.00     0.060 C 
BRANCH   7   8
ATOM      8  C2' I4B d   1      -0.746  -1.352   2.436  0.00  0.00    -0.013 C 
ATOM      9  C4' I4B d   1       0.732  -1.610   2.567  0.00  0.00     0.013 C 
ATOM     10  C3' I4B d   1      -1.100   0.022   2.922  0.00  0.00     0.013 C 
ENDBRANCH   7   8
ENDBRANCH   1   7
TORSDOF 2
ENDMDL
