MODEL 1
REMARK minimizedAffinity 19.7192688
REMARK minimizedRMSD -1
REMARK  2 active torsions:
REMARK  status: ('A' for Active; 'I' for Inactive)
REMARK    1  A    between atoms: C2'_3  and  C1'_4 
REMARK    2  A    between atoms: C1'_4  and  C1_5 
ROOT
ATOM      1  C1  I4B d   1       3.558  -1.529  -0.185  0.00  0.00    -0.075 A 
ATOM      2  C2  I4B d   1       3.359  -0.333  -0.829  0.00  0.00     0.003 A 
ATOM      3  C3  I4B d   1       2.631   0.704  -0.197  0.00  0.00     0.002 A 
ATOM      4  C4  I4B d   1       2.081   0.487   1.049  0.00  0.00    -0.004 A 
ATOM      5  C5  I4B d   1       2.303  -0.718   1.710  0.00  0.00     0.002 A 
ATOM      6  C6  I4B d   1       3.057  -1.728   1.094  0.00  0.00     0.003 A 
ENDROOT
BRANCH   1   7
ATOM      7  C1' I4B d   1       4.303  -2.614  -0.895  0.00  0.00     0.060 C 
BRANCH   7   8
ATOM      8  C2' I4B d   1       4.444  -3.784   0.058  0.00  0.00    -0.013 C 
ATOM      9  C4' I4B d   1       3.411  -4.844  -0.223  0.00  0.00     0.013 C 
ATOM     10  C3' I4B d   1       5.833  -4.331  -0.083  0.00  0.00     0.013 C 
ENDBRANCH   7   8
ENDBRANCH   1   7
TORSDOF 2
ENDMDL
