MODEL 1
REMARK minimizedAffinity 6.05211735
REMARK minimizedRMSD -1
REMARK  2 active torsions:
REMARK  status: ('A' for Active; 'I' for Inactive)
REMARK    1  A    between atoms: C2'_3  and  C1'_4 
REMARK    2  A    between atoms: C1'_4  and  C1_5 
ROOT
ATOM      1  C1  I4B d   1      -0.304  -2.612   2.032  0.00  0.00    -0.075 A 
ATOM      2  C2  I4B d   1      -0.042  -3.837   1.472  0.00  0.00     0.003 A 
ATOM      3  C3  I4B d   1      -1.026  -4.489   0.689  0.00  0.00     0.002 A 
ATOM      4  C4  I4B d   1      -2.267  -3.906   0.535  0.00  0.00    -0.004 A 
ATOM      5  C5  I4B d   1      -2.524  -2.654   1.085  0.00  0.00     0.002 A 
ATOM      6  C6  I4B d   1      -1.532  -1.996   1.828  0.00  0.00     0.003 A 
ENDROOT
BRANCH   1   7
ATOM      7  C1' I4B d   1       0.746  -1.968   2.881  0.00  0.00     0.060 C 
BRANCH   7   8
ATOM      8  C2' I4B d   1       1.883  -2.955   3.046  0.00  0.00    -0.013 C 
ATOM      9  C4' I4B d   1       3.209  -2.319   2.723  0.00  0.00     0.013 C 
ATOM     10  C3' I4B d   1       1.855  -3.461   4.457  0.00  0.00     0.013 C 
ENDBRANCH   7   8
ENDBRANCH   1   7
TORSDOF 2
ENDMDL
