MODEL 1
REMARK minimizedAffinity 19.6434097
REMARK minimizedRMSD -1
REMARK  2 active torsions:
REMARK  status: ('A' for Active; 'I' for Inactive)
REMARK    1  A    between atoms: C2'_3  and  C1'_4 
REMARK    2  A    between atoms: C1'_4  and  C1_5 
ROOT
ATOM      1  C1  I4B d   1       4.846   4.008  -2.990  0.00  0.00    -0.075 A 
ATOM      2  C2  I4B d   1       5.113   3.713  -4.304  0.00  0.00     0.003 A 
ATOM      3  C3  I4B d   1       4.120   3.111  -5.115  0.00  0.00     0.002 A 
ATOM      4  C4  I4B d   1       2.901   2.779  -4.562  0.00  0.00    -0.004 A 
ATOM      5  C5  I4B d   1       2.624   3.100  -3.237  0.00  0.00     0.002 A 
ATOM      6  C6  I4B d   1       3.598   3.729  -2.448  0.00  0.00     0.003 A 
ENDROOT
BRANCH   1   7
ATOM      7  C1' I4B d   1       5.928   4.613  -2.153  0.00  0.00     0.060 C 
BRANCH   7   8
ATOM      8  C2' I4B d   1       5.488   4.549  -0.705  0.00  0.00    -0.013 C 
ATOM      9  C4' I4B d   1       5.995   3.299  -0.036  0.00  0.00     0.013 C 
ATOM     10  C3' I4B d   1       5.998   5.778  -0.012  0.00  0.00     0.013 C 
ENDBRANCH   7   8
ENDBRANCH   1   7
TORSDOF 2
ENDMDL
