MODEL 1
REMARK minimizedAffinity 22.0073414
REMARK minimizedRMSD -1
REMARK  2 active torsions:
REMARK  status: ('A' for Active; 'I' for Inactive)
REMARK    1  A    between atoms: C2'_3  and  C1'_4 
REMARK    2  A    between atoms: C1'_4  and  C1_5 
ROOT
ATOM      1  C1  I4B d   1      -2.798  -2.616   0.175  0.00  0.00    -0.075 A 
ATOM      2  C2  I4B d   1      -3.733  -3.121   1.043  0.00  0.00     0.003 A 
ATOM      3  C3  I4B d   1      -3.776  -4.510   1.317  0.00  0.00     0.002 A 
ATOM      4  C4  I4B d   1      -2.903  -5.358   0.665  0.00  0.00    -0.004 A 
ATOM      5  C5  I4B d   1      -1.941  -4.841  -0.198  0.00  0.00     0.002 A 
ATOM      6  C6  I4B d   1      -1.880  -3.460  -0.435  0.00  0.00     0.003 A 
ENDROOT
BRANCH   1   7
ATOM      7  C1' I4B d   1      -2.803  -1.149  -0.116  0.00  0.00     0.060 C 
BRANCH   7   8
ATOM      8  C2' I4B d   1      -4.193  -0.771  -0.588  0.00  0.00    -0.013 C 
ATOM      9  C4' I4B d   1      -4.554   0.626  -0.156  0.00  0.00     0.013 C 
ATOM     10  C3' I4B d   1      -4.225  -0.902  -2.082  0.00  0.00     0.013 C 
ENDBRANCH   7   8
ENDBRANCH   1   7
TORSDOF 2
ENDMDL
