MODEL 1
REMARK minimizedAffinity 15.665864
REMARK minimizedRMSD -1
REMARK  2 active torsions:
REMARK  status: ('A' for Active; 'I' for Inactive)
REMARK    1  A    between atoms: C2'_3  and  C1'_4 
REMARK    2  A    between atoms: C1'_4  and  C1_5 
ROOT
ATOM      1  C1  I4B d   1      -0.637  -0.941   2.655  0.00  0.00    -0.075 A 
ATOM      2  C2  I4B d   1       0.122  -2.050   2.376  0.00  0.00     0.003 A 
ATOM      3  C3  I4B d   1       0.958  -2.610   3.372  0.00  0.00     0.002 A 
ATOM      4  C4  I4B d   1       1.042  -2.004   4.609  0.00  0.00    -0.004 A 
ATOM      5  C5  I4B d   1       0.254  -0.894   4.897  0.00  0.00     0.002 A 
ATOM      6  C6  I4B d   1      -0.601  -0.366   3.918  0.00  0.00     0.003 A 
ENDROOT
BRANCH   1   7
ATOM      7  C1' I4B d   1      -1.484  -0.356   1.569  0.00  0.00     0.060 C 
BRANCH   7   8
ATOM      8  C2' I4B d   1      -1.700  -1.426   0.518  0.00  0.00    -0.013 C 
ATOM      9  C4' I4B d   1      -2.400  -2.626   1.097  0.00  0.00     0.013 C 
ATOM     10  C3' I4B d   1      -2.496  -0.821  -0.600  0.00  0.00     0.013 C 
ENDBRANCH   7   8
ENDBRANCH   1   7
TORSDOF 2
ENDMDL
