MODEL 1
REMARK minimizedAffinity 13.1205101
REMARK minimizedRMSD -1
REMARK  2 active torsions:
REMARK  status: ('A' for Active; 'I' for Inactive)
REMARK    1  A    between atoms: C2'_3  and  C1'_4 
REMARK    2  A    between atoms: C1'_4  and  C1_5 
ROOT
ATOM      1  C1  I4B d   1       2.811   1.825  -1.215  0.00  0.00    -0.075 A 
ATOM      2  C2  I4B d   1       1.934   1.106  -0.442  0.00  0.00     0.003 A 
ATOM      3  C3  I4B d   1       2.233   0.841   0.916  0.00  0.00     0.002 A 
ATOM      4  C4  I4B d   1       3.435   1.268   1.444  0.00  0.00    -0.004 A 
ATOM      5  C5  I4B d   1       4.312   2.017   0.665  0.00  0.00     0.002 A 
ATOM      6  C6  I4B d   1       3.994   2.308  -0.670  0.00  0.00     0.003 A 
ENDROOT
BRANCH   1   7
ATOM      7  C1' I4B d   1       2.479   2.058  -2.655  0.00  0.00     0.060 C 
BRANCH   7   8
ATOM      8  C2' I4B d   1       2.985   3.435  -3.034  0.00  0.00    -0.013 C 
ATOM      9  C4' I4B d   1       3.649   3.419  -4.386  0.00  0.00     0.013 C 
ATOM     10  C3' I4B d   1       1.819   4.378  -3.014  0.00  0.00     0.013 C 
ENDBRANCH   7   8
ENDBRANCH   1   7
TORSDOF 2
ENDMDL
