MODEL 1
REMARK minimizedAffinity 18.6176491
REMARK minimizedRMSD -1
REMARK  2 active torsions:
REMARK  status: ('A' for Active; 'I' for Inactive)
REMARK    1  A    between atoms: C2'_3  and  C1'_4 
REMARK    2  A    between atoms: C1'_4  and  C1_5 
ROOT
ATOM      1  C1  I4B d   1       4.678   4.264  -3.852  0.00  0.00    -0.075 A 
ATOM      2  C2  I4B d   1       4.441   4.033  -5.184  0.00  0.00     0.003 A 
ATOM      3  C3  I4B d   1       3.217   3.454  -5.601  0.00  0.00     0.002 A 
ATOM      4  C4  I4B d   1       2.286   3.079  -4.654  0.00  0.00    -0.004 A 
ATOM      5  C5  I4B d   1       2.519   3.334  -3.306  0.00  0.00     0.002 A 
ATOM      6  C6  I4B d   1       3.717   3.942  -2.903  0.00  0.00     0.003 A 
ENDROOT
BRANCH   1   7
ATOM      7  C1' I4B d   1       5.994   4.846  -3.445  0.00  0.00     0.060 C 
BRANCH   7   8
ATOM      8  C2' I4B d   1       5.887   5.274  -1.995  0.00  0.00    -0.013 C 
ATOM      9  C4' I4B d   1       4.593   6.000  -1.736  0.00  0.00     0.013 C 
ATOM     10  C3' I4B d   1       6.000   4.047  -1.141  0.00  0.00     0.013 C 
ENDBRANCH   7   8
ENDBRANCH   1   7
TORSDOF 2
ENDMDL
