MODEL 1
REMARK minimizedAffinity 17.3749161
REMARK minimizedRMSD -1
REMARK  2 active torsions:
REMARK  status: ('A' for Active; 'I' for Inactive)
REMARK    1  A    between atoms: C2'_3  and  C1'_4 
REMARK    2  A    between atoms: C1'_4  and  C1_5 
ROOT
ATOM      1  C1  I4B d   1       3.365   2.031   0.700  0.00  0.00    -0.075 A 
ATOM      2  C2  I4B d   1       3.647   0.738   1.065  0.00  0.00     0.003 A 
ATOM      3  C3  I4B d   1       3.107  -0.344   0.329  0.00  0.00     0.002 A 
ATOM      4  C4  I4B d   1       2.255  -0.091  -0.727  0.00  0.00    -0.004 A 
ATOM      5  C5  I4B d   1       1.990   1.221  -1.110  0.00  0.00     0.002 A 
ATOM      6  C6  I4B d   1       2.558   2.289  -0.400  0.00  0.00     0.003 A 
ENDROOT
BRANCH   1   7
ATOM      7  C1' I4B d   1       3.926   3.150   1.519  0.00  0.00     0.060 C 
BRANCH   7   8
ATOM      8  C2' I4B d   1       5.435   3.010   1.530  0.00  0.00    -0.013 C 
ATOM      9  C4' I4B d   1       5.995   3.045   0.133  0.00  0.00     0.013 C 
ATOM     10  C3' I4B d   1       5.996   4.121   2.367  0.00  0.00     0.013 C 
ENDBRANCH   7   8
ENDBRANCH   1   7
TORSDOF 2
ENDMDL
