MODEL 1
REMARK minimizedAffinity 13.7463675
REMARK minimizedRMSD -1
REMARK  2 active torsions:
REMARK  status: ('A' for Active; 'I' for Inactive)
REMARK    1  A    between atoms: C2'_3  and  C1'_4 
REMARK    2  A    between atoms: C1'_4  and  C1_5 
ROOT
ATOM      1  C1  I4B d   1       3.063   4.188  -2.360  0.00  0.00    -0.075 A 
ATOM      2  C2  I4B d   1       3.401   2.986  -1.789  0.00  0.00     0.003 A 
ATOM      3  C3  I4B d   1       2.660   1.819  -2.093  0.00  0.00     0.002 A 
ATOM      4  C4  I4B d   1       1.565   1.908  -2.928  0.00  0.00    -0.004 A 
ATOM      5  C5  I4B d   1       1.238   3.122  -3.524  0.00  0.00     0.002 A 
ATOM      6  C6  I4B d   1       1.999   4.267  -3.249  0.00  0.00     0.003 A 
ENDROOT
BRANCH   1   7
ATOM      7  C1' I4B d   1       3.848   5.407  -1.991  0.00  0.00     0.060 C 
BRANCH   7   8
ATOM      8  C2' I4B d   1       5.308   5.013  -1.902  0.00  0.00    -0.013 C 
ATOM      9  C4' I4B d   1       5.947   4.973  -3.265  0.00  0.00     0.013 C 
ATOM     10  C3' I4B d   1       6.000   5.999  -1.009  0.00  0.00     0.013 C 
ENDBRANCH   7   8
ENDBRANCH   1   7
TORSDOF 2
ENDMDL
