MODEL 1
REMARK minimizedAffinity 13.2538881
REMARK minimizedRMSD -1
REMARK  2 active torsions:
REMARK  status: ('A' for Active; 'I' for Inactive)
REMARK    1  A    between atoms: C2'_3  and  C1'_4 
REMARK    2  A    between atoms: C1'_4  and  C1_5 
ROOT
ATOM      1  C1  I4B d   1      -1.010  -2.413   2.132  0.00  0.00    -0.075 A 
ATOM      2  C2  I4B d   1      -0.663  -3.578   1.494  0.00  0.00     0.003 A 
ATOM      3  C3  I4B d   1      -1.666  -4.450   1.007  0.00  0.00     0.002 A 
ATOM      4  C4  I4B d   1      -2.995  -4.145   1.221  0.00  0.00    -0.004 A 
ATOM      5  C5  I4B d   1      -3.345  -2.952   1.847  0.00  0.00     0.002 A 
ATOM      6  C6  I4B d   1      -2.347  -2.074   2.294  0.00  0.00     0.003 A 
ENDROOT
BRANCH   1   7
ATOM      7  C1' I4B d   1       0.075  -1.531   2.663  0.00  0.00     0.060 C 
BRANCH   7   8
ATOM      8  C2' I4B d   1       1.311  -2.383   2.868  0.00  0.00    -0.013 C 
ATOM      9  C4' I4B d   1       2.567  -1.569   2.705  0.00  0.00     0.013 C 
ATOM     10  C3' I4B d   1       1.232  -2.990   4.237  0.00  0.00     0.013 C 
ENDBRANCH   7   8
ENDBRANCH   1   7
TORSDOF 2
ENDMDL
