MODEL 1
REMARK minimizedAffinity 15.5942698
REMARK minimizedRMSD -1
REMARK  2 active torsions:
REMARK  status: ('A' for Active; 'I' for Inactive)
REMARK    1  A    between atoms: C2'_3  and  C1'_4 
REMARK    2  A    between atoms: C1'_4  and  C1_5 
ROOT
ATOM      1  C1  I4B d   1      -3.831   0.428   1.791  0.00  0.00    -0.075 A 
ATOM      2  C2  I4B d   1      -3.177   1.185   2.731  0.00  0.00     0.003 A 
ATOM      3  C3  I4B d   1      -1.906   0.784   3.209  0.00  0.00     0.002 A 
ATOM      4  C4  I4B d   1      -1.353  -0.398   2.761  0.00  0.00    -0.004 A 
ATOM      5  C5  I4B d   1      -2.007  -1.152   1.792  0.00  0.00     0.002 A 
ATOM      6  C6  I4B d   1      -3.249  -0.731   1.294  0.00  0.00     0.003 A 
ENDROOT
BRANCH   1   7
ATOM      7  C1' I4B d   1      -5.187   0.863   1.332  0.00  0.00     0.060 C 
BRANCH   7   8
ATOM      8  C2' I4B d   1      -5.121   1.096  -0.163  0.00  0.00    -0.013 C 
ATOM      9  C4' I4B d   1      -5.811  -0.009  -0.919  0.00  0.00     0.013 C 
ATOM     10  C3' I4B d   1      -5.751   2.426  -0.453  0.00  0.00     0.013 C 
ENDBRANCH   7   8
ENDBRANCH   1   7
TORSDOF 2
ENDMDL
