MODEL 1
REMARK minimizedAffinity 7.05306816
REMARK minimizedRMSD -1
REMARK  0 active torsions:
REMARK  status: ('A' for Active; 'I' for Inactive)
ROOT
ATOM      1  C   UNL d   1      -5.882  -4.807   6.000  0.00  0.00     0.020 A 
ATOM      2  C1  UNL d   1      -6.000  -5.967   5.234  0.00  0.00     0.020 A 
ATOM      3  C2  UNL d   1      -5.492  -5.999   3.934  0.00  0.00     0.034 A 
ATOM      4  C3  UNL d   1      -4.865  -4.870   3.394  0.00  0.00     0.017 A 
ATOM      5  C4  UNL d   1      -4.748  -3.706   4.164  0.00  0.00     0.017 A 
ATOM      6  C5  UNL d   1      -5.258  -3.680   5.465  0.00  0.00     0.034 A 
ATOM      7 Cl   UNL d   1      -3.988  -2.273   3.567  0.00  0.00    -0.070 Cl
ATOM      8 Cl1  UNL d   1      -4.261  -4.980   1.780  0.00  0.00    -0.070 Cl
ENDROOT
TORSDOF 0
ENDMDL
