MODEL 1
REMARK minimizedAffinity 10.6675014
REMARK minimizedRMSD -1
REMARK  0 active torsions:
REMARK  status: ('A' for Active; 'I' for Inactive)
ROOT
ATOM      1  C   UNL d   1      -1.125  -0.027   1.682  0.00  0.00     0.020 A 
ATOM      2  C1  UNL d   1      -2.250   0.111   2.495  0.00  0.00     0.020 A 
ATOM      3  C2  UNL d   1      -3.151  -0.948   2.624  0.00  0.00     0.034 A 
ATOM      4  C3  UNL d   1      -2.930  -2.149   1.940  0.00  0.00     0.017 A 
ATOM      5  C4  UNL d   1      -1.800  -2.286   1.125  0.00  0.00     0.017 A 
ATOM      6  C5  UNL d   1      -0.901  -1.222   0.999  0.00  0.00     0.034 A 
ATOM      7 Cl   UNL d   1      -1.459  -3.737   0.249  0.00  0.00    -0.070 Cl
ATOM      8 Cl1  UNL d   1      -4.086  -3.416   2.146  0.00  0.00    -0.070 Cl
ENDROOT
TORSDOF 0
ENDMDL
