MODEL 1
REMARK minimizedAffinity 10.6892214
REMARK minimizedRMSD -1
REMARK  0 active torsions:
REMARK  status: ('A' for Active; 'I' for Inactive)
ROOT
ATOM      1  C   UNL d   1       5.041   4.725  -3.939  0.00  0.00     0.020 A 
ATOM      2  C1  UNL d   1       4.105   3.753  -4.288  0.00  0.00     0.020 A 
ATOM      3  C2  UNL d   1       3.739   2.772  -3.363  0.00  0.00     0.034 A 
ATOM      4  C3  UNL d   1       4.311   2.761  -2.086  0.00  0.00     0.017 A 
ATOM      5  C4  UNL d   1       5.251   3.737  -1.737  0.00  0.00     0.017 A 
ATOM      6  C5  UNL d   1       5.613   4.717  -2.667  0.00  0.00     0.034 A 
ATOM      7 Cl   UNL d   1       6.000   3.789  -0.180  0.00  0.00    -0.070 Cl
ATOM      8 Cl1  UNL d   1       3.813   1.519  -0.993  0.00  0.00    -0.070 Cl
ENDROOT
TORSDOF 0
ENDMDL
