MODEL 1
REMARK minimizedAffinity 15.1240978
REMARK minimizedRMSD -1
REMARK  0 active torsions:
REMARK  status: ('A' for Active; 'I' for Inactive)
ROOT
ATOM      1  C   UNL d   1      -1.224   0.267   1.868  0.00  0.00     0.020 A 
ATOM      2  C1  UNL d   1      -2.347   0.250   2.695  0.00  0.00     0.020 A 
ATOM      3  C2  UNL d   1      -3.171  -0.877   2.730  0.00  0.00     0.034 A 
ATOM      4  C3  UNL d   1      -2.874  -1.991   1.937  0.00  0.00     0.017 A 
ATOM      5  C4  UNL d   1      -1.747  -1.973   1.107  0.00  0.00     0.017 A 
ATOM      6  C5  UNL d   1      -0.925  -0.842   1.075  0.00  0.00     0.034 A 
ATOM      7 Cl   UNL d   1      -1.316  -3.310   0.100  0.00  0.00    -0.070 Cl
ATOM      8 Cl1  UNL d   1      -3.937  -3.351   2.031  0.00  0.00    -0.070 Cl
ENDROOT
TORSDOF 0
ENDMDL
