MODEL 1
REMARK minimizedAffinity 10.5749521
REMARK minimizedRMSD -1
REMARK  0 active torsions:
REMARK  status: ('A' for Active; 'I' for Inactive)
ROOT
ATOM      1  C   UNL d   1      -1.328  -0.379   3.158  0.00  0.00     0.020 A 
ATOM      2  C1  UNL d   1      -1.876  -0.887   1.981  0.00  0.00     0.020 A 
ATOM      3  C2  UNL d   1      -3.068  -0.358   1.481  0.00  0.00     0.034 A 
ATOM      4  C3  UNL d   1      -3.715   0.682   2.158  0.00  0.00     0.017 A 
ATOM      5  C4  UNL d   1      -3.164   1.192   3.339  0.00  0.00     0.017 A 
ATOM      6  C5  UNL d   1      -1.971   0.658   3.836  0.00  0.00     0.034 A 
ATOM      7 Cl   UNL d   1      -3.905   2.474   4.230  0.00  0.00    -0.070 Cl
ATOM      8 Cl1  UNL d   1      -5.185   1.289   1.481  0.00  0.00    -0.070 Cl
ENDROOT
TORSDOF 0
ENDMDL
