MODEL 1
REMARK minimizedAffinity 10.6886415
REMARK minimizedRMSD -1
REMARK  0 active torsions:
REMARK  status: ('A' for Active; 'I' for Inactive)
ROOT
ATOM      1  C   UNL d   1       5.830   3.029   0.598  0.00  0.00     0.020 A 
ATOM      2  C1  UNL d   1       5.381   2.661   1.866  0.00  0.00     0.020 A 
ATOM      3  C2  UNL d   1       4.295   1.794   1.997  0.00  0.00     0.034 A 
ATOM      4  C3  UNL d   1       3.652   1.293   0.859  0.00  0.00     0.017 A 
ATOM      5  C4  UNL d   1       4.103   1.663  -0.413  0.00  0.00     0.017 A 
ATOM      6  C5  UNL d   1       5.192   2.532  -0.539  0.00  0.00     0.034 A 
ATOM      7 Cl   UNL d   1       3.362   1.086  -1.864  0.00  0.00    -0.070 Cl
ATOM      8 Cl1  UNL d   1       2.315   0.225   1.096  0.00  0.00    -0.070 Cl
ENDROOT
TORSDOF 0
ENDMDL
