MODEL 1
REMARK minimizedAffinity 11.2961397
REMARK minimizedRMSD -1
REMARK  0 active torsions:
REMARK  status: ('A' for Active; 'I' for Inactive)
ROOT
ATOM      1  C   UNL d   1      -2.616  -5.997  -5.247  0.00  0.00     0.020 A 
ATOM      2  C1  UNL d   1      -1.441  -6.000  -5.997  0.00  0.00     0.020 A 
ATOM      3  C2  UNL d   1      -0.256  -5.513  -5.441  0.00  0.00     0.034 A 
ATOM      4  C3  UNL d   1      -0.244  -5.022  -4.130  0.00  0.00     0.017 A 
ATOM      5  C4  UNL d   1      -1.424  -5.019  -3.378  0.00  0.00     0.017 A 
ATOM      6  C5  UNL d   1      -2.608  -5.508  -3.940  0.00  0.00     0.034 A 
ATOM      7 Cl   UNL d   1      -1.488  -4.429  -1.755  0.00  0.00    -0.070 Cl
ATOM      8 Cl1  UNL d   1       1.257  -4.435  -3.506  0.00  0.00    -0.070 Cl
ENDROOT
TORSDOF 0
ENDMDL
