MODEL 1
REMARK minimizedAffinity 5.47274351
REMARK minimizedRMSD -1
REMARK  0 active torsions:
REMARK  status: ('A' for Active; 'I' for Inactive)
ROOT
ATOM      1  C   UNL d   1       3.660   1.887   0.648  0.00  0.00     0.020 A 
ATOM      2  C1  UNL d   1       2.368   1.416   0.880  0.00  0.00     0.020 A 
ATOM      3  C2  UNL d   1       1.440   1.382  -0.163  0.00  0.00     0.034 A 
ATOM      4  C3  UNL d   1       1.802   1.818  -1.443  0.00  0.00     0.017 A 
ATOM      5  C4  UNL d   1       3.099   2.290  -1.674  0.00  0.00     0.017 A 
ATOM      6  C5  UNL d   1       4.025   2.323  -0.627  0.00  0.00     0.034 A 
ATOM      7 Cl   UNL d   1       3.620   2.845  -3.226  0.00  0.00    -0.070 Cl
ATOM      8 Cl1  UNL d   1       0.603   1.747  -2.685  0.00  0.00    -0.070 Cl
ENDROOT
TORSDOF 0
ENDMDL
