MODEL 1
REMARK minimizedAffinity 9.5097971
REMARK minimizedRMSD -1
REMARK  0 active torsions:
REMARK  status: ('A' for Active; 'I' for Inactive)
ROOT
ATOM      1  C   UNL d   1      -5.995   1.487   1.634  0.00  0.00     0.020 A 
ATOM      2  C1  UNL d   1      -4.824   0.916   1.135  0.00  0.00     0.020 A 
ATOM      3  C2  UNL d   1      -3.658   0.932   1.903  0.00  0.00     0.034 A 
ATOM      4  C3  UNL d   1      -3.659   1.518   3.174  0.00  0.00     0.017 A 
ATOM      5  C4  UNL d   1      -4.835   2.091   3.673  0.00  0.00     0.017 A 
ATOM      6  C5  UNL d   1      -6.000   2.073   2.900  0.00  0.00     0.034 A 
ATOM      7 Cl   UNL d   1      -4.914   2.833   5.232  0.00  0.00    -0.070 Cl
ATOM      8 Cl1  UNL d   1      -2.181   1.501   4.068  0.00  0.00    -0.070 Cl
ENDROOT
TORSDOF 0
ENDMDL
