MODEL 1
REMARK minimizedAffinity 17.6368961
REMARK minimizedRMSD -1
REMARK  0 active torsions:
REMARK  status: ('A' for Active; 'I' for Inactive)
ROOT
ATOM      1  C   UNL d   1      -0.417  -1.814   2.005  0.00  0.00     0.020 A 
ATOM      2  C1  UNL d   1      -0.751  -0.714   1.215  0.00  0.00     0.020 A 
ATOM      3  C2  UNL d   1       0.255   0.085   0.669  0.00  0.00     0.034 A 
ATOM      4  C3  UNL d   1       1.601  -0.214   0.912  0.00  0.00     0.017 A 
ATOM      5  C4  UNL d   1       1.935  -1.318   1.704  0.00  0.00     0.017 A 
ATOM      6  C5  UNL d   1       0.923  -2.115   2.249  0.00  0.00     0.034 A 
ATOM      7 Cl   UNL d   1       3.573  -1.750   2.048  0.00  0.00    -0.070 Cl
ATOM      8 Cl1  UNL d   1       2.794   0.817   0.205  0.00  0.00    -0.070 Cl
ENDROOT
TORSDOF 0
ENDMDL
