MODEL 1
REMARK minimizedAffinity 13.6396265
REMARK minimizedRMSD -1
REMARK  0 active torsions:
REMARK  status: ('A' for Active; 'I' for Inactive)
ROOT
ATOM      1  C   UNL d   1       3.363   0.519  -0.522  0.00  0.00     0.020 A 
ATOM      2  C1  UNL d   1       2.546   1.277   0.316  0.00  0.00     0.020 A 
ATOM      3  C2  UNL d   1       1.936   2.437  -0.166  0.00  0.00     0.034 A 
ATOM      4  C3  UNL d   1       2.142   2.842  -1.490  0.00  0.00     0.017 A 
ATOM      5  C4  UNL d   1       2.962   2.081  -2.330  0.00  0.00     0.017 A 
ATOM      6  C5  UNL d   1       3.570   0.920  -1.842  0.00  0.00     0.034 A 
ATOM      7 Cl   UNL d   1       3.263   2.517  -3.975  0.00  0.00    -0.070 Cl
ATOM      8 Cl1  UNL d   1       1.355   4.287  -2.019  0.00  0.00    -0.070 Cl
ENDROOT
TORSDOF 0
ENDMDL
