MODEL 1
REMARK minimizedAffinity 4.84564066
REMARK minimizedRMSD -1
REMARK  0 active torsions:
REMARK  status: ('A' for Active; 'I' for Inactive)
ROOT
ATOM      1  C   UNL d   1      -5.497  -5.999   0.991  0.00  0.00     0.020 A 
ATOM      2  C1  UNL d   1      -5.967  -5.991   2.303  0.00  0.00     0.020 A 
ATOM      3  C2  UNL d   1      -5.751  -4.876   3.115  0.00  0.00     0.034 A 
ATOM      4  C3  UNL d   1      -5.061  -3.765   2.616  0.00  0.00     0.017 A 
ATOM      5  C4  UNL d   1      -4.589  -3.774   1.299  0.00  0.00     0.017 A 
ATOM      6  C5  UNL d   1      -4.809  -4.893   0.490  0.00  0.00     0.034 A 
ATOM      7 Cl   UNL d   1      -3.730  -2.441   0.612  0.00  0.00    -0.070 Cl
ATOM      8 Cl1  UNL d   1      -4.829  -2.420   3.676  0.00  0.00    -0.070 Cl
ENDROOT
TORSDOF 0
ENDMDL
