MODEL 1
REMARK minimizedAffinity 2.45412517
REMARK minimizedRMSD -1
REMARK  0 active torsions:
REMARK  status: ('A' for Active; 'I' for Inactive)
ROOT
ATOM      1  C   UNL d   1      -4.044  -0.846  -1.979  0.00  0.00     0.020 A 
ATOM      2  C1  UNL d   1      -5.213  -1.454  -2.433  0.00  0.00     0.020 A 
ATOM      3  C2  UNL d   1      -5.146  -2.459  -3.401  0.00  0.00     0.034 A 
ATOM      4  C3  UNL d   1      -3.908  -2.859  -3.917  0.00  0.00     0.017 A 
ATOM      5  C4  UNL d   1      -2.735  -2.247  -3.460  0.00  0.00     0.017 A 
ATOM      6  C5  UNL d   1      -2.808  -1.241  -2.491  0.00  0.00     0.034 A 
ATOM      7 Cl   UNL d   1      -1.171  -2.686  -4.050  0.00  0.00    -0.070 Cl
ATOM      8 Cl1  UNL d   1      -3.901  -4.108  -5.111  0.00  0.00    -0.070 Cl
ENDROOT
TORSDOF 0
ENDMDL
