MODEL 1
REMARK minimizedAffinity 2.76390409
REMARK minimizedRMSD -1
REMARK  0 active torsions:
REMARK  status: ('A' for Active; 'I' for Inactive)
ROOT
ATOM      1  C   UNL d   1       0.703  -4.248   0.315  0.00  0.00     0.020 A 
ATOM      2  C1  UNL d   1       0.535  -2.895   0.610  0.00  0.00     0.020 A 
ATOM      3  C2  UNL d   1       1.649  -2.060   0.713  0.00  0.00     0.034 A 
ATOM      4  C3  UNL d   1       2.936  -2.575   0.521  0.00  0.00     0.017 A 
ATOM      5  C4  UNL d   1       3.103  -3.933   0.225  0.00  0.00     0.017 A 
ATOM      6  C5  UNL d   1       1.984  -4.765   0.123  0.00  0.00     0.034 A 
ATOM      7 Cl   UNL d   1       4.660  -4.642  -0.025  0.00  0.00    -0.070 Cl
ATOM      8 Cl1  UNL d   1       4.268  -1.484   0.663  0.00  0.00    -0.070 Cl
ENDROOT
TORSDOF 0
ENDMDL
