MODEL 1
REMARK minimizedAffinity -2.5846684
REMARK minimizedRMSD -1
REMARK  0 active torsions:
REMARK  status: ('A' for Active; 'I' for Inactive)
ROOT
ATOM      1  C   UNL d   1      -4.775  -5.254   2.274  0.00  0.00     0.020 A 
ATOM      2  C1  UNL d   1      -4.568  -3.875   2.270  0.00  0.00     0.020 A 
ATOM      3  C2  UNL d   1      -4.802  -3.130   3.427  0.00  0.00     0.034 A 
ATOM      4  C3  UNL d   1      -5.245  -3.763   4.594  0.00  0.00     0.017 A 
ATOM      5  C4  UNL d   1      -5.453  -5.147   4.598  0.00  0.00     0.017 A 
ATOM      6  C5  UNL d   1      -5.216  -5.888   3.436  0.00  0.00     0.034 A 
ATOM      7 Cl   UNL d   1      -5.998  -5.999   6.000  0.00  0.00    -0.070 Cl
ATOM      8 Cl1  UNL d   1      -5.515  -2.779   5.989  0.00  0.00    -0.070 Cl
ENDROOT
TORSDOF 0
ENDMDL
