MODEL 1
REMARK minimizedAffinity 6.49798393
REMARK minimizedRMSD -1
REMARK  0 active torsions:
REMARK  status: ('A' for Active; 'I' for Inactive)
ROOT
ATOM      1  O1  BZF d   1      -1.104   3.192   2.385  0.00  0.00    -0.204 OA
ATOM      2  C2  BZF d   1      -0.289   2.419   1.580  0.00  0.00     0.174 A 
ATOM      3  C3  BZF d   1      -0.690   1.131   1.589  0.00  0.00    -0.012 A 
ATOM      4  C3A BZF d   1      -1.882   1.114   2.380  0.00  0.00    -0.107 A 
ATOM      5  C4  BZF d   1      -2.753   0.127   2.745  0.00  0.00     0.055 A 
ATOM      6  C5  BZF d   1      -3.778   0.428   3.585  0.00  0.00    -0.016 A 
ATOM      7  C6  BZF d   1      -3.958   1.701   4.084  0.00  0.00     0.022 A 
ATOM      8  C7  BZF d   1      -3.123   2.714   3.747  0.00  0.00     0.029 A 
ATOM      9  C7A BZF d   1      -2.106   2.421   2.872  0.00  0.00     0.058 A 
ENDROOT
TORSDOF 0
ENDMDL
