MODEL 1
REMARK minimizedAffinity -6.56755972
REMARK minimizedRMSD -1
REMARK  0 active torsions:
REMARK  status: ('A' for Active; 'I' for Inactive)
ROOT
ATOM      1  O1  BZF d   1      -3.036  -0.431   2.545  0.00  0.00    -0.204 OA
ATOM      2  C2  BZF d   1      -3.398   0.723   3.214  0.00  0.00     0.174 A 
ATOM      3  C3  BZF d   1      -2.452   1.674   3.073  0.00  0.00    -0.012 A 
ATOM      4  C3A BZF d   1      -1.479   1.110   2.189  0.00  0.00    -0.107 A 
ATOM      5  C4  BZF d   1      -0.312   1.577   1.656  0.00  0.00     0.055 A 
ATOM      6  C5  BZF d   1       0.441   0.748   0.886  0.00  0.00    -0.016 A 
ATOM      7  C6  BZF d   1       0.059  -0.553   0.633  0.00  0.00     0.022 A 
ATOM      8  C7  BZF d   1      -1.093  -1.060   1.135  0.00  0.00     0.029 A 
ATOM      9  C7A BZF d   1      -1.872  -0.214   1.886  0.00  0.00     0.058 A 
ENDROOT
TORSDOF 0
ENDMDL
