MODEL 1
REMARK minimizedAffinity -2.04594684
REMARK minimizedRMSD -1
REMARK  0 active torsions:
REMARK  status: ('A' for Active; 'I' for Inactive)
ROOT
ATOM      1  O1  BZF d   1      -0.402   2.329   1.772  0.00  0.00    -0.204 OA
ATOM      2  C2  BZF d   1       0.745   1.633   1.441  0.00  0.00     0.174 A 
ATOM      3  C3  BZF d   1       0.596   0.317   1.696  0.00  0.00    -0.012 A 
ATOM      4  C3A BZF d   1      -0.758   0.169   2.132  0.00  0.00    -0.107 A 
ATOM      5  C4  BZF d   1      -1.509  -0.905   2.517  0.00  0.00     0.055 A 
ATOM      6  C5  BZF d   1      -2.779  -0.701   2.955  0.00  0.00    -0.016 A 
ATOM      7  C6  BZF d   1      -3.328   0.563   3.027  0.00  0.00     0.022 A 
ATOM      8  C7  BZF d   1      -2.624   1.659   2.652  0.00  0.00     0.029 A 
ATOM      9  C7A BZF d   1      -1.352   1.452   2.177  0.00  0.00     0.058 A 
ENDROOT
TORSDOF 0
ENDMDL
