MODEL 1
REMARK minimizedAffinity -3.58877397
REMARK minimizedRMSD -1
REMARK  0 active torsions:
REMARK  status: ('A' for Active; 'I' for Inactive)
ROOT
ATOM      1  O1  BZF d   1      -1.742   2.794   2.251  0.00  0.00    -0.204 OA
ATOM      2  C2  BZF d   1      -2.728   2.208   3.022  0.00  0.00     0.174 A 
ATOM      3  C3  BZF d   1      -2.623   0.864   2.991  0.00  0.00    -0.012 A 
ATOM      4  C3A BZF d   1      -1.446   0.596   2.223  0.00  0.00    -0.107 A 
ATOM      5  C4  BZF d   1      -0.809  -0.554   1.852  0.00  0.00     0.055 A 
ATOM      6  C5  BZF d   1       0.277  -0.474   1.039  0.00  0.00    -0.016 A 
ATOM      7  C6  BZF d   1       0.749   0.736   0.574  0.00  0.00     0.022 A 
ATOM      8  C7  BZF d   1       0.153   1.904   0.918  0.00  0.00     0.029 A 
ATOM      9  C7A BZF d   1      -0.925   1.829   1.767  0.00  0.00     0.058 A 
ENDROOT
TORSDOF 0
ENDMDL
