MODEL 1
REMARK minimizedAffinity -1.01774275
REMARK minimizedRMSD -1
REMARK  0 active torsions:
REMARK  status: ('A' for Active; 'I' for Inactive)
ROOT
ATOM      1  O1  BZF d   1      -1.586   2.839   1.756  0.00  0.00    -0.204 OA
ATOM      2  C2  BZF d   1      -2.690   2.375   2.445  0.00  0.00     0.174 A 
ATOM      3  C3  BZF d   1      -2.621   1.039   2.613  0.00  0.00    -0.012 A 
ATOM      4  C3A BZF d   1      -1.353   0.656   2.072  0.00  0.00    -0.107 A 
ATOM      5  C4  BZF d   1      -0.702  -0.539   1.961  0.00  0.00     0.055 A 
ATOM      6  C5  BZF d   1       0.493  -0.583   1.315  0.00  0.00    -0.016 A 
ATOM      7  C6  BZF d   1       1.062   0.546   0.764  0.00  0.00     0.022 A 
ATOM      8  C7  BZF d   1       0.456   1.755   0.853  0.00  0.00     0.029 A 
ATOM      9  C7A BZF d   1      -0.736   1.809   1.535  0.00  0.00     0.058 A 
ENDROOT
TORSDOF 0
ENDMDL
