MODEL 1
REMARK minimizedAffinity 1.21769273
REMARK minimizedRMSD -1
REMARK  0 active torsions:
REMARK  status: ('A' for Active; 'I' for Inactive)
ROOT
ATOM      1  O1  BZF d   1      -1.794   2.810   2.440  0.00  0.00    -0.204 OA
ATOM      2  C2  BZF d   1      -2.742   2.245   3.270  0.00  0.00     0.174 A 
ATOM      3  C3  BZF d   1      -2.637   0.900   3.270  0.00  0.00    -0.012 A 
ATOM      4  C3A BZF d   1      -1.497   0.612   2.456  0.00  0.00    -0.107 A 
ATOM      5  C4  BZF d   1      -0.875  -0.547   2.087  0.00  0.00     0.055 A 
ATOM      6  C5  BZF d   1       0.171  -0.489   1.222  0.00  0.00    -0.016 A 
ATOM      7  C6  BZF d   1       0.619   0.709   0.704  0.00  0.00     0.022 A 
ATOM      8  C7  BZF d   1       0.037   1.885   1.044  0.00  0.00     0.029 A 
ATOM      9  C7A BZF d   1      -0.999   1.832   1.943  0.00  0.00     0.058 A 
ENDROOT
TORSDOF 0
ENDMDL
