MODEL 1
REMARK minimizedAffinity -3.94355083
REMARK minimizedRMSD -1
REMARK  0 active torsions:
REMARK  status: ('A' for Active; 'I' for Inactive)
ROOT
ATOM      1  O1  BZF d   1      -2.952   2.871   3.180  0.00  0.00    -0.204 OA
ATOM      2  C2  BZF d   1      -3.443   1.722   3.769  0.00  0.00     0.174 A 
ATOM      3  C3  BZF d   1      -2.740   0.642   3.371  0.00  0.00    -0.012 A 
ATOM      4  C3A BZF d   1      -1.688   1.159   2.550  0.00  0.00    -0.107 A 
ATOM      5  C4  BZF d   1      -0.652   0.579   1.876  0.00  0.00     0.055 A 
ATOM      6  C5  BZF d   1       0.154   1.358   1.107  0.00  0.00    -0.016 A 
ATOM      7  C6  BZF d   1      -0.050   2.717   0.986  0.00  0.00     0.022 A 
ATOM      8  C7  BZF d   1      -1.062   3.338   1.641  0.00  0.00     0.029 A 
ATOM      9  C7A BZF d   1      -1.858   2.559   2.444  0.00  0.00     0.058 A 
ENDROOT
TORSDOF 0
ENDMDL
