MODEL 1
REMARK minimizedAffinity -2.04528165
REMARK minimizedRMSD -1
REMARK  0 active torsions:
REMARK  status: ('A' for Active; 'I' for Inactive)
ROOT
ATOM      1  O1  BZF d   1      -0.468   2.989   2.358  0.00  0.00    -0.204 OA
ATOM      2  C2  BZF d   1       0.459   2.316   1.584  0.00  0.00     0.174 A 
ATOM      3  C3  BZF d   1       0.052   1.054   1.340  0.00  0.00    -0.012 A 
ATOM      4  C3A BZF d   1      -1.250   0.958   1.925  0.00  0.00    -0.107 A 
ATOM      5  C4  BZF d   1      -2.174  -0.044   2.000  0.00  0.00     0.055 A 
ATOM      6  C5  BZF d   1      -3.317   0.162   2.706  0.00  0.00    -0.016 A 
ATOM      7  C6  BZF d   1      -3.565   1.355   3.353  0.00  0.00     0.022 A 
ATOM      8  C7  BZF d   1      -2.681   2.380   3.303  0.00  0.00     0.029 A 
ATOM      9  C7A BZF d   1      -1.540   2.186   2.563  0.00  0.00     0.058 A 
ENDROOT
TORSDOF 0
ENDMDL
