MODEL 1
REMARK minimizedAffinity 3.64122367
REMARK minimizedRMSD -1
REMARK  0 active torsions:
REMARK  status: ('A' for Active; 'I' for Inactive)
ROOT
ATOM      1  O1  BZF d   1       0.003  -2.069   2.395  0.00  0.00    -0.204 OA
ATOM      2  C2  BZF d   1      -1.323  -2.007   2.779  0.00  0.00     0.174 A 
ATOM      3  C3  BZF d   1      -1.871  -0.829   2.416  0.00  0.00    -0.012 A 
ATOM      4  C3A BZF d   1      -0.848  -0.148   1.684  0.00  0.00    -0.107 A 
ATOM      5  C4  BZF d   1      -0.793   1.062   1.052  0.00  0.00     0.055 A 
ATOM      6  C5  BZF d   1       0.379   1.462   0.493  0.00  0.00    -0.016 A 
ATOM      7  C6  BZF d   1       1.515   0.681   0.551  0.00  0.00     0.022 A 
ATOM      8  C7  BZF d   1       1.508  -0.529   1.162  0.00  0.00     0.029 A 
ATOM      9  C7A BZF d   1       0.316  -0.950   1.699  0.00  0.00     0.058 A 
ENDROOT
TORSDOF 0
ENDMDL
