MODEL 1
REMARK minimizedAffinity -0.982497275
REMARK minimizedRMSD -1
REMARK  0 active torsions:
REMARK  status: ('A' for Active; 'I' for Inactive)
ROOT
ATOM      1  O1  BZF d   1      -2.968   1.387   3.029  0.00  0.00    -0.204 OA
ATOM      2  C2  BZF d   1      -2.677   2.725   3.214  0.00  0.00     0.174 A 
ATOM      3  C3  BZF d   1      -1.465   3.026   2.704  0.00  0.00    -0.012 A 
ATOM      4  C3A BZF d   1      -1.007   1.820   2.085  0.00  0.00    -0.107 A 
ATOM      5  C4  BZF d   1       0.124   1.489   1.395  0.00  0.00     0.055 A 
ATOM      6  C5  BZF d   1       0.297   0.205   0.986  0.00  0.00    -0.016 A 
ATOM      7  C6  BZF d   1      -0.637  -0.774   1.254  0.00  0.00     0.022 A 
ATOM      8  C7  BZF d   1      -1.777  -0.493   1.931  0.00  0.00     0.029 A 
ATOM      9  C7A BZF d   1      -1.970   0.811   2.317  0.00  0.00     0.058 A 
ENDROOT
TORSDOF 0
ENDMDL
