MODEL 1
REMARK minimizedAffinity 5.89049292
REMARK minimizedRMSD -1
REMARK  0 active torsions:
REMARK  status: ('A' for Active; 'I' for Inactive)
ROOT
ATOM      1  O1  BZF d   1      -1.165   3.803   1.787  0.00  0.00    -0.204 OA
ATOM      2  C2  BZF d   1      -2.340   3.446   2.421  0.00  0.00     0.174 A 
ATOM      3  C3  BZF d   1      -2.417   2.107   2.565  0.00  0.00    -0.012 A 
ATOM      4  C3A BZF d   1      -1.174   1.603   2.068  0.00  0.00    -0.107 A 
ATOM      5  C4  BZF d   1      -0.647   0.348   1.959  0.00  0.00     0.055 A 
ATOM      6  C5  BZF d   1       0.564   0.189   1.362  0.00  0.00    -0.016 A 
ATOM      7  C6  BZF d   1       1.270   1.262   0.857  0.00  0.00     0.022 A 
ATOM      8  C7  BZF d   1       0.790   2.526   0.947  0.00  0.00     0.029 A 
ATOM      9  C7A BZF d   1      -0.418   2.693   1.580  0.00  0.00     0.058 A 
ENDROOT
TORSDOF 0
ENDMDL
