MODEL 1
REMARK minimizedAffinity -2.96842933
REMARK minimizedRMSD -1
REMARK  0 active torsions:
REMARK  status: ('A' for Active; 'I' for Inactive)
ROOT
ATOM      1  O1  BZF d   1      -2.017   1.431   3.064  0.00  0.00    -0.204 OA
ATOM      2  C2  BZF d   1      -2.859   0.368   2.797  0.00  0.00     0.174 A 
ATOM      3  C3  BZF d   1      -2.364  -0.394   1.801  0.00  0.00    -0.012 A 
ATOM      4  C3A BZF d   1      -1.092   0.178   1.484  0.00  0.00    -0.107 A 
ATOM      5  C4  BZF d   1      -0.114  -0.144   0.587  0.00  0.00     0.055 A 
ATOM      6  C5  BZF d   1       0.974   0.662   0.478  0.00  0.00    -0.016 A 
ATOM      7  C6  BZF d   1       1.115   1.800   1.245  0.00  0.00     0.022 A 
ATOM      8  C7  BZF d   1       0.174   2.158   2.153  0.00  0.00     0.029 A 
ATOM      9  C7A BZF d   1      -0.911   1.327   2.288  0.00  0.00     0.058 A 
ENDROOT
TORSDOF 0
ENDMDL
