MODEL 1
REMARK minimizedAffinity -0.261256099
REMARK minimizedRMSD -1
REMARK  0 active torsions:
REMARK  status: ('A' for Active; 'I' for Inactive)
ROOT
ATOM      1  O1  BZF d   1       0.395   2.061   0.964  0.00  0.00    -0.204 OA
ATOM      2  C2  BZF d   1       0.856   0.838   0.516  0.00  0.00     0.174 A 
ATOM      3  C3  BZF d   1       0.122  -0.169   1.033  0.00  0.00    -0.012 A 
ATOM      4  C3A BZF d   1      -0.916   0.469   1.783  0.00  0.00    -0.107 A 
ATOM      5  C4  BZF d   1      -1.969   0.000   2.515  0.00  0.00     0.055 A 
ATOM      6  C5  BZF d   1      -2.755   0.885   3.184  0.00  0.00    -0.016 A 
ATOM      7  C6  BZF d   1      -2.514   2.243   3.147  0.00  0.00     0.022 A 
ATOM      8  C7  BZF d   1      -1.484   2.756   2.429  0.00  0.00     0.029 A 
ATOM      9  C7A BZF d   1      -0.708   1.867   1.726  0.00  0.00     0.058 A 
ENDROOT
TORSDOF 0
ENDMDL
