MODEL 1
REMARK minimizedAffinity -5.13939524
REMARK minimizedRMSD -1
REMARK  0 active torsions:
REMARK  status: ('A' for Active; 'I' for Inactive)
ROOT
ATOM      1  O1  BZF d   1       0.453  -0.888   0.813  0.00  0.00    -0.204 OA
ATOM      2  C2  BZF d   1       1.347   0.062   0.359  0.00  0.00     0.174 A 
ATOM      3  C3  BZF d   1       0.847   1.304   0.518  0.00  0.00    -0.012 A 
ATOM      4  C3A BZF d   1      -0.401   1.124   1.193  0.00  0.00    -0.107 A 
ATOM      5  C4  BZF d   1      -1.358   1.988   1.642  0.00  0.00     0.055 A 
ATOM      6  C5  BZF d   1      -2.494   1.486   2.195  0.00  0.00    -0.016 A 
ATOM      7  C6  BZF d   1      -2.707   0.128   2.309  0.00  0.00     0.022 A 
ATOM      8  C7  BZF d   1      -1.784  -0.768   1.882  0.00  0.00     0.029 A 
ATOM      9  C7A BZF d   1      -0.621  -0.263   1.353  0.00  0.00     0.058 A 
ENDROOT
TORSDOF 0
ENDMDL
