MODEL 1
REMARK minimizedAffinity -3.67892146
REMARK minimizedRMSD -1
REMARK  0 active torsions:
REMARK  status: ('A' for Active; 'I' for Inactive)
ROOT
ATOM      1  O1  BZF d   1      -0.232   2.849   1.112  0.00  0.00    -0.204 OA
ATOM      2  C2  BZF d   1       0.705   2.059   0.476  0.00  0.00     0.174 A 
ATOM      3  C3  BZF d   1       0.429   0.751   0.656  0.00  0.00    -0.012 A 
ATOM      4  C3A BZF d   1      -0.806   0.723   1.377  0.00  0.00    -0.107 A 
ATOM      5  C4  BZF d   1      -1.602  -0.287   1.838  0.00  0.00     0.055 A 
ATOM      6  C5  BZF d   1      -2.705   0.022   2.569  0.00  0.00    -0.016 A 
ATOM      7  C6  BZF d   1      -3.039   1.328   2.861  0.00  0.00     0.022 A 
ATOM      8  C7  BZF d   1      -2.284   2.364   2.421  0.00  0.00     0.029 A 
ATOM      9  C7A BZF d   1      -1.187   2.056   1.655  0.00  0.00     0.058 A 
ENDROOT
TORSDOF 0
ENDMDL
