MODEL 1
REMARK minimizedAffinity -1.55059087
REMARK minimizedRMSD -1
REMARK  0 active torsions:
REMARK  status: ('A' for Active; 'I' for Inactive)
ROOT
ATOM      1  O1  BZF d   1      -1.559   2.910   2.771  0.00  0.00    -0.204 OA
ATOM      2  C2  BZF d   1      -2.550   2.549   3.663  0.00  0.00     0.174 A 
ATOM      3  C3  BZF d   1      -2.815   1.229   3.575  0.00  0.00    -0.012 A 
ATOM      4  C3A BZF d   1      -1.870   0.717   2.631  0.00  0.00    -0.107 A 
ATOM      5  C4  BZF d   1      -1.620  -0.530   2.134  0.00  0.00     0.055 A 
ATOM      6  C5  BZF d   1      -0.675  -0.680   1.170  0.00  0.00    -0.016 A 
ATOM      7  C6  BZF d   1       0.036   0.395   0.676  0.00  0.00     0.022 A 
ATOM      8  C7  BZF d   1      -0.173   1.650   1.142  0.00  0.00     0.029 A 
ATOM      9  C7A BZF d   1      -1.105   1.800   2.140  0.00  0.00     0.058 A 
ENDROOT
TORSDOF 0
ENDMDL
