MODEL 1
REMARK minimizedAffinity 1.39746714
REMARK minimizedRMSD -1
REMARK  0 active torsions:
REMARK  status: ('A' for Active; 'I' for Inactive)
ROOT
ATOM      1  O1  BZF d   1      -1.048   3.295   1.528  0.00  0.00    -0.204 OA
ATOM      2  C2  BZF d   1      -0.145   2.690   0.675  0.00  0.00     0.174 A 
ATOM      3  C3  BZF d   1      -0.186   1.348   0.807  0.00  0.00    -0.012 A 
ATOM      4  C3A BZF d   1      -1.242   1.094   1.738  0.00  0.00    -0.107 A 
ATOM      5  C4  BZF d   1      -1.777  -0.047   2.263  0.00  0.00     0.055 A 
ATOM      6  C5  BZF d   1      -2.752   0.052   3.204  0.00  0.00    -0.016 A 
ATOM      7  C6  BZF d   1      -3.212   1.275   3.647  0.00  0.00     0.022 A 
ATOM      8  C7  BZF d   1      -2.716   2.435   3.152  0.00  0.00     0.029 A 
ATOM      9  C7A BZF d   1      -1.753   2.338   2.177  0.00  0.00     0.058 A 
ENDROOT
TORSDOF 0
ENDMDL
