MODEL 1
REMARK minimizedAffinity -1.92716706
REMARK minimizedRMSD -1
REMARK  0 active torsions:
REMARK  status: ('A' for Active; 'I' for Inactive)
ROOT
ATOM      1  C   UNL d   1      -0.438  -2.678  -2.360  0.00  0.00     0.023 A 
ATOM      2  C1  UNL d   1      -0.847  -1.371  -2.099  0.00  0.00     0.003 A 
ATOM      3  C2  UNL d   1      -0.948  -0.447  -3.141  0.00  0.00     0.048 A 
ATOM      4  C3  UNL d   1      -0.638  -0.839  -4.443  0.00  0.00     0.023 A 
ATOM      5  C4  UNL d   1      -0.229  -2.146  -4.710  0.00  0.00     0.048 A 
ATOM      6  C5  UNL d   1      -0.129  -3.066  -3.664  0.00  0.00     0.003 A 
ATOM      7  I   UNL d   1      -0.787   0.534  -5.997  0.00  0.00    -0.146 I 
ENDROOT
TORSDOF 0
ENDMDL
