MODEL 1
REMARK minimizedAffinity 5.56428051
REMARK minimizedRMSD -1
REMARK  0 active torsions:
REMARK  status: ('A' for Active; 'I' for Inactive)
ROOT
ATOM      1  C   UNL d   1       0.254  -0.739   2.731  0.00  0.00     0.023 A 
ATOM      2  C1  UNL d   1      -0.448   0.050   3.643  0.00  0.00     0.003 A 
ATOM      3  C2  UNL d   1      -1.729   0.510   3.329  0.00  0.00     0.048 A 
ATOM      4  C3  UNL d   1      -2.303   0.175   2.104  0.00  0.00     0.023 A 
ATOM      5  C4  UNL d   1      -1.605  -0.616   1.189  0.00  0.00     0.048 A 
ATOM      6  C5  UNL d   1      -0.324  -1.072   1.506  0.00  0.00     0.003 A 
ATOM      7  I   UNL d   1      -4.209   0.857   1.635  0.00  0.00    -0.146 I 
ENDROOT
TORSDOF 0
ENDMDL
