MODEL 1
REMARK minimizedAffinity 0.734557271
REMARK minimizedRMSD -1
REMARK  0 active torsions:
REMARK  status: ('A' for Active; 'I' for Inactive)
ROOT
ATOM      1  C   UNL d   1      -1.281  -0.577   2.281  0.00  0.00     0.023 A 
ATOM      2  C1  UNL d   1      -1.615  -0.946   0.978  0.00  0.00     0.003 A 
ATOM      3  C2  UNL d   1      -2.823  -0.524   0.419  0.00  0.00     0.048 A 
ATOM      4  C3  UNL d   1      -3.692   0.268   1.169  0.00  0.00     0.023 A 
ATOM      5  C4  UNL d   1      -3.362   0.640   2.473  0.00  0.00     0.048 A 
ATOM      6  C5  UNL d   1      -2.154   0.215   3.028  0.00  0.00     0.003 A 
ATOM      7  I   UNL d   1      -5.490   0.898   0.339  0.00  0.00    -0.146 I 
ENDROOT
TORSDOF 0
ENDMDL
