MODEL 1
REMARK minimizedAffinity -1.07368398
REMARK minimizedRMSD -1
REMARK  0 active torsions:
REMARK  status: ('A' for Active; 'I' for Inactive)
ROOT
ATOM      1  C   UNL d   1      -1.849   0.374  -4.145  0.00  0.00     0.023 A 
ATOM      2  C1  UNL d   1      -0.761   0.010  -3.351  0.00  0.00     0.003 A 
ATOM      3  C2  UNL d   1       0.531   0.038  -3.879  0.00  0.00     0.048 A 
ATOM      4  C3  UNL d   1       0.729   0.433  -5.201  0.00  0.00     0.023 A 
ATOM      5  C4  UNL d   1      -0.356   0.800  -5.999  0.00  0.00     0.048 A 
ATOM      6  C5  UNL d   1      -1.646   0.769  -5.467  0.00  0.00     0.003 A 
ATOM      7  I   UNL d   1       2.652   0.477  -5.989  0.00  0.00    -0.146 I 
ENDROOT
TORSDOF 0
ENDMDL
