MODEL 1
REMARK minimizedAffinity -2.51157808
REMARK minimizedRMSD -1
REMARK  0 active torsions:
REMARK  status: ('A' for Active; 'I' for Inactive)
ROOT
ATOM      1  C   UNL d   1      -1.137   0.741  -4.268  0.00  0.00     0.023 A 
ATOM      2  C1  UNL d   1      -0.918   0.125  -5.500  0.00  0.00     0.003 A 
ATOM      3  C2  UNL d   1       0.380  -0.001  -5.999  0.00  0.00     0.048 A 
ATOM      4  C3  UNL d   1       1.455   0.490  -5.260  0.00  0.00     0.023 A 
ATOM      5  C4  UNL d   1       1.242   1.106  -4.025  0.00  0.00     0.048 A 
ATOM      6  C5  UNL d   1      -0.058   1.231  -3.531  0.00  0.00     0.003 A 
ATOM      7  I   UNL d   1       3.388   0.303  -6.000  0.00  0.00    -0.146 I 
ENDROOT
TORSDOF 0
ENDMDL
