MODEL 1
REMARK minimizedAffinity 4.33117962
REMARK minimizedRMSD -1
REMARK  0 active torsions:
REMARK  status: ('A' for Active; 'I' for Inactive)
ROOT
ATOM      1  C   UNL d   1      -1.703  -0.378   2.136  0.00  0.00     0.023 A 
ATOM      2  C1  UNL d   1      -2.308  -1.015   1.052  0.00  0.00     0.003 A 
ATOM      3  C2  UNL d   1      -3.541  -0.565   0.576  0.00  0.00     0.048 A 
ATOM      4  C3  UNL d   1      -4.164   0.522   1.188  0.00  0.00     0.023 A 
ATOM      5  C4  UNL d   1      -3.562   1.162   2.272  0.00  0.00     0.048 A 
ATOM      6  C5  UNL d   1      -2.329   0.709   2.745  0.00  0.00     0.003 A 
ATOM      7  I   UNL d   1      -6.000   1.193   0.482  0.00  0.00    -0.146 I 
ENDROOT
TORSDOF 0
ENDMDL
