MODEL 1
REMARK minimizedAffinity -0.225338042
REMARK minimizedRMSD -1
REMARK  0 active torsions:
REMARK  status: ('A' for Active; 'I' for Inactive)
ROOT
ATOM      1  C   UNL d   1      -0.516   0.418  -5.993  0.00  0.00     0.023 A 
ATOM      2  C1  UNL d   1      -1.384   0.370  -4.902  0.00  0.00     0.003 A 
ATOM      3  C2  UNL d   1      -1.098  -0.459  -3.816  0.00  0.00     0.048 A 
ATOM      4  C3  UNL d   1       0.059  -1.238  -3.827  0.00  0.00     0.023 A 
ATOM      5  C4  UNL d   1       0.931  -1.192  -4.916  0.00  0.00     0.048 A 
ATOM      6  C5  UNL d   1       0.640  -0.362  -6.000  0.00  0.00     0.003 A 
ATOM      7  I   UNL d   1       0.488  -2.473  -2.211  0.00  0.00    -0.146 I 
ENDROOT
TORSDOF 0
ENDMDL
