MODEL 1
REMARK minimizedAffinity -2.77037978
REMARK minimizedRMSD -1
REMARK  0 active torsions:
REMARK  status: ('A' for Active; 'I' for Inactive)
ROOT
ATOM      1  C   UNL d   1       2.168  -1.132  -1.481  0.00  0.00     0.172 C 
ATOM      2  N   UNL d   1       0.938  -0.687  -0.870  0.00  0.00    -0.070 N 
ATOM      3  C1  UNL d   1       0.394   0.565  -0.990  0.00  0.00    -0.004 A 
ATOM      4  C2  UNL d   1      -0.776   0.588  -0.261  0.00  0.00    -0.047 A 
ATOM      5  C3  UNL d   1      -0.941  -0.693   0.316  0.00  0.00    -0.047 A 
ATOM      6  C4  UNL d   1       0.134  -1.462  -0.077  0.00  0.00    -0.004 A 
ENDROOT
TORSDOF 0
ENDMDL
