MODEL 1
REMARK minimizedAffinity -2.02665257
REMARK minimizedRMSD -1
REMARK  0 active torsions:
REMARK  status: ('A' for Active; 'I' for Inactive)
ROOT
ATOM      1  C   UNL d   1       2.174  -1.136  -1.863  0.00  0.00     0.172 C 
ATOM      2  N   UNL d   1       0.991  -0.899  -1.068  0.00  0.00    -0.070 N 
ATOM      3  C1  UNL d   1       0.321  -1.841  -0.335  0.00  0.00    -0.004 A 
ATOM      4  C2  UNL d   1      -0.746  -1.219   0.276  0.00  0.00    -0.047 A 
ATOM      5  C3  UNL d   1      -0.717   0.144  -0.104  0.00  0.00    -0.047 A 
ATOM      6  C4  UNL d   1       0.369   0.314  -0.937  0.00  0.00    -0.004 A 
ENDROOT
TORSDOF 0
ENDMDL
