MODEL 1
REMARK minimizedAffinity -1.75415814
REMARK minimizedRMSD -1
REMARK  0 active torsions:
REMARK  status: ('A' for Active; 'I' for Inactive)
ROOT
ATOM      1  C   UNL d   1      -1.624   0.096   0.991  0.00  0.00     0.172 C 
ATOM      2  N   UNL d   1      -0.517  -0.533   0.310  0.00  0.00    -0.070 N 
ATOM      3  C1  UNL d   1       0.358   0.092  -0.538  0.00  0.00    -0.004 A 
ATOM      4  C2  UNL d   1       1.265  -0.849  -0.977  0.00  0.00    -0.047 A 
ATOM      5  C3  UNL d   1       0.923  -2.082  -0.373  0.00  0.00    -0.047 A 
ATOM      6  C4  UNL d   1      -0.184  -1.858   0.419  0.00  0.00    -0.004 A 
ENDROOT
TORSDOF 0
ENDMDL
