MODEL 1
REMARK minimizedAffinity -1.83851361
REMARK minimizedRMSD -1
REMARK  0 active torsions:
REMARK  status: ('A' for Active; 'I' for Inactive)
ROOT
ATOM      1  C   UNL d   1      -1.038   0.004   0.267  0.00  0.00     0.172 C 
ATOM      2  N   UNL d   1      -1.412   0.698   1.477  0.00  0.00    -0.070 N 
ATOM      3  C1  UNL d   1      -2.229   0.206   2.460  0.00  0.00    -0.004 A 
ATOM      4  C2  UNL d   1      -2.337   1.168   3.441  0.00  0.00    -0.047 A 
ATOM      5  C3  UNL d   1      -1.558   2.278   3.033  0.00  0.00    -0.047 A 
ATOM      6  C4  UNL d   1      -0.997   1.960   1.814  0.00  0.00    -0.004 A 
ENDROOT
TORSDOF 0
ENDMDL
