MODEL 1
REMARK minimizedAffinity -3.24426341
REMARK minimizedRMSD -1
REMARK  0 active torsions:
REMARK  status: ('A' for Active; 'I' for Inactive)
ROOT
ATOM      1  C   UNL d   1      -1.954   1.083  -0.052  0.00  0.00     0.172 C 
ATOM      2  N   UNL d   1      -0.800   0.216  -0.059  0.00  0.00    -0.070 N 
ATOM      3  C1  UNL d   1       0.500   0.618  -0.217  0.00  0.00    -0.004 A 
ATOM      4  C2  UNL d   1       1.298  -0.504  -0.165  0.00  0.00    -0.047 A 
ATOM      5  C3  UNL d   1       0.449  -1.619   0.030  0.00  0.00    -0.047 A 
ATOM      6  C4  UNL d   1      -0.844  -1.145   0.092  0.00  0.00    -0.004 A 
ENDROOT
TORSDOF 0
ENDMDL
