MODEL 1
REMARK minimizedAffinity -4.04720545
REMARK minimizedRMSD -1
REMARK  0 active torsions:
REMARK  status: ('A' for Active; 'I' for Inactive)
ROOT
ATOM      1  C   UNL d   1       0.242  -0.027  -0.110  0.00  0.00     0.172 C 
ATOM      2  N   UNL d   1       1.329   0.221  -1.028  0.00  0.00    -0.070 N 
ATOM      3  C1  UNL d   1       2.366  -0.635  -1.287  0.00  0.00    -0.004 A 
ATOM      4  C2  UNL d   1       3.187  -0.034  -2.216  0.00  0.00    -0.047 A 
ATOM      5  C3  UNL d   1       2.625   1.227  -2.526  0.00  0.00    -0.047 A 
ATOM      6  C4  UNL d   1       1.475   1.359  -1.776  0.00  0.00    -0.004 A 
ENDROOT
TORSDOF 0
ENDMDL
