MODEL 1
REMARK minimizedAffinity -2.23897386
REMARK minimizedRMSD -1
REMARK  0 active torsions:
REMARK  status: ('A' for Active; 'I' for Inactive)
ROOT
ATOM      1  C   UNL d   1      -1.467   0.788   2.123  0.00  0.00     0.172 C 
ATOM      2  N   UNL d   1      -0.860   0.193   0.956  0.00  0.00    -0.070 N 
ATOM      3  C1  UNL d   1       0.417  -0.294   0.881  0.00  0.00    -0.004 A 
ATOM      4  C2  UNL d   1       0.611  -0.775  -0.396  0.00  0.00    -0.047 A 
ATOM      5  C3  UNL d   1      -0.591  -0.570  -1.113  0.00  0.00    -0.047 A 
ATOM      6  C4  UNL d   1      -1.485   0.031  -0.252  0.00  0.00    -0.004 A 
ENDROOT
TORSDOF 0
ENDMDL
