MODEL 1
REMARK minimizedAffinity -3.68234587
REMARK minimizedRMSD -1
REMARK  0 active torsions:
REMARK  status: ('A' for Active; 'I' for Inactive)
ROOT
ATOM      1  C   UNL d   1      -1.012   0.596   0.122  0.00  0.00     0.172 C 
ATOM      2  N   UNL d   1       0.241   0.045  -0.337  0.00  0.00    -0.070 N 
ATOM      3  C1  UNL d   1       1.243   0.745  -0.954  0.00  0.00    -0.004 A 
ATOM      4  C2  UNL d   1       2.265  -0.136  -1.233  0.00  0.00    -0.047 A 
ATOM      5  C3  UNL d   1       1.863  -1.411  -0.768  0.00  0.00    -0.047 A 
ATOM      6  C4  UNL d   1       0.606  -1.270  -0.218  0.00  0.00    -0.004 A 
ENDROOT
TORSDOF 0
ENDMDL
