MODEL 1
REMARK minimizedAffinity -3.37534046
REMARK minimizedRMSD -1
REMARK  0 active torsions:
REMARK  status: ('A' for Active; 'I' for Inactive)
ROOT
ATOM      1  C   UNL d   1      -1.831   0.256   1.434  0.00  0.00     0.172 C 
ATOM      2  N   UNL d   1      -0.688   0.135   0.558  0.00  0.00    -0.070 N 
ATOM      3  C1  UNL d   1      -0.166  -1.039   0.086  0.00  0.00    -0.004 A 
ATOM      4  C2  UNL d   1       0.913  -0.730  -0.714  0.00  0.00    -0.047 A 
ATOM      5  C3  UNL d   1       1.043   0.680  -0.722  0.00  0.00    -0.047 A 
ATOM      6  C4  UNL d   1       0.039   1.189   0.074  0.00  0.00    -0.004 A 
ENDROOT
TORSDOF 0
ENDMDL
