MODEL 1
REMARK minimizedAffinity -3.39711523
REMARK minimizedRMSD -1
REMARK  0 active torsions:
REMARK  status: ('A' for Active; 'I' for Inactive)
ROOT
ATOM      1  C   UNL d   1       2.875  -0.370  -0.752  0.00  0.00     0.172 C 
ATOM      2  N   UNL d   1       1.478  -0.170  -0.447  0.00  0.00    -0.070 N 
ATOM      3  C1  UNL d   1       0.783   0.998  -0.614  0.00  0.00    -0.004 A 
ATOM      4  C2  UNL d   1      -0.515   0.778  -0.209  0.00  0.00    -0.047 A 
ATOM      5  C3  UNL d   1      -0.604  -0.568   0.218  0.00  0.00    -0.047 A 
ATOM      6  C4  UNL d   1       0.645  -1.132   0.060  0.00  0.00    -0.004 A 
ENDROOT
TORSDOF 0
ENDMDL
