MODEL 1
REMARK minimizedAffinity -2.94604635
REMARK minimizedRMSD -1
REMARK  0 active torsions:
REMARK  status: ('A' for Active; 'I' for Inactive)
ROOT
ATOM      1  C   UNL d   1       0.318  -1.214   0.074  0.00  0.00     0.172 C 
ATOM      2  N   UNL d   1       1.336  -0.768  -0.847  0.00  0.00    -0.070 N 
ATOM      3  C1  UNL d   1       2.086  -1.574  -1.661  0.00  0.00    -0.004 A 
ATOM      4  C2  UNL d   1       2.941  -0.769  -2.382  0.00  0.00    -0.047 A 
ATOM      5  C3  UNL d   1       2.697   0.568  -1.987  0.00  0.00    -0.047 A 
ATOM      6  C4  UNL d   1       1.699   0.540  -1.036  0.00  0.00    -0.004 A 
ENDROOT
TORSDOF 0
ENDMDL
