MODEL 1
REMARK minimizedAffinity -3.29614234
REMARK minimizedRMSD -1
REMARK  0 active torsions:
REMARK  status: ('A' for Active; 'I' for Inactive)
ROOT
ATOM      1  C   UNL d   1       3.043  -0.351  -1.109  0.00  0.00     0.172 C 
ATOM      2  N   UNL d   1       1.617  -0.202  -0.939  0.00  0.00    -0.070 N 
ATOM      3  C1  UNL d   1       0.760  -1.174  -0.495  0.00  0.00    -0.004 A 
ATOM      4  C2  UNL d   1      -0.510  -0.639  -0.474  0.00  0.00    -0.047 A 
ATOM      5  C3  UNL d   1      -0.413   0.700  -0.921  0.00  0.00    -0.047 A 
ATOM      6  C4  UNL d   1       0.915   0.944  -1.203  0.00  0.00    -0.004 A 
ENDROOT
TORSDOF 0
ENDMDL
