MODEL 1
REMARK minimizedAffinity -3.97371244
REMARK minimizedRMSD -1
REMARK  0 active torsions:
REMARK  status: ('A' for Active; 'I' for Inactive)
ROOT
ATOM      1  C   UNL d   1      -1.209   0.300   0.237  0.00  0.00     0.172 C 
ATOM      2  N   UNL d   1       0.069  -0.027  -0.351  0.00  0.00    -0.070 N 
ATOM      3  C1  UNL d   1       0.943   0.867  -0.910  0.00  0.00    -0.004 A 
ATOM      4  C2  UNL d   1       2.040   0.162  -1.355  0.00  0.00    -0.047 A 
ATOM      5  C3  UNL d   1       1.818  -1.203  -1.054  0.00  0.00    -0.047 A 
ATOM      6  C4  UNL d   1       0.590  -1.291  -0.432  0.00  0.00    -0.004 A 
ENDROOT
TORSDOF 0
ENDMDL
