MODEL 1
REMARK minimizedAffinity -3.29690456
REMARK minimizedRMSD -1
REMARK  0 active torsions:
REMARK  status: ('A' for Active; 'I' for Inactive)
ROOT
ATOM      1  C   UNL d   1       2.199  -1.125  -1.125  0.00  0.00     0.172 C 
ATOM      2  N   UNL d   1       0.916  -0.672  -0.642  0.00  0.00    -0.070 N 
ATOM      3  C1  UNL d   1       0.427   0.603  -0.750  0.00  0.00    -0.004 A 
ATOM      4  C2  UNL d   1      -0.823   0.626  -0.169  0.00  0.00    -0.047 A 
ATOM      5  C3  UNL d   1      -1.093  -0.680   0.306  0.00  0.00    -0.047 A 
ATOM      6  C4  UNL d   1      -0.000  -1.463  -0.000  0.00  0.00    -0.004 A 
ENDROOT
TORSDOF 0
ENDMDL
