MODEL 1
REMARK minimizedAffinity -5.22607803
REMARK minimizedRMSD -1
REMARK  0 active torsions:
REMARK  status: ('A' for Active; 'I' for Inactive)
ROOT
ATOM      1  C1  BNZ d   1       1.231  -2.418   1.884  0.00  0.00     0.000 A 
ATOM      2  C2  BNZ d   1       1.735  -1.809   0.765  0.00  0.00     0.000 A 
ATOM      3  C3  BNZ d   1       0.997  -0.884   0.080  0.00  0.00     0.000 A 
ATOM      4  C4  BNZ d   1      -0.255  -0.599   0.491  0.00  0.00     0.000 A 
ATOM      5  C5  BNZ d   1      -0.780  -1.211   1.611  0.00  0.00     0.000 A 
ATOM      6  C6  BNZ d   1      -0.021  -2.113   2.321  0.00  0.00     0.000 A 
ENDROOT
TORSDOF 0
ENDMDL
