MODEL 1
REMARK minimizedAffinity -4.60784817
REMARK minimizedRMSD -1
REMARK  0 active torsions:
REMARK  status: ('A' for Active; 'I' for Inactive)
ROOT
ATOM      1  C1  BNZ d   1       1.961  -2.082   2.038  0.00  0.00     0.000 A 
ATOM      2  C2  BNZ d   1       1.241  -1.928   3.193  0.00  0.00     0.000 A 
ATOM      3  C3  BNZ d   1      -0.110  -1.728   3.155  0.00  0.00     0.000 A 
ATOM      4  C4  BNZ d   1      -0.734  -1.642   1.962  0.00  0.00     0.000 A 
ATOM      5  C5  BNZ d   1      -0.021  -1.786   0.788  0.00  0.00     0.000 A 
ATOM      6  C6  BNZ d   1       1.334  -2.026   0.832  0.00  0.00     0.000 A 
ENDROOT
TORSDOF 0
ENDMDL
