MODEL 1
REMARK minimizedAffinity -5.16714191
REMARK minimizedRMSD -1
REMARK  0 active torsions:
REMARK  status: ('A' for Active; 'I' for Inactive)
ROOT
ATOM      1  C1  BNZ d   1       1.020  -1.200   0.253  0.00  0.00     0.000 A 
ATOM      2  C2  BNZ d   1       1.911  -2.039   0.868  0.00  0.00     0.000 A 
ATOM      3  C3  BNZ d   1       1.541  -2.776   1.958  0.00  0.00     0.000 A 
ATOM      4  C4  BNZ d   1       0.295  -2.643   2.456  0.00  0.00     0.000 A 
ATOM      5  C5  BNZ d   1      -0.612  -1.794   1.854  0.00  0.00     0.000 A 
ATOM      6  C6  BNZ d   1      -0.248  -1.083   0.733  0.00  0.00     0.000 A 
ENDROOT
TORSDOF 0
ENDMDL
