MODEL 1
REMARK minimizedAffinity -4.57788324
REMARK minimizedRMSD -1
REMARK  0 active torsions:
REMARK  status: ('A' for Active; 'I' for Inactive)
ROOT
ATOM      1  C1  BNZ d   1      -0.788  -1.641   2.582  0.00  0.00     0.000 A 
ATOM      2  C2  BNZ d   1       0.352  -2.351   2.318  0.00  0.00     0.000 A 
ATOM      3  C3  BNZ d   1       1.029  -2.176   1.143  0.00  0.00     0.000 A 
ATOM      4  C4  BNZ d   1       0.543  -1.324   0.218  0.00  0.00     0.000 A 
ATOM      5  C5  BNZ d   1      -0.611  -0.608   0.466  0.00  0.00     0.000 A 
ATOM      6  C6  BNZ d   1      -1.268  -0.757   1.666  0.00  0.00     0.000 A 
ENDROOT
TORSDOF 0
ENDMDL
