MODEL 1
REMARK minimizedAffinity -5.03712559
REMARK minimizedRMSD -1
REMARK  0 active torsions:
REMARK  status: ('A' for Active; 'I' for Inactive)
ROOT
ATOM      1  C1  BNZ d   1       2.255  -1.139   0.574  0.00  0.00     0.000 A 
ATOM      2  C2  BNZ d   1       1.385  -2.126   0.957  0.00  0.00     0.000 A 
ATOM      3  C3  BNZ d   1       0.037  -1.970   0.799  0.00  0.00     0.000 A 
ATOM      4  C4  BNZ d   1      -0.443  -0.814   0.296  0.00  0.00     0.000 A 
ATOM      5  C5  BNZ d   1       0.420   0.194  -0.085  0.00  0.00     0.000 A 
ATOM      6  C6  BNZ d   1       1.779   0.018   0.039  0.00  0.00     0.000 A 
ENDROOT
TORSDOF 0
ENDMDL
