MODEL 1
REMARK minimizedAffinity -4.00525284
REMARK minimizedRMSD -1
REMARK  0 active torsions:
REMARK  status: ('A' for Active; 'I' for Inactive)
ROOT
ATOM      1  C1  BNZ d   1       1.144  -2.585   1.540  0.00  0.00     0.000 A 
ATOM      2  C2  BNZ d   1       0.652  -2.657   2.816  0.00  0.00     0.000 A 
ATOM      3  C3  BNZ d   1      -0.561  -2.111   3.131  0.00  0.00     0.000 A 
ATOM      4  C4  BNZ d   1      -1.261  -1.459   2.180  0.00  0.00     0.000 A 
ATOM      5  C5  BNZ d   1      -0.775  -1.370   0.891  0.00  0.00     0.000 A 
ATOM      6  C6  BNZ d   1       0.428  -1.954   0.569  0.00  0.00     0.000 A 
ENDROOT
TORSDOF 0
ENDMDL
