MODEL 1
REMARK minimizedAffinity -4.6672821
REMARK minimizedRMSD -1
REMARK  0 active torsions:
REMARK  status: ('A' for Active; 'I' for Inactive)
ROOT
ATOM      1  C1  BNZ d   1      -0.463  -0.579   0.579  0.00  0.00     0.000 A 
ATOM      2  C2  BNZ d   1      -0.095  -1.794   1.092  0.00  0.00     0.000 A 
ATOM      3  C3  BNZ d   1       1.173  -2.273   0.916  0.00  0.00     0.000 A 
ATOM      4  C4  BNZ d   1       2.059  -1.556   0.195  0.00  0.00     0.000 A 
ATOM      5  C5  BNZ d   1       1.700  -0.333  -0.337  0.00  0.00     0.000 A 
ATOM      6  C6  BNZ d   1       0.435   0.164  -0.124  0.00  0.00     0.000 A 
ENDROOT
TORSDOF 0
ENDMDL
