MODEL 1
REMARK minimizedAffinity -5.27376747
REMARK minimizedRMSD -1
REMARK  0 active torsions:
REMARK  status: ('A' for Active; 'I' for Inactive)
ROOT
ATOM      1  C1  BNZ d   1       0.081  -2.551   2.622  0.00  0.00     0.000 A 
ATOM      2  C2  BNZ d   1       1.126  -3.009   1.865  0.00  0.00     0.000 A 
ATOM      3  C3  BNZ d   1       1.492  -2.366   0.716  0.00  0.00     0.000 A 
ATOM      4  C4  BNZ d   1       0.789  -1.290   0.305  0.00  0.00     0.000 A 
ATOM      5  C5  BNZ d   1      -0.272  -0.822   1.053  0.00  0.00     0.000 A 
ATOM      6  C6  BNZ d   1      -0.614  -1.449   2.229  0.00  0.00     0.000 A 
ENDROOT
TORSDOF 0
ENDMDL
