MODEL 1
REMARK minimizedAffinity -3.87921786
REMARK minimizedRMSD -1
REMARK  0 active torsions:
REMARK  status: ('A' for Active; 'I' for Inactive)
ROOT
ATOM      1  C1  BNZ d   1       0.046  -2.603   1.799  0.00  0.00     0.000 A 
ATOM      2  C2  BNZ d   1      -0.686  -1.726   1.044  0.00  0.00     0.000 A 
ATOM      3  C3  BNZ d   1      -0.067  -0.786   0.267  0.00  0.00     0.000 A 
ATOM      4  C4  BNZ d   1       1.278  -0.698   0.279  0.00  0.00     0.000 A 
ATOM      5  C5  BNZ d   1       2.030  -1.568   1.042  0.00  0.00     0.000 A 
ATOM      6  C6  BNZ d   1       1.405  -2.539   1.792  0.00  0.00     0.000 A 
ENDROOT
TORSDOF 0
ENDMDL
