MODEL 1
REMARK minimizedAffinity -4.13851976
REMARK minimizedRMSD -1
REMARK  0 active torsions:
REMARK  status: ('A' for Active; 'I' for Inactive)
ROOT
ATOM      1  C1  BNZ d   1      -0.425  -0.702   0.845  0.00  0.00     0.000 A 
ATOM      2  C2  BNZ d   1       0.796  -1.115   0.381  0.00  0.00     0.000 A 
ATOM      3  C3  BNZ d   1       1.559  -1.991   1.102  0.00  0.00     0.000 A 
ATOM      4  C4  BNZ d   1       1.119  -2.421   2.302  0.00  0.00     0.000 A 
ATOM      5  C5  BNZ d   1      -0.105  -2.007   2.788  0.00  0.00     0.000 A 
ATOM      6  C6  BNZ d   1      -0.888  -1.155   2.042  0.00  0.00     0.000 A 
ENDROOT
TORSDOF 0
ENDMDL
