MODEL 1
REMARK minimizedAffinity -5.1233387
REMARK minimizedRMSD -1
REMARK  0 active torsions:
REMARK  status: ('A' for Active; 'I' for Inactive)
ROOT
ATOM      1  C1  BNZ d   1      -0.057  -0.925   0.655  0.00  0.00     0.000 A 
ATOM      2  C2  BNZ d   1       0.969  -1.372  -0.134  0.00  0.00     0.000 A 
ATOM      3  C3  BNZ d   1       1.733  -2.439   0.249  0.00  0.00     0.000 A 
ATOM      4  C4  BNZ d   1       1.496  -3.032   1.437  0.00  0.00     0.000 A 
ATOM      5  C5  BNZ d   1       0.471  -2.587   2.248  0.00  0.00     0.000 A 
ATOM      6  C6  BNZ d   1      -0.321  -1.537   1.841  0.00  0.00     0.000 A 
ENDROOT
TORSDOF 0
ENDMDL
