MODEL 1
REMARK minimizedAffinity -5.21575069
REMARK minimizedRMSD -1
REMARK  0 active torsions:
REMARK  status: ('A' for Active; 'I' for Inactive)
ROOT
ATOM      1  C1  BNZ d   1       1.271  -2.681   2.188  0.00  0.00     0.000 A 
ATOM      2  C2  BNZ d   1       2.006  -2.116   1.180  0.00  0.00     0.000 A 
ATOM      3  C3  BNZ d   1       1.469  -1.145   0.382  0.00  0.00     0.000 A 
ATOM      4  C4  BNZ d   1       0.188  -0.768   0.567  0.00  0.00     0.000 A 
ATOM      5  C5  BNZ d   1      -0.569  -1.334   1.573  0.00  0.00     0.000 A 
ATOM      6  C6  BNZ d   1      -0.014  -2.284   2.399  0.00  0.00     0.000 A 
ENDROOT
TORSDOF 0
ENDMDL
