MODEL 1
REMARK minimizedAffinity -3.52882218
REMARK minimizedRMSD -1
REMARK  0 active torsions:
REMARK  status: ('A' for Active; 'I' for Inactive)
ROOT
ATOM      1  C1  BNZ d   1       1.187  -2.825   2.088  0.00  0.00     0.000 A 
ATOM      2  C2  BNZ d   1       1.599  -2.366   0.865  0.00  0.00     0.000 A 
ATOM      3  C3  BNZ d   1       0.855  -1.451   0.174  0.00  0.00     0.000 A 
ATOM      4  C4  BNZ d   1      -0.318  -1.027   0.687  0.00  0.00     0.000 A 
ATOM      5  C5  BNZ d   1      -0.752  -1.487   1.914  0.00  0.00     0.000 A 
ATOM      6  C6  BNZ d   1       0.019  -2.379   2.625  0.00  0.00     0.000 A 
ENDROOT
TORSDOF 0
ENDMDL
