MODEL 1
REMARK minimizedAffinity -4.9871254
REMARK minimizedRMSD -1
REMARK  0 active torsions:
REMARK  status: ('A' for Active; 'I' for Inactive)
ROOT
ATOM      1  C1  BNZ d   1       0.048  -0.889   0.692  0.00  0.00     0.000 A 
ATOM      2  C2  BNZ d   1      -0.440  -1.481   1.826  0.00  0.00     0.000 A 
ATOM      3  C3  BNZ d   1       0.278  -2.446   2.476  0.00  0.00     0.000 A 
ATOM      4  C4  BNZ d   1       1.461  -2.847   1.968  0.00  0.00     0.000 A 
ATOM      5  C5  BNZ d   1       1.962  -2.266   0.820  0.00  0.00     0.000 A 
ATOM      6  C6  BNZ d   1       1.255  -1.267   0.191  0.00  0.00     0.000 A 
ENDROOT
TORSDOF 0
ENDMDL
