MODEL 1
REMARK minimizedAffinity -5.17670584
REMARK minimizedRMSD -1
REMARK  0 active torsions:
REMARK  status: ('A' for Active; 'I' for Inactive)
ROOT
ATOM      1  C   UNL d   1      -1.909  -1.502  -5.998  0.00  0.00     0.078 C 
ATOM      2  C1  UNL d   1      -0.761  -0.898  -5.246  0.00  0.00    -0.077 A 
ATOM      3  C2  UNL d   1       0.187  -0.099  -5.897  0.00  0.00    -0.001 A 
ATOM      4  C3  UNL d   1       1.256   0.449  -5.187  0.00  0.00     0.003 A 
ATOM      5  C4  UNL d   1       1.388   0.204  -3.822  0.00  0.00    -0.005 A 
ATOM      6  C5  UNL d   1       0.451  -0.592  -3.165  0.00  0.00     0.003 A 
ATOM      7  C6  UNL d   1      -0.619  -1.140  -3.874  0.00  0.00    -0.001 A 
ENDROOT
TORSDOF 0
ENDMDL
