MODEL 1
REMARK minimizedAffinity -3.10755992
REMARK minimizedRMSD -1
REMARK  0 active torsions:
REMARK  status: ('A' for Active; 'I' for Inactive)
ROOT
ATOM      1  C   UNL d   1      -1.203  -0.429  -5.507  0.00  0.00     0.078 C 
ATOM      2  C1  UNL d   1      -0.116  -0.211  -4.498  0.00  0.00    -0.077 A 
ATOM      3  C2  UNL d   1       1.051   0.486  -4.834  0.00  0.00    -0.001 A 
ATOM      4  C3  UNL d   1       2.059   0.673  -3.888  0.00  0.00     0.003 A 
ATOM      5  C4  UNL d   1       1.911   0.165  -2.598  0.00  0.00    -0.005 A 
ATOM      6  C5  UNL d   1       0.755  -0.531  -2.255  0.00  0.00     0.003 A 
ATOM      7  C6  UNL d   1      -0.255  -0.719  -3.201  0.00  0.00    -0.001 A 
ENDROOT
TORSDOF 0
ENDMDL
