MODEL 1
REMARK minimizedAffinity -4.8569212
REMARK minimizedRMSD -1
REMARK  0 active torsions:
REMARK  status: ('A' for Active; 'I' for Inactive)
ROOT
ATOM      1  C   UNL d   1       0.729  -1.005  -1.497  0.00  0.00     0.078 C 
ATOM      2  C1  UNL d   1      -0.102  -0.345  -0.437  0.00  0.00    -0.077 A 
ATOM      3  C2  UNL d   1       0.497   0.305   0.648  0.00  0.00    -0.001 A 
ATOM      4  C3  UNL d   1      -0.290   0.906   1.632  0.00  0.00     0.003 A 
ATOM      5  C4  UNL d   1      -1.679   0.862   1.541  0.00  0.00    -0.005 A 
ATOM      6  C5  UNL d   1      -2.285   0.215   0.466  0.00  0.00     0.003 A 
ATOM      7  C6  UNL d   1      -1.500  -0.387  -0.519  0.00  0.00    -0.001 A 
ENDROOT
TORSDOF 0
ENDMDL
