MODEL 1
REMARK minimizedAffinity -1.17396379
REMARK minimizedRMSD -1
REMARK  0 active torsions:
REMARK  status: ('A' for Active; 'I' for Inactive)
ROOT
ATOM      1  C   UNL d   1      -1.486   0.734   2.314  0.00  0.00     0.078 C 
ATOM      2  C1  UNL d   1      -0.715   0.160   1.163  0.00  0.00    -0.077 A 
ATOM      3  C2  UNL d   1       0.684   0.101   1.190  0.00  0.00    -0.001 A 
ATOM      4  C3  UNL d   1       1.389  -0.428   0.108  0.00  0.00     0.003 A 
ATOM      5  C4  UNL d   1       0.704  -0.901  -1.010  0.00  0.00    -0.005 A 
ATOM      6  C5  UNL d   1      -0.687  -0.844  -1.047  0.00  0.00     0.003 A 
ATOM      7  C6  UNL d   1      -1.394  -0.316   0.035  0.00  0.00    -0.001 A 
ENDROOT
TORSDOF 0
ENDMDL
