MODEL 1
REMARK minimizedAffinity -3.94890833
REMARK minimizedRMSD -1
REMARK  0 active torsions:
REMARK  status: ('A' for Active; 'I' for Inactive)
ROOT
ATOM      1  C   UNL d   1       0.822  -0.876  -0.758  0.00  0.00     0.078 C 
ATOM      2  C1  UNL d   1       0.296  -0.291   0.518  0.00  0.00    -0.077 A 
ATOM      3  C2  UNL d   1      -0.987   0.266   0.583  0.00  0.00    -0.001 A 
ATOM      4  C3  UNL d   1      -1.459   0.816   1.775  0.00  0.00     0.003 A 
ATOM      5  C4  UNL d   1      -0.654   0.816   2.912  0.00  0.00    -0.005 A 
ATOM      6  C5  UNL d   1       0.625   0.267   2.858  0.00  0.00     0.003 A 
ATOM      7  C6  UNL d   1       1.099  -0.284   1.666  0.00  0.00    -0.001 A 
ENDROOT
TORSDOF 0
ENDMDL
