MODEL 1
REMARK minimizedAffinity -1.77019429
REMARK minimizedRMSD -1
REMARK  0 active torsions:
REMARK  status: ('A' for Active; 'I' for Inactive)
ROOT
ATOM      1  C   UNL d   1       0.418  -0.115   0.099  0.00  0.00     0.077 C 
ATOM      2  C1  UNL d   1       1.214   1.071   0.556  0.00  0.00    -0.074 A 
ATOM      3  C2  UNL d   1       1.151   1.513   1.881  0.00  0.00    -0.005 A 
ATOM      4  C3  UNL d   1       1.905   2.612   2.293  0.00  0.00     0.006 A 
ATOM      5  C4  UNL d   1       2.728   3.279   1.386  0.00  0.00    -0.005 A 
ATOM      6  C5  UNL d   1       2.805   2.852   0.056  0.00  0.00    -0.074 A 
ATOM      7  C6  UNL d   1       3.692   3.552  -0.930  0.00  0.00     0.077 C 
ATOM      8  C7  UNL d   1       2.050   1.742  -0.348  0.00  0.00    -0.001 A 
ENDROOT
TORSDOF 0
ENDMDL
