MODEL 1
REMARK minimizedAffinity -2.54105067
REMARK minimizedRMSD -1
REMARK  0 active torsions:
REMARK  status: ('A' for Active; 'I' for Inactive)
ROOT
ATOM      1  C   UNL d   1       1.308   3.485   1.195  0.00  0.00     0.077 C 
ATOM      2  C1  UNL d   1       1.195   1.991   1.136  0.00  0.00    -0.074 A 
ATOM      3  C2  UNL d   1       2.318   1.177   1.323  0.00  0.00    -0.005 A 
ATOM      4  C3  UNL d   1       2.196  -0.211   1.275  0.00  0.00     0.006 A 
ATOM      5  C4  UNL d   1       0.952  -0.800   1.040  0.00  0.00    -0.005 A 
ATOM      6  C5  UNL d   1      -0.181  -0.002   0.851  0.00  0.00    -0.074 A 
ATOM      7  C6  UNL d   1      -1.526  -0.619   0.607  0.00  0.00     0.077 C 
ATOM      8  C7  UNL d   1      -0.052   1.392   0.908  0.00  0.00    -0.001 A 
ENDROOT
TORSDOF 0
ENDMDL
