MODEL 1
REMARK minimizedAffinity -1.26505613
REMARK minimizedRMSD -1
REMARK  0 active torsions:
REMARK  status: ('A' for Active; 'I' for Inactive)
ROOT
ATOM      1  C   UNL d   1      -3.430  -0.658   0.020  0.00  0.00     0.077 C 
ATOM      2  C1  UNL d   1      -2.008  -0.744   0.489  0.00  0.00    -0.074 A 
ATOM      3  C2  UNL d   1      -1.603  -1.748   1.373  0.00  0.00    -0.005 A 
ATOM      4  C3  UNL d   1      -0.275  -1.821   1.793  0.00  0.00     0.006 A 
ATOM      5  C4  UNL d   1       0.660  -0.892   1.334  0.00  0.00    -0.005 A 
ATOM      6  C5  UNL d   1       0.273   0.119   0.449  0.00  0.00    -0.074 A 
ATOM      7  C6  UNL d   1       1.266   1.119  -0.062  0.00  0.00     0.077 C 
ATOM      8  C7  UNL d   1      -1.062   0.181   0.026  0.00  0.00    -0.001 A 
ENDROOT
TORSDOF 0
ENDMDL
