MODEL 1
REMARK minimizedAffinity -2.15271592
REMARK minimizedRMSD -1
REMARK  0 active torsions:
REMARK  status: ('A' for Active; 'I' for Inactive)
ROOT
ATOM      1  C   UNL d   1       3.126   3.683   1.650  0.00  0.00     0.077 C 
ATOM      2  C1  UNL d   1       2.884   2.457   0.822  0.00  0.00    -0.074 A 
ATOM      3  C2  UNL d   1       3.519   2.287  -0.413  0.00  0.00    -0.005 A 
ATOM      4  C3  UNL d   1       3.292   1.136  -1.168  0.00  0.00     0.006 A 
ATOM      5  C4  UNL d   1       2.428   0.146  -0.697  0.00  0.00    -0.005 A 
ATOM      6  C5  UNL d   1       1.785   0.298   0.535  0.00  0.00    -0.074 A 
ATOM      7  C6  UNL d   1       0.862  -0.761   1.060  0.00  0.00     0.077 C 
ATOM      8  C7  UNL d   1       2.024   1.454   1.291  0.00  0.00    -0.001 A 
ENDROOT
TORSDOF 0
ENDMDL
