MODEL 1
REMARK minimizedAffinity -3.38364434
REMARK minimizedRMSD -1
REMARK  0 active torsions:
REMARK  status: ('A' for Active; 'I' for Inactive)
ROOT
ATOM      1  C   UNL d   1       0.780  -2.260   2.101  0.00  0.00     0.077 C 
ATOM      2  C1  UNL d   1      -0.139  -1.454   1.232  0.00  0.00    -0.074 A 
ATOM      3  C2  UNL d   1       0.325  -0.326   0.547  0.00  0.00    -0.005 A 
ATOM      4  C3  UNL d   1      -0.539   0.408  -0.265  0.00  0.00     0.006 A 
ATOM      5  C4  UNL d   1      -1.873   0.023  -0.401  0.00  0.00    -0.005 A 
ATOM      6  C5  UNL d   1      -2.355  -1.102   0.276  0.00  0.00    -0.074 A 
ATOM      7  C6  UNL d   1      -3.784  -1.535   0.134  0.00  0.00     0.077 C 
ATOM      8  C7  UNL d   1      -1.479  -1.839   1.085  0.00  0.00    -0.001 A 
ENDROOT
TORSDOF 0
ENDMDL
