MODEL 1
REMARK minimizedAffinity -4.97520781
REMARK minimizedRMSD -1
REMARK  0 active torsions:
REMARK  status: ('A' for Active; 'I' for Inactive)
ROOT
ATOM      1  C   UNL d   1      -1.772  -0.084  -0.379  0.00  0.00     0.077 C 
ATOM      2  C1  UNL d   1      -0.305  -0.028  -0.683  0.00  0.00    -0.074 A 
ATOM      3  C2  UNL d   1       0.636   0.125   0.340  0.00  0.00    -0.005 A 
ATOM      4  C3  UNL d   1       1.998   0.167   0.043  0.00  0.00     0.006 A 
ATOM      5  C4  UNL d   1       2.432   0.056  -1.279  0.00  0.00    -0.005 A 
ATOM      6  C5  UNL d   1       1.506  -0.099  -2.315  0.00  0.00    -0.074 A 
ATOM      7  C6  UNL d   1       1.956  -0.230  -3.740  0.00  0.00     0.077 C 
ATOM      8  C7  UNL d   1       0.140  -0.147  -2.007  0.00  0.00    -0.001 A 
ENDROOT
TORSDOF 0
ENDMDL
