MODEL 1
REMARK minimizedAffinity -5.88590813
REMARK minimizedRMSD -1
REMARK  0 active torsions:
REMARK  status: ('A' for Active; 'I' for Inactive)
ROOT
ATOM      1  C   UNL d   1       0.744  -0.012  -0.872  0.00  0.00     0.077 C 
ATOM      2  C1  UNL d   1       0.811   0.075  -2.368  0.00  0.00    -0.074 A 
ATOM      3  C2  UNL d   1       1.727  -0.695  -3.093  0.00  0.00    -0.005 A 
ATOM      4  C3  UNL d   1       1.770  -0.610  -4.485  0.00  0.00     0.006 A 
ATOM      5  C4  UNL d   1       0.900   0.244  -5.164  0.00  0.00    -0.005 A 
ATOM      6  C5  UNL d   1      -0.023   1.020  -4.456  0.00  0.00    -0.074 A 
ATOM      7  C6  UNL d   1      -0.972   1.935  -5.172  0.00  0.00     0.077 C 
ATOM      8  C7  UNL d   1      -0.065   0.924  -3.059  0.00  0.00    -0.001 A 
ENDROOT
TORSDOF 0
ENDMDL
