MODEL 1
REMARK minimizedAffinity -3.28281093
REMARK minimizedRMSD -1
REMARK  0 active torsions:
REMARK  status: ('A' for Active; 'I' for Inactive)
ROOT
ATOM      1  C   UNL d   1      -2.773  -0.387  -0.370  0.00  0.00     0.077 C 
ATOM      2  C1  UNL d   1      -1.283  -0.291  -0.513  0.00  0.00    -0.074 A 
ATOM      3  C2  UNL d   1      -0.451  -0.297   0.611  0.00  0.00    -0.005 A 
ATOM      4  C3  UNL d   1       0.933  -0.216   0.462  0.00  0.00     0.006 A 
ATOM      5  C4  UNL d   1       1.499  -0.128  -0.810  0.00  0.00    -0.005 A 
ATOM      6  C5  UNL d   1       0.683  -0.121  -1.946  0.00  0.00    -0.074 A 
ATOM      7  C6  UNL d   1       1.275  -0.037  -3.322  0.00  0.00     0.077 C 
ATOM      8  C7  UNL d   1      -0.707  -0.210  -1.788  0.00  0.00    -0.001 A 
ENDROOT
TORSDOF 0
ENDMDL
