MODEL 1
REMARK minimizedAffinity -4.44463587
REMARK minimizedRMSD -1
REMARK  0 active torsions:
REMARK  status: ('A' for Active; 'I' for Inactive)
ROOT
ATOM      1  C   UNL d   1       0.959  -0.523  -3.013  0.00  0.00     0.077 C 
ATOM      2  C1  UNL d   1       0.258  -0.490  -1.688  0.00  0.00    -0.074 A 
ATOM      3  C2  UNL d   1       0.979  -0.367  -0.496  0.00  0.00    -0.005 A 
ATOM      4  C3  UNL d   1       0.312  -0.328   0.729  0.00  0.00     0.006 A 
ATOM      5  C4  UNL d   1      -1.080  -0.410   0.774  0.00  0.00    -0.005 A 
ATOM      6  C5  UNL d   1      -1.818  -0.532  -0.408  0.00  0.00    -0.074 A 
ATOM      7  C6  UNL d   1      -3.316  -0.611  -0.378  0.00  0.00     0.077 C 
ATOM      8  C7  UNL d   1      -1.141  -0.564  -1.635  0.00  0.00    -0.001 A 
ENDROOT
TORSDOF 0
ENDMDL
