MODEL 1
REMARK minimizedAffinity -0.607392132
REMARK minimizedRMSD -1
REMARK  0 active torsions:
REMARK  status: ('A' for Active; 'I' for Inactive)
ROOT
ATOM      1  C   UNL d   1       0.613   0.280   0.671  0.00  0.00     0.077 C 
ATOM      2  C1  UNL d   1       1.396   1.484   1.103  0.00  0.00    -0.074 A 
ATOM      3  C2  UNL d   1       1.577   1.774   2.459  0.00  0.00    -0.005 A 
ATOM      4  C3  UNL d   1       2.316   2.892   2.845  0.00  0.00     0.006 A 
ATOM      5  C4  UNL d   1       2.880   3.730   1.882  0.00  0.00    -0.005 A 
ATOM      6  C5  UNL d   1       2.709   3.455   0.521  0.00  0.00    -0.074 A 
ATOM      7  C6  UNL d   1       3.316   4.339  -0.527  0.00  0.00     0.077 C 
ATOM      8  C7  UNL d   1       1.971   2.325   0.141  0.00  0.00    -0.001 A 
ENDROOT
TORSDOF 0
ENDMDL
