MODEL 1
REMARK minimizedAffinity -1.73711586
REMARK minimizedRMSD -1
REMARK  0 active torsions:
REMARK  status: ('A' for Active; 'I' for Inactive)
ROOT
ATOM      1  C   UNL d   1       1.535  -1.580   2.076  0.00  0.00     0.077 C 
ATOM      2  C1  UNL d   1       0.723  -0.966   0.974  0.00  0.00    -0.074 A 
ATOM      3  C2  UNL d   1       1.340  -0.270  -0.071  0.00  0.00    -0.005 A 
ATOM      4  C3  UNL d   1       0.572   0.287  -1.094  0.00  0.00     0.006 A 
ATOM      5  C4  UNL d   1      -0.817   0.154  -1.083  0.00  0.00    -0.005 A 
ATOM      6  C5  UNL d   1      -1.450  -0.540  -0.047  0.00  0.00    -0.074 A 
ATOM      7  C6  UNL d   1      -2.941  -0.702  -0.025  0.00  0.00     0.077 C 
ATOM      8  C7  UNL d   1      -0.672  -1.103   0.974  0.00  0.00    -0.001 A 
ENDROOT
TORSDOF 0
ENDMDL
