MODEL 1
REMARK minimizedAffinity -3.54158592
REMARK minimizedRMSD -1
REMARK  0 active torsions:
REMARK  status: ('A' for Active; 'I' for Inactive)
ROOT
ATOM      1  C   UNL d   1       0.939   1.070   0.128  0.00  0.00     0.077 C 
ATOM      2  C1  UNL d   1       0.124  -0.102   0.585  0.00  0.00    -0.074 A 
ATOM      3  C2  UNL d   1       0.636  -1.018   1.510  0.00  0.00    -0.005 A 
ATOM      4  C3  UNL d   1      -0.137  -2.099   1.932  0.00  0.00     0.006 A 
ATOM      5  C4  UNL d   1      -1.430  -2.274   1.436  0.00  0.00    -0.005 A 
ATOM      6  C5  UNL d   1      -1.959  -1.369   0.511  0.00  0.00    -0.074 A 
ATOM      7  C6  UNL d   1      -3.350  -1.537  -0.025  0.00  0.00     0.077 C 
ATOM      8  C7  UNL d   1      -1.178  -0.281   0.097  0.00  0.00    -0.001 A 
ENDROOT
TORSDOF 0
ENDMDL
