MODEL 1
REMARK minimizedAffinity -4.09495306
REMARK minimizedRMSD -1
REMARK  0 active torsions:
REMARK  status: ('A' for Active; 'I' for Inactive)
ROOT
ATOM      1  C   UNL d   1      -1.903  -1.265  -2.900  0.00  0.00     0.077 C 
ATOM      2  C1  UNL d   1      -1.765  -0.853  -1.465  0.00  0.00    -0.074 A 
ATOM      3  C2  UNL d   1      -2.743  -1.188  -0.523  0.00  0.00    -0.005 A 
ATOM      4  C3  UNL d   1      -2.596  -0.806   0.810  0.00  0.00     0.006 A 
ATOM      5  C4  UNL d   1      -1.472  -0.084   1.215  0.00  0.00    -0.005 A 
ATOM      6  C5  UNL d   1      -0.483   0.260   0.287  0.00  0.00    -0.074 A 
ATOM      7  C6  UNL d   1       0.736   1.026   0.707  0.00  0.00     0.077 C 
ATOM      8  C7  UNL d   1      -0.635  -0.134  -1.049  0.00  0.00    -0.001 A 
ENDROOT
TORSDOF 0
ENDMDL
