MODEL 1
REMARK minimizedAffinity -2.34272027
REMARK minimizedRMSD -1
REMARK  0 active torsions:
REMARK  status: ('A' for Active; 'I' for Inactive)
ROOT
ATOM      1  C   UNL d   1       1.177  -0.507  -2.166  0.00  0.00     0.077 C 
ATOM      2  C1  UNL d   1       0.204  -0.132  -1.088  0.00  0.00    -0.074 A 
ATOM      3  C2  UNL d   1       0.580   0.721  -0.045  0.00  0.00    -0.005 A 
ATOM      4  C3  UNL d   1      -0.338   1.068   0.946  0.00  0.00     0.006 A 
ATOM      5  C4  UNL d   1      -1.640   0.568   0.903  0.00  0.00    -0.005 A 
ATOM      6  C5  UNL d   1      -2.035  -0.285  -0.133  0.00  0.00    -0.074 A 
ATOM      7  C6  UNL d   1      -3.433  -0.823  -0.199  0.00  0.00     0.077 C 
ATOM      8  C7  UNL d   1      -1.108  -0.624  -1.128  0.00  0.00    -0.001 A 
ENDROOT
TORSDOF 0
ENDMDL
