MODEL 1
REMARK minimizedAffinity 0.0649767816
REMARK minimizedRMSD -1
REMARK  0 active torsions:
REMARK  status: ('A' for Active; 'I' for Inactive)
ROOT
ATOM      1  C   UNL d   1      -1.452  -2.201   2.539  0.00  0.00     0.077 C 
ATOM      2  C1  UNL d   1      -0.998  -1.304   1.426  0.00  0.00    -0.074 A 
ATOM      3  C2  UNL d   1      -1.866  -0.953   0.387  0.00  0.00    -0.005 A 
ATOM      4  C3  UNL d   1      -1.432  -0.110  -0.637  0.00  0.00     0.006 A 
ATOM      5  C4  UNL d   1      -0.129   0.389  -0.631  0.00  0.00    -0.005 A 
ATOM      6  C5  UNL d   1       0.752   0.050   0.400  0.00  0.00    -0.074 A 
ATOM      7  C6  UNL d   1       2.153   0.585   0.426  0.00  0.00     0.077 C 
ATOM      8  C7  UNL d   1       0.307  -0.792   1.428  0.00  0.00    -0.001 A 
ENDROOT
TORSDOF 0
ENDMDL
