MODEL 1
REMARK minimizedAffinity -3.82345319
REMARK minimizedRMSD -1
REMARK  0 active torsions:
REMARK  status: ('A' for Active; 'I' for Inactive)
ROOT
ATOM      1  C   UNL d   1      -2.597  -1.430  -2.985  0.00  0.00     0.077 C 
ATOM      2  C1  UNL d   1      -2.204  -1.084  -1.579  0.00  0.00    -0.074 A 
ATOM      3  C2  UNL d   1      -3.105  -1.244  -0.521  0.00  0.00    -0.005 A 
ATOM      4  C3  UNL d   1      -2.723  -0.927   0.782  0.00  0.00     0.006 A 
ATOM      5  C4  UNL d   1      -1.438  -0.449   1.041  0.00  0.00    -0.005 A 
ATOM      6  C5  UNL d   1      -0.523  -0.284  -0.004  0.00  0.00    -0.074 A 
ATOM      7  C6  UNL d   1       0.866   0.220   0.258  0.00  0.00     0.077 C 
ATOM      8  C7  UNL d   1      -0.912  -0.611  -1.310  0.00  0.00    -0.001 A 
ENDROOT
TORSDOF 0
ENDMDL
