MODEL 1
REMARK minimizedAffinity -5.80661869
REMARK minimizedRMSD -1
REMARK  0 active torsions:
REMARK  status: ('A' for Active; 'I' for Inactive)
ROOT
ATOM      1  C   UNL d   1       0.929  -1.665   1.303  0.00  0.00     0.077 C 
ATOM      2  C1  UNL d   1      -0.419  -1.321   0.743  0.00  0.00    -0.074 A 
ATOM      3  C2  UNL d   1      -1.591  -1.711   1.399  0.00  0.00    -0.005 A 
ATOM      4  C3  UNL d   1      -2.838  -1.376   0.871  0.00  0.00     0.006 A 
ATOM      5  C4  UNL d   1      -2.925  -0.649  -0.317  0.00  0.00    -0.005 A 
ATOM      6  C5  UNL d   1      -1.765  -0.249  -0.986  0.00  0.00    -0.074 A 
ATOM      7  C6  UNL d   1      -1.841   0.541  -2.259  0.00  0.00     0.077 C 
ATOM      8  C7  UNL d   1      -0.515  -0.584  -0.446  0.00  0.00    -0.001 A 
ENDROOT
TORSDOF 0
ENDMDL
