MODEL 1
REMARK minimizedAffinity 10.5507641
REMARK minimizedRMSD -1
REMARK  1 active torsions:
REMARK  status: ('A' for Active; 'I' for Inactive)
REMARK    1  A    between atoms: C1_2  and  C2_3 
ROOT
ATOM      1  C2  UNL d   1      -0.029   2.032   2.282  0.00  0.00    -0.076 A 
ATOM      2  C3  UNL d   1      -0.877   1.787   1.188  0.00  0.00     0.004 A 
ATOM      3  C4  UNL d   1      -0.938   2.674   0.114  0.00  0.00    -0.003 A 
ATOM      4  C5  UNL d   1      -0.150   3.820   0.117  0.00  0.00     0.000 A 
ATOM      5  C6  UNL d   1       0.710   4.070   1.186  0.00  0.00     0.000 A 
ATOM      6  C7  UNL d   1       0.795   3.178   2.268  0.00  0.00    -0.073 A 
ATOM      7  C8  UNL d   1       1.735   3.501   3.397  0.00  0.00     0.078 C 
ENDROOT
BRANCH   1   8
ATOM      8  C1  UNL d   1      -0.026   1.049   3.431  0.00  0.00     0.053 C 
ATOM      9  C   UNL d   1       0.936  -0.107   3.205  0.00  0.00     0.018 C 
ENDBRANCH   1   8
TORSDOF 1
ENDMDL
