MODEL 1
REMARK minimizedAffinity 5.55799866
REMARK minimizedRMSD -1
REMARK  1 active torsions:
REMARK  status: ('A' for Active; 'I' for Inactive)
REMARK    1  A    between atoms: C1_2  and  C2_3 
ROOT
ATOM      1  C2  UNL d   1       1.426  -2.919  -0.916  0.00  0.00    -0.076 A 
ATOM      2  C3  UNL d   1       0.174  -3.009  -1.549  0.00  0.00     0.004 A 
ATOM      3  C4  UNL d   1      -0.421  -1.888  -2.125  0.00  0.00    -0.003 A 
ATOM      4  C5  UNL d   1       0.226  -0.658  -2.078  0.00  0.00     0.000 A 
ATOM      5  C6  UNL d   1       1.477  -0.554  -1.470  0.00  0.00     0.000 A 
ATOM      6  C7  UNL d   1       2.098  -1.678  -0.899  0.00  0.00    -0.073 A 
ATOM      7  C8  UNL d   1       3.445  -1.506  -0.251  0.00  0.00     0.078 C 
ENDROOT
BRANCH   1   8
ATOM      8  C1  UNL d   1       2.011  -4.162  -0.286  0.00  0.00     0.053 C 
ATOM      9  C   UNL d   1       1.217  -5.415  -0.624  0.00  0.00     0.018 C 
ENDBRANCH   1   8
TORSDOF 1
ENDMDL
