MODEL 1
REMARK minimizedAffinity 6.96330357
REMARK minimizedRMSD -1
REMARK  1 active torsions:
REMARK  status: ('A' for Active; 'I' for Inactive)
REMARK    1  A    between atoms: C1_2  and  C2_3 
ROOT
ATOM      1  C2  UNL d   1      -1.223   0.661  -0.869  0.00  0.00    -0.076 A 
ATOM      2  C3  UNL d   1      -2.606   0.820  -0.677  0.00  0.00     0.004 A 
ATOM      3  C4  UNL d   1      -3.499  -0.195  -1.014  0.00  0.00    -0.003 A 
ATOM      4  C5  UNL d   1      -3.023  -1.387  -1.550  0.00  0.00     0.000 A 
ATOM      5  C6  UNL d   1      -1.653  -1.569  -1.731  0.00  0.00     0.000 A 
ATOM      6  C7  UNL d   1      -0.738  -0.562  -1.380  0.00  0.00    -0.073 A 
ATOM      7  C8  UNL d   1       0.729  -0.809  -1.603  0.00  0.00     0.078 C 
ENDROOT
BRANCH   1   8
ATOM      8  C1  UNL d   1      -0.305   1.807  -0.509  0.00  0.00     0.053 C 
ATOM      9  C   UNL d   1      -0.183   2.006   0.994  0.00  0.00     0.018 C 
ENDBRANCH   1   8
TORSDOF 1
ENDMDL
