MODEL 1
REMARK minimizedAffinity -1.75301826
REMARK minimizedRMSD -1
REMARK  1 active torsions:
REMARK  status: ('A' for Active; 'I' for Inactive)
REMARK    1  A    between atoms: C1_2  and  C2_3 
ROOT
ATOM      1  C2  UNL d   1      -1.048   1.043  -1.183  0.00  0.00    -0.076 A 
ATOM      2  C3  UNL d   1       0.068   0.188  -1.184  0.00  0.00     0.004 A 
ATOM      3  C4  UNL d   1      -0.089  -1.196  -1.191  0.00  0.00    -0.003 A 
ATOM      4  C5  UNL d   1      -1.364  -1.750  -1.198  0.00  0.00     0.000 A 
ATOM      5  C6  UNL d   1      -2.483  -0.917  -1.215  0.00  0.00     0.000 A 
ATOM      6  C7  UNL d   1      -2.342   0.482  -1.224  0.00  0.00    -0.073 A 
ATOM      7  C8  UNL d   1      -3.583   1.332  -1.236  0.00  0.00     0.078 C 
ENDROOT
BRANCH   1   8
ATOM      8  C1  UNL d   1      -0.816   2.537  -1.147  0.00  0.00     0.053 C 
ATOM      9  C   UNL d   1       0.021   2.968   0.047  0.00  0.00     0.018 C 
ENDBRANCH   1   8
TORSDOF 1
ENDMDL
