MODEL 1
REMARK minimizedAffinity 10.2273941
REMARK minimizedRMSD -1
REMARK  1 active torsions:
REMARK  status: ('A' for Active; 'I' for Inactive)
REMARK    1  A    between atoms: C1_2  and  C2_3 
ROOT
ATOM      1  C2  UNL d   1      -1.874  -1.101  -2.157  0.00  0.00    -0.076 A 
ATOM      2  C3  UNL d   1      -2.438  -1.686  -3.304  0.00  0.00     0.004 A 
ATOM      3  C4  UNL d   1      -1.656  -1.975  -4.421  0.00  0.00    -0.003 A 
ATOM      4  C5  UNL d   1      -0.297  -1.683  -4.408  0.00  0.00     0.000 A 
ATOM      5  C6  UNL d   1       0.283  -1.119  -3.273  0.00  0.00     0.000 A 
ATOM      6  C7  UNL d   1      -0.488  -0.837  -2.132  0.00  0.00    -0.073 A 
ATOM      7  C8  UNL d   1       0.188  -0.223  -0.937  0.00  0.00     0.078 C 
ENDROOT
BRANCH   1   8
ATOM      8  C1  UNL d   1      -2.777  -0.786  -0.986  0.00  0.00     0.053 C 
ATOM      9  C   UNL d   1      -3.791   0.301  -1.308  0.00  0.00     0.018 C 
ENDBRANCH   1   8
TORSDOF 1
ENDMDL
