MODEL 1
REMARK minimizedAffinity 3.10698724
REMARK minimizedRMSD -1
REMARK  1 active torsions:
REMARK  status: ('A' for Active; 'I' for Inactive)
REMARK    1  A    between atoms: C1_2  and  C2_3 
ROOT
ATOM      1  C2  UNL d   1      -2.052  -0.683  -1.302  0.00  0.00    -0.081 A 
ATOM      2  C3  UNL d   1      -1.390  -1.708  -0.617  0.00  0.00     0.006 A 
ATOM      3  C4  UNL d   1      -1.684  -1.971   0.723  0.00  0.00     0.002 A 
ATOM      4  C5  UNL d   1      -2.651  -1.218   1.398  0.00  0.00    -0.080 A 
ATOM      5  C6  UNL d   1      -2.999  -1.509   2.828  0.00  0.00     0.076 C 
ATOM      6  C7  UNL d   1      -3.301  -0.182   0.719  0.00  0.00     0.002 A 
ATOM      7  C8  UNL d   1      -3.006   0.082  -0.621  0.00  0.00     0.006 A 
ENDROOT
BRANCH   1   8
ATOM      8  C1  UNL d   1      -1.783  -0.439  -2.765  0.00  0.00     0.054 C 
ATOM      9  C   UNL d   1      -2.079  -1.680  -3.595  0.00  0.00     0.018 C 
ENDBRANCH   1   8
TORSDOF 1
ENDMDL
