MODEL 1
REMARK minimizedAffinity -0.53369683
REMARK minimizedRMSD -1
REMARK  1 active torsions:
REMARK  status: ('A' for Active; 'I' for Inactive)
REMARK    1  A    between atoms: C1_2  and  C2_3 
ROOT
ATOM      1  C2  UNL d   1      -4.098   2.738   2.645  0.00  0.00    -0.081 A 
ATOM      2  C3  UNL d   1      -4.413   1.862   1.600  0.00  0.00     0.006 A 
ATOM      3  C4  UNL d   1      -4.061   0.512   1.676  0.00  0.00     0.002 A 
ATOM      4  C5  UNL d   1      -3.395   0.015   2.802  0.00  0.00    -0.080 A 
ATOM      5  C6  UNL d   1      -3.038  -1.438   2.910  0.00  0.00     0.076 C 
ATOM      6  C7  UNL d   1      -3.065   0.894   3.839  0.00  0.00     0.002 A 
ATOM      7  C8  UNL d   1      -3.416   2.243   3.763  0.00  0.00     0.006 A 
ENDROOT
BRANCH   1   8
ATOM      8  C1  UNL d   1      -4.534   4.180   2.595  0.00  0.00     0.054 C 
ATOM      9  C   UNL d   1      -5.651   4.456   3.591  0.00  0.00     0.018 C 
ENDBRANCH   1   8
TORSDOF 1
ENDMDL
