MODEL 1
REMARK minimizedAffinity 5.95995808
REMARK minimizedRMSD -1
REMARK  1 active torsions:
REMARK  status: ('A' for Active; 'I' for Inactive)
REMARK    1  A    between atoms: C1_2  and  C2_3 
ROOT
ATOM      1  C2  UNL d   1       2.063  -0.130  -4.289  0.00  0.00    -0.081 A 
ATOM      2  C3  UNL d   1       0.972  -0.008  -3.419  0.00  0.00     0.006 A 
ATOM      3  C4  UNL d   1      -0.201   0.623  -3.839  0.00  0.00     0.002 A 
ATOM      4  C5  UNL d   1      -0.307   1.136  -5.136  0.00  0.00    -0.080 A 
ATOM      5  C6  UNL d   1      -1.571   1.789  -5.609  0.00  0.00     0.076 C 
ATOM      6  C7  UNL d   1       0.789   1.031  -5.999  0.00  0.00     0.002 A 
ATOM      7  C8  UNL d   1       1.963   0.400  -5.580  0.00  0.00     0.006 A 
ENDROOT
BRANCH   1   8
ATOM      8  C1  UNL d   1       3.306  -0.867  -3.861  0.00  0.00     0.054 C 
ATOM      9  C   UNL d   1       3.510  -0.780  -2.355  0.00  0.00     0.018 C 
ENDBRANCH   1   8
TORSDOF 1
ENDMDL
