MODEL 1
REMARK minimizedAffinity 8.73604298
REMARK minimizedRMSD -1
REMARK  1 active torsions:
REMARK  status: ('A' for Active; 'I' for Inactive)
REMARK    1  A    between atoms: C1_2  and  C2_3 
ROOT
ATOM      1  C2  UNL d   1       2.604   1.715   3.380  0.00  0.00    -0.081 A 
ATOM      2  C3  UNL d   1       2.627   0.504   2.679  0.00  0.00     0.006 A 
ATOM      3  C4  UNL d   1       2.234  -0.683   3.303  0.00  0.00     0.002 A 
ATOM      4  C5  UNL d   1       1.805  -0.677   4.634  0.00  0.00    -0.080 A 
ATOM      5  C6  UNL d   1       1.352  -1.939   5.306  0.00  0.00     0.076 C 
ATOM      6  C7  UNL d   1       1.799   0.531   5.340  0.00  0.00     0.002 A 
ATOM      7  C8  UNL d   1       2.191   1.718   4.717  0.00  0.00     0.006 A 
ENDROOT
BRANCH   1   8
ATOM      8  C1  UNL d   1       2.965   3.007   2.691  0.00  0.00     0.054 C 
ATOM      9  C   UNL d   1       2.845   2.879   1.179  0.00  0.00     0.018 C 
ENDBRANCH   1   8
TORSDOF 1
ENDMDL
