MODEL 1
REMARK minimizedAffinity 3.2307353
REMARK minimizedRMSD -1
REMARK  1 active torsions:
REMARK  status: ('A' for Active; 'I' for Inactive)
REMARK    1  A    between atoms: C1_2  and  C2_3 
ROOT
ATOM      1  C2  UNL d   1      -5.131   3.158   2.845  0.00  0.00    -0.081 A 
ATOM      2  C3  UNL d   1      -5.323   2.713   4.158  0.00  0.00     0.006 A 
ATOM      3  C4  UNL d   1      -5.591   3.623   5.183  0.00  0.00     0.002 A 
ATOM      4  C5  UNL d   1      -5.681   4.993   4.910  0.00  0.00    -0.080 A 
ATOM      5  C6  UNL d   1      -5.999   5.978   5.996  0.00  0.00     0.076 C 
ATOM      6  C7  UNL d   1      -5.473   5.440   3.601  0.00  0.00     0.002 A 
ATOM      7  C8  UNL d   1      -5.204   4.530   2.576  0.00  0.00     0.006 A 
ENDROOT
BRANCH   1   8
ATOM      8  C1  UNL d   1      -4.906   2.173   1.726  0.00  0.00     0.054 C 
ATOM      9  C   UNL d   1      -3.834   1.157   2.092  0.00  0.00     0.018 C 
ENDBRANCH   1   8
TORSDOF 1
ENDMDL
