MODEL 1
REMARK minimizedAffinity -3.24381351
REMARK minimizedRMSD -1
REMARK  1 active torsions:
REMARK  status: ('A' for Active; 'I' for Inactive)
REMARK    1  A    between atoms: C1_2  and  C2_3 
ROOT
ATOM      1  C2  UNL d   1      -5.414   5.004   2.870  0.00  0.00    -0.081 A 
ATOM      2  C3  UNL d   1      -5.293   5.377   4.215  0.00  0.00     0.006 A 
ATOM      3  C4  UNL d   1      -5.494   4.439   5.230  0.00  0.00     0.002 A 
ATOM      4  C5  UNL d   1      -5.811   3.113   4.919  0.00  0.00    -0.080 A 
ATOM      5  C6  UNL d   1      -6.000   2.089   5.999  0.00  0.00     0.076 C 
ATOM      6  C7  UNL d   1      -5.949   2.744   3.577  0.00  0.00     0.002 A 
ATOM      7  C8  UNL d   1      -5.749   3.682   2.561  0.00  0.00     0.006 A 
ENDROOT
BRANCH   1   8
ATOM      8  C1  UNL d   1      -5.134   5.997   1.771  0.00  0.00     0.054 C 
ATOM      9  C   UNL d   1      -4.420   5.339   0.599  0.00  0.00     0.018 C 
ENDBRANCH   1   8
TORSDOF 1
ENDMDL
