MODEL 1
REMARK minimizedAffinity -4.17807579
REMARK minimizedRMSD -1
REMARK  1 active torsions:
REMARK  status: ('A' for Active; 'I' for Inactive)
REMARK    1  A    between atoms: C1_2  and  C2_3 
ROOT
ATOM      1  C2  UNL d   1      -4.841   4.020   3.902  0.00  0.00    -0.081 A 
ATOM      2  C3  UNL d   1      -5.074   3.231   2.768  0.00  0.00     0.006 A 
ATOM      3  C4  UNL d   1      -5.168   3.819   1.504  0.00  0.00     0.002 A 
ATOM      4  C5  UNL d   1      -5.024   5.202   1.352  0.00  0.00    -0.080 A 
ATOM      5  C6  UNL d   1      -5.093   5.842  -0.003  0.00  0.00     0.076 C 
ATOM      6  C7  UNL d   1      -4.809   5.991   2.487  0.00  0.00     0.002 A 
ATOM      7  C8  UNL d   1      -4.715   5.405   3.751  0.00  0.00     0.006 A 
ENDROOT
BRANCH   1   8
ATOM      8  C1  UNL d   1      -4.675   3.382   5.258  0.00  0.00     0.054 C 
ATOM      9  C   UNL d   1      -5.701   2.281   5.481  0.00  0.00     0.018 C 
ENDBRANCH   1   8
TORSDOF 1
ENDMDL
