MODEL 1
REMARK minimizedAffinity -3.30962753
REMARK minimizedRMSD -1
REMARK  1 active torsions:
REMARK  status: ('A' for Active; 'I' for Inactive)
REMARK    1  A    between atoms: C1_2  and  C2_3 
ROOT
ATOM      1  C2  UNL d   1      -5.306   5.052   3.261  0.00  0.00    -0.081 A 
ATOM      2  C3  UNL d   1      -4.009   4.574   3.034  0.00  0.00     0.006 A 
ATOM      3  C4  UNL d   1      -3.421   3.673   3.925  0.00  0.00     0.002 A 
ATOM      4  C5  UNL d   1      -4.121   3.230   5.052  0.00  0.00    -0.080 A 
ATOM      5  C6  UNL d   1      -3.512   2.240   6.000  0.00  0.00     0.076 C 
ATOM      6  C7  UNL d   1      -5.409   3.721   5.288  0.00  0.00     0.002 A 
ATOM      7  C8  UNL d   1      -5.998   4.622   4.398  0.00  0.00     0.006 A 
ENDROOT
BRANCH   1   8
ATOM      8  C1  UNL d   1      -5.968   5.973   2.268  0.00  0.00     0.054 C 
ATOM      9  C   UNL d   1      -5.211   5.999   0.947  0.00  0.00     0.018 C 
ENDBRANCH   1   8
TORSDOF 1
ENDMDL
