MODEL 1
REMARK minimizedAffinity -3.73339844
REMARK minimizedRMSD -1
REMARK  1 active torsions:
REMARK  status: ('A' for Active; 'I' for Inactive)
REMARK    1  A    between atoms: C1_2  and  C2_3 
ROOT
ATOM      1  C2  UNL d   1      -5.851   4.367   2.303  0.00  0.00    -0.081 A 
ATOM      2  C3  UNL d   1      -5.514   3.126   1.749  0.00  0.00     0.006 A 
ATOM      3  C4  UNL d   1      -5.319   2.994   0.372  0.00  0.00     0.002 A 
ATOM      4  C5  UNL d   1      -5.449   4.102  -0.472  0.00  0.00    -0.080 A 
ATOM      5  C6  UNL d   1      -5.212   3.981  -1.948  0.00  0.00     0.076 C 
ATOM      6  C7  UNL d   1      -5.802   5.339   0.079  0.00  0.00     0.002 A 
ATOM      7  C8  UNL d   1      -5.999   5.470   1.455  0.00  0.00     0.006 A 
ENDROOT
BRANCH   1   8
ATOM      8  C1  UNL d   1      -5.999   4.526   3.794  0.00  0.00     0.054 C 
ATOM      9  C   UNL d   1      -5.978   5.993   4.199  0.00  0.00     0.018 C 
ENDBRANCH   1   8
TORSDOF 1
ENDMDL
