MODEL 1
REMARK minimizedAffinity -4.82786512
REMARK minimizedRMSD -1
REMARK  1 active torsions:
REMARK  status: ('A' for Active; 'I' for Inactive)
REMARK    1  A    between atoms: C1_2  and  C2_3 
ROOT
ATOM      1  C2  UNL d   1      -0.069  -0.656   0.597  0.00  0.00    -0.077 A 
ATOM      2  C3  UNL d   1       0.826  -1.302  -0.267  0.00  0.00     0.002 A 
ATOM      3  C4  UNL d   1       0.752  -2.683  -0.457  0.00  0.00     0.002 A 
ATOM      4  C5  UNL d   1      -0.217  -3.429   0.211  0.00  0.00    -0.004 A 
ATOM      5  C6  UNL d   1      -1.110  -2.796   1.075  0.00  0.00     0.002 A 
ATOM      6  C7  UNL d   1      -1.037  -1.416   1.266  0.00  0.00     0.002 A 
ENDROOT
BRANCH   1   7
ATOM      7  C1  UNL d   1      -0.023   0.841   0.765  0.00  0.00     0.055 C 
ATOM      8  C   UNL d   1       0.053   1.547  -0.580  0.00  0.00     0.019 C 
ENDBRANCH   1   7
TORSDOF 1
ENDMDL
