MODEL 1
REMARK minimizedAffinity -4.30060959
REMARK minimizedRMSD -1
REMARK  1 active torsions:
REMARK  status: ('A' for Active; 'I' for Inactive)
REMARK    1  A    between atoms: C1_2  and  C2_3 
ROOT
ATOM      1  C2  UNL d   1      -1.422  -2.450   0.430  0.00  0.00    -0.077 A 
ATOM      2  C3  UNL d   1      -0.395  -3.365   0.161  0.00  0.00     0.002 A 
ATOM      3  C4  UNL d   1       0.904  -2.917  -0.086  0.00  0.00     0.002 A 
ATOM      4  C5  UNL d   1       1.189  -1.553  -0.063  0.00  0.00    -0.004 A 
ATOM      5  C6  UNL d   1       0.173  -0.635   0.202  0.00  0.00     0.002 A 
ATOM      6  C7  UNL d   1      -1.126  -1.081   0.448  0.00  0.00     0.002 A 
ENDROOT
BRANCH   1   7
ATOM      7  C1  UNL d   1      -2.813  -2.934   0.746  0.00  0.00     0.055 C 
ATOM      8  C   UNL d   1      -3.546  -3.372  -0.514  0.00  0.00     0.019 C 
ENDBRANCH   1   7
TORSDOF 1
ENDMDL
