MODEL 1
REMARK minimizedAffinity -5.10243845
REMARK minimizedRMSD -1
REMARK  1 active torsions:
REMARK  status: ('A' for Active; 'I' for Inactive)
REMARK    1  A    between atoms: C1_2  and  C2_3 
ROOT
ATOM      1  C2  UNL d   1      -0.059  -0.327  -0.122  0.00  0.00    -0.077 A 
ATOM      2  C3  UNL d   1       0.753  -1.348  -0.637  0.00  0.00     0.002 A 
ATOM      3  C4  UNL d   1       0.700  -2.633  -0.094  0.00  0.00     0.002 A 
ATOM      4  C5  UNL d   1      -0.165  -2.910   0.963  0.00  0.00    -0.004 A 
ATOM      5  C6  UNL d   1      -0.974  -1.901   1.483  0.00  0.00     0.002 A 
ATOM      6  C7  UNL d   1      -0.922  -0.616   0.943  0.00  0.00     0.002 A 
ENDROOT
BRANCH   1   7
ATOM      7  C1  UNL d   1      -0.039   1.047  -0.738  0.00  0.00     0.055 C 
ATOM      8  C   UNL d   1       0.878   1.986   0.032  0.00  0.00     0.019 C 
ENDBRANCH   1   7
TORSDOF 1
ENDMDL
