MODEL 1
REMARK minimizedAffinity 0.0759676769
REMARK minimizedRMSD -1
REMARK  1 active torsions:
REMARK  status: ('A' for Active; 'I' for Inactive)
REMARK    1  A    between atoms: C1_2  and  C2_3 
ROOT
ATOM      1  C2  UNL d   1      -0.034  -0.836  -0.395  0.00  0.00    -0.077 A 
ATOM      2  C3  UNL d   1      -0.464  -2.098   0.037  0.00  0.00     0.002 A 
ATOM      3  C4  UNL d   1      -1.443  -2.210   1.026  0.00  0.00     0.002 A 
ATOM      4  C5  UNL d   1      -2.004  -1.064   1.587  0.00  0.00    -0.004 A 
ATOM      5  C6  UNL d   1      -1.582   0.196   1.164  0.00  0.00     0.002 A 
ATOM      6  C7  UNL d   1      -0.602   0.310   0.177  0.00  0.00     0.002 A 
ENDROOT
BRANCH   1   7
ATOM      7  C1  UNL d   1       0.987  -0.713  -1.496  0.00  0.00     0.055 C 
ATOM      8  C   UNL d   1       0.740  -1.735  -2.597  0.00  0.00     0.019 C 
ENDBRANCH   1   7
TORSDOF 1
ENDMDL
