MODEL 1
REMARK minimizedAffinity -5.10971689
REMARK minimizedRMSD -1
REMARK  1 active torsions:
REMARK  status: ('A' for Active; 'I' for Inactive)
REMARK    1  A    between atoms: C1_2  and  C2_3 
ROOT
ATOM      1  C2  UNL d   1      -0.067  -0.267  -0.521  0.00  0.00    -0.077 A 
ATOM      2  C3  UNL d   1       0.328  -1.105  -1.574  0.00  0.00     0.002 A 
ATOM      3  C4  UNL d   1       0.376  -2.489  -1.395  0.00  0.00     0.002 A 
ATOM      4  C5  UNL d   1       0.026  -3.047  -0.167  0.00  0.00    -0.004 A 
ATOM      5  C6  UNL d   1      -0.365  -2.222   0.886  0.00  0.00     0.002 A 
ATOM      6  C7  UNL d   1      -0.413  -0.839   0.710  0.00  0.00     0.002 A 
ENDROOT
BRANCH   1   7
ATOM      7  C1  UNL d   1      -0.166   1.222  -0.727  0.00  0.00     0.055 C 
ATOM      8  C   UNL d   1       0.910   1.962   0.054  0.00  0.00     0.019 C 
ENDBRANCH   1   7
TORSDOF 1
ENDMDL
