MODEL 1
REMARK minimizedAffinity -5.07980633
REMARK minimizedRMSD -1
REMARK  1 active torsions:
REMARK  status: ('A' for Active; 'I' for Inactive)
REMARK    1  A    between atoms: C1_2  and  C2_3 
ROOT
ATOM      1  C2  UNL d   1       0.116  -0.676  -0.723  0.00  0.00    -0.077 A 
ATOM      2  C3  UNL d   1       0.483  -1.648  -1.664  0.00  0.00     0.002 A 
ATOM      3  C4  UNL d   1       0.378  -3.006  -1.356  0.00  0.00     0.002 A 
ATOM      4  C5  UNL d   1      -0.098  -3.404  -0.108  0.00  0.00    -0.004 A 
ATOM      5  C6  UNL d   1      -0.463  -2.445   0.836  0.00  0.00     0.002 A 
ATOM      6  C7  UNL d   1      -0.358  -1.087   0.530  0.00  0.00     0.002 A 
ENDROOT
BRANCH   1   7
ATOM      7  C1  UNL d   1       0.182   0.788  -1.071  0.00  0.00     0.055 C 
ATOM      8  C   UNL d   1       0.163   1.656   0.179  0.00  0.00     0.019 C 
ENDBRANCH   1   7
TORSDOF 1
ENDMDL
