MODEL 1
REMARK minimizedAffinity -4.86862135
REMARK minimizedRMSD -1
REMARK  1 active torsions:
REMARK  status: ('A' for Active; 'I' for Inactive)
REMARK    1  A    between atoms: C1_2  and  C2_3 
ROOT
ATOM      1  C2  UNL d   1       0.848   0.856   0.194  0.00  0.00    -0.077 A 
ATOM      2  C3  UNL d   1       0.313   2.003  -0.409  0.00  0.00     0.002 A 
ATOM      3  C4  UNL d   1       0.847   3.263  -0.129  0.00  0.00     0.002 A 
ATOM      4  C5  UNL d   1       1.920   3.386   0.751  0.00  0.00    -0.004 A 
ATOM      5  C6  UNL d   1       2.458   2.251   1.358  0.00  0.00     0.002 A 
ATOM      6  C7  UNL d   1       1.925   0.992   1.079  0.00  0.00     0.002 A 
ENDROOT
BRANCH   1   7
ATOM      7  C1  UNL d   1       0.306  -0.508  -0.145  0.00  0.00     0.055 C 
ATOM      8  C   UNL d   1      -0.264  -1.199   1.085  0.00  0.00     0.019 C 
ENDBRANCH   1   7
TORSDOF 1
ENDMDL
