MODEL 1
REMARK minimizedAffinity -4.62363482
REMARK minimizedRMSD -1
REMARK  1 active torsions:
REMARK  status: ('A' for Active; 'I' for Inactive)
REMARK    1  A    between atoms: C1_2  and  C2_3 
ROOT
ATOM      1  C2  UNL d   1       0.244  -1.202  -0.250  0.00  0.00    -0.077 A 
ATOM      2  C3  UNL d   1      -0.137  -0.093   0.518  0.00  0.00     0.002 A 
ATOM      3  C4  UNL d   1      -0.249   1.168  -0.071  0.00  0.00     0.002 A 
ATOM      4  C5  UNL d   1       0.013   1.331  -1.429  0.00  0.00    -0.004 A 
ATOM      5  C6  UNL d   1       0.394   0.234  -2.201  0.00  0.00     0.002 A 
ATOM      6  C7  UNL d   1       0.509  -1.027  -1.615  0.00  0.00     0.002 A 
ENDROOT
BRANCH   1   7
ATOM      7  C1  UNL d   1       0.318  -2.572   0.371  0.00  0.00     0.055 C 
ATOM      8  C   UNL d   1      -1.070  -3.134   0.640  0.00  0.00     0.019 C 
ENDBRANCH   1   7
TORSDOF 1
ENDMDL
