MODEL 1
REMARK minimizedAffinity -3.41785288
REMARK minimizedRMSD -1
REMARK  1 active torsions:
REMARK  status: ('A' for Active; 'I' for Inactive)
REMARK    1  A    between atoms: C1_2  and  C2_3 
ROOT
ATOM      1  C2  UNL d   1      -0.405  -0.988   0.070  0.00  0.00    -0.077 A 
ATOM      2  C3  UNL d   1      -0.731  -2.297  -0.311  0.00  0.00     0.002 A 
ATOM      3  C4  UNL d   1      -1.573  -3.076   0.486  0.00  0.00     0.002 A 
ATOM      4  C5  UNL d   1      -2.099  -2.552   1.665  0.00  0.00    -0.004 A 
ATOM      5  C6  UNL d   1      -1.779  -1.252   2.054  0.00  0.00     0.002 A 
ATOM      6  C7  UNL d   1      -0.937  -0.473   1.259  0.00  0.00     0.002 A 
ENDROOT
BRANCH   1   7
ATOM      7  C1  UNL d   1       0.463  -0.130  -0.812  0.00  0.00     0.055 C 
ATOM      8  C   UNL d   1       0.357  -0.551  -2.271  0.00  0.00     0.019 C 
ENDBRANCH   1   7
TORSDOF 1
ENDMDL
