MODEL 1
REMARK minimizedAffinity -4.11345291
REMARK minimizedRMSD -1
REMARK  1 active torsions:
REMARK  status: ('A' for Active; 'I' for Inactive)
REMARK    1  A    between atoms: C1_2  and  C2_3 
ROOT
ATOM      1  C2  UNL d   1      -0.222   0.207   0.066  0.00  0.00    -0.077 A 
ATOM      2  C3  UNL d   1       0.482  -0.667  -0.776  0.00  0.00     0.002 A 
ATOM      3  C4  UNL d   1       0.455  -2.043  -0.546  0.00  0.00     0.002 A 
ATOM      4  C5  UNL d   1      -0.276  -2.559   0.522  0.00  0.00    -0.004 A 
ATOM      5  C6  UNL d   1      -0.978  -1.699   1.366  0.00  0.00     0.002 A 
ATOM      6  C7  UNL d   1      -0.951  -0.322   1.138  0.00  0.00     0.002 A 
ENDROOT
BRANCH   1   7
ATOM      7  C1  UNL d   1      -0.234   1.688  -0.210  0.00  0.00     0.055 C 
ATOM      8  C   UNL d   1       0.895   2.397   0.524  0.00  0.00     0.019 C 
ENDBRANCH   1   7
TORSDOF 1
ENDMDL
