MODEL 1
REMARK minimizedAffinity -4.05808783
REMARK minimizedRMSD -1
REMARK  1 active torsions:
REMARK  status: ('A' for Active; 'I' for Inactive)
REMARK    1  A    between atoms: C1_2  and  C2_3 
ROOT
ATOM      1  C2  UNL d   1      -0.040  -0.122   0.022  0.00  0.00    -0.077 A 
ATOM      2  C3  UNL d   1       0.252  -1.366  -0.556  0.00  0.00     0.002 A 
ATOM      3  C4  UNL d   1      -0.247  -2.541   0.009  0.00  0.00     0.002 A 
ATOM      4  C5  UNL d   1      -1.043  -2.484   1.151  0.00  0.00    -0.004 A 
ATOM      5  C6  UNL d   1      -1.338  -1.252   1.733  0.00  0.00     0.002 A 
ATOM      6  C7  UNL d   1      -0.839  -0.076   1.171  0.00  0.00     0.002 A 
ENDROOT
BRANCH   1   7
ATOM      7  C1  UNL d   1       0.456   1.150  -0.614  0.00  0.00     0.055 C 
ATOM      8  C   UNL d   1       0.555   2.276   0.405  0.00  0.00     0.019 C 
ENDBRANCH   1   7
TORSDOF 1
ENDMDL
