MODEL 1
REMARK minimizedAffinity -3.16296506
REMARK minimizedRMSD -1
REMARK  1 active torsions:
REMARK  status: ('A' for Active; 'I' for Inactive)
REMARK    1  A    between atoms: C1_2  and  C2_3 
ROOT
ATOM      1  C2  UNL d   1       1.007   2.897   1.013  0.00  0.00    -0.077 A 
ATOM      2  C3  UNL d   1       0.198   1.758   1.132  0.00  0.00     0.002 A 
ATOM      3  C4  UNL d   1      -0.112   0.991   0.007  0.00  0.00     0.002 A 
ATOM      4  C5  UNL d   1       0.387   1.352  -1.243  0.00  0.00    -0.004 A 
ATOM      5  C6  UNL d   1       1.190   2.484  -1.372  0.00  0.00     0.002 A 
ATOM      6  C7  UNL d   1       1.499   3.253  -0.249  0.00  0.00     0.002 A 
ENDROOT
BRANCH   1   7
ATOM      7  C1  UNL d   1       1.382   3.697   2.233  0.00  0.00     0.055 C 
ATOM      8  C   UNL d   1       0.147   4.164   2.990  0.00  0.00     0.019 C 
ENDBRANCH   1   7
TORSDOF 1
ENDMDL
