MODEL 1
REMARK minimizedAffinity -3.57858324
REMARK minimizedRMSD -1
REMARK  1 active torsions:
REMARK  status: ('A' for Active; 'I' for Inactive)
REMARK    1  A    between atoms: C1_2  and  C2_3 
ROOT
ATOM      1  C2  UNL d   1      -0.365  -1.414  -1.054  0.00  0.00    -0.077 A 
ATOM      2  C3  UNL d   1      -0.093  -0.173  -0.461  0.00  0.00     0.002 A 
ATOM      3  C4  UNL d   1      -0.269   0.007   0.913  0.00  0.00     0.002 A 
ATOM      4  C5  UNL d   1      -0.713  -1.050   1.704  0.00  0.00    -0.004 A 
ATOM      5  C6  UNL d   1      -0.988  -2.288   1.124  0.00  0.00     0.002 A 
ATOM      6  C7  UNL d   1      -0.814  -2.469  -0.249  0.00  0.00     0.002 A 
ENDROOT
BRANCH   1   7
ATOM      7  C1  UNL d   1      -0.129  -1.625  -2.527  0.00  0.00     0.055 C 
ATOM      8  C   UNL d   1      -0.876  -2.848  -3.038  0.00  0.00     0.019 C 
ENDBRANCH   1   7
TORSDOF 1
ENDMDL
