MODEL 1
REMARK minimizedAffinity -4.59931993
REMARK minimizedRMSD -1
REMARK  1 active torsions:
REMARK  status: ('A' for Active; 'I' for Inactive)
REMARK    1  A    between atoms: C1_2  and  C2_3 
ROOT
ATOM      1  C2  UNL d   1      -0.548  -1.216   0.590  0.00  0.00    -0.077 A 
ATOM      2  C3  UNL d   1       0.252  -1.482  -0.530  0.00  0.00     0.002 A 
ATOM      3  C4  UNL d   1       0.811  -0.434  -1.264  0.00  0.00     0.002 A 
ATOM      4  C5  UNL d   1       0.579   0.886  -0.884  0.00  0.00    -0.004 A 
ATOM      5  C6  UNL d   1      -0.217   1.161   0.228  0.00  0.00     0.002 A 
ATOM      6  C7  UNL d   1      -0.777   0.114   0.962  0.00  0.00     0.002 A 
ENDROOT
BRANCH   1   7
ATOM      7  C1  UNL d   1      -1.110  -2.347   1.412  0.00  0.00     0.055 C 
ATOM      8  C   UNL d   1      -0.264  -3.604   1.277  0.00  0.00     0.019 C 
ENDBRANCH   1   7
TORSDOF 1
ENDMDL
