MODEL 1
REMARK minimizedAffinity -6.39309168
REMARK minimizedRMSD -1
REMARK  1 active torsions:
REMARK  status: ('A' for Active; 'I' for Inactive)
REMARK    1  A    between atoms: C1_2  and  C2_3 
ROOT
ATOM      1  C2  UNL d   1      -0.807  -0.085   0.366  0.00  0.00    -0.077 A 
ATOM      2  C3  UNL d   1       0.292   0.400  -0.358  0.00  0.00     0.002 A 
ATOM      3  C4  UNL d   1       1.493  -0.311  -0.378  0.00  0.00     0.002 A 
ATOM      4  C5  UNL d   1       1.607  -1.511   0.320  0.00  0.00    -0.004 A 
ATOM      5  C6  UNL d   1       0.521  -2.000   1.045  0.00  0.00     0.002 A 
ATOM      6  C7  UNL d   1      -0.681  -1.291   1.067  0.00  0.00     0.002 A 
ENDROOT
BRANCH   1   7
ATOM      7  C1  UNL d   1      -2.119   0.655   0.348  0.00  0.00     0.055 C 
ATOM      8  C   UNL d   1      -2.734   0.659  -1.044  0.00  0.00     0.019 C 
ENDBRANCH   1   7
TORSDOF 1
ENDMDL
