MODEL 1
REMARK minimizedAffinity -2.02263927
REMARK minimizedRMSD -1
REMARK  1 active torsions:
REMARK  status: ('A' for Active; 'I' for Inactive)
REMARK    1  A    between atoms: C1_2  and  C2_3 
ROOT
ATOM      1  C2  UNL d   1      -0.305   1.522  -1.186  0.00  0.00    -0.077 A 
ATOM      2  C3  UNL d   1      -1.223   1.071  -0.226  0.00  0.00     0.002 A 
ATOM      3  C4  UNL d   1      -0.844   0.117   0.720  0.00  0.00     0.002 A 
ATOM      4  C5  UNL d   1       0.453  -0.392   0.718  0.00  0.00    -0.004 A 
ATOM      5  C6  UNL d   1       1.372   0.048  -0.234  0.00  0.00     0.002 A 
ATOM      6  C7  UNL d   1       0.995   1.001  -1.181  0.00  0.00     0.002 A 
ENDROOT
BRANCH   1   7
ATOM      7  C1  UNL d   1      -0.697   2.587  -2.176  0.00  0.00     0.055 C 
ATOM      8  C   UNL d   1      -1.829   2.116  -3.077  0.00  0.00     0.019 C 
ENDBRANCH   1   7
TORSDOF 1
ENDMDL
