MODEL 1
REMARK minimizedAffinity -4.23776913
REMARK minimizedRMSD -1
REMARK  1 active torsions:
REMARK  status: ('A' for Active; 'I' for Inactive)
REMARK    1  A    between atoms: C1_2  and  C2_3 
ROOT
ATOM      1  C2  UNL d   1      -0.071   0.507   0.326  0.00  0.00    -0.077 A 
ATOM      2  C3  UNL d   1       1.107   0.575  -0.430  0.00  0.00     0.002 A 
ATOM      3  C4  UNL d   1       2.155  -0.314  -0.186  0.00  0.00     0.002 A 
ATOM      4  C5  UNL d   1       2.034  -1.280   0.810  0.00  0.00    -0.004 A 
ATOM      5  C6  UNL d   1       0.867  -1.355   1.569  0.00  0.00     0.002 A 
ATOM      6  C7  UNL d   1      -0.181  -0.466   1.328  0.00  0.00     0.002 A 
ENDROOT
BRANCH   1   7
ATOM      7  C1  UNL d   1      -1.222   1.433   0.032  0.00  0.00     0.055 C 
ATOM      8  C   UNL d   1      -1.283   1.788  -1.447  0.00  0.00     0.019 C 
ENDBRANCH   1   7
TORSDOF 1
ENDMDL
