MODEL 1
REMARK minimizedAffinity -2.35955477
REMARK minimizedRMSD -1
REMARK  1 active torsions:
REMARK  status: ('A' for Active; 'I' for Inactive)
REMARK    1  A    between atoms: C1_2  and  C2_3 
ROOT
ATOM      1  C2  UNL d   1      -0.289   1.299  -0.818  0.00  0.00    -0.077 A 
ATOM      2  C3  UNL d   1       1.065   0.933  -0.814  0.00  0.00     0.002 A 
ATOM      3  C4  UNL d   1       1.514  -0.102   0.008  0.00  0.00     0.002 A 
ATOM      4  C5  UNL d   1       0.617  -0.782   0.829  0.00  0.00    -0.004 A 
ATOM      5  C6  UNL d   1      -0.731  -0.424   0.834  0.00  0.00     0.002 A 
ATOM      6  C7  UNL d   1      -1.182   0.611   0.014  0.00  0.00     0.002 A 
ENDROOT
BRANCH   1   7
ATOM      7  C1  UNL d   1      -0.784   2.382  -1.740  0.00  0.00     0.055 C 
ATOM      8  C   UNL d   1      -1.709   1.818  -2.810  0.00  0.00     0.019 C 
ENDBRANCH   1   7
TORSDOF 1
ENDMDL
