MODEL 1
REMARK minimizedAffinity -0.697722256
REMARK minimizedRMSD -1
REMARK  1 active torsions:
REMARK  status: ('A' for Active; 'I' for Inactive)
REMARK    1  A    between atoms: C1_2  and  C2_3 
ROOT
ATOM      1  C2  UNL d   1       0.122   0.261  -0.107  0.00  0.00    -0.077 A 
ATOM      2  C3  UNL d   1       0.032   0.155   1.288  0.00  0.00     0.002 A 
ATOM      3  C4  UNL d   1      -1.147  -0.291   1.888  0.00  0.00     0.002 A 
ATOM      4  C5  UNL d   1      -2.244  -0.637   1.101  0.00  0.00    -0.004 A 
ATOM      5  C6  UNL d   1      -2.165  -0.532  -0.287  0.00  0.00     0.002 A 
ATOM      6  C7  UNL d   1      -0.987  -0.086  -0.889  0.00  0.00     0.002 A 
ENDROOT
BRANCH   1   7
ATOM      7  C1  UNL d   1       1.409   0.695  -0.758  0.00  0.00     0.055 C 
ATOM      8  C   UNL d   1       2.124  -0.481  -1.409  0.00  0.00     0.019 C 
ENDBRANCH   1   7
TORSDOF 1
ENDMDL
