MODEL 1
REMARK minimizedAffinity -3.03136969
REMARK minimizedRMSD -1
REMARK  1 active torsions:
REMARK  status: ('A' for Active; 'I' for Inactive)
REMARK    1  A    between atoms: C1_2  and  C2_3 
ROOT
ATOM      1  C2  UNL d   1      -0.834   1.338  -1.224  0.00  0.00    -0.077 A 
ATOM      2  C3  UNL d   1      -1.743   0.523  -0.535  0.00  0.00     0.002 A 
ATOM      3  C4  UNL d   1      -1.305  -0.307   0.498  0.00  0.00     0.002 A 
ATOM      4  C5  UNL d   1       0.042  -0.329   0.854  0.00  0.00    -0.004 A 
ATOM      5  C6  UNL d   1       0.955   0.476   0.173  0.00  0.00     0.002 A 
ATOM      6  C7  UNL d   1       0.519   1.306  -0.861  0.00  0.00     0.002 A 
ENDROOT
BRANCH   1   7
ATOM      7  C1  UNL d   1      -1.312   2.271  -2.306  0.00  0.00     0.055 C 
ATOM      8  C   UNL d   1      -2.426   1.639  -3.129  0.00  0.00     0.019 C 
ENDBRANCH   1   7
TORSDOF 1
ENDMDL
