MODEL 1
REMARK minimizedAffinity -3.75058889
REMARK minimizedRMSD -1
REMARK  1 active torsions:
REMARK  status: ('A' for Active; 'I' for Inactive)
REMARK    1  A    between atoms: C1_2  and  C2_3 
ROOT
ATOM      1  C2  UNL d   1      -0.026  -0.287   0.790  0.00  0.00    -0.077 A 
ATOM      2  C3  UNL d   1       0.578   0.315  -0.323  0.00  0.00     0.002 A 
ATOM      3  C4  UNL d   1       1.863  -0.060  -0.719  0.00  0.00     0.002 A 
ATOM      4  C5  UNL d   1       2.554  -1.041  -0.009  0.00  0.00    -0.004 A 
ATOM      5  C6  UNL d   1       1.963  -1.644   1.100  0.00  0.00     0.002 A 
ATOM      6  C7  UNL d   1       0.679  -1.269   1.498  0.00  0.00     0.002 A 
ENDROOT
BRANCH   1   7
ATOM      7  C1  UNL d   1      -1.431   0.082   1.189  0.00  0.00     0.055 C 
ATOM      8  C   UNL d   1      -1.718  -0.310   2.631  0.00  0.00     0.019 C 
ENDBRANCH   1   7
TORSDOF 1
ENDMDL
