MODEL 1
REMARK minimizedAffinity -5.44063711
REMARK minimizedRMSD -1
REMARK  1 active torsions:
REMARK  status: ('A' for Active; 'I' for Inactive)
REMARK    1  A    between atoms: C1_2  and  C2_3 
ROOT
ATOM      1  C2  UNL d   1      -0.589  -0.702   0.937  0.00  0.00    -0.077 A 
ATOM      2  C3  UNL d   1      -1.041  -1.135   2.192  0.00  0.00     0.002 A 
ATOM      3  C4  UNL d   1      -0.257  -1.989   2.969  0.00  0.00     0.002 A 
ATOM      4  C5  UNL d   1       0.986  -2.414   2.503  0.00  0.00    -0.004 A 
ATOM      5  C6  UNL d   1       1.443  -1.991   1.256  0.00  0.00     0.002 A 
ATOM      6  C7  UNL d   1       0.660  -1.138   0.477  0.00  0.00     0.002 A 
ENDROOT
BRANCH   1   7
ATOM      7  C1  UNL d   1      -1.411   0.259   0.119  0.00  0.00     0.055 C 
ATOM      8  C   UNL d   1      -0.599   1.481  -0.283  0.00  0.00     0.019 C 
ENDBRANCH   1   7
TORSDOF 1
ENDMDL
