MODEL 1
REMARK minimizedAffinity -3.80288911
REMARK minimizedRMSD -1
REMARK  1 active torsions:
REMARK  status: ('A' for Active; 'I' for Inactive)
REMARK    1  A    between atoms: C1_2  and  C2_3 
ROOT
ATOM      1  C2  UNL d   1      -0.719   1.185  -0.762  0.00  0.00    -0.077 A 
ATOM      2  C3  UNL d   1       0.627   0.829  -0.602  0.00  0.00     0.002 A 
ATOM      3  C4  UNL d   1       1.003  -0.091   0.378  0.00  0.00     0.002 A 
ATOM      4  C5  UNL d   1       0.038  -0.665   1.203  0.00  0.00    -0.004 A 
ATOM      5  C6  UNL d   1      -1.303  -0.316   1.053  0.00  0.00     0.002 A 
ATOM      6  C7  UNL d   1      -1.680   0.604   0.074  0.00  0.00     0.002 A 
ENDROOT
BRANCH   1   7
ATOM      7  C1  UNL d   1      -1.132   2.140  -1.852  0.00  0.00     0.055 C 
ATOM      8  C   UNL d   1      -2.257   1.561  -2.698  0.00  0.00     0.019 C 
ENDBRANCH   1   7
TORSDOF 1
ENDMDL
