MODEL 1
REMARK minimizedAffinity -5.84394312
REMARK minimizedRMSD -1
REMARK  1 active torsions:
REMARK  status: ('A' for Active; 'I' for Inactive)
REMARK    1  A    between atoms: C1_2  and  C2_3 
ROOT
ATOM      1  C2  UNL d   1       0.007  -1.372   1.589  0.00  0.00    -0.077 A 
ATOM      2  C3  UNL d   1       0.858  -0.882   0.588  0.00  0.00     0.002 A 
ATOM      3  C4  UNL d   1       0.495   0.238  -0.161  0.00  0.00     0.002 A 
ATOM      4  C5  UNL d   1      -0.716   0.880   0.084  0.00  0.00    -0.004 A 
ATOM      5  C6  UNL d   1      -1.571   0.400   1.075  0.00  0.00     0.002 A 
ATOM      6  C7  UNL d   1      -1.210  -0.721   1.825  0.00  0.00     0.002 A 
ENDROOT
BRANCH   1   7
ATOM      7  C1  UNL d   1       0.419  -2.550   2.432  0.00  0.00     0.055 C 
ATOM      8  C   UNL d   1       1.537  -3.341   1.770  0.00  0.00     0.019 C 
ENDBRANCH   1   7
TORSDOF 1
ENDMDL
