MODEL 1
REMARK minimizedAffinity -4.10027266
REMARK minimizedRMSD -1
REMARK  0 active torsions:
REMARK  status: ('A' for Active; 'I' for Inactive)
ROOT
ATOM      1  C   UNL d   1       0.420  -0.315  -0.750  0.00  0.00     0.172 C 
ATOM      2  N   UNL d   1      -0.170   0.502   0.285  0.00  0.00    -0.070 N 
ATOM      3  C1  UNL d   1      -1.115   1.474   0.092  0.00  0.00    -0.004 A 
ATOM      4  C2  UNL d   1      -1.416   2.019   1.322  0.00  0.00    -0.047 A 
ATOM      5  C3  UNL d   1      -0.624   1.352   2.286  0.00  0.00    -0.047 A 
ATOM      6  C4  UNL d   1       0.138   0.417   1.617  0.00  0.00    -0.004 A 
ENDROOT
TORSDOF 0
ENDMDL
