MODEL 1
REMARK minimizedAffinity -3.93704081
REMARK minimizedRMSD -1
REMARK  0 active torsions:
REMARK  status: ('A' for Active; 'I' for Inactive)
ROOT
ATOM      1  C   UNL d   1       0.526  -0.039  -0.785  0.00  0.00     0.172 C 
ATOM      2  N   UNL d   1      -0.178   1.061  -0.170  0.00  0.00    -0.070 N 
ATOM      3  C1  UNL d   1      -0.617   2.188  -0.812  0.00  0.00    -0.004 A 
ATOM      4  C2  UNL d   1      -1.239   2.990   0.119  0.00  0.00    -0.047 A 
ATOM      5  C3  UNL d   1      -1.171   2.323   1.366  0.00  0.00    -0.047 A 
ATOM      6  C4  UNL d   1      -0.509   1.131   1.158  0.00  0.00    -0.004 A 
ENDROOT
TORSDOF 0
ENDMDL
