MODEL 1
REMARK minimizedAffinity -1.95771384
REMARK minimizedRMSD -1
REMARK  0 active torsions:
REMARK  status: ('A' for Active; 'I' for Inactive)
ROOT
ATOM      1  C   UNL d   1      -0.165   1.523  -0.991  0.00  0.00     0.172 C 
ATOM      2  N   UNL d   1       0.231   2.614  -0.131  0.00  0.00    -0.070 N 
ATOM      3  C1  UNL d   1       0.486   3.897  -0.536  0.00  0.00    -0.004 A 
ATOM      4  C2  UNL d   1       0.831   4.631   0.579  0.00  0.00    -0.047 A 
ATOM      5  C3  UNL d   1       0.782   3.758   1.692  0.00  0.00    -0.047 A 
ATOM      6  C4  UNL d   1       0.408   2.516   1.224  0.00  0.00    -0.004 A 
ENDROOT
TORSDOF 0
ENDMDL
