MODEL 1
REMARK minimizedAffinity 2.06745768
REMARK minimizedRMSD -1
REMARK  0 active torsions:
REMARK  status: ('A' for Active; 'I' for Inactive)
ROOT
ATOM      1  C   UNL d   1      -1.365   0.475  -1.207  0.00  0.00     0.172 C 
ATOM      2  N   UNL d   1      -2.727   0.530  -1.685  0.00  0.00    -0.070 N 
ATOM      3  C1  UNL d   1      -3.674   1.438  -1.295  0.00  0.00    -0.004 A 
ATOM      4  C2  UNL d   1      -4.837   1.155  -1.978  0.00  0.00    -0.047 A 
ATOM      5  C3  UNL d   1      -4.580   0.036  -2.807  0.00  0.00    -0.047 A 
ATOM      6  C4  UNL d   1      -3.266  -0.330  -2.605  0.00  0.00    -0.004 A 
ENDROOT
TORSDOF 0
ENDMDL
