MODEL 1
REMARK minimizedAffinity 1.51787436
REMARK minimizedRMSD -1
REMARK  0 active torsions:
REMARK  status: ('A' for Active; 'I' for Inactive)
ROOT
ATOM      1  C   UNL d   1       0.225   3.103  -0.480  0.00  0.00     0.172 C 
ATOM      2  N   UNL d   1       0.538   3.036   0.928  0.00  0.00    -0.070 N 
ATOM      3  C1  UNL d   1       1.571   3.688   1.548  0.00  0.00    -0.004 A 
ATOM      4  C2  UNL d   1       1.530   3.367   2.887  0.00  0.00    -0.047 A 
ATOM      5  C3  UNL d   1       0.434   2.492   3.079  0.00  0.00    -0.047 A 
ATOM      6  C4  UNL d   1      -0.162   2.304   1.850  0.00  0.00    -0.004 A 
ENDROOT
TORSDOF 0
ENDMDL
