MODEL 1
REMARK minimizedAffinity 5.03672028
REMARK minimizedRMSD -1
REMARK  1 active torsions:
REMARK  status: ('A' for Active; 'I' for Inactive)
REMARK    1  A    between atoms: C3_4  and  O_7 
ROOT
ATOM      1  C   UNL d   1      -0.430   1.290  -0.506  0.00  0.00    -0.033 A 
ATOM      2  C1  UNL d   1      -0.725  -0.075  -0.501  0.00  0.00     0.039 A 
ATOM      3  C2  UNL d   1       0.251  -1.003  -0.870  0.00  0.00    -0.080 A 
ATOM      4  C3  UNL d   1       1.516  -0.555  -1.239  0.00  0.00     0.150 A 
ATOM      5  C4  UNL d   1       1.818   0.803  -1.242  0.00  0.00    -0.007 A 
ATOM      6  C5  UNL d   1       0.842   1.729  -0.875  0.00  0.00     0.039 A 
ENDROOT
BRANCH   4   7
ATOM      7  O   UNL d   1       2.499  -1.423  -1.611  0.00  0.00    -0.526 OA
ATOM      8  H5  UNL d   1       2.138  -2.325  -1.589  0.00  0.00     0.418 HD
ENDBRANCH   4   7
TORSDOF 1
ENDMDL
