MODEL 1
REMARK minimizedAffinity 4.73955822
REMARK minimizedRMSD -1
REMARK  1 active torsions:
REMARK  status: ('A' for Active; 'I' for Inactive)
REMARK    1  A    between atoms: C3_4  and  O_7 
ROOT
ATOM      1  C   UNL d   1       1.733   2.475  -3.364  0.00  0.00    -0.033 A 
ATOM      2  C1  UNL d   1       0.847   2.593  -2.291  0.00  0.00     0.039 A 
ATOM      3  C2  UNL d   1       0.612   1.500  -1.454  0.00  0.00    -0.080 A 
ATOM      4  C3  UNL d   1       1.270   0.298  -1.700  0.00  0.00     0.150 A 
ATOM      5  C4  UNL d   1       2.156   0.175  -2.764  0.00  0.00    -0.007 A 
ATOM      6  C5  UNL d   1       2.389   1.267  -3.599  0.00  0.00     0.039 A 
ENDROOT
BRANCH   4   7
ATOM      7  O   UNL d   1       1.069  -0.797  -0.913  0.00  0.00    -0.526 OA
ATOM      8  H5  UNL d   1       0.410  -0.573  -0.235  0.00  0.00     0.418 HD
ENDBRANCH   4   7
TORSDOF 1
ENDMDL
