MODEL 1
REMARK minimizedAffinity -0.627168119
REMARK minimizedRMSD -1
REMARK  1 active torsions:
REMARK  status: ('A' for Active; 'I' for Inactive)
REMARK    1  A    between atoms: C3_4  and  O_7 
ROOT
ATOM      1  C   UNL d   1       1.073   2.316  -2.486  0.00  0.00    -0.033 A 
ATOM      2  C1  UNL d   1       0.439   1.676  -1.419  0.00  0.00     0.039 A 
ATOM      3  C2  UNL d   1       0.764   0.356  -1.102  0.00  0.00    -0.080 A 
ATOM      4  C3  UNL d   1       1.724  -0.312  -1.857  0.00  0.00     0.150 A 
ATOM      5  C4  UNL d   1       2.362   0.321  -2.918  0.00  0.00    -0.007 A 
ATOM      6  C5  UNL d   1       2.036   1.639  -3.235  0.00  0.00     0.039 A 
ENDROOT
BRANCH   4   7
ATOM      7  O   UNL d   1       2.071  -1.603  -1.588  0.00  0.00    -0.526 OA
ATOM      8  H5  UNL d   1       1.528  -1.919  -0.847  0.00  0.00     0.418 HD
ENDBRANCH   4   7
TORSDOF 1
ENDMDL
