MODEL 1
REMARK minimizedAffinity 0.329816103
REMARK minimizedRMSD -1
REMARK  1 active torsions:
REMARK  status: ('A' for Active; 'I' for Inactive)
REMARK    1  A    between atoms: C3_4  and  O_7 
ROOT
ATOM      1  C   UNL d   1       2.092  -0.689  -1.933  0.00  0.00    -0.033 A 
ATOM      2  C1  UNL d   1       0.843  -1.314  -1.922  0.00  0.00     0.039 A 
ATOM      3  C2  UNL d   1       0.624  -2.427  -1.107  0.00  0.00    -0.080 A 
ATOM      4  C3  UNL d   1       1.660  -2.903  -0.308  0.00  0.00     0.150 A 
ATOM      5  C4  UNL d   1       2.905  -2.282  -0.310  0.00  0.00    -0.007 A 
ATOM      6  C5  UNL d   1       3.122  -1.173  -1.126  0.00  0.00     0.039 A 
ENDROOT
BRANCH   4   7
ATOM      7  O   UNL d   1       1.495  -3.988   0.501  0.00  0.00    -0.526 OA
ATOM      8  H5  UNL d   1       0.594  -4.330   0.377  0.00  0.00     0.418 HD
ENDBRANCH   4   7
TORSDOF 1
ENDMDL
