MODEL 1
REMARK minimizedAffinity -3.05527616
REMARK minimizedRMSD -1
REMARK  1 active torsions:
REMARK  status: ('A' for Active; 'I' for Inactive)
REMARK    1  A    between atoms: C3_4  and  O_7 
ROOT
ATOM      1  C   UNL d   1       4.691  -5.999   4.196  0.00  0.00    -0.033 A 
ATOM      2  C1  UNL d   1       5.876  -5.642   4.842  0.00  0.00     0.039 A 
ATOM      3  C2  UNL d   1       6.000  -4.381   5.430  0.00  0.00    -0.080 A 
ATOM      4  C3  UNL d   1       4.933  -3.490   5.367  0.00  0.00     0.150 A 
ATOM      5  C4  UNL d   1       3.748  -3.841   4.728  0.00  0.00    -0.007 A 
ATOM      6  C5  UNL d   1       3.626  -5.099   4.140  0.00  0.00     0.039 A 
ENDROOT
BRANCH   4   7
ATOM      7  O   UNL d   1       5.008  -2.247   5.922  0.00  0.00    -0.526 OA
ATOM      8  H5  UNL d   1       5.895  -2.134   6.303  0.00  0.00     0.418 HD
ENDBRANCH   4   7
TORSDOF 1
ENDMDL
