MODEL 1
REMARK minimizedAffinity 4.26574183
REMARK minimizedRMSD -1
REMARK  1 active torsions:
REMARK  status: ('A' for Active; 'I' for Inactive)
REMARK    1  A    between atoms: C3_4  and  O_7 
ROOT
ATOM      1  C   UNL d   1       2.574   1.386  -2.931  0.00  0.00    -0.033 A 
ATOM      2  C1  UNL d   1       2.673   0.508  -1.851  0.00  0.00     0.039 A 
ATOM      3  C2  UNL d   1       1.806   0.635  -0.764  0.00  0.00    -0.080 A 
ATOM      4  C3  UNL d   1       0.846   1.642  -0.770  0.00  0.00     0.150 A 
ATOM      5  C4  UNL d   1       0.739   2.518  -1.845  0.00  0.00    -0.007 A 
ATOM      6  C5  UNL d   1       1.606   2.391  -2.929  0.00  0.00     0.039 A 
ENDROOT
BRANCH   4   7
ATOM      7  O   UNL d   1      -0.019   1.808   0.270  0.00  0.00    -0.526 OA
ATOM      8  H5  UNL d   1       0.191   1.150   0.953  0.00  0.00     0.418 HD
ENDBRANCH   4   7
TORSDOF 1
ENDMDL
