MODEL 1
REMARK minimizedAffinity 3.38546562
REMARK minimizedRMSD -1
REMARK  1 active torsions:
REMARK  status: ('A' for Active; 'I' for Inactive)
REMARK    1  A    between atoms: C3_4  and  O_7 
ROOT
ATOM      1  C   UNL d   1       0.685  -1.827  -0.644  0.00  0.00    -0.033 A 
ATOM      2  C1  UNL d   1      -0.360  -0.908  -0.531  0.00  0.00     0.039 A 
ATOM      3  C2  UNL d   1      -0.225   0.376  -1.064  0.00  0.00    -0.080 A 
ATOM      4  C3  UNL d   1       0.959   0.726  -1.709  0.00  0.00     0.150 A 
ATOM      5  C4  UNL d   1       2.002  -0.185  -1.828  0.00  0.00    -0.007 A 
ATOM      6  C5  UNL d   1       1.866  -1.466  -1.294  0.00  0.00     0.039 A 
ENDROOT
BRANCH   4   7
ATOM      7  O   UNL d   1       1.139   1.968  -2.241  0.00  0.00    -0.526 OA
ATOM      8  H5  UNL d   1       0.346   2.500  -2.058  0.00  0.00     0.418 HD
ENDBRANCH   4   7
TORSDOF 1
ENDMDL
