MODEL 1
REMARK minimizedAffinity -3.88754463
REMARK minimizedRMSD -1
REMARK  1 active torsions:
REMARK  status: ('A' for Active; 'I' for Inactive)
REMARK    1  A    between atoms: C3_4  and  O_7 
ROOT
ATOM      1  C   UNL d   1       2.743  -1.851  -1.530  0.00  0.00    -0.033 A 
ATOM      2  C1  UNL d   1       2.864  -0.695  -2.303  0.00  0.00     0.039 A 
ATOM      3  C2  UNL d   1       1.969   0.362  -2.125  0.00  0.00    -0.080 A 
ATOM      4  C3  UNL d   1       0.960   0.251  -1.172  0.00  0.00     0.150 A 
ATOM      5  C4  UNL d   1       0.836  -0.897  -0.396  0.00  0.00    -0.007 A 
ATOM      6  C5  UNL d   1       1.730  -1.952  -0.575  0.00  0.00     0.039 A 
ENDROOT
BRANCH   4   7
ATOM      7  O   UNL d   1       0.060   1.254  -0.966  0.00  0.00    -0.526 OA
ATOM      8  H5  UNL d   1       0.251   1.971  -1.594  0.00  0.00     0.418 HD
ENDBRANCH   4   7
TORSDOF 1
ENDMDL
