MODEL 1
REMARK minimizedAffinity 2.64780855
REMARK minimizedRMSD -1
REMARK  1 active torsions:
REMARK  status: ('A' for Active; 'I' for Inactive)
REMARK    1  A    between atoms: C3_4  and  O_7 
ROOT
ATOM      1  C   UNL d   1       0.596  -1.881  -0.760  0.00  0.00    -0.033 A 
ATOM      2  C1  UNL d   1       1.435  -2.582   0.108  0.00  0.00     0.039 A 
ATOM      3  C2  UNL d   1       2.809  -2.338   0.103  0.00  0.00    -0.080 A 
ATOM      4  C3  UNL d   1       3.332  -1.390  -0.773  0.00  0.00     0.150 A 
ATOM      5  C4  UNL d   1       2.502  -0.685  -1.638  0.00  0.00    -0.007 A 
ATOM      6  C5  UNL d   1       1.129  -0.931  -1.632  0.00  0.00     0.039 A 
ENDROOT
BRANCH   4   7
ATOM      7  O   UNL d   1       4.667  -1.121  -0.817  0.00  0.00    -0.526 OA
ATOM      8  H5  UNL d   1       5.120  -1.704  -0.185  0.00  0.00     0.418 HD
ENDBRANCH   4   7
TORSDOF 1
ENDMDL
