MODEL 1
REMARK minimizedAffinity 1.4323734
REMARK minimizedRMSD -1
REMARK  1 active torsions:
REMARK  status: ('A' for Active; 'I' for Inactive)
REMARK    1  A    between atoms: C3_4  and  O_7 
ROOT
ATOM      1  C   UNL d   1      -0.518   1.799  -0.642  0.00  0.00    -0.033 A 
ATOM      2  C1  UNL d   1       0.817   1.660  -1.027  0.00  0.00     0.039 A 
ATOM      3  C2  UNL d   1       1.838   1.869  -0.099  0.00  0.00    -0.080 A 
ATOM      4  C3  UNL d   1       1.512   2.214   1.210  0.00  0.00     0.150 A 
ATOM      5  C4  UNL d   1       0.185   2.351   1.601  0.00  0.00    -0.007 A 
ATOM      6  C5  UNL d   1      -0.834   2.143   0.672  0.00  0.00     0.039 A 
ENDROOT
BRANCH   4   7
ATOM      7  O   UNL d   1       2.475   2.433   2.150  0.00  0.00    -0.526 OA
ATOM      8  H5  UNL d   1       3.345   2.331   1.729  0.00  0.00     0.418 HD
ENDBRANCH   4   7
TORSDOF 1
ENDMDL
