MODEL 1
REMARK minimizedAffinity -2.2552228
REMARK minimizedRMSD -1
REMARK  1 active torsions:
REMARK  status: ('A' for Active; 'I' for Inactive)
REMARK    1  A    between atoms: C3_4  and  O_7 
ROOT
ATOM      1  C   UNL d   1       2.236   0.246  -1.899  0.00  0.00    -0.033 A 
ATOM      2  C1  UNL d   1       0.927  -0.050  -1.517  0.00  0.00     0.039 A 
ATOM      3  C2  UNL d   1       0.669  -1.149  -0.695  0.00  0.00    -0.080 A 
ATOM      4  C3  UNL d   1       1.728  -1.941  -0.261  0.00  0.00     0.150 A 
ATOM      5  C4  UNL d   1       3.036  -1.650  -0.635  0.00  0.00    -0.007 A 
ATOM      6  C5  UNL d   1       3.291  -0.553  -1.457  0.00  0.00     0.039 A 
ENDROOT
BRANCH   4   7
ATOM      7  O   UNL d   1       1.525  -3.027   0.539  0.00  0.00    -0.526 OA
ATOM      8  H5  UNL d   1       0.570  -3.122   0.692  0.00  0.00     0.418 HD
ENDBRANCH   4   7
TORSDOF 1
ENDMDL
