MODEL 1
REMARK minimizedAffinity -0.965201497
REMARK minimizedRMSD -1
REMARK  1 active torsions:
REMARK  status: ('A' for Active; 'I' for Inactive)
REMARK    1  A    between atoms: C3_4  and  O_7 
ROOT
ATOM      1  C   UNL d   1       1.848  -0.103  -1.616  0.00  0.00    -0.033 A 
ATOM      2  C1  UNL d   1       2.954  -0.449  -0.836  0.00  0.00     0.039 A 
ATOM      3  C2  UNL d   1       2.990  -1.681  -0.180  0.00  0.00    -0.080 A 
ATOM      4  C3  UNL d   1       1.916  -2.558  -0.314  0.00  0.00     0.150 A 
ATOM      5  C4  UNL d   1       0.814  -2.222  -1.093  0.00  0.00    -0.007 A 
ATOM      6  C5  UNL d   1       0.779  -0.990  -1.746  0.00  0.00     0.039 A 
ENDROOT
BRANCH   4   7
ATOM      7  O   UNL d   1       1.904  -3.769   0.311  0.00  0.00    -0.526 OA
ATOM      8  H5  UNL d   1       2.717  -3.853   0.836  0.00  0.00     0.418 HD
ENDBRANCH   4   7
TORSDOF 1
ENDMDL
