MODEL 1
REMARK minimizedAffinity 9.64563465
REMARK minimizedRMSD -1
REMARK  1 active torsions:
REMARK  status: ('A' for Active; 'I' for Inactive)
REMARK    1  A    between atoms: C3_4  and  O_7 
ROOT
ATOM      1  C   UNL d   1       0.667   2.156  -2.571  0.00  0.00    -0.033 A 
ATOM      2  C1  UNL d   1       0.307   1.497  -1.395  0.00  0.00     0.039 A 
ATOM      3  C2  UNL d   1       0.887   0.268  -1.075  0.00  0.00    -0.080 A 
ATOM      4  C3  UNL d   1       1.826  -0.290  -1.938  0.00  0.00     0.150 A 
ATOM      5  C4  UNL d   1       2.193   0.363  -3.110  0.00  0.00    -0.007 A 
ATOM      6  C5  UNL d   1       1.612   1.590  -3.428  0.00  0.00     0.039 A 
ENDROOT
BRANCH   4   7
ATOM      7  O   UNL d   1       2.416  -1.489  -1.671  0.00  0.00    -0.526 OA
ATOM      8  H5  UNL d   1       2.045  -1.837  -0.843  0.00  0.00     0.418 HD
ENDBRANCH   4   7
TORSDOF 1
ENDMDL
