MODEL 1
REMARK minimizedAffinity 2.41176772
REMARK minimizedRMSD -1
REMARK  1 active torsions:
REMARK  status: ('A' for Active; 'I' for Inactive)
REMARK    1  A    between atoms: C3_4  and  O_7 
ROOT
ATOM      1  C   UNL d   1       1.236   1.666  -1.634  0.00  0.00    -0.033 A 
ATOM      2  C1  UNL d   1       2.408   1.380  -2.337  0.00  0.00     0.039 A 
ATOM      3  C2  UNL d   1       2.955   0.096  -2.291  0.00  0.00    -0.080 A 
ATOM      4  C3  UNL d   1       2.321  -0.891  -1.542  0.00  0.00     0.150 A 
ATOM      5  C4  UNL d   1       1.151  -0.613  -0.843  0.00  0.00    -0.007 A 
ATOM      6  C5  UNL d   1       0.607   0.669  -0.888  0.00  0.00     0.039 A 
ENDROOT
BRANCH   4   7
ATOM      7  O   UNL d   1       2.820  -2.157  -1.464  0.00  0.00    -0.526 OA
ATOM      8  H5  UNL d   1       3.647  -2.194  -1.973  0.00  0.00     0.418 HD
ENDBRANCH   4   7
TORSDOF 1
ENDMDL
