MODEL 1
REMARK minimizedAffinity 13.735713
REMARK minimizedRMSD -1
REMARK  0 active torsions:
REMARK  status: ('A' for Active; 'I' for Inactive)
ROOT
ATOM      1  C1  DEN d   1      -1.029   1.889   2.463  0.00  0.00     0.130 A 
ATOM      2  C2  DEN d   1      -0.232   0.993   1.631  0.00  0.00    -0.031 A 
ATOM      3  C3  DEN d   1       0.907   0.512   2.439  0.00  0.00     0.027 A 
ATOM      4  C4  DEN d   1       1.506   1.061   4.887  0.00  0.00     0.027 A 
ATOM      5  C5  DEN d   1       1.134   1.783   5.999  0.00  0.00    -0.003 A 
ATOM      6  C6  DEN d   1       0.042   2.611   6.000  0.00  0.00     0.001 A 
ATOM      7  C7  DEN d   1      -0.742   2.702   4.880  0.00  0.00     0.017 A 
ATOM      8  C8  DEN d   1      -0.368   1.983   3.752  0.00  0.00    -0.094 A 
ATOM      9  C9  DEN d   1       0.732   1.142   3.775  0.00  0.00    -0.072 A 
ENDROOT
TORSDOF 0
ENDMDL
