MODEL 1
REMARK minimizedAffinity 3.52188015
REMARK minimizedRMSD -1
REMARK  0 active torsions:
REMARK  status: ('A' for Active; 'I' for Inactive)
ROOT
ATOM      1  C1  DEN d   1      -3.746  -3.727  -4.761  0.00  0.00     0.130 A 
ATOM      2  C2  DEN d   1      -3.227  -3.154  -6.000  0.00  0.00    -0.031 A 
ATOM      3  C3  DEN d   1      -1.759  -3.318  -5.999  0.00  0.00     0.027 A 
ATOM      4  C4  DEN d   1      -0.248  -4.401  -4.211  0.00  0.00     0.027 A 
ATOM      5  C5  DEN d   1      -0.231  -5.017  -2.979  0.00  0.00    -0.003 A 
ATOM      6  C6  DEN d   1      -1.371  -5.214  -2.245  0.00  0.00     0.001 A 
ATOM      7  C7  DEN d   1      -2.583  -4.831  -2.758  0.00  0.00     0.017 A 
ATOM      8  C8  DEN d   1      -2.607  -4.203  -3.996  0.00  0.00    -0.094 A 
ATOM      9  C9  DEN d   1      -1.445  -4.024  -4.727  0.00  0.00    -0.072 A 
ENDROOT
TORSDOF 0
ENDMDL
