MODEL 1
REMARK minimizedAffinity 16.1445103
REMARK minimizedRMSD -1
REMARK  0 active torsions:
REMARK  status: ('A' for Active; 'I' for Inactive)
ROOT
ATOM      1  C1  DEN d   1      -3.449   2.982   5.721  0.00  0.00     0.130 A 
ATOM      2  C2  DEN d   1      -4.902   2.840   5.727  0.00  0.00    -0.031 A 
ATOM      3  C3  DEN d   1      -5.282   1.978   4.590  0.00  0.00     0.027 A 
ATOM      4  C4  DEN d   1      -3.768   0.852   2.832  0.00  0.00     0.027 A 
ATOM      5  C5  DEN d   1      -2.467   0.690   2.409  0.00  0.00    -0.003 A 
ATOM      6  C6  DEN d   1      -1.414   1.303   3.034  0.00  0.00     0.001 A 
ATOM      7  C7  DEN d   1      -1.639   2.071   4.146  0.00  0.00     0.017 A 
ATOM      8  C8  DEN d   1      -2.949   2.245   4.574  0.00  0.00    -0.094 A 
ATOM      9  C9  DEN d   1      -3.999   1.607   3.936  0.00  0.00    -0.072 A 
ENDROOT
TORSDOF 0
ENDMDL
