MODEL 1
REMARK minimizedAffinity 11.6447306
REMARK minimizedRMSD -1
REMARK  0 active torsions:
REMARK  status: ('A' for Active; 'I' for Inactive)
ROOT
ATOM      1  C1  DEN d   1      -1.782  -3.379  -5.866  0.00  0.00     0.130 A 
ATOM      2  C2  DEN d   1      -3.236  -3.355  -6.000  0.00  0.00    -0.031 A 
ATOM      3  C3  DEN d   1      -3.819  -3.785  -4.714  0.00  0.00     0.027 A 
ATOM      4  C4  DEN d   1      -2.619  -4.477  -2.538  0.00  0.00     0.027 A 
ATOM      5  C5  DEN d   1      -1.391  -4.667  -1.945  0.00  0.00    -0.003 A 
ATOM      6  C6  DEN d   1      -0.216  -4.474  -2.623  0.00  0.00     0.001 A 
ATOM      7  C7  DEN d   1      -0.244  -4.037  -3.920  0.00  0.00     0.017 A 
ATOM      8  C8  DEN d   1      -1.480  -3.851  -4.527  0.00  0.00    -0.094 A 
ATOM      9  C9  DEN d   1      -2.656  -4.039  -3.822  0.00  0.00    -0.072 A 
ENDROOT
TORSDOF 0
ENDMDL
