MODEL 1
REMARK minimizedAffinity 13.8112965
REMARK minimizedRMSD -1
REMARK  0 active torsions:
REMARK  status: ('A' for Active; 'I' for Inactive)
ROOT
ATOM      1  C1  DEN d   1      -2.983  -5.708  -3.536  0.00  0.00     0.130 A 
ATOM      2  C2  DEN d   1      -1.908  -4.874  -3.005  0.00  0.00    -0.031 A 
ATOM      3  C3  DEN d   1      -2.046  -3.525  -3.589  0.00  0.00     0.027 A 
ATOM      4  C4  DEN d   1      -3.813  -2.649  -5.251  0.00  0.00     0.027 A 
ATOM      5  C5  DEN d   1      -4.920  -2.991  -5.996  0.00  0.00    -0.003 A 
ATOM      6  C6  DEN d   1      -5.434  -4.260  -6.000  0.00  0.00     0.001 A 
ATOM      7  C7  DEN d   1      -4.868  -5.224  -5.208  0.00  0.00     0.017 A 
ATOM      8  C8  DEN d   1      -3.747  -4.889  -4.460  0.00  0.00    -0.094 A 
ATOM      9  C9  DEN d   1      -3.249  -3.597  -4.460  0.00  0.00    -0.072 A 
ENDROOT
TORSDOF 0
ENDMDL
