MODEL 1
REMARK minimizedAffinity 7.73045492
REMARK minimizedRMSD -1
REMARK  0 active torsions:
REMARK  status: ('A' for Active; 'I' for Inactive)
ROOT
ATOM      1  C1  DEN d   1      -0.551  -4.825  -2.665  0.00  0.00     0.130 A 
ATOM      2  C2  DEN d   1      -1.728  -4.056  -3.059  0.00  0.00    -0.031 A 
ATOM      3  C3  DEN d   1      -1.423  -2.624  -2.869  0.00  0.00     0.027 A 
ATOM      4  C4  DEN d   1       0.748  -1.527  -2.010  0.00  0.00     0.027 A 
ATOM      5  C5  DEN d   1       2.019  -1.772  -1.540  0.00  0.00    -0.003 A 
ATOM      6  C6  DEN d   1       2.507  -3.042  -1.381  0.00  0.00     0.001 A 
ATOM      7  C7  DEN d   1       1.734  -4.116  -1.738  0.00  0.00     0.017 A 
ATOM      8  C8  DEN d   1       0.448  -3.877  -2.205  0.00  0.00    -0.094 A 
ATOM      9  C9  DEN d   1      -0.022  -2.585  -2.370  0.00  0.00    -0.072 A 
ENDROOT
TORSDOF 0
ENDMDL
