MODEL 1
REMARK minimizedAffinity 18.2727318
REMARK minimizedRMSD -1
REMARK  0 active torsions:
REMARK  status: ('A' for Active; 'I' for Inactive)
ROOT
ATOM      1  C1  DEN d   1      -3.791   0.368   1.964  0.00  0.00     0.130 A 
ATOM      2  C2  DEN d   1      -2.850   0.796   2.995  0.00  0.00    -0.031 A 
ATOM      3  C3  DEN d   1      -2.972  -0.131   4.138  0.00  0.00     0.027 A 
ATOM      4  C4  DEN d   1      -4.514  -2.181   4.407  0.00  0.00     0.027 A 
ATOM      5  C5  DEN d   1      -5.496  -2.934   3.803  0.00  0.00    -0.003 A 
ATOM      6  C6  DEN d   1      -6.000  -2.621   2.568  0.00  0.00     0.001 A 
ATOM      7  C7  DEN d   1      -5.489  -1.554   1.877  0.00  0.00     0.017 A 
ATOM      8  C8  DEN d   1      -4.503  -0.786   2.483  0.00  0.00    -0.094 A 
ATOM      9  C9  DEN d   1      -3.999  -1.125   3.727  0.00  0.00    -0.072 A 
ENDROOT
TORSDOF 0
ENDMDL
