MODEL 1
REMARK minimizedAffinity 18.0159187
REMARK minimizedRMSD -1
REMARK  0 active torsions:
REMARK  status: ('A' for Active; 'I' for Inactive)
ROOT
ATOM      1  C1  DEN d   1      -3.774   0.814   2.524  0.00  0.00     0.130 A 
ATOM      2  C2  DEN d   1      -2.338   0.571   2.634  0.00  0.00    -0.031 A 
ATOM      3  C3  DEN d   1      -1.865   1.193   3.888  0.00  0.00     0.027 A 
ATOM      4  C4  DEN d   1      -3.210   2.497   5.661  0.00  0.00     0.027 A 
ATOM      5  C5  DEN d   1      -4.459   2.971   5.998  0.00  0.00    -0.003 A 
ATOM      6  C6  DEN d   1      -5.551   2.790   5.191  0.00  0.00     0.001 A 
ATOM      7  C7  DEN d   1      -5.424   2.079   4.027  0.00  0.00     0.017 A 
ATOM      8  C8  DEN d   1      -4.167   1.604   3.677  0.00  0.00    -0.094 A 
ATOM      9  C9  DEN d   1      -3.078   1.787   4.512  0.00  0.00    -0.072 A 
ENDROOT
TORSDOF 0
ENDMDL
