MODEL 1
REMARK minimizedAffinity 13.5059156
REMARK minimizedRMSD -1
REMARK  0 active torsions:
REMARK  status: ('A' for Active; 'I' for Inactive)
ROOT
ATOM      1  C1  DEN d   1       4.183   0.247   0.373  0.00  0.00     0.130 A 
ATOM      2  C2  DEN d   1       4.455   1.612  -0.070  0.00  0.00    -0.031 A 
ATOM      3  C3  DEN d   1       3.714   1.840  -1.326  0.00  0.00     0.027 A 
ATOM      4  C4  DEN d   1       2.175   0.224  -2.619  0.00  0.00     0.027 A 
ATOM      5  C5  DEN d   1       1.647  -1.048  -2.640  0.00  0.00    -0.003 A 
ATOM      6  C6  DEN d   1       1.952  -1.981  -1.684  0.00  0.00     0.001 A 
ATOM      7  C7  DEN d   1       2.773  -1.641  -0.641  0.00  0.00     0.017 A 
ATOM      8  C8  DEN d   1       3.315  -0.363  -0.618  0.00  0.00    -0.094 A 
ATOM      9  C9  DEN d   1       2.985   0.570  -1.587  0.00  0.00    -0.072 A 
ENDROOT
TORSDOF 0
ENDMDL
