MODEL 1
REMARK minimizedAffinity 12.8226671
REMARK minimizedRMSD -1
REMARK  0 active torsions:
REMARK  status: ('A' for Active; 'I' for Inactive)
ROOT
ATOM      1  C1  DEN d   1      -1.865  -1.666  -3.205  0.00  0.00     0.130 A 
ATOM      2  C2  DEN d   1      -0.618  -1.579  -2.449  0.00  0.00    -0.031 A 
ATOM      3  C3  DEN d   1      -0.366  -2.896  -1.831  0.00  0.00     0.027 A 
ATOM      4  C4  DEN d   1      -1.775  -5.051  -1.974  0.00  0.00     0.027 A 
ATOM      5  C5  DEN d   1      -2.924  -5.609  -2.490  0.00  0.00    -0.003 A 
ATOM      6  C6  DEN d   1      -3.810  -4.889  -3.246  0.00  0.00     0.001 A 
ATOM      7  C7  DEN d   1      -3.539  -3.580  -3.546  0.00  0.00     0.017 A 
ATOM      8  C8  DEN d   1      -2.387  -3.008  -3.023  0.00  0.00    -0.094 A 
ATOM      9  C9  DEN d   1      -1.497  -3.757  -2.271  0.00  0.00    -0.072 A 
ENDROOT
TORSDOF 0
ENDMDL
