MODEL 1
REMARK minimizedAffinity 25.7386189
REMARK minimizedRMSD -1
REMARK  0 active torsions:
REMARK  status: ('A' for Active; 'I' for Inactive)
ROOT
ATOM      1  C1  DEN d   1      -1.922  -1.082  -2.595  0.00  0.00     0.130 A 
ATOM      2  C2  DEN d   1      -0.558  -0.900  -2.106  0.00  0.00    -0.031 A 
ATOM      3  C3  DEN d   1       0.037  -2.237  -1.904  0.00  0.00     0.027 A 
ATOM      4  C4  DEN d   1      -1.015  -4.558  -2.303  0.00  0.00     0.027 A 
ATOM      5  C5  DEN d   1      -2.154  -5.220  -2.704  0.00  0.00    -0.003 A 
ATOM      6  C6  DEN d   1      -3.297  -4.556  -3.061  0.00  0.00     0.001 A 
ATOM      7  C7  DEN d   1      -3.313  -3.186  -3.068  0.00  0.00     0.017 A 
ATOM      8  C8  DEN d   1      -2.170  -2.511  -2.658  0.00  0.00    -0.094 A 
ATOM      9  C9  DEN d   1      -1.020  -3.201  -2.312  0.00  0.00    -0.072 A 
ENDROOT
TORSDOF 0
ENDMDL
