MODEL 1
REMARK minimizedAffinity 7.50357771
REMARK minimizedRMSD -1
REMARK  0 active torsions:
REMARK  status: ('A' for Active; 'I' for Inactive)
ROOT
ATOM      1  C1  DEN d   1      -1.065  -5.367  -2.517  0.00  0.00     0.130 A 
ATOM      2  C2  DEN d   1       0.160  -4.595  -2.706  0.00  0.00    -0.031 A 
ATOM      3  C3  DEN d   1      -0.104  -3.563  -3.729  0.00  0.00     0.027 A 
ATOM      4  C4  DEN d   1      -2.281  -3.084  -5.027  0.00  0.00     0.027 A 
ATOM      5  C5  DEN d   1      -3.586  -3.483  -5.216  0.00  0.00    -0.003 A 
ATOM      6  C6  DEN d   1      -4.128  -4.550  -4.549  0.00  0.00     0.001 A 
ATOM      7  C7  DEN d   1      -3.374  -5.228  -3.627  0.00  0.00     0.017 A 
ATOM      8  C8  DEN d   1      -2.056  -4.837  -3.437  0.00  0.00    -0.094 A 
ATOM      9  C9  DEN d   1      -1.530  -3.748  -4.111  0.00  0.00    -0.072 A 
ENDROOT
TORSDOF 0
ENDMDL
