MODEL 1
REMARK minimizedAffinity 16.2324677
REMARK minimizedRMSD -1
REMARK  0 active torsions:
REMARK  status: ('A' for Active; 'I' for Inactive)
ROOT
ATOM      1  C1  DEN d   1      -0.088   2.393   5.597  0.00  0.00     0.130 A 
ATOM      2  C2  DEN d   1       1.199   1.832   5.998  0.00  0.00    -0.031 A 
ATOM      3  C3  DEN d   1       1.557   0.774   5.032  0.00  0.00     0.027 A 
ATOM      4  C4  DEN d   1       0.251  -0.042   2.962  0.00  0.00     0.027 A 
ATOM      5  C5  DEN d   1      -0.899   0.125   2.223  0.00  0.00    -0.003 A 
ATOM      6  C6  DEN d   1      -1.868   1.028   2.573  0.00  0.00     0.001 A 
ATOM      7  C7  DEN d   1      -1.683   1.832   3.667  0.00  0.00     0.017 A 
ATOM      8  C8  DEN d   1      -0.529   1.664   4.421  0.00  0.00    -0.094 A 
ATOM      9  C9  DEN d   1       0.444   0.754   4.044  0.00  0.00    -0.072 A 
ENDROOT
TORSDOF 0
ENDMDL
