MODEL 1
REMARK minimizedAffinity 10.3183603
REMARK minimizedRMSD -1
REMARK  0 active torsions:
REMARK  status: ('A' for Active; 'I' for Inactive)
ROOT
ATOM      1  C1  DEN d   1       1.350  -2.619  -3.585  0.00  0.00     0.130 A 
ATOM      2  C2  DEN d   1       1.130  -4.060  -3.486  0.00  0.00    -0.031 A 
ATOM      3  C3  DEN d   1       1.470  -4.480  -2.111  0.00  0.00     0.027 A 
ATOM      4  C4  DEN d   1       2.307  -3.048  -0.137  0.00  0.00     0.027 A 
ATOM      5  C5  DEN d   1       2.658  -1.775   0.258  0.00  0.00    -0.003 A 
ATOM      6  C6  DEN d   1       2.631  -0.710  -0.603  0.00  0.00     0.001 A 
ATOM      7  C7  DEN d   1       2.200  -0.890  -1.891  0.00  0.00     0.017 A 
ATOM      8  C8  DEN d   1       1.852  -2.171  -2.298  0.00  0.00    -0.094 A 
ATOM      9  C9  DEN d   1       1.875  -3.232  -1.410  0.00  0.00    -0.072 A 
ENDROOT
TORSDOF 0
ENDMDL
