MODEL 1
REMARK minimizedAffinity -3.7717011
REMARK minimizedRMSD -1
REMARK  0 active torsions:
REMARK  status: ('A' for Active; 'I' for Inactive)
ROOT
ATOM      1  C1  DEN d   1       2.920  -4.683  -1.727  0.00  0.00     0.130 A 
ATOM      2  C2  DEN d   1       2.669  -4.428  -0.311  0.00  0.00    -0.031 A 
ATOM      3  C3  DEN d   1       2.271  -3.014  -0.166  0.00  0.00     0.027 A 
ATOM      4  C4  DEN d   1       2.015  -1.204  -1.986  0.00  0.00     0.027 A 
ATOM      5  C5  DEN d   1       2.131  -0.943  -3.333  0.00  0.00    -0.003 A 
ATOM      6  C6  DEN d   1       2.546  -1.893  -4.228  0.00  0.00     0.001 A 
ATOM      7  C7  DEN d   1       2.819  -3.163  -3.792  0.00  0.00     0.017 A 
ATOM      8  C8  DEN d   1       2.712  -3.432  -2.434  0.00  0.00    -0.094 A 
ATOM      9  C9  DEN d   1       2.278  -2.461  -1.547  0.00  0.00    -0.072 A 
ENDROOT
TORSDOF 0
ENDMDL
