MODEL 1
REMARK minimizedAffinity 6.21835327
REMARK minimizedRMSD -1
REMARK  0 active torsions:
REMARK  status: ('A' for Active; 'I' for Inactive)
ROOT
ATOM      1  C   UNL d   1      -0.936  -1.014   3.054  0.00  0.00     0.023 A 
ATOM      2  C1  UNL d   1      -0.574  -1.898   2.038  0.00  0.00     0.003 A 
ATOM      3  C2  UNL d   1       0.324  -1.494   1.047  0.00  0.00     0.048 A 
ATOM      4  C3  UNL d   1       0.855  -0.206   1.079  0.00  0.00     0.023 A 
ATOM      5  C4  UNL d   1       0.496   0.682   2.094  0.00  0.00     0.048 A 
ATOM      6  C5  UNL d   1      -0.402   0.275   3.082  0.00  0.00     0.003 A 
ATOM      7  I   UNL d   1       2.191   0.397  -0.395  0.00  0.00    -0.146 I 
ENDROOT
TORSDOF 0
ENDMDL
