MODEL 1
REMARK minimizedAffinity -0.125073925
REMARK minimizedRMSD -1
REMARK  0 active torsions:
REMARK  status: ('A' for Active; 'I' for Inactive)
ROOT
ATOM      1  C   UNL d   1       6.000   4.064   5.329  0.00  0.00     0.023 A 
ATOM      2  C1  UNL d   1       5.809   5.437   5.168  0.00  0.00     0.003 A 
ATOM      3  C2  UNL d   1       4.542   5.994   5.359  0.00  0.00     0.048 A 
ATOM      4  C3  UNL d   1       3.472   5.172   5.710  0.00  0.00     0.023 A 
ATOM      5  C4  UNL d   1       3.658   3.799   5.873  0.00  0.00     0.048 A 
ATOM      6  C5  UNL d   1       4.926   3.246   5.680  0.00  0.00     0.003 A 
ATOM      7  I   UNL d   1       1.586   5.999   5.994  0.00  0.00    -0.146 I 
ENDROOT
TORSDOF 0
ENDMDL
