MODEL 1
REMARK minimizedAffinity 0.619763017
REMARK minimizedRMSD -1
REMARK  0 active torsions:
REMARK  status: ('A' for Active; 'I' for Inactive)
ROOT
ATOM      1  C   UNL d   1       5.929   4.093   5.568  0.00  0.00     0.023 A 
ATOM      2  C1  UNL d   1       4.852   3.258   5.865  0.00  0.00     0.003 A 
ATOM      3  C2  UNL d   1       3.567   3.790   5.989  0.00  0.00     0.048 A 
ATOM      4  C3  UNL d   1       3.366   5.159   5.812  0.00  0.00     0.023 A 
ATOM      5  C4  UNL d   1       4.441   5.998   5.514  0.00  0.00     0.048 A 
ATOM      6  C5  UNL d   1       5.724   5.461   5.393  0.00  0.00     0.003 A 
ATOM      7  I   UNL d   1       1.455   5.954   5.994  0.00  0.00    -0.146 I 
ENDROOT
TORSDOF 0
ENDMDL
