MODEL 1
REMARK minimizedAffinity 7.44901466
REMARK minimizedRMSD -1
REMARK  0 active torsions:
REMARK  status: ('A' for Active; 'I' for Inactive)
ROOT
ATOM      1  C   UNL d   1       1.548  -1.015   4.178  0.00  0.00     0.023 A 
ATOM      2  C1  UNL d   1       2.193  -1.146   2.947  0.00  0.00     0.003 A 
ATOM      3  C2  UNL d   1       1.450  -1.152   1.765  0.00  0.00     0.048 A 
ATOM      4  C3  UNL d   1       0.062  -1.024   1.820  0.00  0.00     0.023 A 
ATOM      5  C4  UNL d   1      -0.587  -0.891   3.049  0.00  0.00     0.048 A 
ATOM      6  C5  UNL d   1       0.160  -0.888   4.228  0.00  0.00     0.003 A 
ATOM      7  I   UNL d   1      -1.046  -1.031   0.062  0.00  0.00    -0.146 I 
ENDROOT
TORSDOF 0
ENDMDL
