MODEL 1
REMARK minimizedAffinity 5.74377346
REMARK minimizedRMSD -1
REMARK  0 active torsions:
REMARK  status: ('A' for Active; 'I' for Inactive)
ROOT
ATOM      1  C   UNL d   1       4.284   5.989   5.984  0.00  0.00     0.023 A 
ATOM      2  C1  UNL d   1       5.576   5.991   5.458  0.00  0.00     0.003 A 
ATOM      3  C2  UNL d   1       5.999   4.944   4.637  0.00  0.00     0.048 A 
ATOM      4  C3  UNL d   1       5.125   3.898   4.345  0.00  0.00     0.023 A 
ATOM      5  C4  UNL d   1       3.830   3.892   4.869  0.00  0.00     0.048 A 
ATOM      6  C5  UNL d   1       3.413   4.941   5.690  0.00  0.00     0.003 A 
ATOM      7  I   UNL d   1       5.751   2.337   3.124  0.00  0.00    -0.146 I 
ENDROOT
TORSDOF 0
ENDMDL
