MODEL 1
REMARK minimizedAffinity -2.51453948
REMARK minimizedRMSD -1
REMARK  0 active torsions:
REMARK  status: ('A' for Active; 'I' for Inactive)
ROOT
ATOM      1  C   UNL d   1       5.992   4.152   4.987  0.00  0.00     0.023 A 
ATOM      2  C1  UNL d   1       5.674   5.450   4.587  0.00  0.00     0.003 A 
ATOM      3  C2  UNL d   1       4.415   5.982   4.876  0.00  0.00     0.048 A 
ATOM      4  C3  UNL d   1       3.480   5.210   5.565  0.00  0.00     0.023 A 
ATOM      5  C4  UNL d   1       3.795   3.911   5.967  0.00  0.00     0.048 A 
ATOM      6  C5  UNL d   1       5.054   3.383   5.676  0.00  0.00     0.003 A 
ATOM      7  I   UNL d   1       1.606   5.999   5.995  0.00  0.00    -0.146 I 
ENDROOT
TORSDOF 0
ENDMDL
