MODEL 1
REMARK minimizedAffinity 11.4033775
REMARK minimizedRMSD -1
REMARK  0 active torsions:
REMARK  status: ('A' for Active; 'I' for Inactive)
ROOT
ATOM      1  C   UNL d   1       4.486   5.970   5.996  0.00  0.00     0.023 A 
ATOM      2  C1  UNL d   1       3.572   4.944   5.758  0.00  0.00     0.003 A 
ATOM      3  C2  UNL d   1       3.869   3.944   4.830  0.00  0.00     0.048 A 
ATOM      4  C3  UNL d   1       5.082   3.976   4.143  0.00  0.00     0.023 A 
ATOM      5  C4  UNL d   1       6.000   5.001   4.379  0.00  0.00     0.048 A 
ATOM      6  C5  UNL d   1       5.698   5.999   5.307  0.00  0.00     0.003 A 
ATOM      7  I   UNL d   1       5.526   2.489   2.761  0.00  0.00    -0.146 I 
ENDROOT
TORSDOF 0
ENDMDL
