MODEL 1
REMARK minimizedAffinity -1.88909459
REMARK minimizedRMSD -1
REMARK  0 active torsions:
REMARK  status: ('A' for Active; 'I' for Inactive)
ROOT
ATOM      1  C   UNL d   1      -2.911  -1.716   0.517  0.00  0.00     0.023 A 
ATOM      2  C1  UNL d   1      -1.967  -1.082   1.324  0.00  0.00     0.003 A 
ATOM      3  C2  UNL d   1      -0.887  -0.412   0.745  0.00  0.00     0.048 A 
ATOM      4  C3  UNL d   1      -0.759  -0.379  -0.644  0.00  0.00     0.023 A 
ATOM      5  C4  UNL d   1      -1.701  -1.012  -1.456  0.00  0.00     0.048 A 
ATOM      6  C5  UNL d   1      -2.778  -1.681  -0.872  0.00  0.00     0.003 A 
ATOM      7  I   UNL d   1       0.847   0.618  -1.509  0.00  0.00    -0.146 I 
ENDROOT
TORSDOF 0
ENDMDL
