MODEL 1
REMARK minimizedAffinity 2.51957369
REMARK minimizedRMSD -1
REMARK  0 active torsions:
REMARK  status: ('A' for Active; 'I' for Inactive)
ROOT
ATOM      1  C   UNL d   1      -1.318   0.744  -2.358  0.00  0.00     0.023 A 
ATOM      2  C1  UNL d   1      -2.298  -0.002  -1.702  0.00  0.00     0.003 A 
ATOM      3  C2  UNL d   1      -1.992  -0.667  -0.513  0.00  0.00     0.048 A 
ATOM      4  C3  UNL d   1      -0.704  -0.581   0.015  0.00  0.00     0.023 A 
ATOM      5  C4  UNL d   1       0.279   0.164  -0.638  0.00  0.00     0.048 A 
ATOM      6  C5  UNL d   1      -0.031   0.827  -1.827  0.00  0.00     0.003 A 
ATOM      7  I   UNL d   1      -0.245  -1.570   1.785  0.00  0.00    -0.146 I 
ENDROOT
TORSDOF 0
ENDMDL
