MODEL 1
REMARK minimizedAffinity 0.508935094
REMARK minimizedRMSD -1
REMARK  0 active torsions:
REMARK  status: ('A' for Active; 'I' for Inactive)
ROOT
ATOM      1  C   UNL d   1       1.385  -0.093  -0.593  0.00  0.00     0.023 A 
ATOM      2  C1  UNL d   1       1.009  -0.532   0.677  0.00  0.00     0.003 A 
ATOM      3  C2  UNL d   1      -0.334  -0.797   0.956  0.00  0.00     0.048 A 
ATOM      4  C3  UNL d   1      -1.294  -0.621  -0.040  0.00  0.00     0.023 A 
ATOM      5  C4  UNL d   1      -0.922  -0.183  -1.312  0.00  0.00     0.048 A 
ATOM      6  C5  UNL d   1       0.421   0.082  -1.586  0.00  0.00     0.003 A 
ATOM      7  I   UNL d   1      -3.293  -1.015   0.373  0.00  0.00    -0.146 I 
ENDROOT
TORSDOF 0
ENDMDL
