MODEL 1
REMARK minimizedAffinity -2.71427989
REMARK minimizedRMSD -1
REMARK  0 active torsions:
REMARK  status: ('A' for Active; 'I' for Inactive)
ROOT
ATOM      1  C   UNL d   1       1.396   0.152   0.119  0.00  0.00     0.023 A 
ATOM      2  C1  UNL d   1       0.652   0.553  -0.990  0.00  0.00     0.003 A 
ATOM      3  C2  UNL d   1      -0.699   0.213  -1.087  0.00  0.00     0.048 A 
ATOM      4  C3  UNL d   1      -1.299  -0.529  -0.070  0.00  0.00     0.023 A 
ATOM      5  C4  UNL d   1      -0.559  -0.932   1.043  0.00  0.00     0.048 A 
ATOM      6  C5  UNL d   1       0.792  -0.590   1.134  0.00  0.00     0.003 A 
ATOM      7  I   UNL d   1      -3.310  -1.037  -0.211  0.00  0.00    -0.146 I 
ENDROOT
TORSDOF 0
ENDMDL
