MODEL 1
REMARK minimizedAffinity 12.1522121
REMARK minimizedRMSD -1
REMARK  0 active torsions:
REMARK  status: ('A' for Active; 'I' for Inactive)
ROOT
ATOM      1  C   UNL d   1      -2.667  -0.157  -3.866  0.00  0.00     0.124 A 
ATOM      2  C1  UNL d   1      -2.810   1.103  -3.302  0.00  0.00     0.062 A 
ATOM      3  C2  UNL d   1      -2.637   1.281  -1.932  0.00  0.00     0.162 A 
ATOM      4  C3  UNL d   1      -2.317   0.196  -1.117  0.00  0.00    -0.034 A 
ATOM      5  C4  UNL d   1      -2.176  -1.069  -1.691  0.00  0.00     0.162 A 
ATOM      6  C5  UNL d   1      -2.350  -1.241  -3.060  0.00  0.00     0.062 A 
ATOM      7  F   UNL d   1      -2.212  -2.460  -3.603  0.00  0.00    -0.097 F 
ATOM      8  F1  UNL d   1      -1.869  -2.134  -0.936  0.00  0.00    -0.096 F 
ATOM      9  I   UNL d   1      -2.057   0.458   0.932  0.00  0.00    -0.060 I 
ATOM     10  F2  UNL d   1      -2.781   2.510  -1.415  0.00  0.00    -0.096 F 
ATOM     11  F3  UNL d   1      -3.117   2.152  -4.078  0.00  0.00    -0.097 F 
ATOM     12  F4  UNL d   1      -2.836  -0.325  -5.184  0.00  0.00    -0.092 F 
ENDROOT
TORSDOF 0
ENDMDL
