MODEL 1
REMARK minimizedAffinity 20.5656033
REMARK minimizedRMSD -1
REMARK  0 active torsions:
REMARK  status: ('A' for Active; 'I' for Inactive)
ROOT
ATOM      1  C   UNL d   1      -2.525   1.278  -2.420  0.00  0.00     0.124 A 
ATOM      2  C1  UNL d   1      -2.327  -0.043  -2.798  0.00  0.00     0.062 A 
ATOM      3  C2  UNL d   1      -1.943  -0.991  -1.853  0.00  0.00     0.162 A 
ATOM      4  C3  UNL d   1      -1.755  -0.621  -0.521  0.00  0.00    -0.034 A 
ATOM      5  C4  UNL d   1      -1.955   0.710  -0.150  0.00  0.00     0.162 A 
ATOM      6  C5  UNL d   1      -2.338   1.653  -1.097  0.00  0.00     0.062 A 
ATOM      7  F   UNL d   1      -2.529   2.929  -0.731  0.00  0.00    -0.097 F 
ATOM      8  F1  UNL d   1      -1.783   1.100   1.122  0.00  0.00    -0.096 F 
ATOM      9  I   UNL d   1      -1.181  -2.035   0.894  0.00  0.00    -0.060 I 
ATOM     10  F2  UNL d   1      -1.760  -2.260  -2.246  0.00  0.00    -0.096 F 
ATOM     11  F3  UNL d   1      -2.506  -0.408  -4.075  0.00  0.00    -0.097 F 
ATOM     12  F4  UNL d   1      -2.893   2.188  -3.331  0.00  0.00    -0.092 F 
ENDROOT
TORSDOF 0
ENDMDL
