MODEL 1
REMARK minimizedAffinity 25.2674809
REMARK minimizedRMSD -1
REMARK  0 active torsions:
REMARK  status: ('A' for Active; 'I' for Inactive)
ROOT
ATOM      1  C   UNL d   1      -3.445   2.546  -3.747  0.00  0.00     0.124 A 
ATOM      2  C1  UNL d   1      -3.584   3.455  -2.707  0.00  0.00     0.062 A 
ATOM      3  C2  UNL d   1      -2.947   3.229  -1.490  0.00  0.00     0.162 A 
ATOM      4  C3  UNL d   1      -2.165   2.089  -1.306  0.00  0.00    -0.034 A 
ATOM      5  C4  UNL d   1      -2.031   1.179  -2.356  0.00  0.00     0.162 A 
ATOM      6  C5  UNL d   1      -2.669   1.409  -3.570  0.00  0.00     0.062 A 
ATOM      7  F   UNL d   1      -2.535   0.529  -4.574  0.00  0.00    -0.097 F 
ATOM      8  F1  UNL d   1      -1.286   0.072  -2.213  0.00  0.00    -0.096 F 
ATOM      9  I   UNL d   1      -1.211   1.747   0.512  0.00  0.00    -0.060 I 
ATOM     10  F2  UNL d   1      -3.098   4.124  -0.503  0.00  0.00    -0.096 F 
ATOM     11  F3  UNL d   1      -4.333   4.554  -2.874  0.00  0.00    -0.097 F 
ATOM     12  F4  UNL d   1      -4.060   2.765  -4.916  0.00  0.00    -0.092 F 
ENDROOT
TORSDOF 0
ENDMDL
