MODEL 1
REMARK minimizedAffinity 13.3004551
REMARK minimizedRMSD -1
REMARK  0 active torsions:
REMARK  status: ('A' for Active; 'I' for Inactive)
ROOT
ATOM      1  C   UNL d   1      -2.969   0.892  -3.048  0.00  0.00     0.124 A 
ATOM      2  C1  UNL d   1      -2.695  -0.428  -3.381  0.00  0.00     0.062 A 
ATOM      3  C2  UNL d   1      -2.325  -1.336  -2.393  0.00  0.00     0.162 A 
ATOM      4  C3  UNL d   1      -2.227  -0.928  -1.063  0.00  0.00    -0.034 A 
ATOM      5  C4  UNL d   1      -2.503   0.401  -0.736  0.00  0.00     0.162 A 
ATOM      6  C5  UNL d   1      -2.873   1.304  -1.727  0.00  0.00     0.062 A 
ATOM      7  F   UNL d   1      -3.137   2.579  -1.404  0.00  0.00    -0.097 F 
ATOM      8  F1  UNL d   1      -2.419   0.826   0.533  0.00  0.00    -0.096 F 
ATOM      9  I   UNL d   1      -1.675  -2.284   0.417  0.00  0.00    -0.060 I 
ATOM     10  F2  UNL d   1      -2.066  -2.605  -2.743  0.00  0.00    -0.096 F 
ATOM     11  F3  UNL d   1      -2.786  -0.829  -4.657  0.00  0.00    -0.097 F 
ATOM     12  F4  UNL d   1      -3.323   1.764  -4.001  0.00  0.00    -0.092 F 
ENDROOT
TORSDOF 0
ENDMDL
