MODEL 1
REMARK minimizedAffinity 13.9379406
REMARK minimizedRMSD -1
REMARK  0 active torsions:
REMARK  status: ('A' for Active; 'I' for Inactive)
ROOT
ATOM      1  C   UNL d   1      -2.030   0.066  -4.335  0.00  0.00     0.124 A 
ATOM      2  C1  UNL d   1      -2.584   1.004  -3.474  0.00  0.00     0.062 A 
ATOM      3  C2  UNL d   1      -2.355   0.919  -2.104  0.00  0.00     0.162 A 
ATOM      4  C3  UNL d   1      -1.567  -0.108  -1.585  0.00  0.00    -0.034 A 
ATOM      5  C4  UNL d   1      -1.014  -1.049  -2.456  0.00  0.00     0.162 A 
ATOM      6  C5  UNL d   1      -1.246  -0.959  -3.825  0.00  0.00     0.062 A 
ATOM      7  F   UNL d   1      -0.711  -1.867  -4.654  0.00  0.00    -0.097 F 
ATOM      8  F1  UNL d   1      -0.252  -2.049  -1.991  0.00  0.00    -0.096 F 
ATOM      9  I   UNL d   1      -1.222  -0.239   0.463  0.00  0.00    -0.060 I 
ATOM     10  F2  UNL d   1      -2.903   1.839  -1.297  0.00  0.00    -0.096 F 
ATOM     11  F3  UNL d   1      -3.343   1.995  -3.964  0.00  0.00    -0.097 F 
ATOM     12  F4  UNL d   1      -2.253   0.150  -5.652  0.00  0.00    -0.092 F 
ENDROOT
TORSDOF 0
ENDMDL
