MODEL 1
REMARK minimizedAffinity 25.3000259
REMARK minimizedRMSD -1
REMARK  0 active torsions:
REMARK  status: ('A' for Active; 'I' for Inactive)
ROOT
ATOM      1  C1  DEN d   1       2.706   2.031   1.078  0.00  0.00     0.130 A 
ATOM      2  C2  DEN d   1       3.719   3.053   0.826  0.00  0.00    -0.031 A 
ATOM      3  C3  DEN d   1       4.211   2.877  -0.555  0.00  0.00     0.027 A 
ATOM      4  C4  DEN d   1       3.503   1.135  -2.320  0.00  0.00     0.027 A 
ATOM      5  C5  DEN d   1       2.686   0.054  -2.566  0.00  0.00    -0.003 A 
ATOM      6  C6  DEN d   1       1.850  -0.461  -1.611  0.00  0.00     0.001 A 
ATOM      7  C7  DEN d   1       1.779   0.134  -0.379  0.00  0.00     0.017 A 
ATOM      8  C8  DEN d   1       2.605   1.220  -0.121  0.00  0.00    -0.094 A 
ATOM      9  C9  DEN d   1       3.435   1.733  -1.104  0.00  0.00    -0.072 A 
ENDROOT
TORSDOF 0
ENDMDL
