MODEL 1
REMARK minimizedAffinity 16.31744
REMARK minimizedRMSD -1
REMARK  0 active torsions:
REMARK  status: ('A' for Active; 'I' for Inactive)
ROOT
ATOM      1  C1  DEN d   1       5.110   1.518   1.109  0.00  0.00     0.130 A 
ATOM      2  C2  DEN d   1       4.265   1.812   2.262  0.00  0.00    -0.031 A 
ATOM      3  C3  DEN d   1       3.899   3.242   2.207  0.00  0.00     0.027 A 
ATOM      4  C4  DEN d   1       4.551   5.017   0.454  0.00  0.00     0.027 A 
ATOM      5  C5  DEN d   1       5.265   5.244  -0.703  0.00  0.00    -0.003 A 
ATOM      6  C6  DEN d   1       5.998   4.261  -1.312  0.00  0.00     0.001 A 
ATOM      7  C7  DEN d   1       5.998   2.993  -0.793  0.00  0.00     0.017 A 
ATOM      8  C8  DEN d   1       5.287   2.759   0.376  0.00  0.00    -0.094 A 
ATOM      9  C9  DEN d   1       4.542   3.763   0.971  0.00  0.00    -0.072 A 
ENDROOT
TORSDOF 0
ENDMDL
