MODEL 1
REMARK minimizedAffinity 12.2476854
REMARK minimizedRMSD -1
REMARK  0 active torsions:
REMARK  status: ('A' for Active; 'I' for Inactive)
ROOT
ATOM      1  C1  DEN d   1      -1.384  -4.830   3.552  0.00  0.00     0.130 A 
ATOM      2  C2  DEN d   1      -0.688  -6.000   3.023  0.00  0.00    -0.031 A 
ATOM      3  C3  DEN d   1      -0.297  -5.707   1.629  0.00  0.00     0.027 A 
ATOM      4  C4  DEN d   1      -0.695  -3.565   0.249  0.00  0.00     0.027 A 
ATOM      5  C5  DEN d   1      -1.253  -2.305   0.266  0.00  0.00    -0.003 A 
ATOM      6  C6  DEN d   1      -1.917  -1.816   1.360  0.00  0.00     0.001 A 
ATOM      7  C7  DEN d   1      -2.002  -2.574   2.498  0.00  0.00     0.017 A 
ATOM      8  C8  DEN d   1      -1.449  -3.848   2.485  0.00  0.00    -0.094 A 
ATOM      9  C9  DEN d   1      -0.771  -4.319   1.374  0.00  0.00    -0.072 A 
ENDROOT
TORSDOF 0
ENDMDL
