MODEL 1
REMARK minimizedAffinity 2.36163306
REMARK minimizedRMSD -1
REMARK  0 active torsions:
REMARK  status: ('A' for Active; 'I' for Inactive)
ROOT
ATOM      1  C1  DEN d   1      -2.045  -2.294   2.955  0.00  0.00     0.130 A 
ATOM      2  C2  DEN d   1      -1.821  -3.438   3.835  0.00  0.00    -0.031 A 
ATOM      3  C3  DEN d   1      -1.183  -4.507   3.041  0.00  0.00     0.027 A 
ATOM      4  C4  DEN d   1      -0.522  -4.502   0.548  0.00  0.00     0.027 A 
ATOM      5  C5  DEN d   1      -0.525  -3.760  -0.613  0.00  0.00    -0.003 A 
ATOM      6  C6  DEN d   1      -1.061  -2.501  -0.673  0.00  0.00     0.001 A 
ATOM      7  C7  DEN d   1      -1.576  -1.927   0.459  0.00  0.00     0.017 A 
ATOM      8  C8  DEN d   1      -1.584  -2.672   1.631  0.00  0.00    -0.094 A 
ATOM      9  C9  DEN d   1      -1.026  -3.939   1.675  0.00  0.00    -0.072 A 
ENDROOT
TORSDOF 0
ENDMDL
