MODEL 1
REMARK minimizedAffinity 16.7258263
REMARK minimizedRMSD -1
REMARK  0 active torsions:
REMARK  status: ('A' for Active; 'I' for Inactive)
ROOT
ATOM      1  C1  DEN d   1      -1.259  -4.304   2.825  0.00  0.00     0.130 A 
ATOM      2  C2  DEN d   1      -2.174  -3.665   3.767  0.00  0.00    -0.031 A 
ATOM      3  C3  DEN d   1      -2.849  -2.554   3.066  0.00  0.00     0.027 A 
ATOM      4  C4  DEN d   1      -2.570  -1.769   0.625  0.00  0.00     0.027 A 
ATOM      5  C5  DEN d   1      -1.899  -1.994  -0.557  0.00  0.00    -0.003 A 
ATOM      6  C6  DEN d   1      -0.952  -2.974  -0.684  0.00  0.00     0.001 A 
ATOM      7  C7  DEN d   1      -0.680  -3.797   0.378  0.00  0.00     0.017 A 
ATOM      8  C8  DEN d   1      -1.347  -3.572   1.575  0.00  0.00    -0.094 A 
ATOM      9  C9  DEN d   1      -2.310  -2.583   1.679  0.00  0.00    -0.072 A 
ENDROOT
TORSDOF 0
ENDMDL
