MODEL 1
REMARK minimizedAffinity 7.06607962
REMARK minimizedRMSD -1
REMARK  0 active torsions:
REMARK  status: ('A' for Active; 'I' for Inactive)
ROOT
ATOM      1  C1  DEN d   1      -3.819   2.115  -5.078  0.00  0.00     0.130 A 
ATOM      2  C2  DEN d   1      -2.666   2.291  -4.199  0.00  0.00    -0.031 A 
ATOM      3  C3  DEN d   1      -2.595   3.716  -3.819  0.00  0.00     0.027 A 
ATOM      4  C4  DEN d   1      -4.154   5.656  -4.498  0.00  0.00     0.027 A 
ATOM      5  C5  DEN d   1      -5.263   5.998  -5.239  0.00  0.00    -0.003 A 
ATOM      6  C6  DEN d   1      -5.943   5.084  -6.000  0.00  0.00     0.001 A 
ATOM      7  C7  DEN d   1      -5.547   3.772  -6.000  0.00  0.00     0.017 A 
ATOM      8  C8  DEN d   1      -4.425   3.422  -5.261  0.00  0.00    -0.094 A 
ATOM      9  C9  DEN d   1      -3.758   4.358  -4.489  0.00  0.00    -0.072 A 
ENDROOT
TORSDOF 0
ENDMDL
