MODEL 1
REMARK minimizedAffinity 5.90800285
REMARK minimizedRMSD -1
REMARK  0 active torsions:
REMARK  status: ('A' for Active; 'I' for Inactive)
ROOT
ATOM      1  C1  DEN d   1      -2.622   3.185  -4.116  0.00  0.00     0.130 A 
ATOM      2  C2  DEN d   1      -2.915   1.820  -4.548  0.00  0.00    -0.031 A 
ATOM      3  C3  DEN d   1      -4.146   1.853  -5.363  0.00  0.00     0.027 A 
ATOM      4  C4  DEN d   1      -5.616   3.874  -5.999  0.00  0.00     0.027 A 
ATOM      5  C5  DEN d   1      -5.777   5.235  -5.857  0.00  0.00    -0.003 A 
ATOM      6  C6  DEN d   1      -4.923   5.996  -5.103  0.00  0.00     0.001 A 
ATOM      7  C7  DEN d   1      -3.844   5.408  -4.499  0.00  0.00     0.017 A 
ATOM      8  C8  DEN d   1      -3.680   4.036  -4.631  0.00  0.00    -0.094 A 
ATOM      9  C9  DEN d   1      -4.546   3.286  -5.408  0.00  0.00    -0.072 A 
ENDROOT
TORSDOF 0
ENDMDL
