MODEL 1
REMARK minimizedAffinity 14.0598803
REMARK minimizedRMSD -1
REMARK  0 active torsions:
REMARK  status: ('A' for Active; 'I' for Inactive)
ROOT
ATOM      1  C1  DEN d   1       4.615   3.425  -1.151  0.00  0.00     0.130 A 
ATOM      2  C2  DEN d   1       4.235   3.694   0.233  0.00  0.00    -0.031 A 
ATOM      3  C3  DEN d   1       3.256   2.669   0.646  0.00  0.00     0.027 A 
ATOM      4  C4  DEN d   1       2.301   0.696  -0.715  0.00  0.00     0.027 A 
ATOM      5  C5  DEN d   1       2.316   0.066  -1.939  0.00  0.00    -0.003 A 
ATOM      6  C6  DEN d   1       3.066   0.527  -2.989  0.00  0.00     0.001 A 
ATOM      7  C7  DEN d   1       3.867   1.624  -2.819  0.00  0.00     0.017 A 
ATOM      8  C8  DEN d   1       3.852   2.270  -1.590  0.00  0.00    -0.094 A 
ATOM      9  C9  DEN d   1       3.096   1.781  -0.538  0.00  0.00    -0.072 A 
ENDROOT
TORSDOF 0
ENDMDL
