MODEL 1
REMARK minimizedAffinity 11.676404
REMARK minimizedRMSD -1
REMARK  0 active torsions:
REMARK  status: ('A' for Active; 'I' for Inactive)
ROOT
ATOM      1  C1  DEN d   1      -3.299   2.577  -4.935  0.00  0.00     0.130 A 
ATOM      2  C2  DEN d   1      -2.317   2.978  -3.931  0.00  0.00    -0.031 A 
ATOM      3  C3  DEN d   1      -2.636   4.355  -3.504  0.00  0.00     0.027 A 
ATOM      4  C4  DEN d   1      -4.549   5.896  -4.292  0.00  0.00     0.027 A 
ATOM      5  C5  DEN d   1      -5.630   6.000  -5.139  0.00  0.00    -0.003 A 
ATOM      6  C6  DEN d   1      -5.986   4.992  -5.995  0.00  0.00     0.001 A 
ATOM      7  C7  DEN d   1      -5.282   3.817  -5.991  0.00  0.00     0.017 A 
ATOM      8  C8  DEN d   1      -4.187   3.707  -5.145  0.00  0.00    -0.094 A 
ATOM      9  C9  DEN d   1      -3.850   4.733  -4.278  0.00  0.00    -0.072 A 
ENDROOT
TORSDOF 0
ENDMDL
