MODEL 1
REMARK minimizedAffinity 9.08738232
REMARK minimizedRMSD -1
REMARK  0 active torsions:
REMARK  status: ('A' for Active; 'I' for Inactive)
ROOT
ATOM      1  C1  DEN d   1      -5.996   3.594   5.922  0.00  0.00     0.130 A 
ATOM      2  C2  DEN d   1      -4.985   4.647   5.962  0.00  0.00    -0.031 A 
ATOM      3  C3  DEN d   1      -3.656   4.003   5.999  0.00  0.00     0.027 A 
ATOM      4  C4  DEN d   1      -3.070   1.491   5.991  0.00  0.00     0.027 A 
ATOM      5  C5  DEN d   1      -3.592   0.217   5.974  0.00  0.00    -0.003 A 
ATOM      6  C6  DEN d   1      -4.941  -0.020   5.974  0.00  0.00     0.001 A 
ATOM      7  C7  DEN d   1      -5.815   1.035   5.944  0.00  0.00     0.017 A 
ATOM      8  C8  DEN d   1      -5.296   2.323   5.968  0.00  0.00    -0.094 A 
ATOM      9  C9  DEN d   1      -3.929   2.541   5.956  0.00  0.00    -0.072 A 
ENDROOT
TORSDOF 0
ENDMDL
