MODEL 1
REMARK minimizedAffinity 12.8086567
REMARK minimizedRMSD -1
REMARK  0 active torsions:
REMARK  status: ('A' for Active; 'I' for Inactive)
ROOT
ATOM      1  C1  DEN d   1      -0.275  -5.376  -1.443  0.00  0.00     0.130 A 
ATOM      2  C2  DEN d   1      -0.105  -5.579  -0.007  0.00  0.00    -0.031 A 
ATOM      3  C3  DEN d   1      -0.232  -4.267   0.658  0.00  0.00     0.027 A 
ATOM      4  C4  DEN d   1      -0.678  -1.953  -0.391  0.00  0.00     0.027 A 
ATOM      5  C5  DEN d   1      -0.881  -1.277  -1.574  0.00  0.00    -0.003 A 
ATOM      6  C6  DEN d   1      -0.862  -1.909  -2.789  0.00  0.00     0.001 A 
ATOM      7  C7  DEN d   1      -0.681  -3.266  -2.845  0.00  0.00     0.017 A 
ATOM      8  C8  DEN d   1      -0.468  -3.953  -1.657  0.00  0.00    -0.094 A 
ATOM      9  C9  DEN d   1      -0.503  -3.298  -0.438  0.00  0.00    -0.072 A 
ENDROOT
TORSDOF 0
ENDMDL
