MODEL 1
REMARK minimizedAffinity 15.6386948
REMARK minimizedRMSD -1
REMARK  0 active torsions:
REMARK  status: ('A' for Active; 'I' for Inactive)
ROOT
ATOM      1  C1  DEN d   1      -0.092   3.514  -5.999  0.00  0.00     0.130 A 
ATOM      2  C2  DEN d   1       0.955   3.139  -5.053  0.00  0.00    -0.031 A 
ATOM      3  C3  DEN d   1       0.324   2.394  -3.945  0.00  0.00     0.027 A 
ATOM      4  C4  DEN d   1      -2.160   1.785  -3.607  0.00  0.00     0.027 A 
ATOM      5  C5  DEN d   1      -3.426   1.898  -4.138  0.00  0.00    -0.003 A 
ATOM      6  C6  DEN d   1      -3.672   2.580  -5.299  0.00  0.00     0.001 A 
ATOM      7  C7  DEN d   1      -2.631   3.139  -5.992  0.00  0.00     0.017 A 
ATOM      8  C8  DEN d   1      -1.352   3.036  -5.459  0.00  0.00    -0.094 A 
ATOM      9  C9  DEN d   1      -1.122   2.331  -4.290  0.00  0.00    -0.072 A 
ENDROOT
TORSDOF 0
ENDMDL
