MODEL 1
REMARK minimizedAffinity 23.9766388
REMARK minimizedRMSD -1
REMARK  0 active torsions:
REMARK  status: ('A' for Active; 'I' for Inactive)
ROOT
ATOM      1  C1  DEN d   1      -1.051  -2.540  -2.166  0.00  0.00     0.130 A 
ATOM      2  C2  DEN d   1      -2.005  -2.538  -3.272  0.00  0.00    -0.031 A 
ATOM      3  C3  DEN d   1      -3.202  -1.788  -2.842  0.00  0.00     0.027 A 
ATOM      4  C4  DEN d   1      -3.666  -0.630  -0.584  0.00  0.00     0.027 A 
ATOM      5  C5  DEN d   1      -3.159  -0.370   0.669  0.00  0.00    -0.003 A 
ATOM      6  C6  DEN d   1      -1.937  -0.840   1.074  0.00  0.00     0.001 A 
ATOM      7  C7  DEN d   1      -1.163  -1.557   0.202  0.00  0.00     0.017 A 
ATOM      8  C8  DEN d   1      -1.671  -1.830  -1.062  0.00  0.00    -0.094 A 
ATOM      9  C9  DEN d   1      -2.903  -1.335  -1.456  0.00  0.00    -0.072 A 
ENDROOT
TORSDOF 0
ENDMDL
