MODEL 1
REMARK minimizedAffinity 13.9617949
REMARK minimizedRMSD -1
REMARK  0 active torsions:
REMARK  status: ('A' for Active; 'I' for Inactive)
ROOT
ATOM      1  C1  DEN d   1      -4.660   4.172   3.094  0.00  0.00     0.130 A 
ATOM      2  C2  DEN d   1      -5.694   5.114   3.516  0.00  0.00    -0.031 A 
ATOM      3  C3  DEN d   1      -5.999   5.999   2.374  0.00  0.00     0.027 A 
ATOM      4  C4  DEN d   1      -4.982   5.999   0.004  0.00  0.00     0.027 A 
ATOM      5  C5  DEN d   1      -4.062   5.393  -0.823  0.00  0.00    -0.003 A 
ATOM      6  C6  DEN d   1      -3.259   4.369  -0.395  0.00  0.00     0.001 A 
ATOM      7  C7  DEN d   1      -3.393   3.889   0.881  0.00  0.00     0.017 A 
ATOM      8  C8  DEN d   1      -4.314   4.499   1.722  0.00  0.00    -0.094 A 
ATOM      9  C9  DEN d   1      -5.124   5.526   1.268  0.00  0.00    -0.072 A 
ENDROOT
TORSDOF 0
ENDMDL
