MODEL 1
REMARK minimizedAffinity 6.67613411
REMARK minimizedRMSD -1
REMARK  0 active torsions:
REMARK  status: ('A' for Active; 'I' for Inactive)
ROOT
ATOM      1  C1  DEN d   1      -4.058  -0.596   0.975  0.00  0.00     0.130 A 
ATOM      2  C2  DEN d   1      -3.936  -0.261  -0.441  0.00  0.00    -0.031 A 
ATOM      3  C3  DEN d   1      -2.792  -1.015  -0.992  0.00  0.00     0.027 A 
ATOM      4  C4  DEN d   1      -1.210  -2.665   0.204  0.00  0.00     0.027 A 
ATOM      5  C5  DEN d   1      -0.912  -3.260   1.410  0.00  0.00    -0.003 A 
ATOM      6  C6  DEN d   1      -1.614  -2.985   2.553  0.00  0.00     0.001 A 
ATOM      7  C7  DEN d   1      -2.680  -2.126   2.505  0.00  0.00     0.017 A 
ATOM      8  C8  DEN d   1      -2.982  -1.516   1.295  0.00  0.00    -0.094 A 
ATOM      9  C9  DEN d   1      -2.267  -1.816   0.147  0.00  0.00    -0.072 A 
ENDROOT
TORSDOF 0
ENDMDL
