MODEL 1
REMARK minimizedAffinity 21.6263123
REMARK minimizedRMSD -1
REMARK  1 active torsions:
REMARK  status: ('A' for Active; 'I' for Inactive)
REMARK    1  A    between atoms: C1_2  and  C2_3 
ROOT
ATOM      1  C2  UNL d   1       2.933  -2.078  -1.854  0.00  0.00    -0.081 A 
ATOM      2  C3  UNL d   1       3.350  -0.859  -2.403  0.00  0.00     0.006 A 
ATOM      3  C4  UNL d   1       3.853   0.152  -1.581  0.00  0.00     0.002 A 
ATOM      4  C5  UNL d   1       3.954  -0.041  -0.199  0.00  0.00    -0.080 A 
ATOM      5  C6  UNL d   1       4.521   1.026   0.691  0.00  0.00     0.076 C 
ATOM      6  C7  UNL d   1       3.521  -1.252   0.351  0.00  0.00     0.002 A 
ATOM      7  C8  UNL d   1       3.018  -2.263  -0.470  0.00  0.00     0.006 A 
ENDROOT
BRANCH   1   8
ATOM      8  C1  UNL d   1       2.451  -3.195  -2.745  0.00  0.00     0.054 C 
ATOM      9  C   UNL d   1       3.393  -3.411  -3.921  0.00  0.00     0.018 C 
ENDBRANCH   1   8
TORSDOF 1
ENDMDL
