MODEL 1
REMARK minimizedAffinity 7.4446702
REMARK minimizedRMSD -1
REMARK  1 active torsions:
REMARK  status: ('A' for Active; 'I' for Inactive)
REMARK    1  A    between atoms: C1_2  and  C2_3 
ROOT
ATOM      1  C2  UNL d   1       0.795  -0.850   3.614  0.00  0.00    -0.081 A 
ATOM      2  C3  UNL d   1       0.018  -1.899   3.108  0.00  0.00     0.006 A 
ATOM      3  C4  UNL d   1      -0.146  -3.077   3.842  0.00  0.00     0.002 A 
ATOM      4  C5  UNL d   1       0.457  -3.222   5.095  0.00  0.00    -0.080 A 
ATOM      5  C6  UNL d   1       0.264  -4.469   5.906  0.00  0.00     0.076 C 
ATOM      6  C7  UNL d   1       1.248  -2.180   5.593  0.00  0.00     0.002 A 
ATOM      7  C8  UNL d   1       1.412  -1.003   4.860  0.00  0.00     0.006 A 
ENDROOT
BRANCH   1   8
ATOM      8  C1  UNL d   1       0.920   0.446   2.855  0.00  0.00     0.054 C 
ATOM      9  C   UNL d   1      -0.402   0.842   2.214  0.00  0.00     0.018 C 
ENDBRANCH   1   8
TORSDOF 1
ENDMDL
