MODEL 1
REMARK minimizedAffinity 4.16316938
REMARK minimizedRMSD -1
REMARK  1 active torsions:
REMARK  status: ('A' for Active; 'I' for Inactive)
REMARK    1  A    between atoms: C1_2  and  C2_3 
ROOT
ATOM      1  C2  UNL d   1       3.764  -0.003  -0.647  0.00  0.00    -0.081 A 
ATOM      2  C3  UNL d   1       4.450   0.018  -1.868  0.00  0.00     0.006 A 
ATOM      3  C4  UNL d   1       4.549  -1.139  -2.645  0.00  0.00     0.002 A 
ATOM      4  C5  UNL d   1       3.957  -2.333  -2.218  0.00  0.00    -0.080 A 
ATOM      5  C6  UNL d   1       4.030  -3.574  -3.057  0.00  0.00     0.076 C 
ATOM      6  C7  UNL d   1       3.287  -2.358  -0.991  0.00  0.00     0.002 A 
ATOM      7  C8  UNL d   1       3.189  -1.202  -0.213  0.00  0.00     0.006 A 
ENDROOT
BRANCH   1   8
ATOM      8  C1  UNL d   1       3.601   1.258   0.162  0.00  0.00     0.054 C 
ATOM      9  C   UNL d   1       4.726   2.244  -0.118  0.00  0.00     0.018 C 
ENDBRANCH   1   8
TORSDOF 1
ENDMDL
