MODEL 1
REMARK minimizedAffinity 8.88722706
REMARK minimizedRMSD -1
REMARK  1 active torsions:
REMARK  status: ('A' for Active; 'I' for Inactive)
REMARK    1  A    between atoms: C1_2  and  C2_3 
ROOT
ATOM      1  C2  UNL d   1       5.283   1.441  -1.192  0.00  0.00    -0.081 A 
ATOM      2  C3  UNL d   1       5.998   0.484  -0.461  0.00  0.00     0.006 A 
ATOM      3  C4  UNL d   1       5.368  -0.676  -0.007  0.00  0.00     0.002 A 
ATOM      4  C5  UNL d   1       4.015  -0.904  -0.282  0.00  0.00    -0.080 A 
ATOM      5  C6  UNL d   1       3.334  -2.160   0.174  0.00  0.00     0.076 C 
ATOM      6  C7  UNL d   1       3.296   0.060  -0.997  0.00  0.00     0.002 A 
ATOM      7  C8  UNL d   1       3.925   1.221  -1.451  0.00  0.00     0.006 A 
ENDROOT
BRANCH   1   8
ATOM      8  C1  UNL d   1       5.975   2.663  -1.739  0.00  0.00     0.054 C 
ATOM      9  C   UNL d   1       5.109   3.905  -1.587  0.00  0.00     0.018 C 
ENDBRANCH   1   8
TORSDOF 1
ENDMDL
