MODEL 1
REMARK minimizedAffinity 10.0953999
REMARK minimizedRMSD -1
REMARK  1 active torsions:
REMARK  status: ('A' for Active; 'I' for Inactive)
REMARK    1  A    between atoms: C1_2  and  C2_3 
ROOT
ATOM      1  C2  UNL d   1       3.537  -1.534  -0.790  0.00  0.00    -0.081 A 
ATOM      2  C3  UNL d   1       2.791  -0.363  -0.604  0.00  0.00     0.006 A 
ATOM      3  C4  UNL d   1       3.433   0.867  -0.446  0.00  0.00     0.002 A 
ATOM      4  C5  UNL d   1       4.829   0.949  -0.479  0.00  0.00    -0.080 A 
ATOM      5  C6  UNL d   1       5.529   2.268  -0.340  0.00  0.00     0.076 C 
ATOM      6  C7  UNL d   1       5.574  -0.223  -0.647  0.00  0.00     0.002 A 
ATOM      7  C8  UNL d   1       4.933  -1.453  -0.805  0.00  0.00     0.006 A 
ENDROOT
BRANCH   1   8
ATOM      8  C1  UNL d   1       2.846  -2.853  -1.026  0.00  0.00     0.054 C 
ATOM      9  C   UNL d   1       2.846  -3.221  -2.503  0.00  0.00     0.018 C 
ENDBRANCH   1   8
TORSDOF 1
ENDMDL
