MODEL 1
REMARK minimizedAffinity 6.74095488
REMARK minimizedRMSD -1
REMARK  1 active torsions:
REMARK  status: ('A' for Active; 'I' for Inactive)
REMARK    1  A    between atoms: C1_2  and  C2_3 
ROOT
ATOM      1  C2  UNL d   1       2.778  -1.244  -0.842  0.00  0.00    -0.081 A 
ATOM      2  C3  UNL d   1       4.102  -1.221  -1.298  0.00  0.00     0.006 A 
ATOM      3  C4  UNL d   1       4.823  -0.024  -1.320  0.00  0.00     0.002 A 
ATOM      4  C5  UNL d   1       4.235   1.167  -0.880  0.00  0.00    -0.080 A 
ATOM      5  C6  UNL d   1       5.007   2.452  -0.871  0.00  0.00     0.076 C 
ATOM      6  C7  UNL d   1       2.907   1.147  -0.441  0.00  0.00     0.002 A 
ATOM      7  C8  UNL d   1       2.186  -0.049  -0.419  0.00  0.00     0.006 A 
ENDROOT
BRANCH   1   8
ATOM      8  C1  UNL d   1       2.020  -2.544  -0.756  0.00  0.00     0.054 C 
ATOM      9  C   UNL d   1       2.323  -3.441  -1.947  0.00  0.00     0.018 C 
ENDBRANCH   1   8
TORSDOF 1
ENDMDL
