MODEL 1
REMARK minimizedAffinity 4.96103811
REMARK minimizedRMSD -1
REMARK  1 active torsions:
REMARK  status: ('A' for Active; 'I' for Inactive)
REMARK    1  A    between atoms: N_2  and  C1_3 
ROOT
ATOM      1  C1  UNL d   1       3.118  -0.015  -1.260  0.00  0.00     0.143 A 
ATOM      2  C2  UNL d   1       3.996   0.690  -2.090  0.00  0.00    -0.057 A 
ATOM      3  C3  UNL d   1       5.053   1.440  -1.560  0.00  0.00     0.033 A 
ATOM      4  C4  UNL d   1       5.233   1.522  -0.183  0.00  0.00    -0.042 A 
ATOM      5  C5  UNL d   1       4.358   0.850   0.662  0.00  0.00     0.033 A 
ATOM      6  C6  UNL d   1       3.309   0.097   0.127  0.00  0.00    -0.057 A 
ENDROOT
BRANCH   1   7
ATOM      7  N   UNL d   1       1.990  -0.698  -1.721  0.00  0.00    -0.732 N 
ATOM      8  C   UNL d   1       0.666  -0.320  -1.276  0.00  0.00     0.284 C 
ATOM      9  H3  UNL d   1       2.048  -0.918  -2.713  0.00  0.00     0.395 HD
ENDBRANCH   1   7
TORSDOF 1
ENDMDL
