MODEL 1
REMARK minimizedAffinity 6.52581739
REMARK minimizedRMSD -1
REMARK  1 active torsions:
REMARK  status: ('A' for Active; 'I' for Inactive)
REMARK    1  A    between atoms: N_2  and  C1_3 
ROOT
ATOM      1  C1  UNL d   1       2.998   4.843   2.569  0.00  0.00     0.143 A 
ATOM      2  C2  UNL d   1       2.203   3.693   2.624  0.00  0.00    -0.057 A 
ATOM      3  C3  UNL d   1       0.901   3.685   2.108  0.00  0.00     0.033 A 
ATOM      4  C4  UNL d   1       0.360   4.839   1.551  0.00  0.00    -0.042 A 
ATOM      5  C5  UNL d   1       1.124   6.000   1.508  0.00  0.00     0.033 A 
ATOM      6  C6  UNL d   1       2.425   6.000   2.019  0.00  0.00    -0.057 A 
ENDROOT
BRANCH   1   7
ATOM      7  N   UNL d   1       4.263   4.942   3.153  0.00  0.00    -0.732 N 
ATOM      8  C   UNL d   1       4.442   5.636   4.411  0.00  0.00     0.284 C 
ATOM      9  H3  UNL d   1       4.796   4.079   3.075  0.00  0.00     0.395 HD
ENDBRANCH   1   7
TORSDOF 1
ENDMDL
