MODEL 1
REMARK minimizedAffinity 4.28534985
REMARK minimizedRMSD -1
REMARK  1 active torsions:
REMARK  status: ('A' for Active; 'I' for Inactive)
REMARK    1  A    between atoms: N_2  and  C1_3 
ROOT
ATOM      1  C1  UNL d   1       4.526   1.514  -1.879  0.00  0.00     0.143 A 
ATOM      2  C2  UNL d   1       3.520   0.657  -2.338  0.00  0.00    -0.057 A 
ATOM      3  C3  UNL d   1       2.679  -0.019  -1.446  0.00  0.00     0.033 A 
ATOM      4  C4  UNL d   1       2.850   0.126  -0.074  0.00  0.00    -0.042 A 
ATOM      5  C5  UNL d   1       3.860   0.953   0.406  0.00  0.00     0.033 A 
ATOM      6  C6  UNL d   1       4.692   1.631  -0.490  0.00  0.00    -0.057 A 
ENDROOT
BRANCH   1   7
ATOM      7  N   UNL d   1       5.457   2.138  -2.713  0.00  0.00    -0.732 N 
ATOM      8  C   UNL d   1       5.526   3.581  -2.791  0.00  0.00     0.284 C 
ATOM      9  H3  UNL d   1       6.365   1.679  -2.694  0.00  0.00     0.395 HD
ENDBRANCH   1   7
TORSDOF 1
ENDMDL
