MODEL 1
REMARK minimizedAffinity 5.41416502
REMARK minimizedRMSD -1
REMARK  1 active torsions:
REMARK  status: ('A' for Active; 'I' for Inactive)
REMARK    1  A    between atoms: N_2  and  C1_3 
ROOT
ATOM      1  C1  UNL d   1       5.017   1.724  -1.817  0.00  0.00     0.143 A 
ATOM      2  C2  UNL d   1       3.911   1.013  -2.295  0.00  0.00    -0.057 A 
ATOM      3  C3  UNL d   1       3.012   0.393  -1.419  0.00  0.00     0.033 A 
ATOM      4  C4  UNL d   1       3.221   0.448  -0.045  0.00  0.00    -0.042 A 
ATOM      5  C5  UNL d   1       4.327   1.128   0.452  0.00  0.00     0.033 A 
ATOM      6  C6  UNL d   1       5.217   1.751  -0.428  0.00  0.00    -0.057 A 
ENDROOT
BRANCH   1   7
ATOM      7  N   UNL d   1       6.000   2.279  -2.640  0.00  0.00    -0.732 N 
ATOM      8  C   UNL d   1       6.000   3.695  -2.936  0.00  0.00     0.284 C 
ATOM      9  H3  UNL d   1       6.923   1.892  -2.457  0.00  0.00     0.395 HD
ENDBRANCH   1   7
TORSDOF 1
ENDMDL
