MODEL 1
REMARK minimizedAffinity 6.54512787
REMARK minimizedRMSD -1
REMARK  1 active torsions:
REMARK  status: ('A' for Active; 'I' for Inactive)
REMARK    1  A    between atoms: N_2  and  C1_3 
ROOT
ATOM      1  C1  UNL d   1       0.498   2.369  -0.163  0.00  0.00     0.143 A 
ATOM      2  C2  UNL d   1       1.637   2.324   0.647  0.00  0.00    -0.057 A 
ATOM      3  C3  UNL d   1       2.560   1.276   0.545  0.00  0.00     0.033 A 
ATOM      4  C4  UNL d   1       2.343   0.236  -0.353  0.00  0.00    -0.042 A 
ATOM      5  C5  UNL d   1       1.205   0.247  -1.151  0.00  0.00     0.033 A 
ATOM      6  C6  UNL d   1       0.290   1.300  -1.049  0.00  0.00    -0.057 A 
ENDROOT
BRANCH   1   7
ATOM      7  N   UNL d   1      -0.507   3.333  -0.041  0.00  0.00    -0.732 N 
ATOM      8  C   UNL d   1      -0.358   4.439   0.881  0.00  0.00     0.284 C 
ATOM      9  H3  UNL d   1      -0.909   3.591  -0.939  0.00  0.00     0.395 HD
ENDBRANCH   1   7
TORSDOF 1
ENDMDL
