MODEL 1
REMARK minimizedAffinity 15.3531857
REMARK minimizedRMSD -1
REMARK  1 active torsions:
REMARK  status: ('A' for Active; 'I' for Inactive)
REMARK    1  A    between atoms: N_2  and  C1_3 
ROOT
ATOM      1  C1  UNL d   1      -5.098   1.279  -5.225  0.00  0.00     0.143 A 
ATOM      2  C2  UNL d   1      -4.112   0.619  -4.484  0.00  0.00    -0.057 A 
ATOM      3  C3  UNL d   1      -3.989  -0.776  -4.519  0.00  0.00     0.033 A 
ATOM      4  C4  UNL d   1      -4.872  -1.539  -5.275  0.00  0.00    -0.042 A 
ATOM      5  C5  UNL d   1      -5.876  -0.906  -5.999  0.00  0.00     0.033 A 
ATOM      6  C6  UNL d   1      -5.989   0.487  -5.966  0.00  0.00    -0.057 A 
ENDROOT
BRANCH   1   7
ATOM      7  N   UNL d   1      -5.333   2.654  -5.155  0.00  0.00    -0.732 N 
ATOM      8  C   UNL d   1      -4.256   3.598  -5.362  0.00  0.00     0.284 C 
ATOM      9  H3  UNL d   1      -6.210   2.921  -5.597  0.00  0.00     0.395 HD
ENDBRANCH   1   7
TORSDOF 1
ENDMDL
