MODEL 1
REMARK minimizedAffinity -4.07903957
REMARK minimizedRMSD -1
REMARK  1 active torsions:
REMARK  status: ('A' for Active; 'I' for Inactive)
REMARK    1  A    between atoms: C1_2  and  C2_3 
ROOT
ATOM      1  C2  UNL d   1       0.123   0.855  -0.034  0.00  0.00    -0.076 A 
ATOM      2  C3  UNL d   1       1.330   1.574   0.013  0.00  0.00     0.004 A 
ATOM      3  C4  UNL d   1       1.376   2.867   0.530  0.00  0.00    -0.003 A 
ATOM      4  C5  UNL d   1       0.214   3.463   1.009  0.00  0.00     0.000 A 
ATOM      5  C6  UNL d   1      -0.989   2.759   0.987  0.00  0.00     0.000 A 
ATOM      6  C7  UNL d   1      -1.049   1.448   0.483  0.00  0.00    -0.073 A 
ATOM      7  C8  UNL d   1      -2.374   0.737   0.477  0.00  0.00     0.078 C 
ENDROOT
BRANCH   1   8
ATOM      8  C1  UNL d   1       0.130  -0.534  -0.631  0.00  0.00     0.053 C 
ATOM      9  C   UNL d   1       0.309  -1.619   0.420  0.00  0.00     0.018 C 
ENDBRANCH   1   8
TORSDOF 1
ENDMDL
