MODEL 1
REMARK minimizedAffinity -3.32482433
REMARK minimizedRMSD -1
REMARK  1 active torsions:
REMARK  status: ('A' for Active; 'I' for Inactive)
REMARK    1  A    between atoms: C1_2  and  C2_3 
ROOT
ATOM      1  C2  UNL d   1      -0.827  -0.223   0.219  0.00  0.00    -0.076 A 
ATOM      2  C3  UNL d   1       0.448   0.185  -0.211  0.00  0.00     0.004 A 
ATOM      3  C4  UNL d   1       0.927   1.461   0.078  0.00  0.00    -0.003 A 
ATOM      4  C5  UNL d   1       0.140   2.350   0.801  0.00  0.00     0.000 A 
ATOM      5  C6  UNL d   1      -1.120   1.956   1.251  0.00  0.00     0.000 A 
ATOM      6  C7  UNL d   1      -1.612   0.668   0.983  0.00  0.00    -0.073 A 
ATOM      7  C8  UNL d   1      -2.980   0.298   1.487  0.00  0.00     0.078 C 
ENDROOT
BRANCH   1   8
ATOM      8  C1  UNL d   1      -1.305  -1.610  -0.147  0.00  0.00     0.053 C 
ATOM      9  C   UNL d   1      -0.175  -2.510  -0.622  0.00  0.00     0.018 C 
ENDBRANCH   1   8
TORSDOF 1
ENDMDL
