MODEL 1
REMARK minimizedAffinity -3.26773787
REMARK minimizedRMSD -1
REMARK  1 active torsions:
REMARK  status: ('A' for Active; 'I' for Inactive)
REMARK    1  A    between atoms: C1_2  and  C2_3 
ROOT
ATOM      1  C2  UNL d   1      -0.404  -0.955   0.114  0.00  0.00    -0.076 A 
ATOM      2  C3  UNL d   1       0.938  -0.726  -0.239  0.00  0.00     0.004 A 
ATOM      3  C4  UNL d   1       1.520   0.529  -0.070  0.00  0.00    -0.003 A 
ATOM      4  C5  UNL d   1       0.771   1.576   0.455  0.00  0.00     0.000 A 
ATOM      5  C6  UNL d   1      -0.556   1.363   0.826  0.00  0.00     0.000 A 
ATOM      6  C7  UNL d   1      -1.154   0.099   0.678  0.00  0.00    -0.073 A 
ATOM      7  C8  UNL d   1      -2.590  -0.073   1.089  0.00  0.00     0.078 C 
ENDROOT
BRANCH   1   8
ATOM      8  C1  UNL d   1      -0.989  -2.329  -0.117  0.00  0.00     0.053 C 
ATOM      9  C   UNL d   1      -0.503  -2.960  -1.413  0.00  0.00     0.018 C 
ENDBRANCH   1   8
TORSDOF 1
ENDMDL
