MODEL 1
REMARK minimizedAffinity -3.10615969
REMARK minimizedRMSD -1
REMARK  1 active torsions:
REMARK  status: ('A' for Active; 'I' for Inactive)
REMARK    1  A    between atoms: C1_2  and  C2_3 
ROOT
ATOM      1  C2  UNL d   1       0.108   1.016  -0.294  0.00  0.00    -0.076 A 
ATOM      2  C3  UNL d   1       0.876   1.881  -1.094  0.00  0.00     0.004 A 
ATOM      3  C4  UNL d   1       0.832   3.261  -0.904  0.00  0.00    -0.003 A 
ATOM      4  C5  UNL d   1       0.021   3.799   0.089  0.00  0.00     0.000 A 
ATOM      5  C6  UNL d   1      -0.734   2.955   0.903  0.00  0.00     0.000 A 
ATOM      6  C7  UNL d   1      -0.689   1.560   0.736  0.00  0.00    -0.073 A 
ATOM      7  C8  UNL d   1      -1.528   0.698   1.638  0.00  0.00     0.078 C 
ENDROOT
BRANCH   1   8
ATOM      8  C1  UNL d   1       0.175  -0.470  -0.564  0.00  0.00     0.053 C 
ATOM      9  C   UNL d   1       1.064  -1.203   0.429  0.00  0.00     0.018 C 
ENDBRANCH   1   8
TORSDOF 1
ENDMDL
