MODEL 1
REMARK minimizedAffinity -3.6680162
REMARK minimizedRMSD -1
REMARK  1 active torsions:
REMARK  status: ('A' for Active; 'I' for Inactive)
REMARK    1  A    between atoms: C1_2  and  C2_3 
ROOT
ATOM      1  C2  UNL d   1      -0.242  -0.195   0.149  0.00  0.00    -0.076 A 
ATOM      2  C3  UNL d   1       0.734   0.525  -0.561  0.00  0.00     0.004 A 
ATOM      3  C4  UNL d   1       0.594   1.893  -0.786  0.00  0.00    -0.003 A 
ATOM      4  C5  UNL d   1      -0.524   2.564  -0.304  0.00  0.00     0.000 A 
ATOM      5  C6  UNL d   1      -1.494   1.869   0.419  0.00  0.00     0.000 A 
ATOM      6  C7  UNL d   1      -1.360   0.493   0.668  0.00  0.00    -0.073 A 
ATOM      7  C8  UNL d   1      -2.439  -0.208   1.448  0.00  0.00     0.078 C 
ENDROOT
BRANCH   1   8
ATOM      8  C1  UNL d   1      -0.050  -1.683   0.339  0.00  0.00     0.053 C 
ATOM      9  C   UNL d   1      -0.125  -2.452  -0.971  0.00  0.00     0.018 C 
ENDBRANCH   1   8
TORSDOF 1
ENDMDL
