MODEL 1
REMARK minimizedAffinity -4.23029947
REMARK minimizedRMSD -1
REMARK  1 active torsions:
REMARK  status: ('A' for Active; 'I' for Inactive)
REMARK    1  A    between atoms: C1_2  and  C2_3 
ROOT
ATOM      1  C2  UNL d   1       0.009  -0.243   0.223  0.00  0.00    -0.076 A 
ATOM      2  C3  UNL d   1       1.090   0.304  -0.491  0.00  0.00     0.004 A 
ATOM      3  C4  UNL d   1       1.139   1.665  -0.786  0.00  0.00    -0.003 A 
ATOM      4  C5  UNL d   1       0.109   2.503  -0.371  0.00  0.00     0.000 A 
ATOM      5  C6  UNL d   1      -0.961   1.980   0.353  0.00  0.00     0.000 A 
ATOM      6  C7  UNL d   1      -1.019   0.613   0.673  0.00  0.00    -0.073 A 
ATOM      7  C8  UNL d   1      -2.200   0.103   1.452  0.00  0.00     0.078 C 
ENDROOT
BRANCH   1   8
ATOM      8  C1  UNL d   1      -0.004  -1.731   0.490  0.00  0.00     0.053 C 
ATOM      9  C   UNL d   1       0.027  -2.553  -0.790  0.00  0.00     0.018 C 
ENDBRANCH   1   8
TORSDOF 1
ENDMDL
