MODEL 1
REMARK minimizedAffinity -0.636119306
REMARK minimizedRMSD -1
REMARK  1 active torsions:
REMARK  status: ('A' for Active; 'I' for Inactive)
REMARK    1  A    between atoms: C1_2  and  C2_3 
ROOT
ATOM      1  C2  UNL d   1       0.015   0.152   0.247  0.00  0.00    -0.076 A 
ATOM      2  C3  UNL d   1      -1.181   0.870   0.414  0.00  0.00     0.004 A 
ATOM      3  C4  UNL d   1      -1.167   2.248   0.628  0.00  0.00    -0.003 A 
ATOM      4  C5  UNL d   1       0.044   2.929   0.678  0.00  0.00     0.000 A 
ATOM      5  C6  UNL d   1       1.240   2.234   0.497  0.00  0.00     0.000 A 
ATOM      6  C7  UNL d   1       1.242   0.848   0.263  0.00  0.00    -0.073 A 
ATOM      7  C8  UNL d   1       2.562   0.149   0.081  0.00  0.00     0.078 C 
ENDROOT
BRANCH   1   8
ATOM      8  C1  UNL d   1      -0.061  -1.345   0.045  0.00  0.00     0.053 C 
ATOM      9  C   UNL d   1      -0.103  -1.733  -1.425  0.00  0.00     0.018 C 
ENDBRANCH   1   8
TORSDOF 1
ENDMDL
