MODEL 1
REMARK minimizedAffinity -4.72545385
REMARK minimizedRMSD -1
REMARK  1 active torsions:
REMARK  status: ('A' for Active; 'I' for Inactive)
REMARK    1  A    between atoms: C1_2  and  C2_3 
ROOT
ATOM      1  C2  UNL d   1       1.289   1.083   0.872  0.00  0.00    -0.076 A 
ATOM      2  C3  UNL d   1       1.211   2.471   1.084  0.00  0.00     0.004 A 
ATOM      3  C4  UNL d   1      -0.013   3.136   1.033  0.00  0.00    -0.003 A 
ATOM      4  C5  UNL d   1      -1.179   2.425   0.772  0.00  0.00     0.000 A 
ATOM      5  C6  UNL d   1      -1.122   1.045   0.577  0.00  0.00     0.000 A 
ATOM      6  C7  UNL d   1       0.102   0.356   0.640  0.00  0.00    -0.073 A 
ATOM      7  C8  UNL d   1       0.105  -1.131   0.416  0.00  0.00     0.078 C 
ENDROOT
BRANCH   1   8
ATOM      8  C1  UNL d   1       2.647   0.420   0.912  0.00  0.00     0.053 C 
ATOM      9  C   UNL d   1       3.764   1.353   0.471  0.00  0.00     0.018 C 
ENDBRANCH   1   8
TORSDOF 1
ENDMDL
