MODEL 1
REMARK minimizedAffinity -4.38806677
REMARK minimizedRMSD -1
REMARK  1 active torsions:
REMARK  status: ('A' for Active; 'I' for Inactive)
REMARK    1  A    between atoms: C1_2  and  C2_3 
ROOT
ATOM      1  C2  UNL d   1      -0.669  -0.057  -0.075  0.00  0.00    -0.076 A 
ATOM      2  C3  UNL d   1       0.400   0.629  -0.677  0.00  0.00     0.004 A 
ATOM      3  C4  UNL d   1       0.501   2.017  -0.594  0.00  0.00    -0.003 A 
ATOM      4  C5  UNL d   1      -0.466   2.741   0.094  0.00  0.00     0.000 A 
ATOM      5  C6  UNL d   1      -1.524   2.076   0.713  0.00  0.00     0.000 A 
ATOM      6  C7  UNL d   1      -1.631   0.676   0.652  0.00  0.00    -0.073 A 
ATOM      7  C8  UNL d   1      -2.796   0.011   1.333  0.00  0.00     0.078 C 
ENDROOT
BRANCH   1   8
ATOM      8  C1  UNL d   1      -0.739  -1.560  -0.222  0.00  0.00     0.053 C 
ATOM      9  C   UNL d   1      -0.110  -2.049  -1.517  0.00  0.00     0.018 C 
ENDBRANCH   1   8
TORSDOF 1
ENDMDL
