MODEL 1
REMARK minimizedAffinity -2.08282399
REMARK minimizedRMSD -1
REMARK  1 active torsions:
REMARK  status: ('A' for Active; 'I' for Inactive)
REMARK    1  A    between atoms: C1_2  and  C2_3 
ROOT
ATOM      1  C2  UNL d   1      -1.062   1.905   1.255  0.00  0.00    -0.076 A 
ATOM      2  C3  UNL d   1      -1.489   0.565   1.268  0.00  0.00     0.004 A 
ATOM      3  C4  UNL d   1      -0.877  -0.390   0.459  0.00  0.00    -0.003 A 
ATOM      4  C5  UNL d   1       0.173  -0.023  -0.376  0.00  0.00     0.000 A 
ATOM      5  C6  UNL d   1       0.621   1.298  -0.388  0.00  0.00     0.000 A 
ATOM      6  C7  UNL d   1       0.026   2.270   0.434  0.00  0.00    -0.073 A 
ATOM      7  C8  UNL d   1       0.545   3.681   0.375  0.00  0.00     0.078 C 
ENDROOT
BRANCH   1   8
ATOM      8  C1  UNL d   1      -1.781   2.903   2.134  0.00  0.00     0.053 C 
ATOM      9  C   UNL d   1      -1.302   2.860   3.577  0.00  0.00     0.018 C 
ENDBRANCH   1   8
TORSDOF 1
ENDMDL
