MODEL 1
REMARK minimizedAffinity -4.78625774
REMARK minimizedRMSD -1
REMARK  1 active torsions:
REMARK  status: ('A' for Active; 'I' for Inactive)
REMARK    1  A    between atoms: C1_2  and  C2_3 
ROOT
ATOM      1  C2  UNL d   1      -0.200  -0.274   0.274  0.00  0.00    -0.076 A 
ATOM      2  C3  UNL d   1       0.705   0.375  -0.583  0.00  0.00     0.004 A 
ATOM      3  C4  UNL d   1       0.839   1.762  -0.569  0.00  0.00    -0.003 A 
ATOM      4  C5  UNL d   1       0.069   2.523   0.304  0.00  0.00     0.000 A 
ATOM      5  C6  UNL d   1      -0.821   1.895   1.174  0.00  0.00     0.000 A 
ATOM      6  C7  UNL d   1      -0.956   0.496   1.184  0.00  0.00    -0.073 A 
ATOM      7  C8  UNL d   1      -1.936  -0.128   2.139  0.00  0.00     0.078 C 
ENDROOT
BRANCH   1   8
ATOM      8  C1  UNL d   1      -0.321  -1.779   0.194  0.00  0.00     0.053 C 
ATOM      9  C   UNL d   1       0.002  -2.317  -1.191  0.00  0.00     0.018 C 
ENDBRANCH   1   8
TORSDOF 1
ENDMDL
