MODEL 1
REMARK minimizedAffinity -1.88556826
REMARK minimizedRMSD -1
REMARK  1 active torsions:
REMARK  status: ('A' for Active; 'I' for Inactive)
REMARK    1  A    between atoms: C1_2  and  C2_3 
ROOT
ATOM      1  C2  UNL d   1      -0.910   1.314   0.639  0.00  0.00    -0.076 A 
ATOM      2  C3  UNL d   1      -1.142   0.026   1.152  0.00  0.00     0.004 A 
ATOM      3  C4  UNL d   1      -0.631  -1.103   0.515  0.00  0.00    -0.003 A 
ATOM      4  C5  UNL d   1       0.121  -0.963  -0.646  0.00  0.00     0.000 A 
ATOM      5  C6  UNL d   1       0.376   0.308  -1.160  0.00  0.00     0.000 A 
ATOM      6  C7  UNL d   1      -0.118   1.458  -0.521  0.00  0.00    -0.073 A 
ATOM      7  C8  UNL d   1       0.182   2.803  -1.122  0.00  0.00     0.078 C 
ENDROOT
BRANCH   1   8
ATOM      8  C1  UNL d   1      -1.513   2.500   1.357  0.00  0.00     0.053 C 
ATOM      9  C   UNL d   1      -0.575   3.086   2.402  0.00  0.00     0.018 C 
ENDBRANCH   1   8
TORSDOF 1
ENDMDL
