MODEL 1
REMARK minimizedAffinity -5.06221533
REMARK minimizedRMSD -1
REMARK  1 active torsions:
REMARK  status: ('A' for Active; 'I' for Inactive)
REMARK    1  A    between atoms: C1_2  and  C2_3 
ROOT
ATOM      1  C2  UNL d   1       0.116   0.061   0.233  0.00  0.00    -0.076 A 
ATOM      2  C3  UNL d   1       1.370   0.545  -0.178  0.00  0.00     0.004 A 
ATOM      3  C4  UNL d   1       1.610   1.914  -0.286  0.00  0.00    -0.003 A 
ATOM      4  C5  UNL d   1       0.600   2.821   0.016  0.00  0.00     0.000 A 
ATOM      5  C6  UNL d   1      -0.644   2.359   0.442  0.00  0.00     0.000 A 
ATOM      6  C7  UNL d   1      -0.898   0.983   0.572  0.00  0.00    -0.073 A 
ATOM      7  C8  UNL d   1      -2.261   0.540   1.031  0.00  0.00     0.078 C 
ENDROOT
BRANCH   1   8
ATOM      8  C1  UNL d   1      -0.095  -1.434   0.306  0.00  0.00     0.053 C 
ATOM      9  C   UNL d   1      -0.446  -2.040  -1.044  0.00  0.00     0.018 C 
ENDBRANCH   1   8
TORSDOF 1
ENDMDL
