MODEL 1
REMARK minimizedAffinity -2.54353476
REMARK minimizedRMSD -1
REMARK  1 active torsions:
REMARK  status: ('A' for Active; 'I' for Inactive)
REMARK    1  A    between atoms: C1_2  and  C2_3 
ROOT
ATOM      1  C2  UNL d   1      -0.368  -0.304   0.099  0.00  0.00    -0.076 A 
ATOM      2  C3  UNL d   1      -1.692   0.153   0.222  0.00  0.00     0.004 A 
ATOM      3  C4  UNL d   1      -1.972   1.511   0.361  0.00  0.00    -0.003 A 
ATOM      4  C5  UNL d   1      -0.933   2.435   0.380  0.00  0.00     0.000 A 
ATOM      5  C6  UNL d   1       0.385   2.001   0.242  0.00  0.00     0.000 A 
ATOM      6  C7  UNL d   1       0.684   0.637   0.084  0.00  0.00    -0.073 A 
ATOM      7  C8  UNL d   1       2.124   0.224  -0.055  0.00  0.00     0.078 C 
ENDROOT
BRANCH   1   8
ATOM      8  C1  UNL d   1      -0.124  -1.791  -0.022  0.00  0.00     0.053 C 
ATOM      9  C   UNL d   1      -0.958  -2.431  -1.120  0.00  0.00     0.018 C 
ENDBRANCH   1   8
TORSDOF 1
ENDMDL
