MODEL 1
REMARK minimizedAffinity 24.1055164
REMARK minimizedRMSD -1
REMARK  1 active torsions:
REMARK  status: ('A' for Active; 'I' for Inactive)
REMARK    1  A    between atoms: C1_2  and  C2_3 
ROOT
ATOM      1  C2  UNL d   1       4.061  -0.308  -4.220  0.00  0.00    -0.081 A 
ATOM      2  C3  UNL d   1       4.137  -0.701  -2.878  0.00  0.00     0.006 A 
ATOM      3  C4  UNL d   1       3.838  -2.014  -2.506  0.00  0.00     0.002 A 
ATOM      4  C5  UNL d   1       3.466  -2.957  -3.470  0.00  0.00    -0.080 A 
ATOM      5  C6  UNL d   1       3.171  -4.377  -3.088  0.00  0.00     0.076 C 
ATOM      6  C7  UNL d   1       3.373  -2.561  -4.808  0.00  0.00     0.002 A 
ATOM      7  C8  UNL d   1       3.672  -1.248  -5.181  0.00  0.00     0.006 A 
ENDROOT
BRANCH   1   8
ATOM      8  C1  UNL d   1       4.446   1.090  -4.632  0.00  0.00     0.054 C 
ATOM      9  C   UNL d   1       5.117   1.098  -5.999  0.00  0.00     0.018 C 
ENDBRANCH   1   8
TORSDOF 1
ENDMDL
