MODEL 1
REMARK minimizedAffinity 14.9039164
REMARK minimizedRMSD -1
REMARK  1 active torsions:
REMARK  status: ('A' for Active; 'I' for Inactive)
REMARK    1  A    between atoms: C1_2  and  C2_3 
ROOT
ATOM      1  C2  UNL d   1       5.098  -3.420  -2.266  0.00  0.00    -0.081 A 
ATOM      2  C3  UNL d   1       5.077  -4.529  -3.121  0.00  0.00     0.006 A 
ATOM      3  C4  UNL d   1       4.309  -4.511  -4.287  0.00  0.00     0.002 A 
ATOM      4  C5  UNL d   1       3.555  -3.381  -4.622  0.00  0.00    -0.080 A 
ATOM      5  C6  UNL d   1       2.749  -3.337  -5.887  0.00  0.00     0.076 C 
ATOM      6  C7  UNL d   1       3.561  -2.279  -3.760  0.00  0.00     0.002 A 
ATOM      7  C8  UNL d   1       4.329  -2.298  -2.593  0.00  0.00     0.006 A 
ENDROOT
BRANCH   1   8
ATOM      8  C1  UNL d   1       5.976  -3.412  -1.041  0.00  0.00     0.054 C 
ATOM      9  C   UNL d   1       6.000  -2.039  -0.386  0.00  0.00     0.018 C 
ENDBRANCH   1   8
TORSDOF 1
ENDMDL
