MODEL 1
REMARK minimizedAffinity 11.7944098
REMARK minimizedRMSD -1
REMARK  1 active torsions:
REMARK  status: ('A' for Active; 'I' for Inactive)
REMARK    1  A    between atoms: C1_2  and  C2_3 
ROOT
ATOM      1  C2  UNL d   1      -1.938   3.795   0.724  0.00  0.00    -0.081 A 
ATOM      2  C3  UNL d   1      -2.622   3.086  -0.271  0.00  0.00     0.006 A 
ATOM      3  C4  UNL d   1      -3.765   3.626  -0.866  0.00  0.00     0.002 A 
ATOM      4  C5  UNL d   1      -4.238   4.885  -0.482  0.00  0.00    -0.080 A 
ATOM      5  C6  UNL d   1      -5.446   5.489  -1.133  0.00  0.00     0.076 C 
ATOM      6  C7  UNL d   1      -3.564   5.586   0.525  0.00  0.00     0.002 A 
ATOM      7  C8  UNL d   1      -2.421   5.046   1.120  0.00  0.00     0.006 A 
ENDROOT
BRANCH   1   8
ATOM      8  C1  UNL d   1      -0.668   3.244   1.321  0.00  0.00     0.054 C 
ATOM      9  C   UNL d   1       0.514   4.165   1.055  0.00  0.00     0.018 C 
ENDBRANCH   1   8
TORSDOF 1
ENDMDL
