MODEL 1
REMARK minimizedAffinity 19.2812099
REMARK minimizedRMSD -1
REMARK  1 active torsions:
REMARK  status: ('A' for Active; 'I' for Inactive)
REMARK    1  A    between atoms: C1_2  and  C2_3 
ROOT
ATOM      1  C2  UNL d   1       0.386   4.758   1.350  0.00  0.00    -0.081 A 
ATOM      2  C3  UNL d   1      -0.992   4.861   1.126  0.00  0.00     0.006 A 
ATOM      3  C4  UNL d   1      -1.725   3.751   0.700  0.00  0.00     0.002 A 
ATOM      4  C5  UNL d   1      -1.094   2.519   0.498  0.00  0.00    -0.080 A 
ATOM      5  C6  UNL d   1      -1.875   1.312   0.070  0.00  0.00     0.076 C 
ATOM      6  C7  UNL d   1       0.286   2.420   0.705  0.00  0.00     0.002 A 
ATOM      7  C8  UNL d   1       1.020   3.530   1.130  0.00  0.00     0.006 A 
ENDROOT
BRANCH   1   8
ATOM      8  C1  UNL d   1       1.168   5.937   1.871  0.00  0.00     0.054 C 
ATOM      9  C   UNL d   1       1.126   6.000   3.391  0.00  0.00     0.018 C 
ENDBRANCH   1   8
TORSDOF 1
ENDMDL
