MODEL 1
REMARK minimizedAffinity 14.9449902
REMARK minimizedRMSD -1
REMARK  1 active torsions:
REMARK  status: ('A' for Active; 'I' for Inactive)
REMARK    1  A    between atoms: C1_2  and  C2_3 
ROOT
ATOM      1  C2  UNL d   1       2.454   4.998   0.256  0.00  0.00    -0.081 A 
ATOM      2  C3  UNL d   1       3.720   4.625   0.724  0.00  0.00     0.006 A 
ATOM      3  C4  UNL d   1       4.867   4.937  -0.011  0.00  0.00     0.002 A 
ATOM      4  C5  UNL d   1       4.768   5.633  -1.220  0.00  0.00    -0.080 A 
ATOM      5  C6  UNL d   1       5.993   6.000  -2.004  0.00  0.00     0.076 C 
ATOM      6  C7  UNL d   1       3.501   5.990  -1.697  0.00  0.00     0.002 A 
ATOM      7  C8  UNL d   1       2.355   5.678  -0.963  0.00  0.00     0.006 A 
ENDROOT
BRANCH   1   8
ATOM      8  C1  UNL d   1       1.221   4.720   1.077  0.00  0.00     0.054 C 
ATOM      9  C   UNL d   1       0.628   3.359   0.743  0.00  0.00     0.018 C 
ENDBRANCH   1   8
TORSDOF 1
ENDMDL
