MODEL 1
REMARK minimizedAffinity 19.4146366
REMARK minimizedRMSD -1
REMARK  1 active torsions:
REMARK  status: ('A' for Active; 'I' for Inactive)
REMARK    1  A    between atoms: C1_2  and  C2_3 
ROOT
ATOM      1  C2  UNL d   1       0.760  -2.185  -1.369  0.00  0.00    -0.081 A 
ATOM      2  C3  UNL d   1       0.299  -2.465  -0.077  0.00  0.00     0.006 A 
ATOM      3  C4  UNL d   1      -1.069  -2.450   0.206  0.00  0.00     0.002 A 
ATOM      4  C5  UNL d   1      -1.998  -2.164  -0.799  0.00  0.00    -0.080 A 
ATOM      5  C6  UNL d   1      -3.471  -2.175  -0.516  0.00  0.00     0.076 C 
ATOM      6  C7  UNL d   1      -1.538  -1.867  -2.087  0.00  0.00     0.002 A 
ATOM      7  C8  UNL d   1      -0.170  -1.881  -2.370  0.00  0.00     0.006 A 
ENDROOT
BRANCH   1   8
ATOM      8  C1  UNL d   1       2.230  -2.263  -1.693  0.00  0.00     0.054 C 
ATOM      9  C   UNL d   1       2.500  -1.871  -3.138  0.00  0.00     0.018 C 
ENDBRANCH   1   8
TORSDOF 1
ENDMDL
