MODEL 1
REMARK minimizedAffinity 12.3334436
REMARK minimizedRMSD -1
REMARK  1 active torsions:
REMARK  status: ('A' for Active; 'I' for Inactive)
REMARK    1  A    between atoms: C1_2  and  C2_3 
ROOT
ATOM      1  C2  UNL d   1      -0.441  -1.577  -1.001  0.00  0.00    -0.081 A 
ATOM      2  C3  UNL d   1       0.738  -2.130  -0.486  0.00  0.00     0.006 A 
ATOM      3  C4  UNL d   1       1.923  -2.086  -1.225  0.00  0.00     0.002 A 
ATOM      4  C5  UNL d   1       1.950  -1.483  -2.487  0.00  0.00    -0.080 A 
ATOM      5  C6  UNL d   1       3.222  -1.402  -3.278  0.00  0.00     0.076 C 
ATOM      6  C7  UNL d   1       0.769  -0.946  -3.009  0.00  0.00     0.002 A 
ATOM      7  C8  UNL d   1      -0.416  -0.990  -2.271  0.00  0.00     0.006 A 
ENDROOT
BRANCH   1   8
ATOM      8  C1  UNL d   1      -1.704  -1.566  -0.180  0.00  0.00     0.054 C 
ATOM      9  C   UNL d   1      -2.039  -0.161   0.301  0.00  0.00     0.018 C 
ENDBRANCH   1   8
TORSDOF 1
ENDMDL
