MODEL 1
REMARK minimizedAffinity 17.9620819
REMARK minimizedRMSD -1
REMARK  1 active torsions:
REMARK  status: ('A' for Active; 'I' for Inactive)
REMARK    1  A    between atoms: C1_2  and  C2_3 
ROOT
ATOM      1  C2  UNL d   1      -0.862  -0.932  -0.783  0.00  0.00    -0.081 A 
ATOM      2  C3  UNL d   1       0.398  -1.088  -0.192  0.00  0.00     0.006 A 
ATOM      3  C4  UNL d   1       1.484  -1.537  -0.947  0.00  0.00     0.002 A 
ATOM      4  C5  UNL d   1       1.331  -1.830  -2.307  0.00  0.00    -0.080 A 
ATOM      5  C6  UNL d   1       2.495  -2.284  -3.136  0.00  0.00     0.076 C 
ATOM      6  C7  UNL d   1       0.068  -1.691  -2.893  0.00  0.00     0.002 A 
ATOM      7  C8  UNL d   1      -1.018  -1.243  -2.139  0.00  0.00     0.006 A 
ENDROOT
BRANCH   1   8
ATOM      8  C1  UNL d   1      -2.020  -0.387   0.013  0.00  0.00     0.054 C 
ATOM      9  C   UNL d   1      -1.913   1.122   0.182  0.00  0.00     0.018 C 
ENDBRANCH   1   8
TORSDOF 1
ENDMDL
