MODEL 1
REMARK minimizedAffinity 12.0601473
REMARK minimizedRMSD -1
REMARK  1 active torsions:
REMARK  status: ('A' for Active; 'I' for Inactive)
REMARK    1  A    between atoms: C1_2  and  C2_3 
ROOT
ATOM      1  C2  UNL d   1       2.077  -1.979  -2.219  0.00  0.00    -0.081 A 
ATOM      2  C3  UNL d   1       1.645  -2.750  -3.305  0.00  0.00     0.006 A 
ATOM      3  C4  UNL d   1       2.534  -3.096  -4.325  0.00  0.00     0.002 A 
ATOM      4  C5  UNL d   1       3.871  -2.685  -4.272  0.00  0.00    -0.080 A 
ATOM      5  C6  UNL d   1       4.843  -3.076  -5.346  0.00  0.00     0.076 C 
ATOM      6  C7  UNL d   1       4.298  -1.900  -3.196  0.00  0.00     0.002 A 
ATOM      7  C8  UNL d   1       3.409  -1.553  -2.176  0.00  0.00     0.006 A 
ENDROOT
BRANCH   1   8
ATOM      8  C1  UNL d   1       1.137  -1.658  -1.085  0.00  0.00     0.054 C 
ATOM      9  C   UNL d   1      -0.314  -1.696  -1.542  0.00  0.00     0.018 C 
ENDBRANCH   1   8
TORSDOF 1
ENDMDL
