MODEL 1
REMARK minimizedAffinity 4.59436417
REMARK minimizedRMSD -1
REMARK  1 active torsions:
REMARK  status: ('A' for Active; 'I' for Inactive)
REMARK    1  A    between atoms: C1_2  and  C2_3 
ROOT
ATOM      1  C2  UNL d   1       5.744  -3.618  -3.899  0.00  0.00    -0.081 A 
ATOM      2  C3  UNL d   1       5.892  -3.236  -5.238  0.00  0.00     0.006 A 
ATOM      3  C4  UNL d   1       5.960  -1.885  -5.586  0.00  0.00     0.002 A 
ATOM      4  C5  UNL d   1       5.890  -0.894  -4.601  0.00  0.00    -0.080 A 
ATOM      5  C6  UNL d   1       5.993   0.559  -4.957  0.00  0.00     0.076 C 
ATOM      6  C7  UNL d   1       5.725  -1.275  -3.265  0.00  0.00     0.002 A 
ATOM      7  C8  UNL d   1       5.656  -2.625  -2.916  0.00  0.00     0.006 A 
ENDROOT
BRANCH   1   8
ATOM      8  C1  UNL d   1       5.735  -5.075  -3.514  0.00  0.00     0.054 C 
ATOM      9  C   UNL d   1       5.998  -5.967  -4.719  0.00  0.00     0.018 C 
ENDBRANCH   1   8
TORSDOF 1
ENDMDL
