MODEL 1
REMARK minimizedAffinity 17.8521328
REMARK minimizedRMSD -1
REMARK  0 active torsions:
REMARK  status: ('A' for Active; 'I' for Inactive)
ROOT
ATOM      1  C   UNL d   1       1.933   0.497  -0.670  0.00  0.00     0.077 C 
ATOM      2  C1  UNL d   1       1.126  -0.531  -1.406  0.00  0.00    -0.074 A 
ATOM      3  C2  UNL d   1       1.694  -1.749  -1.792  0.00  0.00    -0.005 A 
ATOM      4  C3  UNL d   1       0.928  -2.699  -2.468  0.00  0.00     0.006 A 
ATOM      5  C4  UNL d   1      -0.411  -2.441  -2.763  0.00  0.00    -0.005 A 
ATOM      6  C5  UNL d   1      -0.997  -1.229  -2.383  0.00  0.00    -0.074 A 
ATOM      7  C6  UNL d   1      -2.437  -0.940  -2.684  0.00  0.00     0.077 C 
ATOM      8  C7  UNL d   1      -0.222  -0.282  -1.699  0.00  0.00    -0.001 A 
ENDROOT
TORSDOF 0
ENDMDL
