MODEL 1
REMARK minimizedAffinity 12.0793257
REMARK minimizedRMSD -1
REMARK  0 active torsions:
REMARK  status: ('A' for Active; 'I' for Inactive)
ROOT
ATOM      1  C   UNL d   1      -4.512  -1.167  -1.356  0.00  0.00     0.077 C 
ATOM      2  C1  UNL d   1      -4.560   0.257  -0.890  0.00  0.00    -0.074 A 
ATOM      3  C2  UNL d   1      -3.974   0.637   0.322  0.00  0.00    -0.005 A 
ATOM      4  C3  UNL d   1      -4.018   1.968   0.738  0.00  0.00     0.006 A 
ATOM      5  C4  UNL d   1      -4.649   2.930  -0.051  0.00  0.00    -0.005 A 
ATOM      6  C5  UNL d   1      -5.240   2.569  -1.266  0.00  0.00    -0.074 A 
ATOM      7  C6  UNL d   1      -5.913   3.593  -2.132  0.00  0.00     0.077 C 
ATOM      8  C7  UNL d   1      -5.185   1.231  -1.681  0.00  0.00    -0.001 A 
ENDROOT
TORSDOF 0
ENDMDL
