MODEL 1
REMARK minimizedAffinity 7.29875994
REMARK minimizedRMSD -1
REMARK  0 active torsions:
REMARK  status: ('A' for Active; 'I' for Inactive)
ROOT
ATOM      1  C   UNL d   1       0.896  -0.034  -1.261  0.00  0.00     0.077 C 
ATOM      2  C1  UNL d   1       2.108   0.600  -0.645  0.00  0.00    -0.074 A 
ATOM      3  C2  UNL d   1       2.448   0.355   0.689  0.00  0.00    -0.005 A 
ATOM      4  C3  UNL d   1       3.583   0.944   1.245  0.00  0.00     0.006 A 
ATOM      5  C4  UNL d   1       4.389   1.783   0.474  0.00  0.00    -0.005 A 
ATOM      6  C5  UNL d   1       4.065   2.039  -0.862  0.00  0.00    -0.074 A 
ATOM      7  C6  UNL d   1       4.926   2.930  -1.707  0.00  0.00     0.077 C 
ATOM      8  C7  UNL d   1       2.927   1.438  -1.416  0.00  0.00    -0.001 A 
ENDROOT
TORSDOF 0
ENDMDL
