MODEL 1
REMARK minimizedAffinity 6.79773617
REMARK minimizedRMSD -1
REMARK  0 active torsions:
REMARK  status: ('A' for Active; 'I' for Inactive)
ROOT
ATOM      1  C   UNL d   1       2.699   2.807   2.566  0.00  0.00     0.077 C 
ATOM      2  C1  UNL d   1       2.604   1.697   1.562  0.00  0.00    -0.074 A 
ATOM      3  C2  UNL d   1       2.226   1.953   0.240  0.00  0.00    -0.005 A 
ATOM      4  C3  UNL d   1       2.151   0.912  -0.685  0.00  0.00     0.006 A 
ATOM      5  C4  UNL d   1       2.454  -0.394  -0.298  0.00  0.00    -0.005 A 
ATOM      6  C5  UNL d   1       2.836  -0.669   1.019  0.00  0.00    -0.074 A 
ATOM      7  C6  UNL d   1       3.174  -2.066   1.449  0.00  0.00     0.077 C 
ATOM      8  C7  UNL d   1       2.915   0.384   1.941  0.00  0.00    -0.001 A 
ENDROOT
TORSDOF 0
ENDMDL
