MODEL 1
REMARK minimizedAffinity 14.3796291
REMARK minimizedRMSD -1
REMARK  0 active torsions:
REMARK  status: ('A' for Active; 'I' for Inactive)
ROOT
ATOM      1  C   UNL d   1       2.929  -1.830   1.182  0.00  0.00     0.077 C 
ATOM      2  C1  UNL d   1       3.148  -0.452   0.633  0.00  0.00    -0.074 A 
ATOM      3  C2  UNL d   1       2.834  -0.149  -0.696  0.00  0.00    -0.005 A 
ATOM      4  C3  UNL d   1       3.034   1.140  -1.190  0.00  0.00     0.006 A 
ATOM      5  C4  UNL d   1       3.550   2.137  -0.362  0.00  0.00    -0.005 A 
ATOM      6  C5  UNL d   1       3.869   1.854   0.970  0.00  0.00    -0.074 A 
ATOM      7  C6  UNL d   1       4.415   2.917   1.876  0.00  0.00     0.077 C 
ATOM      8  C7  UNL d   1       3.659   0.558   1.461  0.00  0.00    -0.001 A 
ENDROOT
TORSDOF 0
ENDMDL
