MODEL 1
REMARK minimizedAffinity 15.5904274
REMARK minimizedRMSD -1
REMARK  0 active torsions:
REMARK  status: ('A' for Active; 'I' for Inactive)
ROOT
ATOM      1  C   UNL d   1       2.204  -0.141  -0.235  0.00  0.00     0.077 C 
ATOM      2  C1  UNL d   1       3.384   0.300   0.580  0.00  0.00    -0.074 A 
ATOM      3  C2  UNL d   1       4.290  -0.632   1.095  0.00  0.00    -0.005 A 
ATOM      4  C3  UNL d   1       5.388  -0.206   1.843  0.00  0.00     0.006 A 
ATOM      5  C4  UNL d   1       5.590   1.153   2.083  0.00  0.00    -0.005 A 
ATOM      6  C5  UNL d   1       4.695   2.100   1.574  0.00  0.00    -0.074 A 
ATOM      7  C6  UNL d   1       4.903   3.566   1.814  0.00  0.00     0.077 C 
ATOM      8  C7  UNL d   1       3.598   1.665   0.818  0.00  0.00    -0.001 A 
ENDROOT
TORSDOF 0
ENDMDL
