MODEL 1
REMARK minimizedAffinity 10.1916618
REMARK minimizedRMSD -1
REMARK  0 active torsions:
REMARK  status: ('A' for Active; 'I' for Inactive)
ROOT
ATOM      1  C   UNL d   1       3.783   3.105   2.982  0.00  0.00     0.077 C 
ATOM      2  C1  UNL d   1       3.060   4.105   3.835  0.00  0.00    -0.074 A 
ATOM      3  C2  UNL d   1       3.730   4.811   4.839  0.00  0.00    -0.005 A 
ATOM      4  C3  UNL d   1       3.046   5.745   5.617  0.00  0.00     0.006 A 
ATOM      5  C4  UNL d   1       1.688   5.981   5.401  0.00  0.00    -0.005 A 
ATOM      6  C5  UNL d   1       1.002   5.285   4.401  0.00  0.00    -0.074 A 
ATOM      7  C6  UNL d   1      -0.456   5.534   4.148  0.00  0.00     0.077 C 
ATOM      8  C7  UNL d   1       1.697   4.354   3.618  0.00  0.00    -0.001 A 
ENDROOT
TORSDOF 0
ENDMDL
