MODEL 1
REMARK minimizedAffinity 10.0638189
REMARK minimizedRMSD -1
REMARK  0 active torsions:
REMARK  status: ('A' for Active; 'I' for Inactive)
ROOT
ATOM      1  C   UNL d   1      -4.304   2.484   1.484  0.00  0.00     0.077 C 
ATOM      2  C1  UNL d   1      -4.344   1.473   0.377  0.00  0.00    -0.074 A 
ATOM      3  C2  UNL d   1      -5.547   0.867   0.001  0.00  0.00    -0.005 A 
ATOM      4  C3  UNL d   1      -5.570  -0.065  -1.037  0.00  0.00     0.006 A 
ATOM      5  C4  UNL d   1      -4.393  -0.398  -1.709  0.00  0.00    -0.005 A 
ATOM      6  C5  UNL d   1      -3.181   0.199  -1.347  0.00  0.00    -0.074 A 
ATOM      7  C6  UNL d   1      -1.909  -0.141  -2.065  0.00  0.00     0.077 C 
ATOM      8  C7  UNL d   1      -3.167   1.139  -0.307  0.00  0.00    -0.001 A 
ENDROOT
TORSDOF 0
ENDMDL
