MODEL 1
REMARK minimizedAffinity 12.6642666
REMARK minimizedRMSD -1
REMARK  0 active torsions:
REMARK  status: ('A' for Active; 'I' for Inactive)
ROOT
ATOM      1  C   UNL d   1       1.016   2.016   5.764  0.00  0.00     0.077 C 
ATOM      2  C1  UNL d   1       1.529   3.229   5.047  0.00  0.00    -0.074 A 
ATOM      3  C2  UNL d   1       1.083   4.509   5.390  0.00  0.00    -0.005 A 
ATOM      4  C3  UNL d   1       1.577   5.629   4.720  0.00  0.00     0.006 A 
ATOM      5  C4  UNL d   1       2.519   5.480   3.702  0.00  0.00    -0.005 A 
ATOM      6  C5  UNL d   1       2.978   4.208   3.346  0.00  0.00    -0.074 A 
ATOM      7  C6  UNL d   1       3.998   4.031   2.261  0.00  0.00     0.077 C 
ATOM      8  C7  UNL d   1       2.482   3.088   4.028  0.00  0.00    -0.001 A 
ENDROOT
TORSDOF 0
ENDMDL
