MODEL 1
REMARK minimizedAffinity 2.49263835
REMARK minimizedRMSD -1
REMARK  2 active torsions:
REMARK  status: ('A' for Active; 'I' for Inactive)
REMARK    1  A    between atoms: C1_2  and  C2_3 
REMARK    2  A    between atoms: C2_3  and  C3_4 
ROOT
ATOM      1  C3  UNL d   1       5.077  -5.274  -3.403  0.00  0.00    -0.075 A 
ATOM      2  C4  UNL d   1       5.172  -3.879  -3.306  0.00  0.00     0.002 A 
ATOM      3  C5  UNL d   1       4.779  -3.221  -2.139  0.00  0.00     0.002 A 
ATOM      4  C6  UNL d   1       4.278  -3.948  -1.062  0.00  0.00    -0.004 A 
ATOM      5  C7  UNL d   1       4.163  -5.333  -1.154  0.00  0.00     0.002 A 
ATOM      6  C8  UNL d   1       4.559  -5.994  -2.318  0.00  0.00     0.002 A 
ENDROOT
BRANCH   1   7
ATOM      7  C2  UNL d   1       5.527  -5.995  -4.651  0.00  0.00     0.056 C 
BRANCH   7   8
ATOM      8  C1  UNL d   1       4.503  -5.970  -5.790  0.00  0.00     0.007 C 
ATOM      9  C   UNL d   1       3.061  -5.998  -5.301  0.00  0.00     0.009 C 
ENDBRANCH   7   8
ENDBRANCH   1   7
TORSDOF 2
ENDMDL
