MODEL 1
REMARK minimizedAffinity -0.552884281
REMARK minimizedRMSD -1
REMARK  2 active torsions:
REMARK  status: ('A' for Active; 'I' for Inactive)
REMARK    1  A    between atoms: C1_2  and  C2_3 
REMARK    2  A    between atoms: C2_3  and  C3_4 
ROOT
ATOM      1  C3  UNL d   1       4.414   0.358  -4.927  0.00  0.00    -0.075 A 
ATOM      2  C4  UNL d   1       3.380   1.238  -4.572  0.00  0.00     0.002 A 
ATOM      3  C5  UNL d   1       3.437   2.582  -4.940  0.00  0.00     0.002 A 
ATOM      4  C6  UNL d   1       4.530   3.067  -5.655  0.00  0.00    -0.004 A 
ATOM      5  C7  UNL d   1       5.570   2.206  -5.999  0.00  0.00     0.002 A 
ATOM      6  C8  UNL d   1       5.514   0.859  -5.636  0.00  0.00     0.002 A 
ENDROOT
BRANCH   1   7
ATOM      7  C2  UNL d   1       4.344  -1.104  -4.558  0.00  0.00     0.056 C 
BRANCH   7   8
ATOM      8  C1  UNL d   1       3.236  -1.442  -3.555  0.00  0.00     0.007 C 
ATOM      9  C   UNL d   1       3.641  -1.194  -2.107  0.00  0.00     0.009 C 
ENDBRANCH   7   8
ENDBRANCH   1   7
TORSDOF 2
ENDMDL
