MODEL 1
REMARK minimizedAffinity 6.3604393
REMARK minimizedRMSD -1
REMARK  2 active torsions:
REMARK  status: ('A' for Active; 'I' for Inactive)
REMARK    1  A    between atoms: C1_2  and  C2_3 
REMARK    2  A    between atoms: C2_3  and  C3_4 
ROOT
ATOM      1  C3  UNL d   1      -3.621   2.768  -0.415  0.00  0.00    -0.075 A 
ATOM      2  C4  UNL d   1      -4.942   2.988  -0.832  0.00  0.00     0.002 A 
ATOM      3  C5  UNL d   1      -5.913   3.401   0.081  0.00  0.00     0.002 A 
ATOM      4  C6  UNL d   1      -5.580   3.587   1.421  0.00  0.00    -0.004 A 
ATOM      5  C7  UNL d   1      -4.275   3.355   1.849  0.00  0.00     0.002 A 
ATOM      6  C8  UNL d   1      -3.300   2.947   0.937  0.00  0.00     0.002 A 
ENDROOT
BRANCH   1   7
ATOM      7  C2  UNL d   1      -2.558   2.350  -1.403  0.00  0.00     0.056 C 
BRANCH   7   8
ATOM      8  C1  UNL d   1      -2.407   0.832  -1.551  0.00  0.00     0.007 C 
ATOM      9  C   UNL d   1      -3.157   0.268  -2.750  0.00  0.00     0.009 C 
ENDBRANCH   7   8
ENDBRANCH   1   7
TORSDOF 2
ENDMDL
