MODEL 1
REMARK minimizedAffinity -2.44995761
REMARK minimizedRMSD -1
REMARK  2 active torsions:
REMARK  status: ('A' for Active; 'I' for Inactive)
REMARK    1  A    between atoms: C1_2  and  C2_3 
REMARK    2  A    between atoms: C2_3  and  C3_4 
ROOT
ATOM      1  C3  UNL d   1       3.417  -5.988  -3.276  0.00  0.00    -0.075 A 
ATOM      2  C4  UNL d   1       4.406  -6.000  -4.271  0.00  0.00     0.002 A 
ATOM      3  C5  UNL d   1       4.052  -5.995  -5.621  0.00  0.00     0.002 A 
ATOM      4  C6  UNL d   1       2.709  -5.989  -5.993  0.00  0.00    -0.004 A 
ATOM      5  C7  UNL d   1       1.719  -5.994  -5.013  0.00  0.00     0.002 A 
ATOM      6  C8  UNL d   1       2.070  -5.994  -3.661  0.00  0.00     0.002 A 
ENDROOT
BRANCH   1   7
ATOM      7  C2  UNL d   1       3.793  -5.964  -1.814  0.00  0.00     0.056 C 
BRANCH   7   8
ATOM      8  C1  UNL d   1       2.594  -5.999  -0.861  0.00  0.00     0.007 C 
ATOM      9  C   UNL d   1       2.974  -5.747   0.592  0.00  0.00     0.009 C 
ENDBRANCH   7   8
ENDBRANCH   1   7
TORSDOF 2
ENDMDL
