MODEL 1
REMARK minimizedAffinity 0.842970252
REMARK minimizedRMSD -1
REMARK  2 active torsions:
REMARK  status: ('A' for Active; 'I' for Inactive)
REMARK    1  A    between atoms: C1_2  and  C2_3 
REMARK    2  A    between atoms: C2_3  and  C3_4 
ROOT
ATOM      1  C3  UNL d   1       3.638  -5.759  -3.311  0.00  0.00    -0.075 A 
ATOM      2  C4  UNL d   1       4.571  -5.542  -4.334  0.00  0.00     0.002 A 
ATOM      3  C5  UNL d   1       4.169  -5.533  -5.670  0.00  0.00     0.002 A 
ATOM      4  C6  UNL d   1       2.833  -5.752  -5.999  0.00  0.00    -0.004 A 
ATOM      5  C7  UNL d   1       1.900  -5.986  -4.992  0.00  0.00     0.002 A 
ATOM      6  C8  UNL d   1       2.299  -5.990  -3.654  0.00  0.00     0.002 A 
ENDROOT
BRANCH   1   7
ATOM      7  C2  UNL d   1       4.062  -5.740  -1.861  0.00  0.00     0.056 C 
BRANCH   7   8
ATOM      8  C1  UNL d   1       2.919  -5.999  -0.874  0.00  0.00     0.007 C 
ATOM      9  C   UNL d   1       3.101  -5.279   0.456  0.00  0.00     0.009 C 
ENDBRANCH   7   8
ENDBRANCH   1   7
TORSDOF 2
ENDMDL
