MODEL 1
REMARK minimizedAffinity -0.222442418
REMARK minimizedRMSD -1
REMARK  2 active torsions:
REMARK  status: ('A' for Active; 'I' for Inactive)
REMARK    1  A    between atoms: C1_2  and  C2_3 
REMARK    2  A    between atoms: C2_3  and  C3_4 
ROOT
ATOM      1  C3  UNL d   1       3.072  -5.743  -3.285  0.00  0.00    -0.075 A 
ATOM      2  C4  UNL d   1       4.448  -5.848  -3.535  0.00  0.00     0.002 A 
ATOM      3  C5  UNL d   1       4.923  -5.970  -4.841  0.00  0.00     0.002 A 
ATOM      4  C6  UNL d   1       4.031  -5.999  -5.910  0.00  0.00    -0.004 A 
ATOM      5  C7  UNL d   1       2.661  -5.912  -5.672  0.00  0.00     0.002 A 
ATOM      6  C8  UNL d   1       2.183  -5.786  -4.367  0.00  0.00     0.002 A 
ENDROOT
BRANCH   1   7
ATOM      7  C2  UNL d   1       2.553  -5.582  -1.876  0.00  0.00     0.056 C 
BRANCH   7   8
ATOM      8  C1  UNL d   1       3.553  -5.997  -0.791  0.00  0.00     0.007 C 
ATOM      9  C   UNL d   1       2.977  -5.921   0.616  0.00  0.00     0.009 C 
ENDBRANCH   7   8
ENDBRANCH   1   7
TORSDOF 2
ENDMDL
