MODEL 1
REMARK minimizedAffinity 3.66733956
REMARK minimizedRMSD -1
REMARK  2 active torsions:
REMARK  status: ('A' for Active; 'I' for Inactive)
REMARK    1  A    between atoms: C1_2  and  C2_3 
REMARK    2  A    between atoms: C2_3  and  C3_4 
ROOT
ATOM      1  C3  UNL d   1       3.074  -5.898  -3.231  0.00  0.00    -0.075 A 
ATOM      2  C4  UNL d   1       3.178  -5.770  -1.838  0.00  0.00     0.002 A 
ATOM      3  C5  UNL d   1       4.428  -5.649  -1.229  0.00  0.00     0.002 A 
ATOM      4  C6  UNL d   1       5.587  -5.665  -2.002  0.00  0.00    -0.004 A 
ATOM      5  C7  UNL d   1       5.496  -5.807  -3.385  0.00  0.00     0.002 A 
ATOM      6  C8  UNL d   1       4.247  -5.924  -3.997  0.00  0.00     0.002 A 
ENDROOT
BRANCH   1   7
ATOM      7  C2  UNL d   1       1.724  -6.000  -3.899  0.00  0.00     0.056 C 
BRANCH   7   8
ATOM      8  C1  UNL d   1       1.773  -5.891  -5.426  0.00  0.00     0.007 C 
ATOM      9  C   UNL d   1       3.184  -5.999  -5.990  0.00  0.00     0.009 C 
ENDBRANCH   7   8
ENDBRANCH   1   7
TORSDOF 2
ENDMDL
