MODEL 1
REMARK minimizedAffinity 13.218749
REMARK minimizedRMSD -1
REMARK  2 active torsions:
REMARK  status: ('A' for Active; 'I' for Inactive)
REMARK    1  A    between atoms: C1_2  and  C2_3 
REMARK    2  A    between atoms: C2_3  and  C3_4 
ROOT
ATOM      1  C3  UNL d   1       1.629  -4.196   3.515  0.00  0.00    -0.075 A 
ATOM      2  C4  UNL d   1       2.818  -3.850   2.858  0.00  0.00     0.002 A 
ATOM      3  C5  UNL d   1       3.123  -2.512   2.603  0.00  0.00     0.002 A 
ATOM      4  C6  UNL d   1       2.240  -1.507   2.992  0.00  0.00    -0.004 A 
ATOM      5  C7  UNL d   1       1.048  -1.841   3.631  0.00  0.00     0.002 A 
ATOM      6  C8  UNL d   1       0.742  -3.178   3.891  0.00  0.00     0.002 A 
ENDROOT
BRANCH   1   7
ATOM      7  C2  UNL d   1       1.307  -5.640   3.821  0.00  0.00     0.056 C 
BRANCH   7   8
ATOM      8  C1  UNL d   1       1.387  -5.995   5.309  0.00  0.00     0.007 C 
ATOM      9  C   UNL d   1       0.030  -5.998   6.000  0.00  0.00     0.009 C 
ENDBRANCH   7   8
ENDBRANCH   1   7
TORSDOF 2
ENDMDL
