MODEL 1
REMARK minimizedAffinity 5.98651314
REMARK minimizedRMSD -1
REMARK  0 active torsions:
REMARK  status: ('A' for Active; 'I' for Inactive)
ROOT
ATOM      1  O1  BZF d   1       1.309   3.277   2.346  0.00  0.00    -0.204 OA
ATOM      2  C2  BZF d   1       0.382   2.551   3.070  0.00  0.00     0.174 A 
ATOM      3  C3  BZF d   1      -0.708   2.286   2.321  0.00  0.00    -0.012 A 
ATOM      4  C3A BZF d   1      -0.407   2.804   1.022  0.00  0.00    -0.107 A 
ATOM      5  C4  BZF d   1      -1.091   2.831  -0.160  0.00  0.00     0.055 A 
ATOM      6  C5  BZF d   1      -0.547   3.478  -1.224  0.00  0.00    -0.016 A 
ATOM      7  C6  BZF d   1       0.676   4.112  -1.140  0.00  0.00     0.022 A 
ATOM      8  C7  BZF d   1       1.394   4.108   0.009  0.00  0.00     0.029 A 
ATOM      9  C7A BZF d   1       0.861   3.427   1.077  0.00  0.00     0.058 A 
ENDROOT
TORSDOF 0
ENDMDL
