MODEL 1
REMARK minimizedAffinity -2.71729541
REMARK minimizedRMSD -1
REMARK  0 active torsions:
REMARK  status: ('A' for Active; 'I' for Inactive)
ROOT
ATOM      1  O1  BZF d   1      -5.939   3.978  -5.606  0.00  0.00    -0.204 OA
ATOM      2  C2  BZF d   1      -5.998   2.650  -5.982  0.00  0.00     0.174 A 
ATOM      3  C3  BZF d   1      -5.977   1.845  -4.900  0.00  0.00    -0.012 A 
ATOM      4  C3A BZF d   1      -5.994   2.727  -3.774  0.00  0.00    -0.107 A 
ATOM      5  C4  BZF d   1      -6.000   2.526  -2.423  0.00  0.00     0.055 A 
ATOM      6  C5  BZF d   1      -5.942   3.601  -1.595  0.00  0.00    -0.016 A 
ATOM      7  C6  BZF d   1      -5.871   4.890  -2.082  0.00  0.00     0.022 A 
ATOM      8  C7  BZF d   1      -5.867   5.140  -3.414  0.00  0.00     0.029 A 
ATOM      9  C7A BZF d   1      -5.959   4.057  -4.253  0.00  0.00     0.058 A 
ENDROOT
TORSDOF 0
ENDMDL
