MODEL 1
REMARK minimizedAffinity 3.36007071
REMARK minimizedRMSD -1
REMARK  0 active torsions:
REMARK  status: ('A' for Active; 'I' for Inactive)
ROOT
ATOM      1  O1  BZF d   1      -0.934  -3.137  -1.787  0.00  0.00    -0.204 OA
ATOM      2  C2  BZF d   1      -0.516  -4.453  -1.852  0.00  0.00     0.174 A 
ATOM      3  C3  BZF d   1       0.686  -4.603  -1.260  0.00  0.00    -0.012 A 
ATOM      4  C3A BZF d   1       1.000  -3.318  -0.715  0.00  0.00    -0.107 A 
ATOM      5  C4  BZF d   1       2.056  -2.836   0.004  0.00  0.00     0.055 A 
ATOM      6  C5  BZF d   1       2.092  -1.515   0.320  0.00  0.00    -0.016 A 
ATOM      7  C6  BZF d   1       1.093  -0.647  -0.071  0.00  0.00     0.022 A 
ATOM      8  C7  BZF d   1       0.023  -1.080  -0.781  0.00  0.00     0.029 A 
ATOM      9  C7A BZF d   1      -0.033  -2.421  -1.073  0.00  0.00     0.058 A 
ENDROOT
TORSDOF 0
ENDMDL
