MODEL 1
REMARK minimizedAffinity 15.2748299
REMARK minimizedRMSD -1
REMARK  0 active torsions:
REMARK  status: ('A' for Active; 'I' for Inactive)
ROOT
ATOM      1  O1  BZF d   1       3.370  -6.000  -4.359  0.00  0.00    -0.204 OA
ATOM      2  C2  BZF d   1       4.010  -5.300  -5.364  0.00  0.00     0.174 A 
ATOM      3  C3  BZF d   1       4.888  -4.416  -4.847  0.00  0.00    -0.012 A 
ATOM      4  C3A BZF d   1       4.857  -4.637  -3.434  0.00  0.00    -0.107 A 
ATOM      5  C4  BZF d   1       5.522  -4.077  -2.381  0.00  0.00     0.055 A 
ATOM      6  C5  BZF d   1       5.209  -4.468  -1.118  0.00  0.00    -0.016 A 
ATOM      7  C6  BZF d   1       4.233  -5.412  -0.872  0.00  0.00     0.022 A 
ATOM      8  C7  BZF d   1       3.550  -6.000  -1.884  0.00  0.00     0.029 A 
ATOM      9  C7A BZF d   1       3.887  -5.630  -3.163  0.00  0.00     0.058 A 
ENDROOT
TORSDOF 0
ENDMDL
