MODEL 1
REMARK minimizedAffinity 9.51027203
REMARK minimizedRMSD -1
REMARK  0 active torsions:
REMARK  status: ('A' for Active; 'I' for Inactive)
ROOT
ATOM      1  O1  BZF d   1      -2.175  -1.482   4.205  0.00  0.00    -0.204 OA
ATOM      2  C2  BZF d   1      -1.517  -2.264   5.135  0.00  0.00     0.174 A 
ATOM      3  C3  BZF d   1      -2.392  -2.817   5.999  0.00  0.00    -0.012 A 
ATOM      4  C3A BZF d   1      -3.685  -2.427   5.527  0.00  0.00    -0.107 A 
ATOM      5  C4  BZF d   1      -4.957  -2.679   5.957  0.00  0.00     0.055 A 
ATOM      6  C5  BZF d   1      -6.000  -2.088   5.317  0.00  0.00    -0.016 A 
ATOM      7  C6  BZF d   1      -5.807  -1.237   4.248  0.00  0.00     0.022 A 
ATOM      8  C7  BZF d   1      -4.565  -0.961   3.782  0.00  0.00     0.029 A 
ATOM      9  C7A BZF d   1      -3.511  -1.582   4.407  0.00  0.00     0.058 A 
ENDROOT
TORSDOF 0
ENDMDL
