MODEL 1
REMARK minimizedAffinity 10.3449621
REMARK minimizedRMSD -1
REMARK  0 active torsions:
REMARK  status: ('A' for Active; 'I' for Inactive)
ROOT
ATOM      1  O1  BZF d   1      -0.308  -3.868  -5.490  0.00  0.00    -0.204 OA
ATOM      2  C2  BZF d   1      -0.468  -2.548  -5.115  0.00  0.00     0.174 A 
ATOM      3  C3  BZF d   1      -1.776  -2.229  -5.033  0.00  0.00    -0.012 A 
ATOM      4  C3A BZF d   1      -2.478  -3.449  -5.289  0.00  0.00    -0.107 A 
ATOM      5  C4  BZF d   1      -3.802  -3.779  -5.332  0.00  0.00     0.055 A 
ATOM      6  C5  BZF d   1      -4.157  -5.043  -5.682  0.00  0.00    -0.016 A 
ATOM      7  C6  BZF d   1      -3.215  -6.000  -6.000  0.00  0.00     0.022 A 
ATOM      8  C7  BZF d   1      -1.889  -5.721  -5.966  0.00  0.00     0.029 A 
ATOM      9  C7A BZF d   1      -1.527  -4.454  -5.581  0.00  0.00     0.058 A 
ENDROOT
TORSDOF 0
ENDMDL
