MODEL 1
REMARK minimizedAffinity 8.96110535
REMARK minimizedRMSD -1
REMARK  0 active torsions:
REMARK  status: ('A' for Active; 'I' for Inactive)
ROOT
ATOM      1  O1  BZF d   1      -3.688  -1.324   2.923  0.00  0.00    -0.204 OA
ATOM      2  C2  BZF d   1      -3.388  -0.104   2.348  0.00  0.00     0.174 A 
ATOM      3  C3  BZF d   1      -4.012   0.898   3.001  0.00  0.00    -0.012 A 
ATOM      4  C3A BZF d   1      -4.673   0.273   4.106  0.00  0.00    -0.107 A 
ATOM      5  C4  BZF d   1      -5.445   0.747   5.127  0.00  0.00     0.055 A 
ATOM      6  C5  BZF d   1      -6.000  -0.135   6.000  0.00  0.00    -0.016 A 
ATOM      7  C6  BZF d   1      -5.808  -1.496   5.877  0.00  0.00     0.022 A 
ATOM      8  C7  BZF d   1      -5.046  -2.013   4.883  0.00  0.00     0.029 A 
ATOM      9  C7A BZF d   1      -4.457  -1.122   4.019  0.00  0.00     0.058 A 
ENDROOT
TORSDOF 0
ENDMDL
