MODEL 1
REMARK minimizedAffinity 7.32658148
REMARK minimizedRMSD -1
REMARK  0 active torsions:
REMARK  status: ('A' for Active; 'I' for Inactive)
ROOT
ATOM      1  O1  BZF d   1      -1.321   4.259  -0.545  0.00  0.00    -0.204 OA
ATOM      2  C2  BZF d   1      -0.152   3.858   0.072  0.00  0.00     0.174 A 
ATOM      3  C3  BZF d   1       0.919   4.156  -0.692  0.00  0.00    -0.012 A 
ATOM      4  C3A BZF d   1       0.392   4.865  -1.818  0.00  0.00    -0.107 A 
ATOM      5  C4  BZF d   1       0.964   5.436  -2.919  0.00  0.00     0.055 A 
ATOM      6  C5  BZF d   1       0.163   5.988  -3.868  0.00  0.00    -0.016 A 
ATOM      7  C6  BZF d   1      -1.212   5.982  -3.751  0.00  0.00     0.022 A 
ATOM      8  C7  BZF d   1      -1.824   5.432  -2.674  0.00  0.00     0.029 A 
ATOM      9  C7A BZF d   1      -1.016   4.902  -1.698  0.00  0.00     0.058 A 
ENDROOT
TORSDOF 0
ENDMDL
