MODEL 1
REMARK minimizedAffinity 3.20107317
REMARK minimizedRMSD -1
REMARK  0 active torsions:
REMARK  status: ('A' for Active; 'I' for Inactive)
ROOT
ATOM      1  O1  BZF d   1      -4.515   1.152  -5.614  0.00  0.00    -0.204 OA
ATOM      2  C2  BZF d   1      -5.331   0.037  -5.588  0.00  0.00     0.174 A 
ATOM      3  C3  BZF d   1      -5.999  -0.040  -4.419  0.00  0.00    -0.012 A 
ATOM      4  C3A BZF d   1      -5.645   1.148  -3.705  0.00  0.00    -0.107 A 
ATOM      5  C4  BZF d   1      -6.000   1.652  -2.486  0.00  0.00     0.055 A 
ATOM      6  C5  BZF d   1      -5.419   2.800  -2.051  0.00  0.00    -0.016 A 
ATOM      7  C6  BZF d   1      -4.476   3.468  -2.806  0.00  0.00     0.022 A 
ATOM      8  C7  BZF d   1      -4.095   3.009  -4.023  0.00  0.00     0.029 A 
ATOM      9  C7A BZF d   1      -4.705   1.867  -4.479  0.00  0.00     0.058 A 
ENDROOT
TORSDOF 0
ENDMDL
