MODEL 1
REMARK minimizedAffinity 10.8291149
REMARK minimizedRMSD -1
REMARK  0 active torsions:
REMARK  status: ('A' for Active; 'I' for Inactive)
ROOT
ATOM      1  O1  BZF d   1      -2.851   5.250  -4.079  0.00  0.00    -0.204 OA
ATOM      2  C2  BZF d   1      -2.142   5.676  -2.972  0.00  0.00     0.174 A 
ATOM      3  C3  BZF d   1      -2.803   5.376  -1.836  0.00  0.00    -0.012 A 
ATOM      4  C3A BZF d   1      -3.955   4.639  -2.254  0.00  0.00    -0.107 A 
ATOM      5  C4  BZF d   1      -4.990   4.053  -1.583  0.00  0.00     0.055 A 
ATOM      6  C5  BZF d   1      -5.994   3.474  -2.292  0.00  0.00    -0.016 A 
ATOM      7  C6  BZF d   1      -5.999   3.467  -3.671  0.00  0.00     0.022 A 
ATOM      8  C7  BZF d   1      -4.992   4.031  -4.381  0.00  0.00     0.029 A 
ATOM      9  C7A BZF d   1      -3.959   4.588  -3.667  0.00  0.00     0.058 A 
ENDROOT
TORSDOF 0
ENDMDL
