MODEL 1
REMARK minimizedAffinity 1.79631066
REMARK minimizedRMSD -1
REMARK  2 active torsions:
REMARK  status: ('A' for Active; 'I' for Inactive)
REMARK    1  A    between atoms: C1_2  and  C2_3 
REMARK    2  A    between atoms: C2_3  and  C3_4 
ROOT
ATOM      1  C3  UNL d   1       1.353  -2.315   2.193  0.00  0.00    -0.075 A 
ATOM      2  C4  UNL d   1       1.923  -3.525   2.616  0.00  0.00     0.002 A 
ATOM      3  C5  UNL d   1       2.313  -3.698   3.945  0.00  0.00     0.002 A 
ATOM      4  C6  UNL d   1       2.147  -2.664   4.863  0.00  0.00    -0.004 A 
ATOM      5  C7  UNL d   1       1.598  -1.452   4.450  0.00  0.00     0.002 A 
ATOM      6  C8  UNL d   1       1.203  -1.277   3.123  0.00  0.00     0.002 A 
ENDROOT
BRANCH   1   7
ATOM      7  C2  UNL d   1       0.902  -2.131   0.764  0.00  0.00     0.056 C 
BRANCH   7   8
ATOM      8  C1  UNL d   1       1.237  -3.313  -0.152  0.00  0.00     0.007 C 
ATOM      9  C   UNL d   1       1.510  -2.898  -1.592  0.00  0.00     0.009 C 
ENDBRANCH   7   8
ENDBRANCH   1   7
TORSDOF 2
ENDMDL
