MODEL 1
REMARK minimizedAffinity 5.42529631
REMARK minimizedRMSD -1
REMARK  2 active torsions:
REMARK  status: ('A' for Active; 'I' for Inactive)
REMARK    1  A    between atoms: C1_2  and  C2_3 
REMARK    2  A    between atoms: C2_3  and  C3_4 
ROOT
ATOM      1  C3  UNL d   1       1.106  -2.130   4.100  0.00  0.00    -0.075 A 
ATOM      2  C4  UNL d   1       1.086  -2.993   2.996  0.00  0.00     0.002 A 
ATOM      3  C5  UNL d   1       1.464  -2.536   1.733  0.00  0.00     0.002 A 
ATOM      4  C6  UNL d   1       1.855  -1.211   1.556  0.00  0.00    -0.004 A 
ATOM      5  C7  UNL d   1       1.863  -0.340   2.644  0.00  0.00     0.002 A 
ATOM      6  C8  UNL d   1       1.490  -0.796   3.910  0.00  0.00     0.002 A 
ENDROOT
BRANCH   1   7
ATOM      7  C2  UNL d   1       0.727  -2.626   5.475  0.00  0.00     0.056 C 
BRANCH   7   8
ATOM      8  C1  UNL d   1       1.556  -3.821   5.958  0.00  0.00     0.007 C 
ATOM      9  C   UNL d   1       0.766  -5.122   6.000  0.00  0.00     0.009 C 
ENDBRANCH   7   8
ENDBRANCH   1   7
TORSDOF 2
ENDMDL
