MODEL 1
REMARK minimizedAffinity -3.43403244
REMARK minimizedRMSD -1
REMARK  2 active torsions:
REMARK  status: ('A' for Active; 'I' for Inactive)
REMARK    1  A    between atoms: C1_2  and  C2_3 
REMARK    2  A    between atoms: C2_3  and  C3_4 
ROOT
ATOM      1  C3  UNL d   1       2.072  -2.579   3.439  0.00  0.00    -0.075 A 
ATOM      2  C4  UNL d   1       3.445  -2.833   3.574  0.00  0.00     0.002 A 
ATOM      3  C5  UNL d   1       3.998  -3.087   4.829  0.00  0.00     0.002 A 
ATOM      4  C6  UNL d   1       3.191  -3.081   5.964  0.00  0.00    -0.004 A 
ATOM      5  C7  UNL d   1       1.829  -2.814   5.844  0.00  0.00     0.002 A 
ATOM      6  C8  UNL d   1       1.271  -2.563   4.589  0.00  0.00     0.002 A 
ENDROOT
BRANCH   1   7
ATOM      7  C2  UNL d   1       1.462  -2.332   2.080  0.00  0.00     0.056 C 
BRANCH   7   8
ATOM      8  C1  UNL d   1       0.851  -0.936   1.915  0.00  0.00     0.007 C 
ATOM      9  C   UNL d   1       1.895   0.170   1.831  0.00  0.00     0.009 C 
ENDBRANCH   7   8
ENDBRANCH   1   7
TORSDOF 2
ENDMDL
