MODEL 1
REMARK minimizedAffinity 5.03194189
REMARK minimizedRMSD -1
REMARK  2 active torsions:
REMARK  status: ('A' for Active; 'I' for Inactive)
REMARK    1  A    between atoms: C1_2  and  C2_3 
REMARK    2  A    between atoms: C2_3  and  C3_4 
ROOT
ATOM      1  C3  UNL d   1      -4.810  -4.594  -3.707  0.00  0.00    -0.075 A 
ATOM      2  C4  UNL d   1      -5.076  -3.218  -3.782  0.00  0.00     0.002 A 
ATOM      3  C5  UNL d   1      -5.670  -2.673  -4.920  0.00  0.00     0.002 A 
ATOM      4  C6  UNL d   1      -5.997  -3.490  -5.999  0.00  0.00    -0.004 A 
ATOM      5  C7  UNL d   1      -5.722  -4.855  -5.943  0.00  0.00     0.002 A 
ATOM      6  C8  UNL d   1      -5.132  -5.405  -4.804  0.00  0.00     0.002 A 
ENDROOT
BRANCH   1   7
ATOM      7  C2  UNL d   1      -4.194  -5.195  -2.467  0.00  0.00     0.056 C 
BRANCH   7   8
ATOM      8  C1  UNL d   1      -4.102  -4.226  -1.283  0.00  0.00     0.007 C 
ATOM      9  C   UNL d   1      -3.571  -4.878  -0.014  0.00  0.00     0.009 C 
ENDBRANCH   7   8
ENDBRANCH   1   7
TORSDOF 2
ENDMDL
