MODEL 1
REMARK minimizedAffinity -3.80639839
REMARK minimizedRMSD -1
REMARK  2 active torsions:
REMARK  status: ('A' for Active; 'I' for Inactive)
REMARK    1  A    between atoms: C1_2  and  C2_3 
REMARK    2  A    between atoms: C2_3  and  C3_4 
ROOT
ATOM      1  C3  UNL d   1       1.069  -3.440   2.790  0.00  0.00    -0.075 A 
ATOM      2  C4  UNL d   1      -0.048  -2.595   2.728  0.00  0.00     0.002 A 
ATOM      3  C5  UNL d   1      -0.022  -1.443   1.942  0.00  0.00     0.002 A 
ATOM      4  C6  UNL d   1       1.123  -1.116   1.218  0.00  0.00    -0.004 A 
ATOM      5  C7  UNL d   1       2.244  -1.940   1.285  0.00  0.00     0.002 A 
ATOM      6  C8  UNL d   1       2.219  -3.096   2.068  0.00  0.00     0.002 A 
ENDROOT
BRANCH   1   7
ATOM      7  C2  UNL d   1       1.037  -4.704   3.616  0.00  0.00     0.056 C 
BRANCH   7   8
ATOM      8  C1  UNL d   1       1.346  -5.977   2.821  0.00  0.00     0.007 C 
ATOM      9  C   UNL d   1       0.694  -5.998   1.445  0.00  0.00     0.009 C 
ENDBRANCH   7   8
ENDBRANCH   1   7
TORSDOF 2
ENDMDL
