MODEL 1
REMARK minimizedAffinity 11.7909498
REMARK minimizedRMSD -1
REMARK  2 active torsions:
REMARK  status: ('A' for Active; 'I' for Inactive)
REMARK    1  A    between atoms: C1_2  and  C2_3 
REMARK    2  A    between atoms: C2_3  and  C3_4 
ROOT
ATOM      1  C3  UNL d   1       2.636   1.947   0.421  0.00  0.00    -0.075 A 
ATOM      2  C4  UNL d   1       2.773   0.689  -0.184  0.00  0.00     0.002 A 
ATOM      3  C5  UNL d   1       2.371  -0.467   0.486  0.00  0.00     0.002 A 
ATOM      4  C6  UNL d   1       1.837  -0.381   1.770  0.00  0.00    -0.004 A 
ATOM      5  C7  UNL d   1       1.712   0.862   2.387  0.00  0.00     0.002 A 
ATOM      6  C8  UNL d   1       2.110   2.020   1.717  0.00  0.00     0.002 A 
ENDROOT
BRANCH   1   7
ATOM      7  C2  UNL d   1       3.043   3.204  -0.311  0.00  0.00     0.056 C 
BRANCH   7   8
ATOM      8  C1  UNL d   1       1.910   3.853  -1.113  0.00  0.00     0.007 C 
ATOM      9  C   UNL d   1       2.373   5.026  -1.965  0.00  0.00     0.009 C 
ENDBRANCH   7   8
ENDBRANCH   1   7
TORSDOF 2
ENDMDL
