MODEL 1
REMARK minimizedAffinity -0.375039726
REMARK minimizedRMSD -1
REMARK  2 active torsions:
REMARK  status: ('A' for Active; 'I' for Inactive)
REMARK    1  A    between atoms: C1_2  and  C2_3 
REMARK    2  A    between atoms: C2_3  and  C3_4 
ROOT
ATOM      1  C3  UNL d   1      -5.054   1.795  -0.909  0.00  0.00    -0.075 A 
ATOM      2  C4  UNL d   1      -3.811   2.184  -0.389  0.00  0.00     0.002 A 
ATOM      3  C5  UNL d   1      -3.423   1.788   0.891  0.00  0.00     0.002 A 
ATOM      4  C6  UNL d   1      -4.274   1.007   1.670  0.00  0.00    -0.004 A 
ATOM      5  C7  UNL d   1      -5.518   0.628   1.170  0.00  0.00     0.002 A 
ATOM      6  C8  UNL d   1      -5.907   1.020  -0.112  0.00  0.00     0.002 A 
ENDROOT
BRANCH   1   7
ATOM      7  C2  UNL d   1      -5.468   2.196  -2.305  0.00  0.00     0.056 C 
BRANCH   7   8
ATOM      8  C1  UNL d   1      -4.435   1.856  -3.384  0.00  0.00     0.007 C 
ATOM      9  C   UNL d   1      -4.036   0.387  -3.392  0.00  0.00     0.009 C 
ENDBRANCH   7   8
ENDBRANCH   1   7
TORSDOF 2
ENDMDL
