MODEL 1
REMARK minimizedAffinity 7.03269625
REMARK minimizedRMSD -1
REMARK  2 active torsions:
REMARK  status: ('A' for Active; 'I' for Inactive)
REMARK    1  A    between atoms: C1_2  and  C2_3 
REMARK    2  A    between atoms: C2_3  and  C3_4 
ROOT
ATOM      1  C3  UNL d   1       2.749  -3.324   2.633  0.00  0.00    -0.075 A 
ATOM      2  C4  UNL d   1       1.878  -3.337   3.732  0.00  0.00     0.002 A 
ATOM      3  C5  UNL d   1       0.772  -2.487   3.770  0.00  0.00     0.002 A 
ATOM      4  C6  UNL d   1       0.528  -1.609   2.716  0.00  0.00    -0.004 A 
ATOM      5  C7  UNL d   1       1.396  -1.576   1.627  0.00  0.00     0.002 A 
ATOM      6  C8  UNL d   1       2.501  -2.428   1.584  0.00  0.00     0.002 A 
ENDROOT
BRANCH   1   7
ATOM      7  C2  UNL d   1       3.931  -4.261   2.573  0.00  0.00     0.056 C 
BRANCH   7   8
ATOM      8  C1  UNL d   1       5.240  -3.588   2.148  0.00  0.00     0.007 C 
ATOM      9  C   UNL d   1       5.992  -2.951   3.308  0.00  0.00     0.009 C 
ENDBRANCH   7   8
ENDBRANCH   1   7
TORSDOF 2
ENDMDL
