MODEL 1
REMARK minimizedAffinity 10.9254541
REMARK minimizedRMSD -1
REMARK  2 active torsions:
REMARK  status: ('A' for Active; 'I' for Inactive)
REMARK    1  A    between atoms: C1_2  and  C2_3 
REMARK    2  A    between atoms: C2_3  and  C3_4 
ROOT
ATOM      1  C3  UNL d   1       1.136  -3.749   2.003  0.00  0.00    -0.075 A 
ATOM      2  C4  UNL d   1       1.871  -4.811   2.550  0.00  0.00     0.002 A 
ATOM      3  C5  UNL d   1       2.215  -5.913   1.766  0.00  0.00     0.002 A 
ATOM      4  C6  UNL d   1       1.821  -5.971   0.431  0.00  0.00    -0.004 A 
ATOM      5  C7  UNL d   1       1.077  -4.929  -0.119  0.00  0.00     0.002 A 
ATOM      6  C8  UNL d   1       0.736  -3.824   0.662  0.00  0.00     0.002 A 
ENDROOT
BRANCH   1   7
ATOM      7  C2  UNL d   1       0.786  -2.541   2.838  0.00  0.00     0.056 C 
BRANCH   7   8
ATOM      8  C1  UNL d   1       1.587  -1.284   2.483  0.00  0.00     0.007 C 
ATOM      9  C   UNL d   1       0.981  -0.490   1.334  0.00  0.00     0.009 C 
ENDBRANCH   7   8
ENDBRANCH   1   7
TORSDOF 2
ENDMDL
