MODEL 1
REMARK minimizedAffinity 11.6257877
REMARK minimizedRMSD -1
REMARK  2 active torsions:
REMARK  status: ('A' for Active; 'I' for Inactive)
REMARK    1  A    between atoms: C1_2  and  C2_3 
REMARK    2  A    between atoms: C2_3  and  C3_4 
ROOT
ATOM      1  C3  UNL d   1      -4.060  -2.470  -4.755  0.00  0.00    -0.075 A 
ATOM      2  C4  UNL d   1      -5.294  -2.255  -5.385  0.00  0.00     0.002 A 
ATOM      3  C5  UNL d   1      -5.970  -3.311  -5.997  0.00  0.00     0.002 A 
ATOM      4  C6  UNL d   1      -5.417  -4.589  -5.997  0.00  0.00    -0.004 A 
ATOM      5  C7  UNL d   1      -4.184  -4.811  -5.388  0.00  0.00     0.002 A 
ATOM      6  C8  UNL d   1      -3.507  -3.758  -4.771  0.00  0.00     0.002 A 
ENDROOT
BRANCH   1   7
ATOM      7  C2  UNL d   1      -3.337  -1.338  -4.064  0.00  0.00     0.056 C 
BRANCH   7   8
ATOM      8  C1  UNL d   1      -4.209  -0.547  -3.083  0.00  0.00     0.007 C 
ATOM      9  C   UNL d   1      -4.113   0.960  -3.274  0.00  0.00     0.009 C 
ENDBRANCH   7   8
ENDBRANCH   1   7
TORSDOF 2
ENDMDL
