MODEL 1
REMARK minimizedAffinity 4.09261227
REMARK minimizedRMSD -1
REMARK  0 active torsions:
REMARK  status: ('A' for Active; 'I' for Inactive)
ROOT
ATOM      1  C   UNL d   1      -1.262   2.665  -4.646  0.00  0.00    -0.002 A 
ATOM      2  C1  UNL d   1      -1.317   3.733  -5.531  0.00  0.00     0.010 A 
ATOM      3  C2  UNL d   1      -2.545   4.203  -6.000  0.00  0.00     0.041 A 
ATOM      4  C3  UNL d   1      -3.728   3.577  -5.559  0.00  0.00    -0.075 A 
ATOM      5  S   UNL d   1      -5.345   3.983  -5.999  0.00  0.00     0.015 SA
ATOM      6  C4  UNL d   1      -6.000   2.750  -5.023  0.00  0.00     0.022 A 
ATOM      7  C5  UNL d   1      -5.023   2.036  -4.370  0.00  0.00     0.026 A 
ATOM      8  C6  UNL d   1      -3.698   2.501  -4.668  0.00  0.00    -0.082 A 
ATOM      9  C7  UNL d   1      -2.437   2.047  -4.211  0.00  0.00     0.045 A 
ENDROOT
TORSDOF 0
ENDMDL
