MODEL 1
REMARK minimizedAffinity 6.5823741
REMARK minimizedRMSD -1
REMARK  0 active torsions:
REMARK  status: ('A' for Active; 'I' for Inactive)
ROOT
ATOM      1  C   UNL d   1       0.772   2.021   0.590  0.00  0.00    -0.002 A 
ATOM      2  C1  UNL d   1       1.870   1.501   1.260  0.00  0.00     0.010 A 
ATOM      3  C2  UNL d   1       2.994   2.293   1.505  0.00  0.00     0.041 A 
ATOM      4  C3  UNL d   1       2.995   3.630   1.062  0.00  0.00    -0.075 A 
ATOM      5  S   UNL d   1       4.259   4.787   1.251  0.00  0.00     0.015 SA
ATOM      6  C4  UNL d   1       3.371   5.999   0.446  0.00  0.00     0.022 A 
ATOM      7  C5  UNL d   1       2.138   5.549   0.037  0.00  0.00     0.026 A 
ATOM      8  C6  UNL d   1       1.900   4.177   0.385  0.00  0.00    -0.082 A 
ATOM      9  C7  UNL d   1       0.777   3.348   0.152  0.00  0.00     0.045 A 
ENDROOT
TORSDOF 0
ENDMDL
