MODEL 1
REMARK minimizedAffinity 2.93539381
REMARK minimizedRMSD -1
REMARK  0 active torsions:
REMARK  status: ('A' for Active; 'I' for Inactive)
ROOT
ATOM      1  C   UNL d   1      -5.853   2.173  -4.447  0.00  0.00    -0.002 A 
ATOM      2  C1  UNL d   1      -6.000   3.107  -5.463  0.00  0.00     0.010 A 
ATOM      3  C2  UNL d   1      -4.885   3.754  -5.999  0.00  0.00     0.041 A 
ATOM      4  C3  UNL d   1      -3.607   3.442  -5.494  0.00  0.00    -0.075 A 
ATOM      5  S   UNL d   1      -2.099   4.108  -5.999  0.00  0.00     0.015 SA
ATOM      6  C4  UNL d   1      -1.224   3.167  -4.878  0.00  0.00     0.022 A 
ATOM      7  C5  UNL d   1      -2.047   2.359  -4.130  0.00  0.00     0.026 A 
ATOM      8  C6  UNL d   1      -3.434   2.504  -4.473  0.00  0.00    -0.082 A 
ATOM      9  C7  UNL d   1      -4.584   1.866  -3.949  0.00  0.00     0.045 A 
ENDROOT
TORSDOF 0
ENDMDL
