MODEL 1
REMARK minimizedAffinity 8.22060966
REMARK minimizedRMSD -1
REMARK  0 active torsions:
REMARK  status: ('A' for Active; 'I' for Inactive)
ROOT
ATOM      1  C   UNL d   1       3.668   1.402   0.791  0.00  0.00    -0.002 A 
ATOM      2  C1  UNL d   1       2.407   1.874   1.126  0.00  0.00     0.010 A 
ATOM      3  C2  UNL d   1       2.129   3.242   1.089  0.00  0.00     0.041 A 
ATOM      4  C3  UNL d   1       3.148   4.135   0.705  0.00  0.00    -0.075 A 
ATOM      5  S   UNL d   1       3.036   5.852   0.588  0.00  0.00     0.015 SA
ATOM      6  C4  UNL d   1       4.659   5.998   0.089  0.00  0.00     0.022 A 
ATOM      7  C5  UNL d   1       5.286   4.777   0.010  0.00  0.00     0.026 A 
ATOM      8  C6  UNL d   1       4.426   3.683   0.363  0.00  0.00    -0.082 A 
ATOM      9  C7  UNL d   1       4.677   2.291   0.411  0.00  0.00     0.045 A 
ENDROOT
TORSDOF 0
ENDMDL
