MODEL 1
REMARK minimizedAffinity 5.63512182
REMARK minimizedRMSD -1
REMARK  0 active torsions:
REMARK  status: ('A' for Active; 'I' for Inactive)
ROOT
ATOM      1  C   UNL d   1       4.953  -5.827  -5.989  0.00  0.00    -0.002 A 
ATOM      2  C1  UNL d   1       5.994  -5.180  -5.340  0.00  0.00     0.010 A 
ATOM      3  C2  UNL d   1       5.827  -4.688  -4.044  0.00  0.00     0.041 A 
ATOM      4  C3  UNL d   1       4.584  -4.862  -3.404  0.00  0.00    -0.075 A 
ATOM      5  S   UNL d   1       4.150  -4.344  -1.818  0.00  0.00     0.015 SA
ATOM      6  C4  UNL d   1       2.572  -4.971  -1.964  0.00  0.00     0.022 A 
ATOM      7  C5  UNL d   1       2.364  -5.564  -3.187  0.00  0.00     0.026 A 
ATOM      8  C6  UNL d   1       3.521  -5.512  -4.037  0.00  0.00    -0.082 A 
ATOM      9  C7  UNL d   1       3.721  -5.998  -5.351  0.00  0.00     0.045 A 
ENDROOT
TORSDOF 0
ENDMDL
