MODEL 1
REMARK minimizedAffinity 8.05986118
REMARK minimizedRMSD -1
REMARK  0 active torsions:
REMARK  status: ('A' for Active; 'I' for Inactive)
ROOT
ATOM      1  C   UNL d   1      -1.287   3.360  -5.305  0.00  0.00    -0.002 A 
ATOM      2  C1  UNL d   1      -1.313   2.669  -4.101  0.00  0.00     0.010 A 
ATOM      3  C2  UNL d   1      -2.521   2.221  -3.565  0.00  0.00     0.041 A 
ATOM      4  C3  UNL d   1      -3.716   2.481  -4.266  0.00  0.00    -0.075 A 
ATOM      5  S   UNL d   1      -5.313   2.028  -3.801  0.00  0.00     0.015 SA
ATOM      6  C4  UNL d   1      -5.999   2.741  -5.189  0.00  0.00     0.022 A 
ATOM      7  C5  UNL d   1      -5.047   3.315  -5.998  0.00  0.00     0.026 A 
ATOM      8  C6  UNL d   1      -3.715   3.174  -5.479  0.00  0.00    -0.082 A 
ATOM      9  C7  UNL d   1      -2.474   3.616  -5.997  0.00  0.00     0.045 A 
ENDROOT
TORSDOF 0
ENDMDL
