MODEL 1
REMARK minimizedAffinity 3.91394329
REMARK minimizedRMSD -1
REMARK  0 active torsions:
REMARK  status: ('A' for Active; 'I' for Inactive)
ROOT
ATOM      1  C   UNL d   1       3.811  -5.625  -5.976  0.00  0.00    -0.002 A 
ATOM      2  C1  UNL d   1       5.199  -5.622  -5.999  0.00  0.00     0.010 A 
ATOM      3  C2  UNL d   1       5.929  -5.715  -4.813  0.00  0.00     0.041 A 
ATOM      4  C3  UNL d   1       5.234  -5.814  -3.591  0.00  0.00    -0.075 A 
ATOM      5  S   UNL d   1       5.919  -5.939  -2.013  0.00  0.00     0.015 SA
ATOM      6  C4  UNL d   1       4.385  -6.000  -1.272  0.00  0.00     0.022 A 
ATOM      7  C5  UNL d   1       3.365  -5.927  -2.190  0.00  0.00     0.026 A 
ATOM      8  C6  UNL d   1       3.837  -5.820  -3.542  0.00  0.00    -0.082 A 
ATOM      9  C7  UNL d   1       3.126  -5.723  -4.762  0.00  0.00     0.045 A 
ENDROOT
TORSDOF 0
ENDMDL
