MODEL 1
REMARK minimizedAffinity -2.95763516
REMARK minimizedRMSD -1
REMARK  1 active torsions:
REMARK  status: ('A' for Active; 'I' for Inactive)
REMARK    1  A    between atoms: C3_4  and  O_7 
ROOT
ATOM      1  C   UNL d   1       5.994   1.525   4.390  0.00  0.00    -0.033 A 
ATOM      2  C1  UNL d   1       5.946   0.839   3.175  0.00  0.00     0.039 A 
ATOM      3  C2  UNL d   1       5.909  -0.557   3.160  0.00  0.00    -0.080 A 
ATOM      4  C3  UNL d   1       5.918  -1.254   4.365  0.00  0.00     0.150 A 
ATOM      5  C4  UNL d   1       5.961  -0.576   5.579  0.00  0.00    -0.007 A 
ATOM      6  C5  UNL d   1       6.000   0.817   5.592  0.00  0.00     0.039 A 
ENDROOT
BRANCH   4   7
ATOM      7  O   UNL d   1       5.887  -2.616   4.401  0.00  0.00    -0.526 OA
ATOM      8  H5  UNL d   1       5.888  -2.948   3.488  0.00  0.00     0.418 HD
ENDBRANCH   4   7
TORSDOF 1
ENDMDL
