MODEL 1
REMARK minimizedAffinity -1.68937194
REMARK minimizedRMSD -1
REMARK  1 active torsions:
REMARK  status: ('A' for Active; 'I' for Inactive)
REMARK    1  A    between atoms: C3_4  and  O_7 
ROOT
ATOM      1  C   UNL d   1       6.000   1.588   4.084  0.00  0.00    -0.033 A 
ATOM      2  C1  UNL d   1       5.874   1.394   5.461  0.00  0.00     0.039 A 
ATOM      3  C2  UNL d   1       5.741   0.103   5.977  0.00  0.00    -0.080 A 
ATOM      4  C3  UNL d   1       5.737  -0.983   5.106  0.00  0.00     0.150 A 
ATOM      5  C4  UNL d   1       5.865  -0.797   3.734  0.00  0.00    -0.007 A 
ATOM      6  C5  UNL d   1       5.997   0.492   3.221  0.00  0.00     0.039 A 
ENDROOT
BRANCH   4   7
ATOM      7  O   UNL d   1       5.605  -2.261   5.562  0.00  0.00    -0.526 OA
ATOM      8  H5  UNL d   1       5.496  -2.234   6.527  0.00  0.00     0.418 HD
ENDBRANCH   4   7
TORSDOF 1
ENDMDL
