MODEL 1
REMARK minimizedAffinity 0.544811606
REMARK minimizedRMSD -1
REMARK  1 active torsions:
REMARK  status: ('A' for Active; 'I' for Inactive)
REMARK    1  A    between atoms: C3_4  and  O_7 
ROOT
ATOM      1  C   UNL d   1       5.259   1.628   4.116  0.00  0.00    -0.033 A 
ATOM      2  C1  UNL d   1       4.520   0.775   3.294  0.00  0.00     0.039 A 
ATOM      3  C2  UNL d   1       4.522  -0.601   3.531  0.00  0.00    -0.080 A 
ATOM      4  C3  UNL d   1       5.265  -1.110   4.593  0.00  0.00     0.150 A 
ATOM      5  C4  UNL d   1       6.000  -0.265   5.419  0.00  0.00    -0.007 A 
ATOM      6  C5  UNL d   1       5.997   1.108   5.179  0.00  0.00     0.039 A 
ENDROOT
BRANCH   4   7
ATOM      7  O   UNL d   1       5.302  -2.446   4.861  0.00  0.00    -0.526 OA
ATOM      8  H5  UNL d   1       4.770  -2.909   4.192  0.00  0.00     0.418 HD
ENDBRANCH   4   7
TORSDOF 1
ENDMDL
