MODEL 1
REMARK minimizedAffinity 10.7717409
REMARK minimizedRMSD -1
REMARK  1 active torsions:
REMARK  status: ('A' for Active; 'I' for Inactive)
REMARK    1  A    between atoms: C3_4  and  O_7 
ROOT
ATOM      1  C   UNL d   1      -0.812   3.461   0.301  0.00  0.00    -0.033 A 
ATOM      2  C1  UNL d   1      -0.414   4.207   1.413  0.00  0.00     0.039 A 
ATOM      3  C2  UNL d   1      -0.767   3.790   2.698  0.00  0.00    -0.080 A 
ATOM      4  C3  UNL d   1      -1.515   2.627   2.858  0.00  0.00     0.150 A 
ATOM      5  C4  UNL d   1      -1.911   1.877   1.755  0.00  0.00    -0.007 A 
ATOM      6  C5  UNL d   1      -1.559   2.295   0.473  0.00  0.00     0.039 A 
ENDROOT
BRANCH   4   7
ATOM      7  O   UNL d   1      -1.887   2.183   4.092  0.00  0.00    -0.526 OA
ATOM      8  H5  UNL d   1      -1.567   2.816   4.756  0.00  0.00     0.418 HD
ENDBRANCH   4   7
TORSDOF 1
ENDMDL
