MODEL 1
REMARK minimizedAffinity -3.4727993
REMARK minimizedRMSD -1
REMARK  1 active torsions:
REMARK  status: ('A' for Active; 'I' for Inactive)
REMARK    1  A    between atoms: C3_4  and  O_7 
ROOT
ATOM      1  C   UNL d   1       5.963   2.780   3.391  0.00  0.00    -0.033 A 
ATOM      2  C1  UNL d   1       5.694   3.054   4.734  0.00  0.00     0.039 A 
ATOM      3  C2  UNL d   1       5.456   2.007   5.627  0.00  0.00    -0.080 A 
ATOM      4  C3  UNL d   1       5.490   0.694   5.166  0.00  0.00     0.150 A 
ATOM      5  C4  UNL d   1       5.761   0.414   3.831  0.00  0.00    -0.007 A 
ATOM      6  C5  UNL d   1       5.998   1.460   2.940  0.00  0.00     0.039 A 
ENDROOT
BRANCH   4   7
ATOM      7  O   UNL d   1       5.260  -0.360   5.999  0.00  0.00    -0.526 OA
ATOM      8  H5  UNL d   1       5.059  -0.014   6.885  0.00  0.00     0.418 HD
ENDBRANCH   4   7
TORSDOF 1
ENDMDL
