MODEL 1
REMARK minimizedAffinity 2.63914132
REMARK minimizedRMSD -1
REMARK  1 active torsions:
REMARK  status: ('A' for Active; 'I' for Inactive)
REMARK    1  A    between atoms: C3_4  and  O_7 
ROOT
ATOM      1  C   UNL d   1       5.620  -0.936   4.232  0.00  0.00    -0.033 A 
ATOM      2  C1  UNL d   1       5.474  -0.546   2.899  0.00  0.00     0.039 A 
ATOM      3  C2  UNL d   1       5.582   0.800   2.548  0.00  0.00    -0.080 A 
ATOM      4  C3  UNL d   1       5.838   1.747   3.537  0.00  0.00     0.150 A 
ATOM      5  C4  UNL d   1       5.989   1.365   4.866  0.00  0.00    -0.007 A 
ATOM      6  C5  UNL d   1       5.879   0.020   5.215  0.00  0.00     0.039 A 
ENDROOT
BRANCH   4   7
ATOM      7  O   UNL d   1       5.947   3.073   3.242  0.00  0.00    -0.526 OA
ATOM      8  H5  UNL d   1       5.792   3.191   2.290  0.00  0.00     0.418 HD
ENDBRANCH   4   7
TORSDOF 1
ENDMDL
