MODEL 1
REMARK minimizedAffinity -2.26431346
REMARK minimizedRMSD -1
REMARK  1 active torsions:
REMARK  status: ('A' for Active; 'I' for Inactive)
REMARK    1  A    between atoms: C3_4  and  O_7 
ROOT
ATOM      1  C   UNL d   1       5.626   3.221   3.951  0.00  0.00    -0.033 A 
ATOM      2  C1  UNL d   1       5.266   3.192   5.300  0.00  0.00     0.039 A 
ATOM      3  C2  UNL d   1       5.269   1.984   6.000  0.00  0.00    -0.080 A 
ATOM      4  C3  UNL d   1       5.636   0.814   5.341  0.00  0.00     0.150 A 
ATOM      5  C4  UNL d   1       6.000   0.836   3.998  0.00  0.00    -0.007 A 
ATOM      6  C5  UNL d   1       5.995   2.043   3.301  0.00  0.00     0.039 A 
ENDROOT
BRANCH   4   7
ATOM      7  O   UNL d   1       5.650  -0.390   5.981  0.00  0.00    -0.526 OA
ATOM      8  H5  UNL d   1       5.348  -0.256   6.895  0.00  0.00     0.418 HD
ENDBRANCH   4   7
TORSDOF 1
ENDMDL
