MODEL 1
REMARK minimizedAffinity -3.73453498
REMARK minimizedRMSD -1
REMARK  1 active torsions:
REMARK  status: ('A' for Active; 'I' for Inactive)
REMARK    1  A    between atoms: C3_4  and  O_7 
ROOT
ATOM      1  C   UNL d   1       5.875   1.914   4.653  0.00  0.00    -0.033 A 
ATOM      2  C1  UNL d   1       5.551   1.190   5.803  0.00  0.00     0.039 A 
ATOM      3  C2  UNL d   1       5.327  -0.185   5.724  0.00  0.00    -0.080 A 
ATOM      4  C3  UNL d   1       5.431  -0.825   4.491  0.00  0.00     0.150 A 
ATOM      5  C4  UNL d   1       5.757  -0.111   3.343  0.00  0.00    -0.007 A 
ATOM      6  C5  UNL d   1       5.980   1.263   3.424  0.00  0.00     0.039 A 
ENDROOT
BRANCH   4   7
ATOM      7  O   UNL d   1       5.217  -2.165   4.364  0.00  0.00    -0.526 OA
ATOM      8  H5  UNL d   1       4.972  -2.522   5.234  0.00  0.00     0.418 HD
ENDBRANCH   4   7
TORSDOF 1
ENDMDL
