MODEL 1
REMARK minimizedAffinity -3.82207918
REMARK minimizedRMSD -1
REMARK  1 active torsions:
REMARK  status: ('A' for Active; 'I' for Inactive)
REMARK    1  A    between atoms: C3_4  and  O_7 
ROOT
ATOM      1  C   UNL d   1       5.996   1.396   5.691  0.00  0.00    -0.033 A 
ATOM      2  C1  UNL d   1       6.000   0.006   5.830  0.00  0.00     0.039 A 
ATOM      3  C2  UNL d   1       5.982  -0.811   4.698  0.00  0.00    -0.080 A 
ATOM      4  C3  UNL d   1       5.961  -0.227   3.435  0.00  0.00     0.150 A 
ATOM      5  C4  UNL d   1       5.961   1.156   3.288  0.00  0.00    -0.007 A 
ATOM      6  C5  UNL d   1       5.979   1.970   4.420  0.00  0.00     0.039 A 
ENDROOT
BRANCH   4   7
ATOM      7  O   UNL d   1       5.938  -0.984   2.301  0.00  0.00    -0.526 OA
ATOM      8  H5  UNL d   1       5.911  -1.921   2.556  0.00  0.00     0.418 HD
ENDBRANCH   4   7
TORSDOF 1
ENDMDL
