MODEL 1
REMARK minimizedAffinity -1.01499534
REMARK minimizedRMSD -1
REMARK  1 active torsions:
REMARK  status: ('A' for Active; 'I' for Inactive)
REMARK    1  A    between atoms: C3_4  and  O_7 
ROOT
ATOM      1  C   UNL d   1       6.000   2.142   2.464  0.00  0.00    -0.033 A 
ATOM      2  C1  UNL d   1       5.985   2.744   3.724  0.00  0.00     0.039 A 
ATOM      3  C2  UNL d   1       5.966   1.955   4.876  0.00  0.00    -0.080 A 
ATOM      4  C3  UNL d   1       5.963   0.568   4.754  0.00  0.00     0.150 A 
ATOM      5  C4  UNL d   1       5.981  -0.038   3.502  0.00  0.00    -0.007 A 
ATOM      6  C5  UNL d   1       6.000   0.752   2.353  0.00  0.00     0.039 A 
ENDROOT
BRANCH   4   7
ATOM      7  O   UNL d   1       5.939  -0.244   5.849  0.00  0.00    -0.526 OA
ATOM      8  H5  UNL d   1       5.899   0.314   6.644  0.00  0.00     0.418 HD
ENDBRANCH   4   7
TORSDOF 1
ENDMDL
