MODEL 1
REMARK minimizedAffinity 1.66636145
REMARK minimizedRMSD -1
REMARK  1 active torsions:
REMARK  status: ('A' for Active; 'I' for Inactive)
REMARK    1  A    between atoms: C3_4  and  O_7 
ROOT
ATOM      1  C   UNL d   1       5.959   0.854   4.598  0.00  0.00    -0.033 A 
ATOM      2  C1  UNL d   1       5.986   0.052   3.456  0.00  0.00     0.039 A 
ATOM      3  C2  UNL d   1       5.996  -1.339   3.578  0.00  0.00    -0.080 A 
ATOM      4  C3  UNL d   1       5.978  -1.914   4.845  0.00  0.00     0.150 A 
ATOM      5  C4  UNL d   1       5.947  -1.120   5.987  0.00  0.00    -0.007 A 
ATOM      6  C5  UNL d   1       5.938   0.268   5.864  0.00  0.00     0.039 A 
ENDROOT
BRANCH   4   7
ATOM      7  O   UNL d   1       5.992  -3.266   5.015  0.00  0.00    -0.526 OA
ATOM      8  H5  UNL d   1       6.043  -3.686   4.139  0.00  0.00     0.418 HD
ENDBRANCH   4   7
TORSDOF 1
ENDMDL
