MODEL 1
REMARK minimizedAffinity 7.97729969
REMARK minimizedRMSD -1
REMARK  1 active torsions:
REMARK  status: ('A' for Active; 'I' for Inactive)
REMARK    1  A    between atoms: C3_4  and  O_7 
ROOT
ATOM      1  C   UNL d   1       2.142   3.139  -5.923  0.00  0.00    -0.033 A 
ATOM      2  C1  UNL d   1       2.897   4.115  -5.269  0.00  0.00     0.039 A 
ATOM      3  C2  UNL d   1       4.048   3.756  -4.566  0.00  0.00    -0.080 A 
ATOM      4  C3  UNL d   1       4.433   2.418  -4.524  0.00  0.00     0.150 A 
ATOM      5  C4  UNL d   1       3.688   1.441  -5.175  0.00  0.00    -0.007 A 
ATOM      6  C5  UNL d   1       2.538   1.802  -5.877  0.00  0.00     0.039 A 
ENDROOT
BRANCH   4   7
ATOM      7  O   UNL d   1       5.546   2.018  -3.846  0.00  0.00    -0.526 OA
ATOM      8  H5  UNL d   1       5.944   2.797  -3.421  0.00  0.00     0.418 HD
ENDBRANCH   4   7
TORSDOF 1
ENDMDL
