MODEL 1
REMARK minimizedAffinity -2.55938625
REMARK minimizedRMSD -1
REMARK  1 active torsions:
REMARK  status: ('A' for Active; 'I' for Inactive)
REMARK    1  A    between atoms: C3_4  and  O_7 
ROOT
ATOM      1  C   UNL d   1       5.636   2.456   3.035  0.00  0.00    -0.033 A 
ATOM      2  C1  UNL d   1       5.999   1.137   2.754  0.00  0.00     0.039 A 
ATOM      3  C2  UNL d   1       5.775   0.133   3.697  0.00  0.00    -0.080 A 
ATOM      4  C3  UNL d   1       5.187   0.459   4.916  0.00  0.00     0.150 A 
ATOM      5  C4  UNL d   1       4.819   1.769   5.201  0.00  0.00    -0.007 A 
ATOM      6  C5  UNL d   1       5.044   2.772   4.259  0.00  0.00     0.039 A 
ENDROOT
BRANCH   4   7
ATOM      7  O   UNL d   1       4.952  -0.487   5.869  0.00  0.00    -0.526 OA
ATOM      8  H5  UNL d   1       5.284  -1.340   5.544  0.00  0.00     0.418 HD
ENDBRANCH   4   7
TORSDOF 1
ENDMDL
