MODEL 1
REMARK minimizedAffinity -1.15906084
REMARK minimizedRMSD -1
REMARK  1 active torsions:
REMARK  status: ('A' for Active; 'I' for Inactive)
REMARK    1  A    between atoms: C3_4  and  O_7 
ROOT
ATOM      1  C   UNL d   1       5.626   0.475   3.748  0.00  0.00    -0.033 A 
ATOM      2  C1  UNL d   1       5.248   0.624   5.083  0.00  0.00     0.039 A 
ATOM      3  C2  UNL d   1       5.246   1.889   5.673  0.00  0.00    -0.080 A 
ATOM      4  C3  UNL d   1       5.623   2.996   4.918  0.00  0.00     0.150 A 
ATOM      5  C4  UNL d   1       5.998   2.855   3.586  0.00  0.00    -0.007 A 
ATOM      6  C5  UNL d   1       6.000   1.591   2.998  0.00  0.00     0.039 A 
ENDROOT
BRANCH   4   7
ATOM      7  O   UNL d   1       5.642   4.250   5.452  0.00  0.00    -0.526 OA
ATOM      8  H5  UNL d   1       5.387   4.190   6.387  0.00  0.00     0.418 HD
ENDBRANCH   4   7
TORSDOF 1
ENDMDL
