MODEL 1
REMARK minimizedAffinity -2.2002573
REMARK minimizedRMSD -1
REMARK  1 active torsions:
REMARK  status: ('A' for Active; 'I' for Inactive)
REMARK    1  A    between atoms: C3_4  and  O_7 
ROOT
ATOM      1  C   UNL d   1       5.570   3.310   4.515  0.00  0.00    -0.033 A 
ATOM      2  C1  UNL d   1       6.000   2.604   5.641  0.00  0.00     0.039 A 
ATOM      3  C2  UNL d   1       5.916   1.211   5.667  0.00  0.00    -0.080 A 
ATOM      4  C3  UNL d   1       5.403   0.536   4.562  0.00  0.00     0.150 A 
ATOM      5  C4  UNL d   1       4.977   1.233   3.436  0.00  0.00    -0.007 A 
ATOM      6  C5  UNL d   1       5.060   2.625   3.412  0.00  0.00     0.039 A 
ENDROOT
BRANCH   4   7
ATOM      7  O   UNL d   1       5.297  -0.823   4.543  0.00  0.00    -0.526 OA
ATOM      8  H5  UNL d   1       5.603  -1.167   5.399  0.00  0.00     0.418 HD
ENDBRANCH   4   7
TORSDOF 1
ENDMDL
