MODEL 1
REMARK minimizedAffinity -4.79502821
REMARK minimizedRMSD -1
REMARK  0 active torsions:
REMARK  status: ('A' for Active; 'I' for Inactive)
ROOT
ATOM      1  C   UNL d   1      -2.439  -2.242   1.522  0.00  0.00    -0.002 A 
ATOM      2  C1  UNL d   1      -3.014  -1.693   0.385  0.00  0.00     0.010 A 
ATOM      3  C2  UNL d   1      -2.306  -0.779  -0.398  0.00  0.00     0.041 A 
ATOM      4  C3  UNL d   1      -0.997  -0.425  -0.017  0.00  0.00    -0.075 A 
ATOM      5  S   UNL d   1       0.059   0.674  -0.823  0.00  0.00     0.015 SA
ATOM      6  C4  UNL d   1       1.299   0.439   0.322  0.00  0.00     0.022 A 
ATOM      7  C5  UNL d   1       0.933  -0.452   1.303  0.00  0.00     0.026 A 
ATOM      8  C6  UNL d   1      -0.396  -0.965   1.124  0.00  0.00    -0.082 A 
ATOM      9  C7  UNL d   1      -1.140  -1.888   1.898  0.00  0.00     0.045 A 
ENDROOT
TORSDOF 0
ENDMDL
