MODEL 1
REMARK minimizedAffinity -2.8674221
REMARK minimizedRMSD -1
REMARK  0 active torsions:
REMARK  status: ('A' for Active; 'I' for Inactive)
ROOT
ATOM      1  C   UNL d   1       0.341  -0.621   2.446  0.00  0.00    -0.002 A 
ATOM      2  C1  UNL d   1       0.687  -1.130   1.202  0.00  0.00     0.010 A 
ATOM      3  C2  UNL d   1       1.353  -0.333   0.269  0.00  0.00     0.041 A 
ATOM      4  C3  UNL d   1       1.670   0.997   0.610  0.00  0.00    -0.075 A 
ATOM      5  S   UNL d   1       2.483   2.157  -0.372  0.00  0.00     0.015 SA
ATOM      6  C4  UNL d   1       2.390   3.355   0.836  0.00  0.00     0.022 A 
ATOM      7  C5  UNL d   1       1.758   2.899   1.968  0.00  0.00     0.026 A 
ATOM      8  C6  UNL d   1       1.333   1.532   1.857  0.00  0.00    -0.082 A 
ATOM      9  C7  UNL d   1       0.657   0.699   2.781  0.00  0.00     0.045 A 
ENDROOT
TORSDOF 0
ENDMDL
