MODEL 1
REMARK minimizedAffinity -3.52817488
REMARK minimizedRMSD -1
REMARK  0 active torsions:
REMARK  status: ('A' for Active; 'I' for Inactive)
ROOT
ATOM      1  C   UNL d   1       2.452   2.661   2.605  0.00  0.00    -0.002 A 
ATOM      2  C1  UNL d   1       2.667   2.844   1.246  0.00  0.00     0.010 A 
ATOM      3  C2  UNL d   1       2.108   1.968   0.314  0.00  0.00     0.041 A 
ATOM      4  C3  UNL d   1       1.319   0.895   0.775  0.00  0.00    -0.075 A 
ATOM      5  S   UNL d   1       0.533  -0.303  -0.184  0.00  0.00     0.015 SA
ATOM      6  C4  UNL d   1      -0.108  -1.086   1.188  0.00  0.00     0.022 A 
ATOM      7  C5  UNL d   1       0.259  -0.462   2.356  0.00  0.00     0.026 A 
ATOM      8  C6  UNL d   1       1.088   0.690   2.138  0.00  0.00    -0.082 A 
ATOM      9  C7  UNL d   1       1.669   1.595   3.058  0.00  0.00     0.045 A 
ENDROOT
TORSDOF 0
ENDMDL
