MODEL 1
REMARK minimizedAffinity -3.42459059
REMARK minimizedRMSD -1
REMARK  0 active torsions:
REMARK  status: ('A' for Active; 'I' for Inactive)
ROOT
ATOM      1  C   UNL d   1      -2.110   0.018  -0.987  0.00  0.00    -0.002 A 
ATOM      2  C1  UNL d   1      -1.190  -0.399  -1.938  0.00  0.00     0.010 A 
ATOM      3  C2  UNL d   1       0.130  -0.676  -1.577  0.00  0.00     0.041 A 
ATOM      4  C3  UNL d   1       0.513  -0.527  -0.229  0.00  0.00    -0.075 A 
ATOM      5  S   UNL d   1       2.075  -0.810   0.444  0.00  0.00     0.015 SA
ATOM      6  C4  UNL d   1       1.557  -0.386   2.012  0.00  0.00     0.022 A 
ATOM      7  C5  UNL d   1       0.228  -0.034   2.039  0.00  0.00     0.026 A 
ATOM      8  C6  UNL d   1      -0.395  -0.110   0.747  0.00  0.00    -0.082 A 
ATOM      9  C7  UNL d   1      -1.726   0.164   0.349  0.00  0.00     0.045 A 
ENDROOT
TORSDOF 0
ENDMDL
