MODEL 1
REMARK minimizedAffinity -3.40362072
REMARK minimizedRMSD -1
REMARK  0 active torsions:
REMARK  status: ('A' for Active; 'I' for Inactive)
ROOT
ATOM      1  C   UNL d   1      -2.782  -2.559   0.043  0.00  0.00    -0.002 A 
ATOM      2  C1  UNL d   1      -2.018  -3.071   1.082  0.00  0.00     0.010 A 
ATOM      3  C2  UNL d   1      -0.837  -2.437   1.474  0.00  0.00     0.041 A 
ATOM      4  C3  UNL d   1      -0.434  -1.268   0.799  0.00  0.00    -0.075 A 
ATOM      5  S   UNL d   1       0.974  -0.322   1.107  0.00  0.00     0.015 SA
ATOM      6  C4  UNL d   1       0.594   0.783  -0.133  0.00  0.00     0.022 A 
ATOM      7  C5  UNL d   1      -0.575   0.454  -0.777  0.00  0.00     0.026 A 
ATOM      8  C6  UNL d   1      -1.187  -0.733  -0.250  0.00  0.00    -0.082 A 
ATOM      9  C7  UNL d   1      -2.379  -1.400  -0.625  0.00  0.00     0.045 A 
ENDROOT
TORSDOF 0
ENDMDL
