MODEL 1
REMARK minimizedAffinity -4.48439503
REMARK minimizedRMSD -1
REMARK  0 active torsions:
REMARK  status: ('A' for Active; 'I' for Inactive)
ROOT
ATOM      1  C   UNL d   1      -3.047  -0.626  -0.235  0.00  0.00    -0.002 A 
ATOM      2  C1  UNL d   1      -2.950  -0.760   1.143  0.00  0.00     0.010 A 
ATOM      3  C2  UNL d   1      -1.727  -0.570   1.791  0.00  0.00     0.041 A 
ATOM      4  C3  UNL d   1      -0.594  -0.237   1.023  0.00  0.00    -0.075 A 
ATOM      5  S   UNL d   1       1.006   0.044   1.600  0.00  0.00     0.015 SA
ATOM      6  C4  UNL d   1       1.598   0.350   0.032  0.00  0.00     0.022 A 
ATOM      7  C5  UNL d   1       0.613   0.244  -0.921  0.00  0.00     0.026 A 
ATOM      8  C6  UNL d   1      -0.667  -0.096  -0.366  0.00  0.00    -0.082 A 
ATOM      9  C7  UNL d   1      -1.920  -0.296  -0.993  0.00  0.00     0.045 A 
ENDROOT
TORSDOF 0
ENDMDL
