MODEL 1
REMARK minimizedAffinity -4.4669137
REMARK minimizedRMSD -1
REMARK  3 active torsions:
REMARK  status: ('A' for Active; 'I' for Inactive)
REMARK    1  A    between atoms: C3'_2  and  C2'_3 
REMARK    2  A    between atoms: C2'_3  and  C1'_4 
REMARK    3  A    between atoms: C1'_4  and  C1_5 
ROOT
ATOM      1  C1  N4B d   1      -0.058  -2.065  -1.007  0.00  0.00    -0.075 A 
ATOM      2  C2  N4B d   1       0.766  -3.211  -1.019  0.00  0.00     0.002 A 
ATOM      3  C3  N4B d   1       0.661  -4.121  -2.042  0.00  0.00     0.002 A 
ATOM      4  C4  N4B d   1      -0.270  -3.916  -3.050  0.00  0.00    -0.004 A 
ATOM      5  C5  N4B d   1      -1.044  -2.793  -3.044  0.00  0.00     0.002 A 
ATOM      6  C6  N4B d   1      -0.947  -1.868  -2.024  0.00  0.00     0.002 A 
ENDROOT
BRANCH   1   7
ATOM      7  C1' N4B d   1      -0.040  -1.086   0.135  0.00  0.00     0.057 C 
BRANCH   7   8
ATOM      8  C2' N4B d   1      -0.144   0.332  -0.418  0.00  0.00     0.009 C 
BRANCH   8   9
ATOM      9  C3' N4B d   1      -1.145   1.173   0.356  0.00  0.00     0.004 C 
ATOM     10  C4' N4B d   1      -0.633   2.549   0.662  0.00  0.00     0.003 C 
ENDBRANCH   8   9
ENDBRANCH   7   8
ENDBRANCH   1   7
TORSDOF 3
ENDMDL
