MODEL 1
REMARK minimizedAffinity -3.99018884
REMARK minimizedRMSD -1
REMARK  3 active torsions:
REMARK  status: ('A' for Active; 'I' for Inactive)
REMARK    1  A    between atoms: C3'_2  and  C2'_3 
REMARK    2  A    between atoms: C2'_3  and  C1'_4 
REMARK    3  A    between atoms: C1'_4  and  C1_5 
ROOT
ATOM      1  C1  N4B d   1      -0.290   0.506   0.010  0.00  0.00    -0.075 A 
ATOM      2  C2  N4B d   1       1.074   0.869  -0.035  0.00  0.00     0.002 A 
ATOM      3  C3  N4B d   1       1.444   2.175   0.170  0.00  0.00     0.002 A 
ATOM      4  C4  N4B d   1       0.471   3.135   0.402  0.00  0.00    -0.004 A 
ATOM      5  C5  N4B d   1      -0.842   2.773   0.469  0.00  0.00     0.002 A 
ATOM      6  C6  N4B d   1      -1.228   1.462   0.269  0.00  0.00     0.002 A 
ENDROOT
BRANCH   1   7
ATOM      7  C1' N4B d   1      -0.750  -0.894  -0.293  0.00  0.00     0.057 C 
BRANCH   7   8
ATOM      8  C2' N4B d   1      -0.249  -1.297  -1.677  0.00  0.00     0.009 C 
BRANCH   8   9
ATOM      9  C3' N4B d   1      -1.075  -2.424  -2.273  0.00  0.00     0.004 C 
ATOM     10  C4' N4B d   1      -0.532  -3.781  -1.939  0.00  0.00     0.003 C 
ENDBRANCH   8   9
ENDBRANCH   7   8
ENDBRANCH   1   7
TORSDOF 3
ENDMDL
