MODEL 1
REMARK minimizedAffinity -6.38561583
REMARK minimizedRMSD -1
REMARK  3 active torsions:
REMARK  status: ('A' for Active; 'I' for Inactive)
REMARK    1  A    between atoms: C3'_2  and  C2'_3 
REMARK    2  A    between atoms: C2'_3  and  C1'_4 
REMARK    3  A    between atoms: C1'_4  and  C1_5 
ROOT
ATOM      1  C1  N4B d   1      -0.551   0.141   0.757  0.00  0.00    -0.075 A 
ATOM      2  C2  N4B d   1      -1.525   1.159   0.659  0.00  0.00     0.002 A 
ATOM      3  C3  N4B d   1      -1.270   2.284  -0.087  0.00  0.00     0.002 A 
ATOM      4  C4  N4B d   1      -0.047   2.421  -0.726  0.00  0.00    -0.004 A 
ATOM      5  C5  N4B d   1       0.879   1.422  -0.647  0.00  0.00     0.002 A 
ATOM      6  C6  N4B d   1       0.635   0.284   0.096  0.00  0.00     0.002 A 
ENDROOT
BRANCH   1   7
ATOM      7  C1' N4B d   1      -0.750  -1.067   1.630  0.00  0.00     0.057 C 
BRANCH   7   8
ATOM      8  C2' N4B d   1      -1.757  -0.732   2.726  0.00  0.00     0.009 C 
BRANCH   8   9
ATOM      9  C3' N4B d   1      -2.982  -1.629   2.666  0.00  0.00     0.004 C 
ATOM     10  C4' N4B d   1      -4.147  -1.073   3.429  0.00  0.00     0.003 C 
ENDBRANCH   8   9
ENDBRANCH   7   8
ENDBRANCH   1   7
TORSDOF 3
ENDMDL
