MODEL 1
REMARK minimizedAffinity -5.01093388
REMARK minimizedRMSD -1
REMARK  3 active torsions:
REMARK  status: ('A' for Active; 'I' for Inactive)
REMARK    1  A    between atoms: C3'_2  and  C2'_3 
REMARK    2  A    between atoms: C2'_3  and  C1'_4 
REMARK    3  A    between atoms: C1'_4  and  C1_5 
ROOT
ATOM      1  C1  N4B d   1      -1.385   0.932   0.855  0.00  0.00    -0.075 A 
ATOM      2  C2  N4B d   1      -1.171   2.305   0.602  0.00  0.00     0.002 A 
ATOM      3  C3  N4B d   1       0.011   2.724   0.043  0.00  0.00     0.002 A 
ATOM      4  C4  N4B d   1       0.998   1.795  -0.252  0.00  0.00    -0.004 A 
ATOM      5  C5  N4B d   1       0.773   0.468  -0.028  0.00  0.00     0.002 A 
ATOM      6  C6  N4B d   1      -0.412   0.032   0.529  0.00  0.00     0.002 A 
ENDROOT
BRANCH   1   7
ATOM      7  C1' N4B d   1      -2.627   0.436   1.543  0.00  0.00     0.057 C 
BRANCH   7   8
ATOM      8  C2' N4B d   1      -2.272  -0.766   2.413  0.00  0.00     0.009 C 
BRANCH   8   9
ATOM      9  C3' N4B d   1      -3.021  -0.752   3.734  0.00  0.00     0.004 C 
ATOM     10  C4' N4B d   1      -4.509  -0.814   3.559  0.00  0.00     0.003 C 
ENDBRANCH   8   9
ENDBRANCH   7   8
ENDBRANCH   1   7
TORSDOF 3
ENDMDL
