MODEL 1
REMARK minimizedAffinity -2.24926686
REMARK minimizedRMSD -1
REMARK  3 active torsions:
REMARK  status: ('A' for Active; 'I' for Inactive)
REMARK    1  A    between atoms: C3'_2  and  C2'_3 
REMARK    2  A    between atoms: C2'_3  and  C1'_4 
REMARK    3  A    between atoms: C1'_4  and  C1_5 
ROOT
ATOM      1  C1  N4B d   1      -1.378  -2.873   1.354  0.00  0.00    -0.075 A 
ATOM      2  C2  N4B d   1      -2.009  -3.963   0.715  0.00  0.00     0.002 A 
ATOM      3  C3  N4B d   1      -1.918  -4.106  -0.648  0.00  0.00     0.002 A 
ATOM      4  C4  N4B d   1      -1.221  -3.166  -1.391  0.00  0.00    -0.004 A 
ATOM      5  C5  N4B d   1      -0.594  -2.130  -0.764  0.00  0.00     0.002 A 
ATOM      6  C6  N4B d   1      -0.673  -1.975   0.605  0.00  0.00     0.002 A 
ENDROOT
BRANCH   1   7
ATOM      7  C1' N4B d   1      -1.522  -2.627   2.831  0.00  0.00     0.057 C 
BRANCH   7   8
ATOM      8  C2' N4B d   1      -2.484  -1.464   3.054  0.00  0.00     0.009 C 
BRANCH   8   9
ATOM      9  C3' N4B d   1      -3.514  -1.776   4.126  0.00  0.00     0.004 C 
ATOM     10  C4' N4B d   1      -4.904  -1.376   3.731  0.00  0.00     0.003 C 
ENDBRANCH   8   9
ENDBRANCH   7   8
ENDBRANCH   1   7
TORSDOF 3
ENDMDL
