MODEL 1
REMARK minimizedAffinity -4.88136387
REMARK minimizedRMSD -1
REMARK  3 active torsions:
REMARK  status: ('A' for Active; 'I' for Inactive)
REMARK    1  A    between atoms: C3'_2  and  C2'_3 
REMARK    2  A    between atoms: C2'_3  and  C1'_4 
REMARK    3  A    between atoms: C1'_4  and  C1_5 
ROOT
ATOM      1  C1  N4B d   1      -1.276   0.877   0.845  0.00  0.00    -0.075 A 
ATOM      2  C2  N4B d   1      -1.271   2.283   0.978  0.00  0.00     0.002 A 
ATOM      3  C3  N4B d   1      -0.303   3.028   0.351  0.00  0.00     0.002 A 
ATOM      4  C4  N4B d   1       0.677   2.392  -0.395  0.00  0.00    -0.004 A 
ATOM      5  C5  N4B d   1       0.650   1.035  -0.540  0.00  0.00     0.002 A 
ATOM      6  C6  N4B d   1      -0.319   0.274   0.081  0.00  0.00     0.002 A 
ENDROOT
BRANCH   1   7
ATOM      7  C1' N4B d   1      -2.263   0.013   1.581  0.00  0.00     0.057 C 
BRANCH   7   8
ATOM      8  C2' N4B d   1      -1.585  -1.296   1.976  0.00  0.00     0.009 C 
BRANCH   8   9
ATOM      9  C3' N4B d   1      -2.086  -1.815   3.313  0.00  0.00     0.004 C 
ATOM     10  C4' N4B d   1      -3.327  -1.115   3.780  0.00  0.00     0.003 C 
ENDBRANCH   8   9
ENDBRANCH   7   8
ENDBRANCH   1   7
TORSDOF 3
ENDMDL
