MODEL 1
REMARK minimizedAffinity -4.22112179
REMARK minimizedRMSD -1
REMARK  3 active torsions:
REMARK  status: ('A' for Active; 'I' for Inactive)
REMARK    1  A    between atoms: C3'_2  and  C2'_3 
REMARK    2  A    between atoms: C2'_3  and  C1'_4 
REMARK    3  A    between atoms: C1'_4  and  C1_5 
ROOT
ATOM      1  C1  N4B d   1       0.659   0.547   0.176  0.00  0.00    -0.075 A 
ATOM      2  C2  N4B d   1       2.055   0.727   0.293  0.00  0.00     0.002 A 
ATOM      3  C3  N4B d   1       2.569   1.980   0.518  0.00  0.00     0.002 A 
ATOM      4  C4  N4B d   1       1.712   3.067   0.611  0.00  0.00    -0.004 A 
ATOM      5  C5  N4B d   1       0.364   2.880   0.523  0.00  0.00     0.002 A 
ATOM      6  C6  N4B d   1      -0.167   1.626   0.300  0.00  0.00     0.002 A 
ENDROOT
BRANCH   1   7
ATOM      7  C1' N4B d   1       0.056  -0.791  -0.156  0.00  0.00     0.057 C 
BRANCH   7   8
ATOM      8  C2' N4B d   1       0.443  -1.175  -1.581  0.00  0.00     0.009 C 
BRANCH   8   9
ATOM      9  C3' N4B d   1      -0.123  -2.527  -1.979  0.00  0.00     0.004 C 
ATOM     10  C4' N4B d   1      -1.622  -2.545  -2.003  0.00  0.00     0.003 C 
ENDBRANCH   8   9
ENDBRANCH   7   8
ENDBRANCH   1   7
TORSDOF 3
ENDMDL
