MODEL 1
REMARK minimizedAffinity -3.57754517
REMARK minimizedRMSD -1
REMARK  3 active torsions:
REMARK  status: ('A' for Active; 'I' for Inactive)
REMARK    1  A    between atoms: C3'_2  and  C2'_3 
REMARK    2  A    between atoms: C2'_3  and  C1'_4 
REMARK    3  A    between atoms: C1'_4  and  C1_5 
ROOT
ATOM      1  C1  N4B d   1      -0.990   0.468   0.467  0.00  0.00    -0.075 A 
ATOM      2  C2  N4B d   1       0.040  -0.488   0.319  0.00  0.00     0.002 A 
ATOM      3  C3  N4B d   1      -0.004  -1.661   1.032  0.00  0.00     0.002 A 
ATOM      4  C4  N4B d   1      -1.052  -1.890   1.911  0.00  0.00    -0.004 A 
ATOM      5  C5  N4B d   1      -2.055  -0.974   2.029  0.00  0.00     0.002 A 
ATOM      6  C6  N4B d   1      -2.027   0.207   1.315  0.00  0.00     0.002 A 
ENDROOT
BRANCH   1   7
ATOM      7  C1' N4B d   1      -0.941   1.801  -0.227  0.00  0.00     0.057 C 
BRANCH   7   8
ATOM      8  C2' N4B d   1      -1.108   2.910   0.807  0.00  0.00     0.009 C 
BRANCH   8   9
ATOM      9  C3' N4B d   1       0.163   3.137   1.607  0.00  0.00     0.004 C 
ATOM     10  C4' N4B d   1      -0.100   3.357   3.067  0.00  0.00     0.003 C 
ENDBRANCH   8   9
ENDBRANCH   7   8
ENDBRANCH   1   7
TORSDOF 3
ENDMDL
