MODEL 1
REMARK minimizedAffinity -2.40524602
REMARK minimizedRMSD -1
REMARK  3 active torsions:
REMARK  status: ('A' for Active; 'I' for Inactive)
REMARK    1  A    between atoms: C3'_2  and  C2'_3 
REMARK    2  A    between atoms: C2'_3  and  C1'_4 
REMARK    3  A    between atoms: C1'_4  and  C1_5 
ROOT
ATOM      1  C1  N4B d   1       1.554   2.427  -5.338  0.00  0.00    -0.075 A 
ATOM      2  C2  N4B d   1       2.243   1.377  -5.983  0.00  0.00     0.002 A 
ATOM      3  C3  N4B d   1       3.332   0.798  -5.380  0.00  0.00     0.002 A 
ATOM      4  C4  N4B d   1       3.761   1.263  -4.146  0.00  0.00    -0.004 A 
ATOM      5  C5  N4B d   1       3.075   2.261  -3.518  0.00  0.00     0.002 A 
ATOM      6  C6  N4B d   1       1.976   2.849  -4.111  0.00  0.00     0.002 A 
ENDROOT
BRANCH   1   7
ATOM      7  C1' N4B d   1       0.410   3.149  -5.996  0.00  0.00     0.057 C 
BRANCH   7   8
ATOM      8  C2' N4B d   1      -0.848   2.970  -5.151  0.00  0.00     0.009 C 
BRANCH   8   9
ATOM      9  C3' N4B d   1      -2.108   2.976  -5.999  0.00  0.00     0.004 C 
ATOM     10  C4' N4B d   1      -2.817   4.297  -5.976  0.00  0.00     0.003 C 
ENDBRANCH   8   9
ENDBRANCH   7   8
ENDBRANCH   1   7
TORSDOF 3
ENDMDL
