MODEL 1
REMARK minimizedAffinity 6.93553066
REMARK minimizedRMSD -1
REMARK  3 active torsions:
REMARK  status: ('A' for Active; 'I' for Inactive)
REMARK    1  A    between atoms: C3'_2  and  C2'_3 
REMARK    2  A    between atoms: C2'_3  and  C1'_4 
REMARK    3  A    between atoms: C1'_4  and  C1_5 
ROOT
ATOM      1  C1  N4B d   1      -1.167   3.016  -5.993  0.00  0.00    -0.075 A 
ATOM      2  C2  N4B d   1      -2.346   2.242  -5.929  0.00  0.00     0.002 A 
ATOM      3  C3  N4B d   1      -3.571   2.860  -5.861  0.00  0.00     0.002 A 
ATOM      4  C4  N4B d   1      -3.640   4.245  -5.837  0.00  0.00    -0.004 A 
ATOM      5  C5  N4B d   1      -2.497   4.986  -5.926  0.00  0.00     0.002 A 
ATOM      6  C6  N4B d   1      -1.260   4.378  -5.998  0.00  0.00     0.002 A 
ENDROOT
BRANCH   1   7
ATOM      7  C1' N4B d   1       0.198   2.386  -5.982  0.00  0.00     0.057 C 
BRANCH   7   8
ATOM      8  C2' N4B d   1       1.257   3.484  -5.929  0.00  0.00     0.009 C 
BRANCH   8   9
ATOM      9  C3' N4B d   1       2.645   2.923  -5.672  0.00  0.00     0.004 C 
ATOM     10  C4' N4B d   1       3.117   3.163  -4.269  0.00  0.00     0.003 C 
ENDBRANCH   8   9
ENDBRANCH   7   8
ENDBRANCH   1   7
TORSDOF 3
ENDMDL
