MODEL 1
REMARK minimizedAffinity 16.4583111
REMARK minimizedRMSD -1
REMARK  0 active torsions:
REMARK  status: ('A' for Active; 'I' for Inactive)
ROOT
ATOM      1  C2' OXE d   1       3.696   2.703  -2.993  0.00  0.00     0.078 C 
ATOM      2  C1' OXE d   1       4.389   0.950  -0.913  0.00  0.00     0.078 C 
ATOM      3  C1  OXE d   1       4.829   2.388  -0.797  0.00  0.00    -0.078 A 
ATOM      4  C2  OXE d   1       4.526   3.228  -1.842  0.00  0.00    -0.078 A 
ATOM      5  C3  OXE d   1       4.861   4.577  -1.761  0.00  0.00     0.003 A 
ATOM      6  C4  OXE d   1       5.637   5.052  -0.698  0.00  0.00    -0.002 A 
ATOM      7  C5  OXE d   1       5.991   4.205   0.358  0.00  0.00    -0.002 A 
ATOM      8  C6  OXE d   1       5.559   2.883   0.344  0.00  0.00     0.003 A 
ENDROOT
TORSDOF 0
ENDMDL
