MODEL 1
REMARK minimizedAffinity 11.3375025
REMARK minimizedRMSD -1
REMARK  0 active torsions:
REMARK  status: ('A' for Active; 'I' for Inactive)
ROOT
ATOM      1  C2' OXE d   1       6.000   3.389   0.603  0.00  0.00     0.078 C 
ATOM      2  C1' OXE d   1       6.000   5.692  -1.001  0.00  0.00     0.078 C 
ATOM      3  C1  OXE d   1       5.207   4.502  -1.480  0.00  0.00    -0.078 A 
ATOM      4  C2  OXE d   1       5.251   3.363  -0.712  0.00  0.00    -0.078 A 
ATOM      5  C3  OXE d   1       4.494   2.254  -1.079  0.00  0.00     0.003 A 
ATOM      6  C4  OXE d   1       3.812   2.236  -2.302  0.00  0.00    -0.002 A 
ATOM      7  C5  OXE d   1       3.787   3.371  -3.118  0.00  0.00    -0.002 A 
ATOM      8  C6  OXE d   1       4.443   4.524  -2.702  0.00  0.00     0.003 A 
ENDROOT
TORSDOF 0
ENDMDL
