MODEL 1
REMARK minimizedAffinity 14.8001356
REMARK minimizedRMSD -1
REMARK  0 active torsions:
REMARK  status: ('A' for Active; 'I' for Inactive)
ROOT
ATOM      1  C2' OXE d   1       3.143  -2.951  -0.050  0.00  0.00     0.078 C 
ATOM      2  C1' OXE d   1       0.553  -3.424  -1.025  0.00  0.00     0.078 C 
ATOM      3  C1  OXE d   1       0.693  -2.587   0.222  0.00  0.00    -0.078 A 
ATOM      4  C2  OXE d   1       1.961  -2.400   0.718  0.00  0.00    -0.078 A 
ATOM      5  C3  OXE d   1       2.152  -1.591   1.835  0.00  0.00     0.003 A 
ATOM      6  C4  OXE d   1       1.053  -1.093   2.546  0.00  0.00    -0.002 A 
ATOM      7  C5  OXE d   1      -0.249  -1.305   2.080  0.00  0.00    -0.002 A 
ATOM      8  C6  OXE d   1      -0.443  -2.013   0.899  0.00  0.00     0.003 A 
ENDROOT
TORSDOF 0
ENDMDL
