MODEL 1
REMARK minimizedAffinity 8.24794102
REMARK minimizedRMSD -1
REMARK  0 active torsions:
REMARK  status: ('A' for Active; 'I' for Inactive)
ROOT
ATOM      1  C2' OXE d   1      -4.870  -1.869   6.000  0.00  0.00     0.078 C 
ATOM      2  C1' OXE d   1      -3.721   0.689   5.864  0.00  0.00     0.078 C 
ATOM      3  C1  OXE d   1      -4.306   0.113   4.599  0.00  0.00    -0.078 A 
ATOM      4  C2  OXE d   1      -4.824  -1.158   4.664  0.00  0.00    -0.078 A 
ATOM      5  C3  OXE d   1      -5.426  -1.716   3.540  0.00  0.00     0.003 A 
ATOM      6  C4  OXE d   1      -5.370  -1.057   2.306  0.00  0.00    -0.002 A 
ATOM      7  C5  OXE d   1      -4.812   0.222   2.208  0.00  0.00    -0.002 A 
ATOM      8  C6  OXE d   1      -4.315   0.837   3.352  0.00  0.00     0.003 A 
ENDROOT
TORSDOF 0
ENDMDL
