MODEL 1
REMARK minimizedAffinity 0.491262287
REMARK minimizedRMSD -1
REMARK  0 active torsions:
REMARK  status: ('A' for Active; 'I' for Inactive)
ROOT
ATOM      1  C2' OXE d   1      -4.720  -1.319   2.484  0.00  0.00     0.078 C 
ATOM      2  C1' OXE d   1      -2.081  -0.473   2.039  0.00  0.00     0.078 C 
ATOM      3  C1  OXE d   1      -2.763  -0.013   3.303  0.00  0.00    -0.078 A 
ATOM      4  C2  OXE d   1      -4.070  -0.394   3.490  0.00  0.00    -0.078 A 
ATOM      5  C3  OXE d   1      -4.728  -0.043   4.666  0.00  0.00     0.003 A 
ATOM      6  C4  OXE d   1      -4.124   0.821   5.586  0.00  0.00    -0.002 A 
ATOM      7  C5  OXE d   1      -2.807   1.253   5.395  0.00  0.00    -0.002 A 
ATOM      8  C6  OXE d   1      -2.099   0.811   4.282  0.00  0.00     0.003 A 
ENDROOT
TORSDOF 0
ENDMDL
