MODEL 1
REMARK minimizedAffinity 7.73494387
REMARK minimizedRMSD -1
REMARK  0 active torsions:
REMARK  status: ('A' for Active; 'I' for Inactive)
ROOT
ATOM      1  C2' OXE d   1      -5.228  -1.831   3.051  0.00  0.00     0.078 C 
ATOM      2  C1' OXE d   1      -2.803  -1.296   1.740  0.00  0.00     0.078 C 
ATOM      3  C1  OXE d   1      -3.065  -0.595   3.050  0.00  0.00    -0.078 A 
ATOM      4  C2  OXE d   1      -4.274  -0.827   3.661  0.00  0.00    -0.078 A 
ATOM      5  C3  OXE d   1      -4.543  -0.248   4.898  0.00  0.00     0.003 A 
ATOM      6  C4  OXE d   1      -3.659   0.687   5.450  0.00  0.00    -0.002 A 
ATOM      7  C5  OXE d   1      -2.440   0.968   4.825  0.00  0.00    -0.002 A 
ATOM      8  C6  OXE d   1      -2.109   0.304   3.648  0.00  0.00     0.003 A 
ENDROOT
TORSDOF 0
ENDMDL
