MODEL 1
REMARK minimizedAffinity 10.7280407
REMARK minimizedRMSD -1
REMARK  0 active torsions:
REMARK  status: ('A' for Active; 'I' for Inactive)
ROOT
ATOM      1  C2' OXE d   1       4.014  -0.894  -0.298  0.00  0.00     0.078 C 
ATOM      2  C1' OXE d   1       2.243  -2.226   1.425  0.00  0.00     0.078 C 
ATOM      3  C1  OXE d   1       3.176  -3.066   0.588  0.00  0.00    -0.078 A 
ATOM      4  C2  OXE d   1       4.006  -2.407  -0.286  0.00  0.00    -0.078 A 
ATOM      5  C3  OXE d   1       4.925  -3.130  -1.042  0.00  0.00     0.003 A 
ATOM      6  C4  OXE d   1       4.904  -4.530  -1.033  0.00  0.00    -0.002 A 
ATOM      7  C5  OXE d   1       4.039  -5.222  -0.179  0.00  0.00    -0.002 A 
ATOM      8  C6  OXE d   1       3.200  -4.505   0.668  0.00  0.00     0.003 A 
ENDROOT
TORSDOF 0
ENDMDL
