MODEL 1
REMARK minimizedAffinity 2.59282184
REMARK minimizedRMSD -1
REMARK  0 active torsions:
REMARK  status: ('A' for Active; 'I' for Inactive)
ROOT
ATOM      1  C2' OXE d   1       4.795  -2.474  -2.931  0.00  0.00     0.078 C 
ATOM      2  C1' OXE d   1       3.264  -4.750  -3.527  0.00  0.00     0.078 C 
ATOM      3  C1  OXE d   1       4.186  -4.815  -2.335  0.00  0.00    -0.078 A 
ATOM      4  C2  OXE d   1       4.966  -3.713  -2.079  0.00  0.00    -0.078 A 
ATOM      5  C3  OXE d   1       5.794  -3.699  -0.960  0.00  0.00     0.003 A 
ATOM      6  C4  OXE d   1       5.954  -4.853  -0.183  0.00  0.00    -0.002 A 
ATOM      7  C5  OXE d   1       5.199  -6.000  -0.451  0.00  0.00    -0.002 A 
ATOM      8  C6  OXE d   1       4.281  -5.983  -1.495  0.00  0.00     0.003 A 
ENDROOT
TORSDOF 0
ENDMDL
