MODEL 1
REMARK minimizedAffinity 8.66800308
REMARK minimizedRMSD -1
REMARK  0 active torsions:
REMARK  status: ('A' for Active; 'I' for Inactive)
ROOT
ATOM      1  C2' OXE d   1       1.815  -4.106   0.001  0.00  0.00     0.078 C 
ATOM      2  C1' OXE d   1       3.613  -1.973  -0.310  0.00  0.00     0.078 C 
ATOM      3  C1  OXE d   1       4.160  -3.374  -0.417  0.00  0.00    -0.078 A 
ATOM      4  C2  OXE d   1       3.282  -4.412  -0.217  0.00  0.00    -0.078 A 
ATOM      5  C3  OXE d   1       3.722  -5.725  -0.357  0.00  0.00     0.003 A 
ATOM      6  C4  OXE d   1       5.082  -6.000  -0.549  0.00  0.00    -0.002 A 
ATOM      7  C5  OXE d   1       6.000  -4.958  -0.716  0.00  0.00    -0.002 A 
ATOM      8  C6  OXE d   1       5.549  -3.642  -0.695  0.00  0.00     0.003 A 
ENDROOT
TORSDOF 0
ENDMDL
