MODEL 1
REMARK minimizedAffinity 23.0243359
REMARK minimizedRMSD -1
REMARK  0 active torsions:
REMARK  status: ('A' for Active; 'I' for Inactive)
ROOT
ATOM      1  C2' OXE d   1      -5.426   0.782  -3.837  0.00  0.00     0.078 C 
ATOM      2  C1' OXE d   1      -5.891  -0.889  -1.630  0.00  0.00     0.078 C 
ATOM      3  C1  OXE d   1      -5.838  -1.527  -2.995  0.00  0.00    -0.078 A 
ATOM      4  C2  OXE d   1      -5.656  -0.695  -4.074  0.00  0.00    -0.078 A 
ATOM      5  C3  OXE d   1      -5.544  -1.238  -5.351  0.00  0.00     0.003 A 
ATOM      6  C4  OXE d   1      -5.768  -2.603  -5.564  0.00  0.00    -0.002 A 
ATOM      7  C5  OXE d   1      -5.995  -3.462  -4.483  0.00  0.00    -0.002 A 
ATOM      8  C6  OXE d   1      -5.990  -2.947  -3.191  0.00  0.00     0.003 A 
ENDROOT
TORSDOF 0
ENDMDL
