MODEL 1
REMARK minimizedAffinity 21.2493134
REMARK minimizedRMSD -1
REMARK  0 active torsions:
REMARK  status: ('A' for Active; 'I' for Inactive)
ROOT
ATOM      1  C2' OXE d   1       0.334  -3.089   1.353  0.00  0.00     0.078 C 
ATOM      2  C1' OXE d   1       1.569  -1.144   2.956  0.00  0.00     0.078 C 
ATOM      3  C1  OXE d   1       0.114  -0.949   2.609  0.00  0.00    -0.078 A 
ATOM      4  C2  OXE d   1      -0.470  -1.882   1.786  0.00  0.00    -0.078 A 
ATOM      5  C3  OXE d   1      -1.824  -1.780   1.480  0.00  0.00     0.003 A 
ATOM      6  C4  OXE d   1      -2.557  -0.655   1.876  0.00  0.00    -0.002 A 
ATOM      7  C5  OXE d   1      -1.971   0.326   2.682  0.00  0.00    -0.002 A 
ATOM      8  C6  OXE d   1      -0.651   0.173   3.092  0.00  0.00     0.003 A 
ENDROOT
TORSDOF 0
ENDMDL
