MODEL 1
REMARK minimizedAffinity 21.1605339
REMARK minimizedRMSD -1
REMARK  0 active torsions:
REMARK  status: ('A' for Active; 'I' for Inactive)
ROOT
ATOM      1  C2' OXE d   1       1.801  -3.947  -0.718  0.00  0.00     0.078 C 
ATOM      2  C1' OXE d   1       3.728  -1.906  -0.753  0.00  0.00     0.078 C 
ATOM      3  C1  OXE d   1       4.215  -3.333  -0.731  0.00  0.00    -0.078 A 
ATOM      4  C2  OXE d   1       3.266  -4.325  -0.667  0.00  0.00    -0.078 A 
ATOM      5  C3  OXE d   1       3.660  -5.659  -0.700  0.00  0.00     0.003 A 
ATOM      6  C4  OXE d   1       5.017  -6.000  -0.643  0.00  0.00    -0.002 A 
ATOM      7  C5  OXE d   1       6.000  -5.005  -0.667  0.00  0.00    -0.002 A 
ATOM      8  C6  OXE d   1       5.617  -3.671  -0.754  0.00  0.00     0.003 A 
ENDROOT
TORSDOF 0
ENDMDL
