MODEL 1
REMARK minimizedAffinity 5.86448622
REMARK minimizedRMSD -1
REMARK  0 active torsions:
REMARK  status: ('A' for Active; 'I' for Inactive)
ROOT
ATOM      1  C2' OXE d   1       4.577  -2.597  -1.091  0.00  0.00     0.078 C 
ATOM      2  C1' OXE d   1       2.816  -4.768  -0.841  0.00  0.00     0.078 C 
ATOM      3  C1  OXE d   1       2.647  -3.613   0.113  0.00  0.00    -0.078 A 
ATOM      4  C2  OXE d   1       3.542  -2.575   0.014  0.00  0.00    -0.078 A 
ATOM      5  C3  OXE d   1       3.398  -1.459   0.833  0.00  0.00     0.003 A 
ATOM      6  C4  OXE d   1       2.445  -1.452   1.859  0.00  0.00    -0.002 A 
ATOM      7  C5  OXE d   1       1.548  -2.516   2.003  0.00  0.00    -0.002 A 
ATOM      8  C6  OXE d   1       1.608  -3.582   1.113  0.00  0.00     0.003 A 
ENDROOT
TORSDOF 0
ENDMDL
