MODEL 1
REMARK minimizedAffinity 10.5420017
REMARK minimizedRMSD -1
REMARK  0 active torsions:
REMARK  status: ('A' for Active; 'I' for Inactive)
ROOT
ATOM      1  C2' OXE d   1       2.139  -5.998  -4.327  0.00  0.00     0.078 C 
ATOM      2  C1' OXE d   1       1.842  -4.494  -1.975  0.00  0.00     0.078 C 
ATOM      3  C1  OXE d   1       0.606  -4.768  -2.796  0.00  0.00    -0.078 A 
ATOM      4  C2  OXE d   1       0.769  -5.465  -3.969  0.00  0.00    -0.078 A 
ATOM      5  C3  OXE d   1      -0.346  -5.792  -4.737  0.00  0.00     0.003 A 
ATOM      6  C4  OXE d   1      -1.608  -5.286  -4.404  0.00  0.00    -0.002 A 
ATOM      7  C5  OXE d   1      -1.789  -4.541  -3.234  0.00  0.00    -0.002 A 
ATOM      8  C6  OXE d   1      -0.702  -4.309  -2.399  0.00  0.00     0.003 A 
ENDROOT
TORSDOF 0
ENDMDL
