MODEL 1
REMARK minimizedAffinity 16.1115589
REMARK minimizedRMSD -1
REMARK  0 active torsions:
REMARK  status: ('A' for Active; 'I' for Inactive)
ROOT
ATOM      1  C2' OXE d   1      -5.993   0.941   1.556  0.00  0.00     0.078 C 
ATOM      2  C1' OXE d   1      -4.870   0.254  -0.924  0.00  0.00     0.078 C 
ATOM      3  C1  OXE d   1      -4.008   0.106   0.305  0.00  0.00    -0.078 A 
ATOM      4  C2  OXE d   1      -4.550   0.488   1.508  0.00  0.00    -0.078 A 
ATOM      5  C3  OXE d   1      -3.816   0.321   2.679  0.00  0.00     0.003 A 
ATOM      6  C4  OXE d   1      -2.479  -0.090   2.625  0.00  0.00    -0.002 A 
ATOM      7  C5  OXE d   1      -1.894  -0.447   1.405  0.00  0.00    -0.002 A 
ATOM      8  C6  OXE d   1      -2.657  -0.395   0.243  0.00  0.00     0.003 A 
ENDROOT
TORSDOF 0
ENDMDL
