MODEL 1
REMARK minimizedAffinity 9.12550163
REMARK minimizedRMSD -1
REMARK  0 active torsions:
REMARK  status: ('A' for Active; 'I' for Inactive)
ROOT
ATOM      1  C2' OXE d   1       1.310  -0.393   1.491  0.00  0.00     0.078 C 
ATOM      2  C1' OXE d   1       0.660  -3.104   1.161  0.00  0.00     0.078 C 
ATOM      3  C1  OXE d   1      -0.471  -2.132   1.386  0.00  0.00    -0.078 A 
ATOM      4  C2  OXE d   1      -0.140  -0.814   1.593  0.00  0.00    -0.078 A 
ATOM      5  C3  OXE d   1      -1.147   0.133   1.751  0.00  0.00     0.003 A 
ATOM      6  C4  OXE d   1      -2.485  -0.266   1.855  0.00  0.00    -0.002 A 
ATOM      7  C5  OXE d   1      -2.841  -1.609   1.687  0.00  0.00    -0.002 A 
ATOM      8  C6  OXE d   1      -1.852  -2.546   1.410  0.00  0.00     0.003 A 
ENDROOT
TORSDOF 0
ENDMDL
