MODEL 1
REMARK minimizedAffinity -4.7203269
REMARK minimizedRMSD -1
REMARK  0 active torsions:
REMARK  status: ('A' for Active; 'I' for Inactive)
ROOT
ATOM      1  C2' OXE d   1      -1.898  -1.926   0.583  0.00  0.00     0.078 C 
ATOM      2  C1' OXE d   1       0.822  -2.423   1.068  0.00  0.00     0.078 C 
ATOM      3  C1  OXE d   1       0.449  -1.102   0.442  0.00  0.00    -0.078 A 
ATOM      4  C2  OXE d   1      -0.880  -0.887   0.165  0.00  0.00    -0.078 A 
ATOM      5  C3  OXE d   1      -1.285   0.336  -0.361  0.00  0.00     0.003 A 
ATOM      6  C4  OXE d   1      -0.336   1.288  -0.754  0.00  0.00    -0.002 A 
ATOM      7  C5  OXE d   1       1.026   1.072  -0.517  0.00  0.00    -0.002 A 
ATOM      8  C6  OXE d   1       1.430  -0.097   0.117  0.00  0.00     0.003 A 
ENDROOT
TORSDOF 0
ENDMDL
