MODEL 1
REMARK minimizedAffinity -1.0232352
REMARK minimizedRMSD -1
REMARK  0 active torsions:
REMARK  status: ('A' for Active; 'I' for Inactive)
ROOT
ATOM      1  C2' OXE d   1       0.535   0.571  -0.187  0.00  0.00     0.078 C 
ATOM      2  C1' OXE d   1      -1.607   1.819   1.130  0.00  0.00     0.078 C 
ATOM      3  C1  OXE d   1      -1.276   0.398   1.515  0.00  0.00    -0.078 A 
ATOM      4  C2  OXE d   1      -0.256  -0.220   0.832  0.00  0.00    -0.078 A 
ATOM      5  C3  OXE d   1       0.126  -1.511   1.185  0.00  0.00     0.003 A 
ATOM      6  C4  OXE d   1      -0.617  -2.240   2.121  0.00  0.00    -0.002 A 
ATOM      7  C5  OXE d   1      -1.685  -1.642   2.800  0.00  0.00    -0.002 A 
ATOM      8  C6  OXE d   1      -1.999  -0.313   2.540  0.00  0.00     0.003 A 
ENDROOT
TORSDOF 0
ENDMDL
