MODEL 1
REMARK minimizedAffinity 1.68361151
REMARK minimizedRMSD -1
REMARK  0 active torsions:
REMARK  status: ('A' for Active; 'I' for Inactive)
ROOT
ATOM      1  C   UNL d   1       1.049  -1.368   1.560  0.00  0.00     0.124 A 
ATOM      2  C1  UNL d   1       1.796  -1.114   0.418  0.00  0.00     0.062 A 
ATOM      3  C2  UNL d   1       1.331  -0.215  -0.537  0.00  0.00     0.162 A 
ATOM      4  C3  UNL d   1       0.112   0.438  -0.354  0.00  0.00    -0.034 A 
ATOM      5  C4  UNL d   1      -0.634   0.176   0.796  0.00  0.00     0.162 A 
ATOM      6  C5  UNL d   1      -0.165  -0.723   1.748  0.00  0.00     0.062 A 
ATOM      7  F   UNL d   1      -0.888  -0.967   2.851  0.00  0.00    -0.097 F 
ATOM      8  F1  UNL d   1      -1.810   0.787   1.004  0.00  0.00    -0.096 F 
ATOM      9  I   UNL d   1      -0.588   1.782  -1.780  0.00  0.00    -0.060 I 
ATOM     10  F2  UNL d   1       2.073   0.011  -1.631  0.00  0.00    -0.096 F 
ATOM     11  F3  UNL d   1       2.969  -1.737   0.233  0.00  0.00    -0.097 F 
ATOM     12  F4  UNL d   1       1.499  -2.234   2.477  0.00  0.00    -0.092 F 
ENDROOT
TORSDOF 0
ENDMDL
