MODEL 1
REMARK minimizedAffinity 0.529008389
REMARK minimizedRMSD -1
REMARK  0 active torsions:
REMARK  status: ('A' for Active; 'I' for Inactive)
ROOT
ATOM      1  C   UNL d   1       1.832  -1.645   0.446  0.00  0.00     0.124 A 
ATOM      2  C1  UNL d   1       0.576  -2.067   0.859  0.00  0.00     0.062 A 
ATOM      3  C2  UNL d   1      -0.519  -1.215   0.749  0.00  0.00     0.162 A 
ATOM      4  C3  UNL d   1      -0.364   0.068   0.223  0.00  0.00    -0.034 A 
ATOM      5  C4  UNL d   1       0.903   0.485  -0.189  0.00  0.00     0.162 A 
ATOM      6  C5  UNL d   1       1.995  -0.370  -0.077  0.00  0.00     0.062 A 
ATOM      7  F   UNL d   1       3.208   0.039  -0.476  0.00  0.00    -0.097 F 
ATOM      8  F1  UNL d   1       1.089   1.712  -0.699  0.00  0.00    -0.096 F 
ATOM      9  I   UNL d   1      -1.999   1.344   0.057  0.00  0.00    -0.060 I 
ATOM     10  F2  UNL d   1      -1.722  -1.649   1.155  0.00  0.00    -0.096 F 
ATOM     11  F3  UNL d   1       0.416  -3.298   1.366  0.00  0.00    -0.097 F 
ATOM     12  F4  UNL d   1       2.885  -2.466   0.554  0.00  0.00    -0.092 F 
ENDROOT
TORSDOF 0
ENDMDL
