MODEL 1
REMARK minimizedAffinity -0.857480407
REMARK minimizedRMSD -1
REMARK  0 active torsions:
REMARK  status: ('A' for Active; 'I' for Inactive)
ROOT
ATOM      1  C   UNL d   1       0.826  -0.986   1.270  0.00  0.00     0.124 A 
ATOM      2  C1  UNL d   1      -0.487  -0.552   1.380  0.00  0.00     0.062 A 
ATOM      3  C2  UNL d   1      -1.029   0.293   0.415  0.00  0.00     0.162 A 
ATOM      4  C3  UNL d   1      -0.256   0.708  -0.670  0.00  0.00    -0.034 A 
ATOM      5  C4  UNL d   1       1.064   0.267  -0.774  0.00  0.00     0.162 A 
ATOM      6  C5  UNL d   1       1.601  -0.576   0.194  0.00  0.00     0.062 A 
ATOM      7  F   UNL d   1       2.870  -0.995   0.086  0.00  0.00    -0.097 F 
ATOM      8  F1  UNL d   1       1.835   0.647  -1.804  0.00  0.00    -0.096 F 
ATOM      9  I   UNL d   1      -1.062   1.970  -2.116  0.00  0.00    -0.060 I 
ATOM     10  F2  UNL d   1      -2.301   0.697   0.546  0.00  0.00    -0.096 F 
ATOM     11  F3  UNL d   1      -1.237  -0.945   2.419  0.00  0.00    -0.097 F 
ATOM     12  F4  UNL d   1       1.345  -1.797   2.200  0.00  0.00    -0.092 F 
ENDROOT
TORSDOF 0
ENDMDL
