MODEL 1
REMARK minimizedAffinity -3.75838971
REMARK minimizedRMSD -1
REMARK  0 active torsions:
REMARK  status: ('A' for Active; 'I' for Inactive)
ROOT
ATOM      1  C   UNL d   1      -1.921   1.136  -0.702  0.00  0.00     0.124 A 
ATOM      2  C1  UNL d   1      -1.787   0.768   0.630  0.00  0.00     0.062 A 
ATOM      3  C2  UNL d   1      -0.746  -0.068   1.023  0.00  0.00     0.162 A 
ATOM      4  C3  UNL d   1       0.170  -0.542   0.083  0.00  0.00    -0.034 A 
ATOM      5  C4  UNL d   1       0.027  -0.169  -1.254  0.00  0.00     0.162 A 
ATOM      6  C5  UNL d   1      -1.015   0.667  -1.642  0.00  0.00     0.062 A 
ATOM      7  F   UNL d   1      -1.143   1.021  -2.929  0.00  0.00    -0.097 F 
ATOM      8  F1  UNL d   1       0.890  -0.606  -2.184  0.00  0.00    -0.096 F 
ATOM      9  I   UNL d   1       1.728  -1.793   0.667  0.00  0.00    -0.060 I 
ATOM     10  F2  UNL d   1      -0.640  -0.408   2.316  0.00  0.00    -0.096 F 
ATOM     11  F3  UNL d   1      -2.662   1.218   1.540  0.00  0.00    -0.097 F 
ATOM     12  F4  UNL d   1      -2.924   1.939  -1.078  0.00  0.00    -0.092 F 
ENDROOT
TORSDOF 0
ENDMDL
