MODEL 1
REMARK minimizedAffinity -3.62669635
REMARK minimizedRMSD -1
REMARK  0 active torsions:
REMARK  status: ('A' for Active; 'I' for Inactive)
ROOT
ATOM      1  C   UNL d   1       0.927  -1.299   1.310  0.00  0.00     0.124 A 
ATOM      2  C1  UNL d   1       1.189  -1.314  -0.053  0.00  0.00     0.062 A 
ATOM      3  C2  UNL d   1       0.338  -0.657  -0.936  0.00  0.00     0.162 A 
ATOM      4  C3  UNL d   1      -0.784   0.021  -0.460  0.00  0.00    -0.034 A 
ATOM      5  C4  UNL d   1      -1.041   0.031   0.912  0.00  0.00     0.162 A 
ATOM      6  C5  UNL d   1      -0.187  -0.627   1.791  0.00  0.00     0.062 A 
ATOM      7  F   UNL d   1      -0.442  -0.611   3.108  0.00  0.00    -0.097 F 
ATOM      8  F1  UNL d   1      -2.111   0.674   1.404  0.00  0.00    -0.096 F 
ATOM      9  I   UNL d   1      -2.059   1.004  -1.778  0.00  0.00    -0.060 I 
ATOM     10  F2  UNL d   1       0.616  -0.688  -2.248  0.00  0.00    -0.096 F 
ATOM     11  F3  UNL d   1       2.265  -1.964  -0.520  0.00  0.00    -0.097 F 
ATOM     12  F4  UNL d   1       1.748  -1.933   2.158  0.00  0.00    -0.092 F 
ENDROOT
TORSDOF 0
ENDMDL
