MODEL 1
REMARK minimizedAffinity -3.88030148
REMARK minimizedRMSD -1
REMARK  0 active torsions:
REMARK  status: ('A' for Active; 'I' for Inactive)
ROOT
ATOM      1  C   UNL d   1       0.894  -1.307   1.379  0.00  0.00     0.124 A 
ATOM      2  C1  UNL d   1      -0.469  -1.055   1.327  0.00  0.00     0.062 A 
ATOM      3  C2  UNL d   1      -1.025  -0.434   0.212  0.00  0.00     0.162 A 
ATOM      4  C3  UNL d   1      -0.216  -0.062  -0.862  0.00  0.00    -0.034 A 
ATOM      5  C4  UNL d   1       1.155  -0.319  -0.802  0.00  0.00     0.162 A 
ATOM      6  C5  UNL d   1       1.705  -0.939   0.314  0.00  0.00     0.062 A 
ATOM      7  F   UNL d   1       3.023  -1.182   0.362  0.00  0.00    -0.097 F 
ATOM      8  F1  UNL d   1       1.961   0.026  -1.817  0.00  0.00    -0.096 F 
ATOM      9  I   UNL d   1      -1.043   0.866  -2.531  0.00  0.00    -0.060 I 
ATOM     10  F2  UNL d   1      -2.346  -0.203   0.190  0.00  0.00    -0.096 F 
ATOM     11  F3  UNL d   1      -1.255  -1.409   2.355  0.00  0.00    -0.097 F 
ATOM     12  F4  UNL d   1       1.426  -1.903   2.454  0.00  0.00    -0.092 F 
ENDROOT
TORSDOF 0
ENDMDL
