MODEL 1
REMARK minimizedAffinity 2.52922893
REMARK minimizedRMSD -1
REMARK  0 active torsions:
REMARK  status: ('A' for Active; 'I' for Inactive)
ROOT
ATOM      1  C   UNL d   1       0.775  -0.304   0.559  0.00  0.00     0.124 A 
ATOM      2  C1  UNL d   1       1.219  -0.273  -0.756  0.00  0.00     0.062 A 
ATOM      3  C2  UNL d   1       0.340   0.059  -1.784  0.00  0.00     0.162 A 
ATOM      4  C3  UNL d   1      -0.991   0.364  -1.501  0.00  0.00    -0.034 A 
ATOM      5  C4  UNL d   1      -1.430   0.330  -0.176  0.00  0.00     0.162 A 
ATOM      6  C5  UNL d   1      -0.548  -0.002   0.848  0.00  0.00     0.062 A 
ATOM      7  F   UNL d   1      -0.979  -0.031   2.117  0.00  0.00    -0.097 F 
ATOM      8  F1  UNL d   1      -2.704   0.618   0.132  0.00  0.00    -0.096 F 
ATOM      9  I   UNL d   1      -2.307   0.861  -3.034  0.00  0.00    -0.060 I 
ATOM     10  F2  UNL d   1       0.797   0.081  -3.045  0.00  0.00    -0.096 F 
ATOM     11  F3  UNL d   1       2.497  -0.564  -1.038  0.00  0.00    -0.097 F 
ATOM     12  F4  UNL d   1       1.622  -0.624   1.545  0.00  0.00    -0.092 F 
ENDROOT
TORSDOF 0
ENDMDL
