MODEL 1
REMARK minimizedAffinity -4.86719465
REMARK minimizedRMSD -1
REMARK  0 active torsions:
REMARK  status: ('A' for Active; 'I' for Inactive)
ROOT
ATOM      1  C   UNL d   1      -2.452   1.720  -1.700  0.00  0.00     0.124 A 
ATOM      2  C1  UNL d   1      -1.085   1.918  -1.839  0.00  0.00     0.062 A 
ATOM      3  C2  UNL d   1      -0.186   1.012  -1.285  0.00  0.00     0.162 A 
ATOM      4  C3  UNL d   1      -0.650  -0.103  -0.588  0.00  0.00    -0.034 A 
ATOM      5  C4  UNL d   1      -2.026  -0.296  -0.451  0.00  0.00     0.162 A 
ATOM      6  C5  UNL d   1      -2.921   0.613  -1.006  0.00  0.00     0.062 A 
ATOM      7  F   UNL d   1      -4.241   0.419  -0.871  0.00  0.00    -0.097 F 
ATOM      8  F1  UNL d   1      -2.507  -1.358   0.213  0.00  0.00    -0.096 F 
ATOM      9  I   UNL d   1       0.691  -1.462   0.242  0.00  0.00    -0.060 I 
ATOM     10  F2  UNL d   1       1.129   1.229  -1.435  0.00  0.00    -0.096 F 
ATOM     11  F3  UNL d   1      -0.629   2.987  -2.508  0.00  0.00    -0.097 F 
ATOM     12  F4  UNL d   1      -3.315   2.594  -2.233  0.00  0.00    -0.092 F 
ENDROOT
TORSDOF 0
ENDMDL
