MODEL 1
REMARK minimizedAffinity -1.19432724
REMARK minimizedRMSD -1
REMARK  0 active torsions:
REMARK  status: ('A' for Active; 'I' for Inactive)
ROOT
ATOM      1  C   UNL d   1       2.180  -1.246   1.234  0.00  0.00     0.124 A 
ATOM      2  C1  UNL d   1       1.336  -1.833   2.167  0.00  0.00     0.062 A 
ATOM      3  C2  UNL d   1       0.004  -1.439   2.251  0.00  0.00     0.162 A 
ATOM      4  C3  UNL d   1      -0.494  -0.453   1.400  0.00  0.00    -0.034 A 
ATOM      5  C4  UNL d   1       0.361   0.134   0.465  0.00  0.00     0.162 A 
ATOM      6  C5  UNL d   1       1.692  -0.263   0.384  0.00  0.00     0.062 A 
ATOM      7  F   UNL d   1       2.505   0.306  -0.517  0.00  0.00    -0.097 F 
ATOM      8  F1  UNL d   1      -0.085   1.085  -0.369  0.00  0.00    -0.096 F 
ATOM      9  I   UNL d   1      -2.485   0.139   1.524  0.00  0.00    -0.060 I 
ATOM     10  F2  UNL d   1      -0.788  -2.024   3.162  0.00  0.00    -0.096 F 
ATOM     11  F3  UNL d   1       1.806  -2.782   2.989  0.00  0.00    -0.097 F 
ATOM     12  F4  UNL d   1       3.462  -1.626   1.155  0.00  0.00    -0.092 F 
ENDROOT
TORSDOF 0
ENDMDL
