MODEL 1
REMARK minimizedAffinity 11.9574728
REMARK minimizedRMSD -1
REMARK  0 active torsions:
REMARK  status: ('A' for Active; 'I' for Inactive)
ROOT
ATOM      1  C   UNL d   1      -3.929   0.753  -3.479  0.00  0.00     0.124 A 
ATOM      2  C1  UNL d   1      -2.607   1.016  -3.147  0.00  0.00     0.062 A 
ATOM      3  C2  UNL d   1      -2.077   0.535  -1.954  0.00  0.00     0.162 A 
ATOM      4  C3  UNL d   1      -2.868  -0.214  -1.083  0.00  0.00    -0.034 A 
ATOM      5  C4  UNL d   1      -4.197  -0.474  -1.423  0.00  0.00     0.162 A 
ATOM      6  C5  UNL d   1      -4.722   0.009  -2.617  0.00  0.00     0.062 A 
ATOM      7  F   UNL d   1      -6.000  -0.246  -2.936  0.00  0.00    -0.097 F 
ATOM      8  F1  UNL d   1      -4.985  -1.191  -0.609  0.00  0.00    -0.096 F 
ATOM      9  I   UNL d   1      -2.078  -0.935   0.703  0.00  0.00    -0.060 I 
ATOM     10  F2  UNL d   1      -0.796   0.804  -1.658  0.00  0.00    -0.096 F 
ATOM     11  F3  UNL d   1      -1.839   1.736  -3.978  0.00  0.00    -0.097 F 
ATOM     12  F4  UNL d   1      -4.438   1.218  -4.628  0.00  0.00    -0.092 F 
ENDROOT
TORSDOF 0
ENDMDL
