MODEL 1
REMARK minimizedAffinity 12.2781363
REMARK minimizedRMSD -1
REMARK  0 active torsions:
REMARK  status: ('A' for Active; 'I' for Inactive)
ROOT
ATOM      1  C   UNL d   1      -0.650  -0.297   0.464  0.00  0.00     0.124 A 
ATOM      2  C1  UNL d   1      -1.919  -0.439   1.007  0.00  0.00     0.062 A 
ATOM      3  C2  UNL d   1      -2.617  -1.634   0.853  0.00  0.00     0.162 A 
ATOM      4  C3  UNL d   1      -2.046  -2.697   0.153  0.00  0.00    -0.034 A 
ATOM      5  C4  UNL d   1      -0.770  -2.546  -0.392  0.00  0.00     0.162 A 
ATOM      6  C5  UNL d   1      -0.077  -1.350  -0.235  0.00  0.00     0.062 A 
ATOM      7  F   UNL d   1       1.149  -1.214  -0.761  0.00  0.00    -0.097 F 
ATOM      8  F1  UNL d   1      -0.191  -3.547  -1.071  0.00  0.00    -0.096 F 
ATOM      9  I   UNL d   1      -3.086  -4.485  -0.080  0.00  0.00    -0.060 I 
ATOM     10  F2  UNL d   1      -3.842  -1.744   1.389  0.00  0.00    -0.096 F 
ATOM     11  F3  UNL d   1      -2.476   0.577   1.682  0.00  0.00    -0.097 F 
ATOM     12  F4  UNL d   1       0.018   0.854   0.613  0.00  0.00    -0.092 F 
ENDROOT
TORSDOF 0
ENDMDL
