MODEL 1
REMARK minimizedAffinity 11.9255905
REMARK minimizedRMSD -1
REMARK  0 active torsions:
REMARK  status: ('A' for Active; 'I' for Inactive)
ROOT
ATOM      1  C   UNL d   1       3.295  -1.183   2.130  0.00  0.00     0.124 A 
ATOM      2  C1  UNL d   1       2.409  -1.347   3.186  0.00  0.00     0.062 A 
ATOM      3  C2  UNL d   1       1.037  -1.363   2.952  0.00  0.00     0.162 A 
ATOM      4  C3  UNL d   1       0.542  -1.216   1.656  0.00  0.00    -0.034 A 
ATOM      5  C4  UNL d   1       1.440  -1.050   0.600  0.00  0.00     0.162 A 
ATOM      6  C5  UNL d   1       2.810  -1.035   0.839  0.00  0.00     0.062 A 
ATOM      7  F   UNL d   1       3.665  -0.876  -0.183  0.00  0.00    -0.097 F 
ATOM      8  F1  UNL d   1       0.998  -0.906  -0.659  0.00  0.00    -0.096 F 
ATOM      9  I   UNL d   1      -1.508  -1.240   1.302  0.00  0.00    -0.060 I 
ATOM     10  F2  UNL d   1       0.204  -1.523   3.991  0.00  0.00    -0.096 F 
ATOM     11  F3  UNL d   1       2.876  -1.489   4.435  0.00  0.00    -0.097 F 
ATOM     12  F4  UNL d   1       4.615  -1.166   2.358  0.00  0.00    -0.092 F 
ENDROOT
TORSDOF 0
ENDMDL
