MODEL 1
REMARK minimizedAffinity 9.85865974
REMARK minimizedRMSD -1
REMARK  0 active torsions:
REMARK  status: ('A' for Active; 'I' for Inactive)
ROOT
ATOM      1  C   UNL d   1      -2.586  -1.867   1.264  0.00  0.00     0.124 A 
ATOM      2  C1  UNL d   1      -2.256  -0.537   1.485  0.00  0.00     0.062 A 
ATOM      3  C2  UNL d   1      -1.073  -0.014   0.969  0.00  0.00     0.162 A 
ATOM      4  C3  UNL d   1      -0.212  -0.822   0.226  0.00  0.00    -0.034 A 
ATOM      5  C4  UNL d   1      -0.551  -2.158   0.009  0.00  0.00     0.162 A 
ATOM      6  C5  UNL d   1      -1.734  -2.676   0.526  0.00  0.00     0.062 A 
ATOM      7  F   UNL d   1      -2.051  -3.961   0.311  0.00  0.00    -0.097 F 
ATOM      8  F1  UNL d   1       0.254  -2.962  -0.702  0.00  0.00    -0.096 F 
ATOM      9  I   UNL d   1       1.557  -0.044  -0.547  0.00  0.00    -0.060 I 
ATOM     10  F2  UNL d   1      -0.780   1.274   1.199  0.00  0.00    -0.096 F 
ATOM     11  F3  UNL d   1      -3.077   0.247   2.198  0.00  0.00    -0.097 F 
ATOM     12  F4  UNL d   1      -3.724  -2.367   1.762  0.00  0.00    -0.092 F 
ENDROOT
TORSDOF 0
ENDMDL
