MODEL 1
REMARK minimizedAffinity 6.79848671
REMARK minimizedRMSD -1
REMARK  0 active torsions:
REMARK  status: ('A' for Active; 'I' for Inactive)
ROOT
ATOM      1  C   UNL d   1       1.507  -0.313  -0.149  0.00  0.00     0.124 A 
ATOM      2  C1  UNL d   1       0.308  -0.323   0.549  0.00  0.00     0.062 A 
ATOM      3  C2  UNL d   1       0.270  -0.760   1.870  0.00  0.00     0.162 A 
ATOM      4  C3  UNL d   1       1.437  -1.192   2.502  0.00  0.00    -0.034 A 
ATOM      5  C4  UNL d   1       2.639  -1.181   1.792  0.00  0.00     0.162 A 
ATOM      6  C5  UNL d   1       2.671  -0.742   0.472  0.00  0.00     0.062 A 
ATOM      7  F   UNL d   1       3.830  -0.734  -0.202  0.00  0.00    -0.097 F 
ATOM      8  F1  UNL d   1       3.779  -1.589   2.368  0.00  0.00    -0.096 F 
ATOM      9  I   UNL d   1       1.386  -1.847   4.476  0.00  0.00    -0.060 I 
ATOM     10  F2  UNL d   1      -0.902  -0.758   2.521  0.00  0.00    -0.096 F 
ATOM     11  F3  UNL d   1      -0.819   0.091  -0.049  0.00  0.00    -0.097 F 
ATOM     12  F4  UNL d   1       1.539   0.107  -1.420  0.00  0.00    -0.092 F 
ENDROOT
TORSDOF 0
ENDMDL
