MODEL 1
REMARK minimizedAffinity -7.28524351
REMARK minimizedRMSD -1
REMARK  0 active torsions:
REMARK  status: ('A' for Active; 'I' for Inactive)
ROOT
ATOM      1  C   UNL d   1       0.489  -2.142   1.911  0.00  0.00     0.124 A 
ATOM      2  C1  UNL d   1      -0.373  -1.150   2.358  0.00  0.00     0.062 A 
ATOM      3  C2  UNL d   1      -1.049  -0.346   1.446  0.00  0.00     0.162 A 
ATOM      4  C3  UNL d   1      -0.867  -0.531   0.075  0.00  0.00    -0.034 A 
ATOM      5  C4  UNL d   1       0.002  -1.530  -0.368  0.00  0.00     0.162 A 
ATOM      6  C5  UNL d   1       0.675  -2.331   0.549  0.00  0.00     0.062 A 
ATOM      7  F   UNL d   1       1.507  -3.289   0.114  0.00  0.00    -0.097 F 
ATOM      8  F1  UNL d   1       0.200  -1.735  -1.678  0.00  0.00    -0.096 F 
ATOM      9  I   UNL d   1      -1.877   0.669  -1.293  0.00  0.00    -0.060 I 
ATOM     10  F2  UNL d   1      -1.876   0.604   1.907  0.00  0.00    -0.096 F 
ATOM     11  F3  UNL d   1      -0.554  -0.965   3.674  0.00  0.00    -0.097 F 
ATOM     12  F4  UNL d   1       1.139  -2.914   2.791  0.00  0.00    -0.092 F 
ENDROOT
TORSDOF 0
ENDMDL
