MODEL 1
REMARK minimizedAffinity 3.68604732
REMARK minimizedRMSD -1
REMARK  0 active torsions:
REMARK  status: ('A' for Active; 'I' for Inactive)
ROOT
ATOM      1  C   UNL d   1       1.161  -0.949   1.535  0.00  0.00     0.124 A 
ATOM      2  C1  UNL d   1      -0.143  -0.490   1.654  0.00  0.00     0.062 A 
ATOM      3  C2  UNL d   1      -0.591   0.560   0.856  0.00  0.00     0.162 A 
ATOM      4  C3  UNL d   1       0.266   1.157  -0.068  0.00  0.00    -0.034 A 
ATOM      5  C4  UNL d   1       1.577   0.690  -0.181  0.00  0.00     0.162 A 
ATOM      6  C5  UNL d   1       2.020  -0.359   0.618  0.00  0.00     0.062 A 
ATOM      7  F   UNL d   1       3.280  -0.802   0.502  0.00  0.00    -0.097 F 
ATOM      8  F1  UNL d   1       2.428   1.241  -1.059  0.00  0.00    -0.096 F 
ATOM      9  I   UNL d   1      -0.399   2.727  -1.261  0.00  0.00    -0.060 I 
ATOM     10  F2  UNL d   1      -1.856   0.983   0.993  0.00  0.00    -0.096 F 
ATOM     11  F3  UNL d   1      -0.975  -1.058   2.539  0.00  0.00    -0.097 F 
ATOM     12  F4  UNL d   1       1.589  -1.959   2.304  0.00  0.00    -0.092 F 
ENDROOT
TORSDOF 0
ENDMDL
