MODEL 1
REMARK minimizedAffinity 0.721458137
REMARK minimizedRMSD -1
REMARK  0 active torsions:
REMARK  status: ('A' for Active; 'I' for Inactive)
ROOT
ATOM      1  C   UNL d   1       0.186  -0.967   2.092  0.00  0.00     0.124 A 
ATOM      2  C1  UNL d   1      -1.112  -0.527   1.876  0.00  0.00     0.062 A 
ATOM      3  C2  UNL d   1      -1.412   0.249   0.760  0.00  0.00     0.162 A 
ATOM      4  C3  UNL d   1      -0.412   0.590  -0.150  0.00  0.00    -0.034 A 
ATOM      5  C4  UNL d   1       0.892   0.145   0.074  0.00  0.00     0.162 A 
ATOM      6  C5  UNL d   1       1.187  -0.631   1.191  0.00  0.00     0.062 A 
ATOM      7  F   UNL d   1       2.442  -1.055   1.397  0.00  0.00    -0.097 F 
ATOM      8  F1  UNL d   1       1.878   0.454  -0.781  0.00  0.00    -0.096 F 
ATOM      9  I   UNL d   1      -0.856   1.750  -1.819  0.00  0.00    -0.060 I 
ATOM     10  F2  UNL d   1      -2.676   0.660   0.577  0.00  0.00    -0.096 F 
ATOM     11  F3  UNL d   1      -2.081  -0.850   2.745  0.00  0.00    -0.097 F 
ATOM     12  F4  UNL d   1       0.473  -1.713   3.166  0.00  0.00    -0.092 F 
ENDROOT
TORSDOF 0
ENDMDL
