MODEL 1
REMARK minimizedAffinity 17.3828278
REMARK minimizedRMSD -1
REMARK  0 active torsions:
REMARK  status: ('A' for Active; 'I' for Inactive)
ROOT
ATOM      1  C1  DEN d   1      -5.365   4.372   1.910  0.00  0.00     0.130 A 
ATOM      2  C2  DEN d   1      -5.182   2.927   1.814  0.00  0.00    -0.031 A 
ATOM      3  C3  DEN d   1      -5.311   2.359   3.171  0.00  0.00     0.027 A 
ATOM      4  C4  DEN d   1      -5.779   3.572   5.399  0.00  0.00     0.027 A 
ATOM      5  C5  DEN d   1      -5.996   4.799   5.985  0.00  0.00    -0.003 A 
ATOM      6  C6  DEN d   1      -5.984   5.964   5.265  0.00  0.00     0.001 A 
ATOM      7  C7  DEN d   1      -5.795   5.922   3.909  0.00  0.00     0.017 A 
ATOM      8  C8  DEN d   1      -5.568   4.689   3.312  0.00  0.00    -0.094 A 
ATOM      9  C9  DEN d   1      -5.596   3.521   4.056  0.00  0.00    -0.072 A 
ENDROOT
TORSDOF 0
ENDMDL
