MODEL 1
REMARK minimizedAffinity 14.2492561
REMARK minimizedRMSD -1
REMARK  0 active torsions:
REMARK  status: ('A' for Active; 'I' for Inactive)
ROOT
ATOM      1  C1  DEN d   1       5.354   0.615  -0.252  0.00  0.00     0.130 A 
ATOM      2  C2  DEN d   1       5.583   2.035  -0.507  0.00  0.00    -0.031 A 
ATOM      3  C3  DEN d   1       4.274   2.718  -0.490  0.00  0.00     0.027 A 
ATOM      4  C4  DEN d   1       1.929   1.722  -0.092  0.00  0.00     0.027 A 
ATOM      5  C5  DEN d   1       1.229   0.562   0.155  0.00  0.00    -0.003 A 
ATOM      6  C6  DEN d   1       1.846  -0.657   0.250  0.00  0.00     0.001 A 
ATOM      7  C7  DEN d   1       3.210  -0.737   0.141  0.00  0.00     0.017 A 
ATOM      8  C8  DEN d   1       3.921   0.427  -0.116  0.00  0.00    -0.094 A 
ATOM      9  C9  DEN d   1       3.280   1.652  -0.196  0.00  0.00    -0.072 A 
ENDROOT
TORSDOF 0
ENDMDL
