MODEL 1
REMARK minimizedAffinity 10.155549
REMARK minimizedRMSD -1
REMARK  0 active torsions:
REMARK  status: ('A' for Active; 'I' for Inactive)
ROOT
ATOM      1  C1  DEN d   1       5.704   0.325  -0.022  0.00  0.00     0.130 A 
ATOM      2  C2  DEN d   1       5.999   1.753  -0.105  0.00  0.00    -0.031 A 
ATOM      3  C3  DEN d   1       4.717   2.481  -0.172  0.00  0.00     0.027 A 
ATOM      4  C4  DEN d   1       2.315   1.542  -0.153  0.00  0.00     0.027 A 
ATOM      5  C5  DEN d   1       1.560   0.391  -0.107  0.00  0.00    -0.003 A 
ATOM      6  C6  DEN d   1       2.129  -0.854  -0.064  0.00  0.00     0.001 A 
ATOM      7  C7  DEN d   1       3.493  -0.976  -0.021  0.00  0.00     0.017 A 
ATOM      8  C8  DEN d   1       4.261   0.180  -0.074  0.00  0.00    -0.094 A 
ATOM      9  C9  DEN d   1       3.666   1.430  -0.105  0.00  0.00    -0.072 A 
ENDROOT
TORSDOF 0
ENDMDL
