MODEL 1
REMARK minimizedAffinity -3.39243984
REMARK minimizedRMSD -1
REMARK  0 active torsions:
REMARK  status: ('A' for Active; 'I' for Inactive)
ROOT
ATOM      1  C1  DEN d   1      -5.734   5.974   1.615  0.00  0.00     0.130 A 
ATOM      2  C2  DEN d   1      -4.560   5.997   0.747  0.00  0.00    -0.031 A 
ATOM      3  C3  DEN d   1      -3.358   6.000   1.604  0.00  0.00     0.027 A 
ATOM      4  C4  DEN d   1      -3.202   5.967   4.179  0.00  0.00     0.027 A 
ATOM      5  C5  DEN d   1      -3.930   5.957   5.347  0.00  0.00    -0.003 A 
ATOM      6  C6  DEN d   1      -5.300   5.986   5.355  0.00  0.00     0.001 A 
ATOM      7  C7  DEN d   1      -5.985   5.981   4.168  0.00  0.00     0.017 A 
ATOM      8  C8  DEN d   1      -5.257   5.999   2.986  0.00  0.00    -0.094 A 
ATOM      9  C9  DEN d   1      -3.873   5.957   2.999  0.00  0.00    -0.072 A 
ENDROOT
TORSDOF 0
ENDMDL
