MODEL 1
REMARK minimizedAffinity 1.72462153
REMARK minimizedRMSD -1
REMARK  0 active torsions:
REMARK  status: ('A' for Active; 'I' for Inactive)
ROOT
ATOM      1  C1  DEN d   1      -2.388   5.834   2.564  0.00  0.00     0.130 A 
ATOM      2  C2  DEN d   1      -2.878   5.638   1.202  0.00  0.00    -0.031 A 
ATOM      3  C3  DEN d   1      -4.352   5.556   1.255  0.00  0.00     0.027 A 
ATOM      4  C4  DEN d   1      -5.914   5.717   3.301  0.00  0.00     0.027 A 
ATOM      5  C5  DEN d   1      -5.959   5.871   4.669  0.00  0.00    -0.003 A 
ATOM      6  C6  DEN d   1      -4.825   5.988   5.429  0.00  0.00     0.001 A 
ATOM      7  C7  DEN d   1      -3.598   5.999   4.820  0.00  0.00     0.017 A 
ATOM      8  C8  DEN d   1      -3.544   5.837   3.442  0.00  0.00    -0.094 A 
ATOM      9  C9  DEN d   1      -4.702   5.732   2.690  0.00  0.00    -0.072 A 
ENDROOT
TORSDOF 0
ENDMDL
