MODEL 1
REMARK minimizedAffinity 2.89712262
REMARK minimizedRMSD -1
REMARK  0 active torsions:
REMARK  status: ('A' for Active; 'I' for Inactive)
ROOT
ATOM      1  C1  DEN d   1       1.385  -1.218   4.592  0.00  0.00     0.130 A 
ATOM      2  C2  DEN d   1       0.406  -0.196   4.954  0.00  0.00    -0.031 A 
ATOM      3  C3  DEN d   1      -0.754  -0.872   5.568  0.00  0.00     0.027 A 
ATOM      4  C4  DEN d   1      -1.125  -3.388   5.997  0.00  0.00     0.027 A 
ATOM      5  C5  DEN d   1      -0.580  -4.645   5.851  0.00  0.00    -0.003 A 
ATOM      6  C6  DEN d   1       0.634  -4.848   5.249  0.00  0.00     0.001 A 
ATOM      7  C7  DEN d   1       1.363  -3.774   4.812  0.00  0.00     0.017 A 
ATOM      8  C8  DEN d   1       0.816  -2.505   4.949  0.00  0.00    -0.094 A 
ATOM      9  C9  DEN d   1      -0.407  -2.319   5.571  0.00  0.00    -0.072 A 
ENDROOT
TORSDOF 0
ENDMDL
