MODEL 1
REMARK minimizedAffinity 0.470063895
REMARK minimizedRMSD -1
REMARK  0 active torsions:
REMARK  status: ('A' for Active; 'I' for Inactive)
ROOT
ATOM      1  C1  DEN d   1       1.459  -1.455   5.062  0.00  0.00     0.130 A 
ATOM      2  C2  DEN d   1       0.638  -0.678   4.137  0.00  0.00    -0.031 A 
ATOM      3  C3  DEN d   1      -0.526  -1.503   3.757  0.00  0.00     0.027 A 
ATOM      4  C4  DEN d   1      -1.137  -3.893   4.510  0.00  0.00     0.027 A 
ATOM      5  C5  DEN d   1      -0.739  -4.964   5.280  0.00  0.00    -0.003 A 
ATOM      6  C6  DEN d   1       0.427  -4.953   5.998  0.00  0.00     0.001 A 
ATOM      7  C7  DEN d   1       1.215  -3.831   5.998  0.00  0.00     0.017 A 
ATOM      8  C8  DEN d   1       0.824  -2.751   5.218  0.00  0.00    -0.094 A 
ATOM      9  C9  DEN d   1      -0.365  -2.777   4.508  0.00  0.00    -0.072 A 
ENDROOT
TORSDOF 0
ENDMDL
