MODEL 1
REMARK minimizedAffinity 11.0509605
REMARK minimizedRMSD -1
REMARK  0 active torsions:
REMARK  status: ('A' for Active; 'I' for Inactive)
ROOT
ATOM      1  C1  DEN d   1      -3.351   5.867   0.821  0.00  0.00     0.130 A 
ATOM      2  C2  DEN d   1      -4.484   5.801  -0.098  0.00  0.00    -0.031 A 
ATOM      3  C3  DEN d   1      -5.724   5.816   0.703  0.00  0.00     0.027 A 
ATOM      4  C4  DEN d   1      -5.999   5.939   3.265  0.00  0.00     0.027 A 
ATOM      5  C5  DEN d   1      -5.325   5.998   4.465  0.00  0.00    -0.003 A 
ATOM      6  C6  DEN d   1      -3.957   5.984   4.535  0.00  0.00     0.001 A 
ATOM      7  C7  DEN d   1      -3.218   5.954   3.382  0.00  0.00     0.017 A 
ATOM      8  C8  DEN d   1      -3.891   5.886   2.169  0.00  0.00    -0.094 A 
ATOM      9  C9  DEN d   1      -5.274   5.914   2.118  0.00  0.00    -0.072 A 
ENDROOT
TORSDOF 0
ENDMDL
