MODEL 1
REMARK minimizedAffinity 8.59375858
REMARK minimizedRMSD -1
REMARK  0 active torsions:
REMARK  status: ('A' for Active; 'I' for Inactive)
ROOT
ATOM      1  C1  DEN d   1      -5.380   5.983   3.933  0.00  0.00     0.130 A 
ATOM      2  C2  DEN d   1      -4.092   5.999   4.621  0.00  0.00    -0.031 A 
ATOM      3  C3  DEN d   1      -3.028   5.973   3.599  0.00  0.00     0.027 A 
ATOM      4  C4  DEN d   1      -3.247   5.916   1.029  0.00  0.00     0.027 A 
ATOM      5  C5  DEN d   1      -4.138   5.880  -0.021  0.00  0.00    -0.003 A 
ATOM      6  C6  DEN d   1      -5.493   5.841   0.173  0.00  0.00     0.001 A 
ATOM      7  C7  DEN d   1      -5.999   5.884   1.445  0.00  0.00     0.017 A 
ATOM      8  C8  DEN d   1      -5.107   5.913   2.509  0.00  0.00    -0.094 A 
ATOM      9  C9  DEN d   1      -3.740   5.963   2.293  0.00  0.00    -0.072 A 
ENDROOT
TORSDOF 0
ENDMDL
