MODEL 1
REMARK minimizedAffinity 0.995314002
REMARK minimizedRMSD -1
REMARK  3 active torsions:
REMARK  status: ('A' for Active; 'I' for Inactive)
REMARK    1  A    between atoms: C3'_2  and  C2'_3 
REMARK    2  A    between atoms: C2'_3  and  C1'_4 
REMARK    3  A    between atoms: C1'_4  and  C1_5 
ROOT
ATOM      1  C1  N4B d   1       3.974   3.723   4.114  0.00  0.00    -0.075 A 
ATOM      2  C2  N4B d   1       3.382   4.337   5.240  0.00  0.00     0.002 A 
ATOM      3  C3  N4B d   1       4.107   5.223   5.999  0.00  0.00     0.002 A 
ATOM      4  C4  N4B d   1       5.425   5.494   5.666  0.00  0.00    -0.004 A 
ATOM      5  C5  N4B d   1       5.982   4.916   4.562  0.00  0.00     0.002 A 
ATOM      6  C6  N4B d   1       5.264   4.027   3.787  0.00  0.00     0.002 A 
ENDROOT
BRANCH   1   7
ATOM      7  C1' N4B d   1       3.249   2.684   3.304  0.00  0.00     0.057 C 
BRANCH   7   8
ATOM      8  C2' N4B d   1       2.030   2.201   4.083  0.00  0.00     0.009 C 
BRANCH   8   9
ATOM      9  C3' N4B d   1       0.778   2.176   3.222  0.00  0.00     0.004 C 
ATOM     10  C4' N4B d   1      -0.483   2.158   4.032  0.00  0.00     0.003 C 
ENDBRANCH   8   9
ENDBRANCH   7   8
ENDBRANCH   1   7
TORSDOF 3
ENDMDL
