MODEL 1
REMARK minimizedAffinity 4.52974749
REMARK minimizedRMSD -1
REMARK  3 active torsions:
REMARK  status: ('A' for Active; 'I' for Inactive)
REMARK    1  A    between atoms: C3'_2  and  C2'_3 
REMARK    2  A    between atoms: C2'_3  and  C1'_4 
REMARK    3  A    between atoms: C1'_4  and  C1_5 
ROOT
ATOM      1  C1  N4B d   1      -0.341   1.587   1.476  0.00  0.00    -0.075 A 
ATOM      2  C2  N4B d   1       0.016   2.941   1.654  0.00  0.00     0.002 A 
ATOM      3  C3  N4B d   1       1.055   3.478   0.934  0.00  0.00     0.002 A 
ATOM      4  C4  N4B d   1       1.761   2.677   0.049  0.00  0.00    -0.004 A 
ATOM      5  C5  N4B d   1       1.394   1.377  -0.136  0.00  0.00     0.002 A 
ATOM      6  C6  N4B d   1       0.349   0.825   0.577  0.00  0.00     0.002 A 
ENDROOT
BRANCH   1   7
ATOM      7  C1' N4B d   1      -1.415   0.933   2.302  0.00  0.00     0.057 C 
BRANCH   7   8
ATOM      8  C2' N4B d   1      -2.745   1.634   2.040  0.00  0.00     0.009 C 
BRANCH   8   9
ATOM      9  C3' N4B d   1      -3.687   0.773   1.215  0.00  0.00     0.004 C 
ATOM     10  C4' N4B d   1      -5.110   1.243   1.281  0.00  0.00     0.003 C 
ENDBRANCH   8   9
ENDBRANCH   7   8
ENDBRANCH   1   7
TORSDOF 3
ENDMDL
