MODEL 1
REMARK minimizedAffinity -2.89653945
REMARK minimizedRMSD -1
REMARK  3 active torsions:
REMARK  status: ('A' for Active; 'I' for Inactive)
REMARK    1  A    between atoms: C3'_2  and  C2'_3 
REMARK    2  A    between atoms: C2'_3  and  C1'_4 
REMARK    3  A    between atoms: C1'_4  and  C1_5 
ROOT
ATOM      1  C1  N4B d   1       1.549  -1.160  -0.152  0.00  0.00    -0.075 A 
ATOM      2  C2  N4B d   1       1.893  -2.239   0.691  0.00  0.00     0.002 A 
ATOM      3  C3  N4B d   1       1.154  -3.396   0.662  0.00  0.00     0.002 A 
ATOM      4  C4  N4B d   1       0.060  -3.489  -0.185  0.00  0.00    -0.004 A 
ATOM      5  C5  N4B d   1      -0.251  -2.451  -1.015  0.00  0.00     0.002 A 
ATOM      6  C6  N4B d   1       0.486  -1.284  -0.999  0.00  0.00     0.002 A 
ENDROOT
BRANCH   1   7
ATOM      7  C1' N4B d   1       2.276   0.156  -0.093  0.00  0.00     0.057 C 
BRANCH   7   8
ATOM      8  C2' N4B d   1       1.477   1.131   0.767  0.00  0.00     0.009 C 
BRANCH   8   9
ATOM      9  C3' N4B d   1       0.709   2.135  -0.076  0.00  0.00     0.004 C 
ATOM     10  C4' N4B d   1      -0.387   2.816   0.688  0.00  0.00     0.003 C 
ENDBRANCH   8   9
ENDBRANCH   7   8
ENDBRANCH   1   7
TORSDOF 3
ENDMDL
