MODEL 1
REMARK minimizedAffinity -2.84325314
REMARK minimizedRMSD -1
REMARK  3 active torsions:
REMARK  status: ('A' for Active; 'I' for Inactive)
REMARK    1  A    between atoms: C3'_2  and  C2'_3 
REMARK    2  A    between atoms: C2'_3  and  C1'_4 
REMARK    3  A    between atoms: C1'_4  and  C1_5 
ROOT
ATOM      1  C1  N4B d   1       1.072   0.561  -0.127  0.00  0.00    -0.075 A 
ATOM      2  C2  N4B d   1       2.414   0.283  -0.466  0.00  0.00     0.002 A 
ATOM      3  C3  N4B d   1       2.797  -1.004  -0.754  0.00  0.00     0.002 A 
ATOM      4  C4  N4B d   1       1.863  -2.028  -0.692  0.00  0.00    -0.004 A 
ATOM      5  C5  N4B d   1       0.563  -1.747  -0.389  0.00  0.00     0.002 A 
ATOM      6  C6  N4B d   1       0.163  -0.457  -0.101  0.00  0.00     0.002 A 
ENDROOT
BRANCH   1   7
ATOM      7  C1' N4B d   1       0.624   1.938   0.280  0.00  0.00     0.057 C 
BRANCH   7   8
ATOM      8  C2' N4B d   1       0.647   2.043   1.802  0.00  0.00     0.009 C 
BRANCH   8   9
ATOM      9  C3' N4B d   1      -0.035   3.308   2.295  0.00  0.00     0.004 C 
ATOM     10  C4' N4B d   1       0.475   4.544   1.617  0.00  0.00     0.003 C 
ENDBRANCH   8   9
ENDBRANCH   7   8
ENDBRANCH   1   7
TORSDOF 3
ENDMDL
