MODEL 1
REMARK minimizedAffinity 11.0173788
REMARK minimizedRMSD -1
REMARK  0 active torsions:
REMARK  status: ('A' for Active; 'I' for Inactive)
ROOT
ATOM      1  N1  IND d   1      -5.789   2.128   4.124  0.00  0.00    -0.196 N 
ATOM      2  C2  IND d   1      -4.809   2.725   4.868  0.00  0.00     0.054 A 
ATOM      3  C3  IND d   1      -3.766   1.881   5.035  0.00  0.00    -0.031 A 
ATOM      4  C4  IND d   1      -3.411  -0.488   4.091  0.00  0.00     0.051 A 
ATOM      5  C5  IND d   1      -4.043  -1.472   3.384  0.00  0.00    -0.031 A 
ATOM      6  C6  IND d   1      -5.315  -1.302   2.876  0.00  0.00     0.015 A 
ATOM      7  C7  IND d   1      -6.000  -0.132   3.046  0.00  0.00    -0.016 A 
ATOM      8  C8  IND d   1      -5.363   0.867   3.769  0.00  0.00    -0.047 A 
ATOM      9  C9  IND d   1      -4.090   0.685   4.324  0.00  0.00    -0.096 A 
ATOM     10  HN1 IND d   1      -6.544   2.481   3.914  0.00  0.00     0.298 HD
ENDROOT
TORSDOF 0
ENDMDL
