MODEL 1
REMARK minimizedAffinity 15.6577606
REMARK minimizedRMSD -1
REMARK  0 active torsions:
REMARK  status: ('A' for Active; 'I' for Inactive)
ROOT
ATOM      1  N1  IND d   1       3.308  -3.049  -0.380  0.00  0.00    -0.196 N 
ATOM      2  C2  IND d   1       3.015  -1.795  -0.839  0.00  0.00     0.054 A 
ATOM      3  C3  IND d   1       2.227  -1.867  -1.935  0.00  0.00    -0.031 A 
ATOM      4  C4  IND d   1       1.215  -3.934  -3.088  0.00  0.00     0.051 A 
ATOM      5  C5  IND d   1       1.227  -5.300  -3.055  0.00  0.00    -0.031 A 
ATOM      6  C6  IND d   1       1.945  -6.000  -2.107  0.00  0.00     0.015 A 
ATOM      7  C7  IND d   1       2.673  -5.356  -1.146  0.00  0.00    -0.016 A 
ATOM      8  C8  IND d   1       2.669  -3.969  -1.182  0.00  0.00    -0.047 A 
ATOM      9  C9  IND d   1       1.976  -3.254  -2.167  0.00  0.00    -0.096 A 
ATOM     10  HN1 IND d   1       3.807  -3.232   0.296  0.00  0.00     0.298 HD
ENDROOT
TORSDOF 0
ENDMDL
