MODEL 1
REMARK minimizedAffinity 11.4016171
REMARK minimizedRMSD -1
REMARK  0 active torsions:
REMARK  status: ('A' for Active; 'I' for Inactive)
ROOT
ATOM      1  N1  IND d   1      -2.990  -1.363   3.237  0.00  0.00    -0.196 N 
ATOM      2  C2  IND d   1      -4.093  -0.556   3.251  0.00  0.00     0.054 A 
ATOM      3  C3  IND d   1      -3.731   0.738   3.109  0.00  0.00    -0.031 A 
ATOM      4  C4  IND d   1      -1.393   1.751   2.737  0.00  0.00     0.051 A 
ATOM      5  C5  IND d   1      -0.070   1.416   2.687  0.00  0.00    -0.031 A 
ATOM      6  C6  IND d   1       0.357   0.110   2.818  0.00  0.00     0.015 A 
ATOM      7  C7  IND d   1      -0.529  -0.915   2.993  0.00  0.00    -0.016 A 
ATOM      8  C8  IND d   1      -1.874  -0.577   3.051  0.00  0.00    -0.047 A 
ATOM      9  C9  IND d   1      -2.310   0.751   2.962  0.00  0.00    -0.096 A 
ATOM     10  HN1 IND d   1      -2.992  -2.218   3.329  0.00  0.00     0.298 HD
ENDROOT
TORSDOF 0
ENDMDL
