MODEL 1
REMARK minimizedAffinity 13.6117249
REMARK minimizedRMSD -1
REMARK  0 active torsions:
REMARK  status: ('A' for Active; 'I' for Inactive)
ROOT
ATOM      1  N1  IND d   1      -4.194  -3.382  -4.504  0.00  0.00    -0.196 N 
ATOM      2  C2  IND d   1      -3.952  -2.854  -5.742  0.00  0.00     0.054 A 
ATOM      3  C3  IND d   1      -2.624  -2.847  -5.999  0.00  0.00    -0.031 A 
ATOM      4  C4  IND d   1      -0.678  -3.747  -4.574  0.00  0.00     0.051 A 
ATOM      5  C5  IND d   1      -0.399  -4.288  -3.350  0.00  0.00    -0.031 A 
ATOM      6  C6  IND d   1      -1.391  -4.562  -2.431  0.00  0.00     0.015 A 
ATOM      7  C7  IND d   1      -2.706  -4.315  -2.707  0.00  0.00    -0.016 A 
ATOM      8  C8  IND d   1      -2.992  -3.760  -3.946  0.00  0.00    -0.047 A 
ATOM      9  C9  IND d   1      -1.986  -3.440  -4.867  0.00  0.00    -0.096 A 
ATOM     10  HN1 IND d   1      -4.967  -3.464  -4.137  0.00  0.00     0.298 HD
ENDROOT
TORSDOF 0
ENDMDL
