MODEL 1
REMARK minimizedAffinity 0.990088701
REMARK minimizedRMSD -1
REMARK  0 active torsions:
REMARK  status: ('A' for Active; 'I' for Inactive)
ROOT
ATOM      1  N1  IND d   1      -4.029  -3.560  -6.000  0.00  0.00    -0.196 N 
ATOM      2  C2  IND d   1      -5.283  -4.104  -5.999  0.00  0.00     0.054 A 
ATOM      3  C3  IND d   1      -5.423  -4.962  -4.964  0.00  0.00    -0.031 A 
ATOM      4  C4  IND d   1      -3.760  -5.548  -3.089  0.00  0.00     0.051 A 
ATOM      5  C5  IND d   1      -2.472  -5.332  -2.685  0.00  0.00    -0.031 A 
ATOM      6  C6  IND d   1      -1.622  -4.495  -3.377  0.00  0.00     0.015 A 
ATOM      7  C7  IND d   1      -2.032  -3.831  -4.499  0.00  0.00    -0.016 A 
ATOM      8  C8  IND d   1      -3.336  -4.054  -4.916  0.00  0.00    -0.047 A 
ATOM      9  C9  IND d   1      -4.191  -4.935  -4.242  0.00  0.00    -0.096 A 
ATOM     10  HN1 IND d   1      -3.724  -3.003  -6.580  0.00  0.00     0.298 HD
ENDROOT
TORSDOF 0
ENDMDL
