MODEL 1
REMARK minimizedAffinity 16.8551826
REMARK minimizedRMSD -1
REMARK  0 active torsions:
REMARK  status: ('A' for Active; 'I' for Inactive)
ROOT
ATOM      1  N1  IND d   1      -4.901  -3.792  -4.897  0.00  0.00    -0.196 N 
ATOM      2  C2  IND d   1      -4.645  -3.024  -5.998  0.00  0.00     0.054 A 
ATOM      3  C3  IND d   1      -3.355  -2.619  -5.999  0.00  0.00    -0.031 A 
ATOM      4  C4  IND d   1      -1.462  -3.184  -4.348  0.00  0.00     0.051 A 
ATOM      5  C5  IND d   1      -1.221  -3.821  -3.163  0.00  0.00    -0.031 A 
ATOM      6  C6  IND d   1      -2.213  -4.497  -2.484  0.00  0.00     0.015 A 
ATOM      7  C7  IND d   1      -3.487  -4.571  -2.971  0.00  0.00    -0.016 A 
ATOM      8  C8  IND d   1      -3.738  -3.919  -4.170  0.00  0.00    -0.047 A 
ATOM      9  C9  IND d   1      -2.745  -3.196  -4.843  0.00  0.00    -0.096 A 
ATOM     10  HN1 IND d   1      -5.662  -4.137  -4.692  0.00  0.00     0.298 HD
ENDROOT
TORSDOF 0
ENDMDL
