MODEL 1
REMARK minimizedAffinity 17.7241325
REMARK minimizedRMSD -1
REMARK  0 active torsions:
REMARK  status: ('A' for Active; 'I' for Inactive)
ROOT
ATOM      1  N1  IND d   1       4.470   0.814   0.492  0.00  0.00    -0.196 N 
ATOM      2  C2  IND d   1       4.313   2.049  -0.072  0.00  0.00     0.054 A 
ATOM      3  C3  IND d   1       3.425   1.992  -1.090  0.00  0.00    -0.031 A 
ATOM      4  C4  IND d   1       2.034  -0.001  -1.937  0.00  0.00     0.051 A 
ATOM      5  C5  IND d   1       1.859  -1.345  -1.762  0.00  0.00    -0.031 A 
ATOM      6  C6  IND d   1       2.558  -2.052  -0.804  0.00  0.00     0.015 A 
ATOM      7  C7  IND d   1       3.453  -1.436   0.024  0.00  0.00    -0.016 A 
ATOM      8  C8  IND d   1       3.638  -0.073  -0.156  0.00  0.00    -0.047 A 
ATOM      9  C9  IND d   1       2.963   0.642  -1.154  0.00  0.00    -0.096 A 
ATOM     10  HN1 IND d   1       4.999   0.622   1.142  0.00  0.00     0.298 HD
ENDROOT
TORSDOF 0
ENDMDL
