MODEL 1
REMARK minimizedAffinity 8.42004013
REMARK minimizedRMSD -1
REMARK  0 active torsions:
REMARK  status: ('A' for Active; 'I' for Inactive)
ROOT
ATOM      1  N1  IND d   1      -3.334  -2.488  -4.942  0.00  0.00    -0.196 N 
ATOM      2  C2  IND d   1      -4.604  -2.958  -5.130  0.00  0.00     0.054 A 
ATOM      3  C3  IND d   1      -4.802  -4.081  -4.405  0.00  0.00    -0.031 A 
ATOM      4  C4  IND d   1      -3.216  -5.269  -2.762  0.00  0.00     0.051 A 
ATOM      5  C5  IND d   1      -1.935  -5.234  -2.286  0.00  0.00    -0.031 A 
ATOM      6  C6  IND d   1      -1.038  -4.260  -2.676  0.00  0.00     0.015 A 
ATOM      7  C7  IND d   1      -1.394  -3.275  -3.553  0.00  0.00    -0.016 A 
ATOM      8  C8  IND d   1      -2.691  -3.311  -4.044  0.00  0.00    -0.047 A 
ATOM      9  C9  IND d   1      -3.593  -4.321  -3.684  0.00  0.00    -0.096 A 
ATOM     10  HN1 IND d   1      -2.995  -1.795  -5.320  0.00  0.00     0.298 HD
ENDROOT
TORSDOF 0
ENDMDL
