MODEL 1
REMARK minimizedAffinity 6.74973631
REMARK minimizedRMSD -1
REMARK  0 active torsions:
REMARK  status: ('A' for Active; 'I' for Inactive)
ROOT
ATOM      1  N1  IND d   1      -2.985  -2.691  -4.833  0.00  0.00    -0.196 N 
ATOM      2  C2  IND d   1      -1.980  -3.389  -4.223  0.00  0.00     0.054 A 
ATOM      3  C3  IND d   1      -2.302  -4.700  -4.140  0.00  0.00    -0.031 A 
ATOM      4  C4  IND d   1      -4.379  -5.933  -5.030  0.00  0.00     0.051 A 
ATOM      5  C5  IND d   1      -5.589  -5.714  -5.627  0.00  0.00    -0.031 A 
ATOM      6  C6  IND d   1      -6.000  -4.451  -6.000  0.00  0.00     0.015 A 
ATOM      7  C7  IND d   1      -5.207  -3.356  -5.799  0.00  0.00    -0.016 A 
ATOM      8  C8  IND d   1      -3.981  -3.574  -5.187  0.00  0.00    -0.047 A 
ATOM      9  C9  IND d   1      -3.577  -4.848  -4.768  0.00  0.00    -0.096 A 
ATOM     10  HN1 IND d   1      -2.993  -1.842  -4.973  0.00  0.00     0.298 HD
ENDROOT
TORSDOF 0
ENDMDL
