MODEL 1
REMARK minimizedAffinity 12.8250875
REMARK minimizedRMSD -1
REMARK  0 active torsions:
REMARK  status: ('A' for Active; 'I' for Inactive)
ROOT
ATOM      1  N1  IND d   1      -2.891  -1.523   2.558  0.00  0.00    -0.196 N 
ATOM      2  C2  IND d   1      -4.014  -0.794   2.285  0.00  0.00     0.054 A 
ATOM      3  C3  IND d   1      -3.716   0.524   2.222  0.00  0.00    -0.031 A 
ATOM      4  C4  IND d   1      -1.434   1.696   2.434  0.00  0.00     0.051 A 
ATOM      5  C5  IND d   1      -0.120   1.452   2.721  0.00  0.00    -0.031 A 
ATOM      6  C6  IND d   1       0.347   0.178   2.971  0.00  0.00     0.015 A 
ATOM      7  C7  IND d   1      -0.484  -0.906   2.932  0.00  0.00    -0.016 A 
ATOM      8  C8  IND d   1      -1.820  -0.661   2.647  0.00  0.00    -0.047 A 
ATOM      9  C9  IND d   1      -2.308   0.634   2.435  0.00  0.00    -0.096 A 
ATOM     10  HN1 IND d   1      -2.858  -2.376   2.658  0.00  0.00     0.298 HD
ENDROOT
TORSDOF 0
ENDMDL
