MODEL 1
REMARK minimizedAffinity 3.84275103
REMARK minimizedRMSD -1
REMARK  0 active torsions:
REMARK  status: ('A' for Active; 'I' for Inactive)
ROOT
ATOM      1  N1  IND d   1      -4.381  -4.274  -4.486  0.00  0.00    -0.196 N 
ATOM      2  C2  IND d   1      -4.189  -3.445  -5.557  0.00  0.00     0.054 A 
ATOM      3  C3  IND d   1      -2.887  -3.095  -5.653  0.00  0.00    -0.031 A 
ATOM      4  C4  IND d   1      -0.881  -3.845  -4.225  0.00  0.00     0.051 A 
ATOM      5  C5  IND d   1      -0.564  -4.570  -3.110  0.00  0.00    -0.031 A 
ATOM      6  C6  IND d   1      -1.521  -5.248  -2.384  0.00  0.00     0.015 A 
ATOM      7  C7  IND d   1      -2.836  -5.237  -2.754  0.00  0.00    -0.016 A 
ATOM      8  C8  IND d   1      -3.163  -4.497  -3.881  0.00  0.00    -0.047 A 
ATOM      9  C9  IND d   1      -2.203  -3.772  -4.598  0.00  0.00    -0.096 A 
ATOM     10  HN1 IND d   1      -5.135  -4.600  -4.233  0.00  0.00     0.298 HD
ENDROOT
TORSDOF 0
ENDMDL
