MODEL 1
REMARK minimizedAffinity 0.720640719
REMARK minimizedRMSD -1
REMARK  0 active torsions:
REMARK  status: ('A' for Active; 'I' for Inactive)
ROOT
ATOM      1  N1  IND d   1      -3.021  -3.147  -5.999  0.00  0.00    -0.196 N 
ATOM      2  C2  IND d   1      -4.342  -3.496  -5.997  0.00  0.00     0.054 A 
ATOM      3  C3  IND d   1      -4.598  -4.362  -4.991  0.00  0.00    -0.031 A 
ATOM      4  C4  IND d   1      -3.021  -5.262  -3.166  0.00  0.00     0.051 A 
ATOM      5  C5  IND d   1      -1.711  -5.256  -2.776  0.00  0.00    -0.031 A 
ATOM      6  C6  IND d   1      -0.752  -4.530  -3.452  0.00  0.00     0.015 A 
ATOM      7  C7  IND d   1      -1.071  -3.770  -4.542  0.00  0.00    -0.016 A 
ATOM      8  C8  IND d   1      -2.398  -3.779  -4.945  0.00  0.00    -0.047 A 
ATOM      9  C9  IND d   1      -3.368  -4.548  -4.289  0.00  0.00    -0.096 A 
ATOM     10  HN1 IND d   1      -2.642  -2.620  -6.563  0.00  0.00     0.298 HD
ENDROOT
TORSDOF 0
ENDMDL
