MODEL 1
REMARK minimizedAffinity 16.5980568
REMARK minimizedRMSD -1
REMARK  0 active torsions:
REMARK  status: ('A' for Active; 'I' for Inactive)
ROOT
ATOM      1  N1  IND d   1       0.387  -1.098   3.123  0.00  0.00    -0.196 N 
ATOM      2  C2  IND d   1       0.211  -0.607   1.859  0.00  0.00     0.054 A 
ATOM      3  C3  IND d   1       0.047   0.734   1.894  0.00  0.00    -0.031 A 
ATOM      4  C4  IND d   1       0.133   2.340   3.904  0.00  0.00     0.051 A 
ATOM      5  C5  IND d   1       0.233   2.356   5.267  0.00  0.00    -0.031 A 
ATOM      6  C6  IND d   1       0.395   1.197   6.000  0.00  0.00     0.015 A 
ATOM      7  C7  IND d   1       0.475  -0.024   5.393  0.00  0.00    -0.016 A 
ATOM      8  C8  IND d   1       0.367  -0.044   4.009  0.00  0.00    -0.047 A 
ATOM      9  C9  IND d   1       0.160   1.124   3.264  0.00  0.00    -0.096 A 
ATOM     10  HN1 IND d   1       0.492  -1.926   3.329  0.00  0.00     0.298 HD
ENDROOT
TORSDOF 0
ENDMDL
