MODEL 1
REMARK minimizedAffinity 0.562921882
REMARK minimizedRMSD -1
REMARK  0 active torsions:
REMARK  status: ('A' for Active; 'I' for Inactive)
ROOT
ATOM      1  N1  IND d   1      -4.412  -4.780  -4.115  0.00  0.00    -0.196 N 
ATOM      2  C2  IND d   1      -4.476  -4.010  -5.243  0.00  0.00     0.054 A 
ATOM      3  C3  IND d   1      -3.243  -3.573  -5.584  0.00  0.00    -0.031 A 
ATOM      4  C4  IND d   1      -0.968  -4.080  -4.492  0.00  0.00     0.051 A 
ATOM      5  C5  IND d   1      -0.405  -4.705  -3.414  0.00  0.00    -0.031 A 
ATOM      6  C6  IND d   1      -1.165  -5.403  -2.498  0.00  0.00     0.015 A 
ATOM      7  C7  IND d   1      -2.520  -5.513  -2.633  0.00  0.00    -0.016 A 
ATOM      8  C8  IND d   1      -3.096  -4.873  -3.722  0.00  0.00    -0.047 A 
ATOM      9  C9  IND d   1      -2.335  -4.127  -4.631  0.00  0.00    -0.096 A 
ATOM     10  HN1 IND d   1      -5.082  -5.144  -3.718  0.00  0.00     0.298 HD
ENDROOT
TORSDOF 0
ENDMDL
