MODEL 1
REMARK minimizedAffinity 6.43138933
REMARK minimizedRMSD -1
REMARK  0 active torsions:
REMARK  status: ('A' for Active; 'I' for Inactive)
ROOT
ATOM      1  N1  IND d   1      -3.232   1.408   3.584  0.00  0.00    -0.196 N 
ATOM      2  C2  IND d   1      -4.055   0.598   2.852  0.00  0.00     0.054 A 
ATOM      3  C3  IND d   1      -3.344  -0.080   1.924  0.00  0.00    -0.031 A 
ATOM      4  C4  IND d   1      -0.806  -0.093   1.496  0.00  0.00     0.051 A 
ATOM      5  C5  IND d   1       0.356   0.512   1.887  0.00  0.00    -0.031 A 
ATOM      6  C6  IND d   1       0.382   1.464   2.886  0.00  0.00     0.015 A 
ATOM      7  C7  IND d   1      -0.757   1.839   3.542  0.00  0.00    -0.016 A 
ATOM      8  C8  IND d   1      -1.939   1.232   3.142  0.00  0.00    -0.047 A 
ATOM      9  C9  IND d   1      -1.978   0.297   2.101  0.00  0.00    -0.096 A 
ATOM     10  HN1 IND d   1      -3.480   1.938   4.215  0.00  0.00     0.298 HD
ENDROOT
TORSDOF 0
ENDMDL
