MODEL 1
REMARK minimizedAffinity 22.3264847
REMARK minimizedRMSD -1
REMARK  0 active torsions:
REMARK  status: ('A' for Active; 'I' for Inactive)
ROOT
ATOM      1  N1  IND d   1      -5.480  -1.987   3.134  0.00  0.00    -0.196 N 
ATOM      2  C2  IND d   1      -5.998  -2.094   1.874  0.00  0.00     0.054 A 
ATOM      3  C3  IND d   1      -5.378  -1.233   1.036  0.00  0.00    -0.031 A 
ATOM      4  C4  IND d   1      -3.418   0.371   1.496  0.00  0.00     0.051 A 
ATOM      5  C5  IND d   1      -2.631   0.848   2.506  0.00  0.00    -0.031 A 
ATOM      6  C6  IND d   1      -2.754   0.393   3.803  0.00  0.00     0.015 A 
ATOM      7  C7  IND d   1      -3.665  -0.568   4.137  0.00  0.00    -0.016 A 
ATOM      8  C8  IND d   1      -4.471  -1.050   3.115  0.00  0.00    -0.047 A 
ATOM      9  C9  IND d   1      -4.380  -0.561   1.806  0.00  0.00    -0.096 A 
ATOM     10  HN1 IND d   1      -5.741  -2.431   3.823  0.00  0.00     0.298 HD
ENDROOT
TORSDOF 0
ENDMDL
