MODEL 1
REMARK minimizedAffinity 0.845118165
REMARK minimizedRMSD -1
REMARK  0 active torsions:
REMARK  status: ('A' for Active; 'I' for Inactive)
ROOT
ATOM      1  N1  IND d   1       3.519  -2.891  -0.503  0.00  0.00    -0.196 N 
ATOM      2  C2  IND d   1       2.647  -1.847  -0.643  0.00  0.00     0.054 A 
ATOM      3  C3  IND d   1       1.691  -2.150  -1.549  0.00  0.00    -0.031 A 
ATOM      4  C4  IND d   1       1.305  -4.339  -2.849  0.00  0.00     0.051 A 
ATOM      5  C5  IND d   1       1.861  -5.566  -3.081  0.00  0.00    -0.031 A 
ATOM      6  C6  IND d   1       3.019  -5.973  -2.452  0.00  0.00     0.015 A 
ATOM      7  C7  IND d   1       3.662  -5.169  -1.554  0.00  0.00    -0.016 A 
ATOM      8  C8  IND d   1       3.105  -3.920  -1.320  0.00  0.00    -0.047 A 
ATOM      9  C9  IND d   1       1.953  -3.485  -1.988  0.00  0.00    -0.096 A 
ATOM     10  HN1 IND d   1       4.209  -2.903   0.009  0.00  0.00     0.298 HD
ENDROOT
TORSDOF 0
ENDMDL
