MODEL 1
REMARK minimizedAffinity 9.34013939
REMARK minimizedRMSD -1
REMARK  0 active torsions:
REMARK  status: ('A' for Active; 'I' for Inactive)
ROOT
ATOM      1  C   UNL d   1      -5.336   0.230  -4.480  0.00  0.00    -0.002 A 
ATOM      2  C1  UNL d   1      -4.179   0.472  -3.753  0.00  0.00     0.010 A 
ATOM      3  C2  UNL d   1      -3.660   1.764  -3.653  0.00  0.00     0.041 A 
ATOM      4  C3  UNL d   1      -4.332   2.820  -4.300  0.00  0.00    -0.075 A 
ATOM      5  S   UNL d   1      -3.882   4.484  -4.315  0.00  0.00     0.015 SA
ATOM      6  C4  UNL d   1      -5.216   4.913  -5.285  0.00  0.00     0.022 A 
ATOM      7  C5  UNL d   1      -5.996   3.826  -5.600  0.00  0.00     0.026 A 
ATOM      8  C6  UNL d   1      -5.499   2.601  -5.037  0.00  0.00    -0.082 A 
ATOM      9  C7  UNL d   1      -5.999   1.279  -5.120  0.00  0.00     0.045 A 
ENDROOT
TORSDOF 0
ENDMDL
