MODEL 1
REMARK minimizedAffinity 6.33543634
REMARK minimizedRMSD -1
REMARK  0 active torsions:
REMARK  status: ('A' for Active; 'I' for Inactive)
ROOT
ATOM      1  C   UNL d   1      -4.951   0.771  -2.913  0.00  0.00    -0.002 A 
ATOM      2  C1  UNL d   1      -5.097   1.764  -1.955  0.00  0.00     0.010 A 
ATOM      3  C2  UNL d   1      -5.420   3.070  -2.329  0.00  0.00     0.041 A 
ATOM      4  C3  UNL d   1      -5.598   3.364  -3.695  0.00  0.00    -0.075 A 
ATOM      5  S   UNL d   1      -5.998   4.892  -4.387  0.00  0.00     0.015 SA
ATOM      6  C4  UNL d   1      -5.986   4.262  -5.970  0.00  0.00     0.022 A 
ATOM      7  C5  UNL d   1      -5.685   2.921  -5.990  0.00  0.00     0.026 A 
ATOM      8  C6  UNL d   1      -5.457   2.381  -4.679  0.00  0.00    -0.082 A 
ATOM      9  C7  UNL d   1      -5.128   1.066  -4.268  0.00  0.00     0.045 A 
ENDROOT
TORSDOF 0
ENDMDL
