MODEL 1
REMARK minimizedAffinity 4.03187323
REMARK minimizedRMSD -1
REMARK  0 active torsions:
REMARK  status: ('A' for Active; 'I' for Inactive)
ROOT
ATOM      1  C   UNL d   1       0.339  -3.805  -3.313  0.00  0.00    -0.002 A 
ATOM      2  C1  UNL d   1       1.021  -3.480  -4.477  0.00  0.00     0.010 A 
ATOM      3  C2  UNL d   1       2.416  -3.419  -4.489  0.00  0.00     0.041 A 
ATOM      4  C3  UNL d   1       3.121  -3.694  -3.301  0.00  0.00    -0.075 A 
ATOM      5  S   UNL d   1       4.830  -3.681  -3.079  0.00  0.00     0.015 SA
ATOM      6  C4  UNL d   1       4.695  -4.107  -1.434  0.00  0.00     0.022 A 
ATOM      7  C5  UNL d   1       3.385  -4.260  -1.047  0.00  0.00     0.026 A 
ATOM      8  C6  UNL d   1       2.456  -4.025  -2.116  0.00  0.00    -0.082 A 
ATOM      9  C7  UNL d   1       1.041  -4.077  -2.136  0.00  0.00     0.045 A 
ENDROOT
TORSDOF 0
ENDMDL
