MODEL 1
REMARK minimizedAffinity 3.35564804
REMARK minimizedRMSD -1
REMARK  0 active torsions:
REMARK  status: ('A' for Active; 'I' for Inactive)
ROOT
ATOM      1  C   UNL d   1      -4.964   0.818  -5.841  0.00  0.00    -0.002 A 
ATOM      2  C1  UNL d   1      -5.744   1.955  -5.999  0.00  0.00     0.010 A 
ATOM      3  C2  UNL d   1      -5.998   2.799  -4.916  0.00  0.00     0.041 A 
ATOM      4  C3  UNL d   1      -5.448   2.478  -3.659  0.00  0.00    -0.075 A 
ATOM      5  S   UNL d   1      -5.625   3.364  -2.191  0.00  0.00     0.015 SA
ATOM      6  C4  UNL d   1      -4.668   2.255  -1.319  0.00  0.00     0.022 A 
ATOM      7  C5  UNL d   1      -4.217   1.228  -2.113  0.00  0.00     0.026 A 
ATOM      8  C6  UNL d   1      -4.659   1.339  -3.475  0.00  0.00    -0.082 A 
ATOM      9  C7  UNL d   1      -4.420   0.504  -4.592  0.00  0.00     0.045 A 
ENDROOT
TORSDOF 0
ENDMDL
