MODEL 1
REMARK minimizedAffinity -1.92169631
REMARK minimizedRMSD -1
REMARK  0 active torsions:
REMARK  status: ('A' for Active; 'I' for Inactive)
ROOT
ATOM      1  C   UNL d   1      -4.993   2.197  -0.930  0.00  0.00    -0.002 A 
ATOM      2  C1  UNL d   1      -5.726   3.374  -0.864  0.00  0.00     0.010 A 
ATOM      3  C2  UNL d   1      -5.993   4.111  -2.019  0.00  0.00     0.041 A 
ATOM      4  C3  UNL d   1      -5.507   3.640  -3.255  0.00  0.00    -0.075 A 
ATOM      5  S   UNL d   1      -5.711   4.376  -4.801  0.00  0.00     0.015 SA
ATOM      6  C4  UNL d   1      -4.832   3.146  -5.586  0.00  0.00     0.022 A 
ATOM      7  C5  UNL d   1      -4.385   2.189  -4.706  0.00  0.00     0.026 A 
ATOM      8  C6  UNL d   1      -4.768   2.458  -3.348  0.00  0.00    -0.082 A 
ATOM      9  C7  UNL d   1      -4.513   1.733  -2.158  0.00  0.00     0.045 A 
ENDROOT
TORSDOF 0
ENDMDL
