MODEL 1
REMARK minimizedAffinity 10.7237501
REMARK minimizedRMSD -1
REMARK  0 active torsions:
REMARK  status: ('A' for Active; 'I' for Inactive)
ROOT
ATOM      1  C   UNL d   1       0.136  -0.414   0.829  0.00  0.00    -0.002 A 
ATOM      2  C1  UNL d   1       1.089   0.534   0.485  0.00  0.00     0.010 A 
ATOM      3  C2  UNL d   1       0.773   1.574  -0.391  0.00  0.00     0.041 A 
ATOM      4  C3  UNL d   1      -0.532   1.648  -0.919  0.00  0.00    -0.075 A 
ATOM      5  S   UNL d   1      -1.146   2.834  -2.009  0.00  0.00     0.015 SA
ATOM      6  C4  UNL d   1      -2.690   2.111  -2.042  0.00  0.00     0.022 A 
ATOM      7  C5  UNL d   1      -2.752   0.991  -1.247  0.00  0.00     0.026 A 
ATOM      8  C6  UNL d   1      -1.509   0.706  -0.586  0.00  0.00    -0.082 A 
ATOM      9  C7  UNL d   1      -1.157  -0.337   0.303  0.00  0.00     0.045 A 
ENDROOT
TORSDOF 0
ENDMDL
