MODEL 1
REMARK minimizedAffinity 5.9646678
REMARK minimizedRMSD -1
REMARK  0 active torsions:
REMARK  status: ('A' for Active; 'I' for Inactive)
ROOT
ATOM      1  C   UNL d   1      -1.674   3.876  -4.032  0.00  0.00    -0.002 A 
ATOM      2  C1  UNL d   1      -2.138   2.706  -3.448  0.00  0.00     0.010 A 
ATOM      3  C2  UNL d   1      -3.434   2.251  -3.702  0.00  0.00     0.041 A 
ATOM      4  C3  UNL d   1      -4.262   2.999  -4.562  0.00  0.00    -0.075 A 
ATOM      5  S   UNL d   1      -5.885   2.634  -5.018  0.00  0.00     0.015 SA
ATOM      6  C4  UNL d   1      -5.999   4.023  -6.000  0.00  0.00     0.022 A 
ATOM      7  C5  UNL d   1      -4.837   4.758  -5.991  0.00  0.00     0.026 A 
ATOM      8  C6  UNL d   1      -3.817   4.180  -5.162  0.00  0.00    -0.082 A 
ATOM      9  C7  UNL d   1      -2.499   4.615  -4.884  0.00  0.00     0.045 A 
ENDROOT
TORSDOF 0
ENDMDL
