MODEL 1
REMARK minimizedAffinity 5.09607458
REMARK minimizedRMSD -1
REMARK  0 active torsions:
REMARK  status: ('A' for Active; 'I' for Inactive)
ROOT
ATOM      1  C   UNL d   1       0.890   4.852   1.691  0.00  0.00    -0.002 A 
ATOM      2  C1  UNL d   1       0.401   4.029   2.695  0.00  0.00     0.010 A 
ATOM      3  C2  UNL d   1       0.016   2.717   2.413  0.00  0.00     0.041 A 
ATOM      4  C3  UNL d   1       0.133   2.241   1.092  0.00  0.00    -0.075 A 
ATOM      5  S   UNL d   1      -0.276   0.670   0.512  0.00  0.00     0.015 SA
ATOM      6  C4  UNL d   1       0.189   1.055  -1.081  0.00  0.00     0.022 A 
ATOM      7  C5  UNL d   1       0.648   2.347  -1.187  0.00  0.00     0.026 A 
ATOM      8  C6  UNL d   1       0.624   3.051   0.064  0.00  0.00    -0.082 A 
ATOM      9  C7  UNL d   1       1.005   4.377   0.382  0.00  0.00     0.045 A 
ENDROOT
TORSDOF 0
ENDMDL
