MODEL 1
REMARK minimizedAffinity 10.5778675
REMARK minimizedRMSD -1
REMARK  0 active torsions:
REMARK  status: ('A' for Active; 'I' for Inactive)
ROOT
ATOM      1  C   UNL d   1      -6.000   2.963  -6.000  0.00  0.00    -0.002 A 
ATOM      2  C1  UNL d   1      -6.000   3.894  -4.971  0.00  0.00     0.010 A 
ATOM      3  C2  UNL d   1      -5.447   3.579  -3.728  0.00  0.00     0.041 A 
ATOM      4  C3  UNL d   1      -4.887   2.301  -3.535  0.00  0.00    -0.075 A 
ATOM      5  S   UNL d   1      -4.153   1.694  -2.098  0.00  0.00     0.015 SA
ATOM      6  C4  UNL d   1      -3.821   0.184  -2.817  0.00  0.00     0.022 A 
ATOM      7  C5  UNL d   1      -4.254   0.127  -4.120  0.00  0.00     0.026 A 
ATOM      8  C6  UNL d   1      -4.874   1.347  -4.556  0.00  0.00    -0.082 A 
ATOM      9  C7  UNL d   1      -5.444   1.696  -5.805  0.00  0.00     0.045 A 
ENDROOT
TORSDOF 0
ENDMDL
