MODEL 1
REMARK minimizedAffinity 3.69323206
REMARK minimizedRMSD -1
REMARK  0 active torsions:
REMARK  status: ('A' for Active; 'I' for Inactive)
ROOT
ATOM      1  C   UNL d   1       1.488  -1.871   2.363  0.00  0.00    -0.002 A 
ATOM      2  C1  UNL d   1       2.161  -2.552   3.368  0.00  0.00     0.010 A 
ATOM      3  C2  UNL d   1       1.493  -2.945   4.530  0.00  0.00     0.041 A 
ATOM      4  C3  UNL d   1       0.124  -2.640   4.665  0.00  0.00    -0.075 A 
ATOM      5  S   UNL d   1      -0.898  -3.023   6.000  0.00  0.00     0.015 SA
ATOM      6  C4  UNL d   1      -2.253  -2.292   5.267  0.00  0.00     0.022 A 
ATOM      7  C5  UNL d   1      -1.950  -1.763   4.035  0.00  0.00     0.026 A 
ATOM      8  C6  UNL d   1      -0.575  -1.956   3.667  0.00  0.00    -0.082 A 
ATOM      9  C7  UNL d   1       0.130  -1.570   2.502  0.00  0.00     0.045 A 
ENDROOT
TORSDOF 0
ENDMDL
