MODEL 1
REMARK minimizedAffinity 1.39296556
REMARK minimizedRMSD -1
REMARK  0 active torsions:
REMARK  status: ('A' for Active; 'I' for Inactive)
ROOT
ATOM      1  C   UNL d   1      -0.045   1.069  -1.786  0.00  0.00    -0.002 A 
ATOM      2  C1  UNL d   1       0.438   0.729  -0.530  0.00  0.00     0.010 A 
ATOM      3  C2  UNL d   1       0.751  -0.597  -0.224  0.00  0.00     0.041 A 
ATOM      4  C3  UNL d   1       0.570  -1.585  -1.212  0.00  0.00    -0.075 A 
ATOM      5  S   UNL d   1       0.887  -3.273  -1.064  0.00  0.00     0.015 SA
ATOM      6  C4  UNL d   1       0.390  -3.583  -2.664  0.00  0.00     0.022 A 
ATOM      7  C5  UNL d   1      -0.012  -2.438  -3.310  0.00  0.00     0.026 A 
ATOM      8  C6  UNL d   1       0.086  -1.268  -2.484  0.00  0.00    -0.082 A 
ATOM      9  C7  UNL d   1      -0.223   0.086  -2.763  0.00  0.00     0.045 A 
ENDROOT
TORSDOF 0
ENDMDL
