MODEL 1
REMARK minimizedAffinity 1.78323495
REMARK minimizedRMSD -1
REMARK  0 active torsions:
REMARK  status: ('A' for Active; 'I' for Inactive)
ROOT
ATOM      1  C   UNL d   1      -5.410   0.568  -5.362  0.00  0.00    -0.002 A 
ATOM      2  C1  UNL d   1      -4.385   0.699  -4.436  0.00  0.00     0.010 A 
ATOM      3  C2  UNL d   1      -3.927   1.963  -4.058  0.00  0.00     0.041 A 
ATOM      4  C3  UNL d   1      -4.524   3.103  -4.629  0.00  0.00    -0.075 A 
ATOM      5  S   UNL d   1      -4.127   4.752  -4.316  0.00  0.00     0.015 SA
ATOM      6  C4  UNL d   1      -5.310   5.321  -5.403  0.00  0.00     0.022 A 
ATOM      7  C5  UNL d   1      -6.000   4.292  -6.000  0.00  0.00     0.026 A 
ATOM      8  C6  UNL d   1      -5.558   2.997  -5.563  0.00  0.00    -0.082 A 
ATOM      9  C7  UNL d   1      -6.000   1.702  -5.927  0.00  0.00     0.045 A 
ENDROOT
TORSDOF 0
ENDMDL
