MODEL 1
REMARK minimizedAffinity 14.7951126
REMARK minimizedRMSD -1
REMARK  0 active torsions:
REMARK  status: ('A' for Active; 'I' for Inactive)
ROOT
ATOM      1  C   UNL d   1      -0.096   2.220   0.467  0.00  0.00    -0.002 A 
ATOM      2  C1  UNL d   1      -0.026   0.982   1.090  0.00  0.00     0.010 A 
ATOM      3  C2  UNL d   1       0.271   0.887   2.451  0.00  0.00     0.041 A 
ATOM      4  C3  UNL d   1       0.497   2.070   3.183  0.00  0.00    -0.075 A 
ATOM      5  S   UNL d   1       0.875   2.197   4.860  0.00  0.00     0.015 SA
ATOM      6  C4  UNL d   1       0.952   3.898   4.790  0.00  0.00     0.022 A 
ATOM      7  C5  UNL d   1       0.698   4.374   3.525  0.00  0.00     0.026 A 
ATOM      8  C6  UNL d   1       0.431   3.328   2.579  0.00  0.00    -0.082 A 
ATOM      9  C7  UNL d   1       0.129   3.391   1.197  0.00  0.00     0.045 A 
ENDROOT
TORSDOF 0
ENDMDL
