MODEL 1
REMARK minimizedAffinity 1.26702118
REMARK minimizedRMSD -1
REMARK  1 active torsions:
REMARK  status: ('A' for Active; 'I' for Inactive)
REMARK    1  A    between atoms: C3_4  and  O_7 
ROOT
ATOM      1  C   UNL d   1       3.949   5.897  -1.556  0.00  0.00    -0.033 A 
ATOM      2  C1  UNL d   1       3.219   5.695  -2.729  0.00  0.00     0.039 A 
ATOM      3  C2  UNL d   1       3.878   5.599  -3.956  0.00  0.00    -0.080 A 
ATOM      4  C3  UNL d   1       5.266   5.706  -3.996  0.00  0.00     0.150 A 
ATOM      5  C4  UNL d   1       5.999   5.903  -2.831  0.00  0.00    -0.007 A 
ATOM      6  C5  UNL d   1       5.339   6.000  -1.607  0.00  0.00     0.039 A 
ENDROOT
BRANCH   4   7
ATOM      7  O   UNL d   1       5.953   5.623  -5.170  0.00  0.00    -0.526 OA
ATOM      8  H5  UNL d   1       5.313   5.515  -5.894  0.00  0.00     0.418 HD
ENDBRANCH   4   7
TORSDOF 1
ENDMDL
