MODEL 1
REMARK minimizedAffinity 2.07635784
REMARK minimizedRMSD -1
REMARK  1 active torsions:
REMARK  status: ('A' for Active; 'I' for Inactive)
REMARK    1  A    between atoms: C3_4  and  O_7 
ROOT
ATOM      1  C   UNL d   1       3.993   5.981  -2.099  0.00  0.00    -0.033 A 
ATOM      2  C1  UNL d   1       5.384   5.986  -2.213  0.00  0.00     0.039 A 
ATOM      3  C2  UNL d   1       5.983   5.990  -3.474  0.00  0.00    -0.080 A 
ATOM      4  C3  UNL d   1       5.181   5.990  -4.612  0.00  0.00     0.150 A 
ATOM      5  C4  UNL d   1       3.794   5.989  -4.506  0.00  0.00    -0.007 A 
ATOM      6  C5  UNL d   1       3.197   5.984  -3.246  0.00  0.00     0.039 A 
ENDROOT
BRANCH   4   7
ATOM      7  O   UNL d   1       5.720   5.990  -5.864  0.00  0.00    -0.526 OA
ATOM      8  H5  UNL d   1       6.688   5.961  -5.783  0.00  0.00     0.418 HD
ENDBRANCH   4   7
TORSDOF 1
ENDMDL
