MODEL 1
REMARK minimizedAffinity 0.941189289
REMARK minimizedRMSD -1
REMARK  1 active torsions:
REMARK  status: ('A' for Active; 'I' for Inactive)
REMARK    1  A    between atoms: C3_4  and  O_7 
ROOT
ATOM      1  C   UNL d   1      -4.167   3.037  -3.475  0.00  0.00    -0.033 A 
ATOM      2  C1  UNL d   1      -3.630   1.935  -2.807  0.00  0.00     0.039 A 
ATOM      3  C2  UNL d   1      -3.528   0.704  -3.457  0.00  0.00    -0.080 A 
ATOM      4  C3  UNL d   1      -3.966   0.588  -4.773  0.00  0.00     0.150 A 
ATOM      5  C4  UNL d   1      -4.498   1.682  -5.446  0.00  0.00    -0.007 A 
ATOM      6  C5  UNL d   1      -4.599   2.911  -4.796  0.00  0.00     0.039 A 
ENDROOT
BRANCH   4   7
ATOM      7  O   UNL d   1      -3.891  -0.595  -5.447  0.00  0.00    -0.526 OA
ATOM      8  H5  UNL d   1      -3.530  -1.269  -4.848  0.00  0.00     0.418 HD
ENDBRANCH   4   7
TORSDOF 1
ENDMDL
