MODEL 1
REMARK minimizedAffinity 10.7582016
REMARK minimizedRMSD -1
REMARK  1 active torsions:
REMARK  status: ('A' for Active; 'I' for Inactive)
REMARK    1  A    between atoms: C3_4  and  O_7 
ROOT
ATOM      1  C   UNL d   1      -2.832   2.290   0.168  0.00  0.00    -0.033 A 
ATOM      2  C1  UNL d   1      -3.251   3.104  -0.886  0.00  0.00     0.039 A 
ATOM      3  C2  UNL d   1      -3.373   2.575  -2.172  0.00  0.00    -0.080 A 
ATOM      4  C3  UNL d   1      -3.075   1.233  -2.391  0.00  0.00     0.150 A 
ATOM      5  C4  UNL d   1      -2.661   0.416  -1.345  0.00  0.00    -0.007 A 
ATOM      6  C5  UNL d   1      -2.538   0.945  -0.061  0.00  0.00     0.039 A 
ENDROOT
BRANCH   4   7
ATOM      7  O   UNL d   1      -3.174   0.674  -3.630  0.00  0.00    -0.526 OA
ATOM      8  H5  UNL d   1      -3.444   1.365  -4.259  0.00  0.00     0.418 HD
ENDBRANCH   4   7
TORSDOF 1
ENDMDL
