MODEL 1
REMARK minimizedAffinity 5.89425325
REMARK minimizedRMSD -1
REMARK  1 active torsions:
REMARK  status: ('A' for Active; 'I' for Inactive)
REMARK    1  A    between atoms: C3_4  and  O_7 
ROOT
ATOM      1  C   UNL d   1       0.646  -2.195   2.201  0.00  0.00    -0.033 A 
ATOM      2  C1  UNL d   1       1.824  -1.883   2.883  0.00  0.00     0.039 A 
ATOM      3  C2  UNL d   1       2.498  -0.692   2.607  0.00  0.00    -0.080 A 
ATOM      4  C3  UNL d   1       1.985   0.177   1.648  0.00  0.00     0.150 A 
ATOM      5  C4  UNL d   1       0.810  -0.126   0.967  0.00  0.00    -0.007 A 
ATOM      6  C5  UNL d   1       0.139  -1.316   1.244  0.00  0.00     0.039 A 
ENDROOT
BRANCH   4   7
ATOM      7  O   UNL d   1       2.611   1.349   1.340  0.00  0.00    -0.526 OA
ATOM      8  H5  UNL d   1       3.424   1.411   1.868  0.00  0.00     0.418 HD
ENDBRANCH   4   7
TORSDOF 1
ENDMDL
