MODEL 1
REMARK minimizedAffinity 4.12013626
REMARK minimizedRMSD -1
REMARK  1 active torsions:
REMARK  status: ('A' for Active; 'I' for Inactive)
REMARK    1  A    between atoms: C3_4  and  O_7 
ROOT
ATOM      1  C   UNL d   1       1.251  -2.235   2.472  0.00  0.00    -0.033 A 
ATOM      2  C1  UNL d   1       2.252  -1.503   3.112  0.00  0.00     0.039 A 
ATOM      3  C2  UNL d   1       2.768  -0.351   2.515  0.00  0.00    -0.080 A 
ATOM      4  C3  UNL d   1       2.273   0.058   1.279  0.00  0.00     0.150 A 
ATOM      5  C4  UNL d   1       1.273  -0.665   0.637  0.00  0.00    -0.007 A 
ATOM      6  C5  UNL d   1       0.760  -1.815   1.235  0.00  0.00     0.039 A 
ENDROOT
BRANCH   4   7
ATOM      7  O   UNL d   1       2.748   1.172   0.655  0.00  0.00    -0.526 OA
ATOM      8  H5  UNL d   1       3.456   1.553   1.202  0.00  0.00     0.418 HD
ENDBRANCH   4   7
TORSDOF 1
ENDMDL
