MODEL 1
REMARK minimizedAffinity 0.406550705
REMARK minimizedRMSD -1
REMARK  1 active torsions:
REMARK  status: ('A' for Active; 'I' for Inactive)
REMARK    1  A    between atoms: C3_4  and  O_7 
ROOT
ATOM      1  C   UNL d   1       2.241  -0.075   2.506  0.00  0.00    -0.033 A 
ATOM      2  C1  UNL d   1       3.369   0.625   2.076  0.00  0.00     0.039 A 
ATOM      3  C2  UNL d   1       3.874   0.417   0.791  0.00  0.00    -0.080 A 
ATOM      4  C3  UNL d   1       3.243  -0.493  -0.052  0.00  0.00     0.150 A 
ATOM      5  C4  UNL d   1       2.116  -1.192   0.369  0.00  0.00    -0.007 A 
ATOM      6  C5  UNL d   1       1.613  -0.983   1.652  0.00  0.00     0.039 A 
ENDROOT
BRANCH   4   7
ATOM      7  O   UNL d   1       3.702  -0.734  -1.313  0.00  0.00    -0.526 OA
ATOM      8  H5  UNL d   1       4.503  -0.202  -1.456  0.00  0.00     0.418 HD
ENDBRANCH   4   7
TORSDOF 1
ENDMDL
