MODEL 1
REMARK minimizedAffinity 1.68863392
REMARK minimizedRMSD -1
REMARK  1 active torsions:
REMARK  status: ('A' for Active; 'I' for Inactive)
REMARK    1  A    between atoms: C3_4  and  O_7 
ROOT
ATOM      1  C   UNL d   1      -4.778   2.673  -1.399  0.00  0.00    -0.033 A 
ATOM      2  C1  UNL d   1      -3.772   1.911  -1.995  0.00  0.00     0.039 A 
ATOM      3  C2  UNL d   1      -3.757   1.732  -3.380  0.00  0.00    -0.080 A 
ATOM      4  C3  UNL d   1      -4.752   2.321  -4.155  0.00  0.00     0.150 A 
ATOM      5  C4  UNL d   1      -5.754   3.086  -3.568  0.00  0.00    -0.007 A 
ATOM      6  C5  UNL d   1      -5.768   3.262  -2.185  0.00  0.00     0.039 A 
ENDROOT
BRANCH   4   7
ATOM      7  O   UNL d   1      -4.781   2.171  -5.510  0.00  0.00    -0.526 OA
ATOM      8  H5  UNL d   1      -4.044   1.595  -5.772  0.00  0.00     0.418 HD
ENDBRANCH   4   7
TORSDOF 1
ENDMDL
