MODEL 1
REMARK minimizedAffinity 1.40244889
REMARK minimizedRMSD -1
REMARK  0 active torsions:
REMARK  status: ('A' for Active; 'I' for Inactive)
ROOT
ATOM      1  C   UNL d   1       0.750   0.535   1.090  0.00  0.00    -0.002 A 
ATOM      2  C1  UNL d   1       0.807   1.448   2.133  0.00  0.00     0.010 A 
ATOM      3  C2  UNL d   1       0.733   2.820   1.881  0.00  0.00     0.041 A 
ATOM      4  C3  UNL d   1       0.597   3.262   0.550  0.00  0.00    -0.075 A 
ATOM      5  S   UNL d   1       0.485   4.893   0.003  0.00  0.00     0.015 SA
ATOM      6  C4  UNL d   1       0.358   4.415  -1.628  0.00  0.00     0.022 A 
ATOM      7  C5  UNL d   1       0.399   3.049  -1.770  0.00  0.00     0.026 A 
ATOM      8  C6  UNL d   1       0.536   2.361  -0.517  0.00  0.00    -0.082 A 
ATOM      9  C7  UNL d   1       0.615   0.977  -0.229  0.00  0.00     0.045 A 
ENDROOT
TORSDOF 0
ENDMDL
