MODEL 1
REMARK minimizedAffinity 3.92860293
REMARK minimizedRMSD -1
REMARK  0 active torsions:
REMARK  status: ('A' for Active; 'I' for Inactive)
ROOT
ATOM      1  C   UNL d   1       0.782   0.777   2.821  0.00  0.00    -0.002 A 
ATOM      2  C1  UNL d   1       0.852  -0.392   2.077  0.00  0.00     0.010 A 
ATOM      3  C2  UNL d   1       0.604  -0.375   0.703  0.00  0.00     0.041 A 
ATOM      4  C3  UNL d   1       0.282   0.848   0.084  0.00  0.00    -0.075 A 
ATOM      5  S   UNL d   1      -0.060   1.110  -1.586  0.00  0.00     0.015 SA
ATOM      6  C4  UNL d   1      -0.307   2.780  -1.350  0.00  0.00     0.022 A 
ATOM      7  C5  UNL d   1      -0.136   3.146  -0.036  0.00  0.00     0.026 A 
ATOM      8  C6  UNL d   1       0.207   2.039   0.812  0.00  0.00    -0.082 A 
ATOM      9  C7  UNL d   1       0.463   1.989   2.203  0.00  0.00     0.045 A 
ENDROOT
TORSDOF 0
ENDMDL
