MODEL 1
REMARK minimizedAffinity 5.67508316
REMARK minimizedRMSD -1
REMARK  0 active torsions:
REMARK  status: ('A' for Active; 'I' for Inactive)
ROOT
ATOM      1  C   UNL d   1       0.367   1.099   2.085  0.00  0.00    -0.002 A 
ATOM      2  C1  UNL d   1       0.294   0.345   0.922  0.00  0.00     0.010 A 
ATOM      3  C2  UNL d   1       0.286   0.967  -0.328  0.00  0.00     0.041 A 
ATOM      4  C3  UNL d   1       0.356   2.373  -0.391  0.00  0.00    -0.075 A 
ATOM      5  S   UNL d   1       0.362   3.351  -1.810  0.00  0.00     0.015 SA
ATOM      6  C4  UNL d   1       0.462   4.793  -0.907  0.00  0.00     0.022 A 
ATOM      7  C5  UNL d   1       0.491   4.552   0.447  0.00  0.00     0.026 A 
ATOM      8  C6  UNL d   1       0.431   3.153   0.766  0.00  0.00    -0.082 A 
ATOM      9  C7  UNL d   1       0.436   2.493   2.019  0.00  0.00     0.045 A 
ENDROOT
TORSDOF 0
ENDMDL
