MODEL 1
REMARK minimizedAffinity 3.1155448
REMARK minimizedRMSD -1
REMARK  0 active torsions:
REMARK  status: ('A' for Active; 'I' for Inactive)
ROOT
ATOM      1  C   UNL d   1       0.576   0.733   1.635  0.00  0.00    -0.002 A 
ATOM      2  C1  UNL d   1       0.354   0.149   0.397  0.00  0.00     0.010 A 
ATOM      3  C2  UNL d   1       0.191   0.939  -0.743  0.00  0.00     0.041 A 
ATOM      4  C3  UNL d   1       0.257   2.340  -0.615  0.00  0.00    -0.075 A 
ATOM      5  S   UNL d   1       0.087   3.508  -1.873  0.00  0.00     0.015 SA
ATOM      6  C4  UNL d   1       0.307   4.810  -0.796  0.00  0.00     0.022 A 
ATOM      7  C5  UNL d   1       0.506   4.383   0.496  0.00  0.00     0.026 A 
ATOM      8  C6  UNL d   1       0.481   2.953   0.621  0.00  0.00    -0.082 A 
ATOM      9  C7  UNL d   1       0.642   2.124   1.758  0.00  0.00     0.045 A 
ENDROOT
TORSDOF 0
ENDMDL
