MODEL 1
REMARK minimizedAffinity 3.71570921
REMARK minimizedRMSD -1
REMARK  0 active torsions:
REMARK  status: ('A' for Active; 'I' for Inactive)
ROOT
ATOM      1  C   UNL d   1       0.114   1.290   1.030  0.00  0.00    -0.002 A 
ATOM      2  C1  UNL d   1       0.619   2.274   1.869  0.00  0.00     0.010 A 
ATOM      3  C2  UNL d   1       0.930   3.541   1.371  0.00  0.00     0.041 A 
ATOM      4  C3  UNL d   1       0.722   3.805   0.003  0.00  0.00    -0.075 A 
ATOM      5  S   UNL d   1       1.031   5.284  -0.829  0.00  0.00     0.015 SA
ATOM      6  C4  UNL d   1       0.500   4.644  -2.317  0.00  0.00     0.022 A 
ATOM      7  C5  UNL d   1       0.093   3.336  -2.200  0.00  0.00     0.026 A 
ATOM      8  C6  UNL d   1       0.214   2.831  -0.862  0.00  0.00    -0.082 A 
ATOM      9  C7  UNL d   1      -0.091   1.557  -0.326  0.00  0.00     0.045 A 
ENDROOT
TORSDOF 0
ENDMDL
