MODEL 1
REMARK minimizedAffinity 2.47379279
REMARK minimizedRMSD -1
REMARK  0 active torsions:
REMARK  status: ('A' for Active; 'I' for Inactive)
ROOT
ATOM      1  C   UNL d   1       0.763   5.125  -0.530  0.00  0.00    -0.002 A 
ATOM      2  C1  UNL d   1       0.488   4.329  -1.633  0.00  0.00     0.010 A 
ATOM      3  C2  UNL d   1       0.293   2.955  -1.485  0.00  0.00     0.041 A 
ATOM      4  C3  UNL d   1       0.378   2.388  -0.198  0.00  0.00    -0.075 A 
ATOM      5  S   UNL d   1       0.175   0.729   0.223  0.00  0.00     0.015 SA
ATOM      6  C4  UNL d   1       0.448   1.038   1.877  0.00  0.00     0.022 A 
ATOM      7  C5  UNL d   1       0.690   2.369   2.119  0.00  0.00     0.026 A 
ATOM      8  C6  UNL d   1       0.653   3.169   0.928  0.00  0.00    -0.082 A 
ATOM      9  C7  UNL d   1       0.847   4.560   0.745  0.00  0.00     0.045 A 
ENDROOT
TORSDOF 0
ENDMDL
