MODEL 1
REMARK minimizedAffinity 6.76897955
REMARK minimizedRMSD -1
REMARK  0 active torsions:
REMARK  status: ('A' for Active; 'I' for Inactive)
ROOT
ATOM      1  C1  DEN d   1      -0.842   1.688   0.069  0.00  0.00     0.130 A 
ATOM      2  C2  DEN d   1       0.023   2.800  -0.314  0.00  0.00    -0.031 A 
ATOM      3  C3  DEN d   1      -0.463   3.334  -1.602  0.00  0.00     0.027 A 
ATOM      4  C4  DEN d   1      -2.464   2.553  -3.030  0.00  0.00     0.027 A 
ATOM      5  C5  DEN d   1      -3.489   1.638  -3.121  0.00  0.00    -0.003 A 
ATOM      6  C6  DEN d   1      -3.682   0.661  -2.179  0.00  0.00     0.001 A 
ATOM      7  C7  DEN d   1      -2.863   0.606  -1.082  0.00  0.00     0.017 A 
ATOM      8  C8  DEN d   1      -1.823   1.521  -0.987  0.00  0.00    -0.094 A 
ATOM      9  C9  DEN d   1      -1.653   2.508  -1.943  0.00  0.00    -0.072 A 
ENDROOT
TORSDOF 0
ENDMDL
