MODEL 1
REMARK minimizedAffinity 16.6088104
REMARK minimizedRMSD -1
REMARK  0 active torsions:
REMARK  status: ('A' for Active; 'I' for Inactive)
ROOT
ATOM      1  C1  DEN d   1       2.976  -5.515  -1.958  0.00  0.00     0.130 A 
ATOM      2  C2  DEN d   1       4.032  -5.094  -1.042  0.00  0.00    -0.031 A 
ATOM      3  C3  DEN d   1       5.272  -4.917  -1.825  0.00  0.00     0.027 A 
ATOM      4  C4  DEN d   1       5.654  -5.248  -4.354  0.00  0.00     0.027 A 
ATOM      5  C5  DEN d   1       5.057  -5.611  -5.542  0.00  0.00    -0.003 A 
ATOM      6  C6  DEN d   1       3.745  -5.998  -5.611  0.00  0.00     0.001 A 
ATOM      7  C7  DEN d   1       2.973  -5.987  -4.480  0.00  0.00     0.017 A 
ATOM      8  C8  DEN d   1       3.569  -5.628  -3.278  0.00  0.00    -0.094 A 
ATOM      9  C9  DEN d   1       4.894  -5.229  -3.230  0.00  0.00    -0.072 A 
ENDROOT
TORSDOF 0
ENDMDL
