MODEL 1
REMARK minimizedAffinity 23.1230507
REMARK minimizedRMSD -1
REMARK  0 active torsions:
REMARK  status: ('A' for Active; 'I' for Inactive)
ROOT
ATOM      1  C1  DEN d   1       4.521  -6.000  -1.721  0.00  0.00     0.130 A 
ATOM      2  C2  DEN d   1       5.632  -5.247  -1.145  0.00  0.00    -0.031 A 
ATOM      3  C3  DEN d   1       5.068  -4.123  -0.369  0.00  0.00     0.027 A 
ATOM      4  C4  DEN d   1       2.596  -3.484  -0.002  0.00  0.00     0.027 A 
ATOM      5  C5  DEN d   1       1.294  -3.818  -0.301  0.00  0.00    -0.003 A 
ATOM      6  C6  DEN d   1       0.980  -4.874  -1.115  0.00  0.00     0.001 A 
ATOM      7  C7  DEN d   1       1.980  -5.661  -1.622  0.00  0.00     0.017 A 
ATOM      8  C8  DEN d   1       3.295  -5.326  -1.331  0.00  0.00    -0.094 A 
ATOM      9  C9  DEN d   1       3.592  -4.262  -0.496  0.00  0.00    -0.072 A 
ENDROOT
TORSDOF 0
ENDMDL
