MODEL 1
REMARK minimizedAffinity 0.474779814
REMARK minimizedRMSD -1
REMARK  0 active torsions:
REMARK  status: ('A' for Active; 'I' for Inactive)
ROOT
ATOM      1  C1  DEN d   1      -0.058   1.656   0.599  0.00  0.00     0.130 A 
ATOM      2  C2  DEN d   1      -0.508   2.996   0.966  0.00  0.00    -0.031 A 
ATOM      3  C3  DEN d   1      -0.752   3.751  -0.279  0.00  0.00     0.027 A 
ATOM      4  C4  DEN d   1      -0.485   2.979  -2.726  0.00  0.00     0.027 A 
ATOM      5  C5  DEN d   1      -0.117   1.928  -3.537  0.00  0.00    -0.003 A 
ATOM      6  C6  DEN d   1       0.324   0.735  -3.031  0.00  0.00     0.001 A 
ATOM      7  C7  DEN d   1       0.367   0.546  -1.675  0.00  0.00     0.017 A 
ATOM      8  C8  DEN d   1       0.005   1.603  -0.850  0.00  0.00    -0.094 A 
ATOM      9  C9  DEN d   1      -0.450   2.798  -1.381  0.00  0.00    -0.072 A 
ENDROOT
TORSDOF 0
ENDMDL
