MODEL 1
REMARK minimizedAffinity -1.64167082
REMARK minimizedRMSD -1
REMARK  0 active torsions:
REMARK  status: ('A' for Active; 'I' for Inactive)
ROOT
ATOM      1  C1  DEN d   1       1.889   5.426  -0.404  0.00  0.00     0.130 A 
ATOM      2  C2  DEN d   1       0.796   5.220  -1.350  0.00  0.00    -0.031 A 
ATOM      3  C3  DEN d   1       0.021   4.044  -0.905  0.00  0.00     0.027 A 
ATOM      4  C4  DEN d   1       0.404   2.533   1.150  0.00  0.00     0.027 A 
ATOM      5  C5  DEN d   1       1.213   2.306   2.241  0.00  0.00    -0.003 A 
ATOM      6  C6  DEN d   1       2.314   3.075   2.506  0.00  0.00     0.001 A 
ATOM      7  C7  DEN d   1       2.612   4.138   1.694  0.00  0.00     0.017 A 
ATOM      8  C8  DEN d   1       1.805   4.368   0.588  0.00  0.00    -0.094 A 
ATOM      9  C9  DEN d   1       0.689   3.587   0.344  0.00  0.00    -0.072 A 
ENDROOT
TORSDOF 0
ENDMDL
