MODEL 1
REMARK minimizedAffinity 9.31100655
REMARK minimizedRMSD -1
REMARK  0 active torsions:
REMARK  status: ('A' for Active; 'I' for Inactive)
ROOT
ATOM      1  C1  DEN d   1      -1.289   3.594   0.118  0.00  0.00     0.130 A 
ATOM      2  C2  DEN d   1      -0.007   3.005   0.496  0.00  0.00    -0.031 A 
ATOM      3  C3  DEN d   1       1.028   3.545  -0.408  0.00  0.00     0.027 A 
ATOM      4  C4  DEN d   1       0.773   5.230  -2.344  0.00  0.00     0.027 A 
ATOM      5  C5  DEN d   1      -0.124   6.000  -3.051  0.00  0.00    -0.003 A 
ATOM      6  C6  DEN d   1      -1.466   5.995  -2.776  0.00  0.00     0.001 A 
ATOM      7  C7  DEN d   1      -1.944   5.240  -1.738  0.00  0.00     0.017 A 
ATOM      8  C8  DEN d   1      -1.046   4.456  -1.025  0.00  0.00    -0.094 A 
ATOM      9  C9  DEN d   1       0.308   4.483  -1.310  0.00  0.00    -0.072 A 
ENDROOT
TORSDOF 0
ENDMDL
