MODEL 1
REMARK minimizedAffinity 15.6459408
REMARK minimizedRMSD -1
REMARK  0 active torsions:
REMARK  status: ('A' for Active; 'I' for Inactive)
ROOT
ATOM      1  C1  DEN d   1       4.563  -2.511  -0.278  0.00  0.00     0.130 A 
ATOM      2  C2  DEN d   1       3.413  -1.644  -0.036  0.00  0.00    -0.031 A 
ATOM      3  C3  DEN d   1       2.191  -2.402  -0.372  0.00  0.00     0.027 A 
ATOM      4  C4  DEN d   1       1.968  -4.823  -1.233  0.00  0.00     0.027 A 
ATOM      5  C5  DEN d   1       2.666  -5.951  -1.603  0.00  0.00    -0.003 A 
ATOM      6  C6  DEN d   1       4.035  -6.000  -1.591  0.00  0.00     0.001 A 
ATOM      7  C7  DEN d   1       4.749  -4.915  -1.156  0.00  0.00     0.017 A 
ATOM      8  C8  DEN d   1       4.053  -3.771  -0.788  0.00  0.00    -0.094 A 
ATOM      9  C9  DEN d   1       2.668  -3.745  -0.796  0.00  0.00    -0.072 A 
ENDROOT
TORSDOF 0
ENDMDL
