MODEL 1
REMARK minimizedAffinity 3.32216096
REMARK minimizedRMSD -1
REMARK  0 active torsions:
REMARK  status: ('A' for Active; 'I' for Inactive)
ROOT
ATOM      1  C1  DEN d   1      -6.000  -2.076   6.000  0.00  0.00     0.130 A 
ATOM      2  C2  DEN d   1      -5.742  -3.390   5.418  0.00  0.00    -0.031 A 
ATOM      3  C3  DEN d   1      -5.407  -3.201   3.992  0.00  0.00     0.027 A 
ATOM      4  C4  DEN d   1      -5.259  -1.011   2.638  0.00  0.00     0.027 A 
ATOM      5  C5  DEN d   1      -5.404   0.358   2.697  0.00  0.00    -0.003 A 
ATOM      6  C6  DEN d   1      -5.787   1.003   3.843  0.00  0.00     0.001 A 
ATOM      7  C7  DEN d   1      -5.996   0.283   4.990  0.00  0.00     0.017 A 
ATOM      8  C8  DEN d   1      -5.859  -1.098   4.936  0.00  0.00    -0.094 A 
ATOM      9  C9  DEN d   1      -5.458  -1.730   3.771  0.00  0.00    -0.072 A 
ENDROOT
TORSDOF 0
ENDMDL
