MODEL 1
REMARK minimizedAffinity -3.18019032
REMARK minimizedRMSD -1
REMARK  1 active torsions:
REMARK  status: ('A' for Active; 'I' for Inactive)
REMARK    1  A    between atoms: C1_2  and  C2_3 
ROOT
ATOM      1  C2  UNL d   1       0.014  -0.158  -0.044  0.00  0.00    -0.076 A 
ATOM      2  C3  UNL d   1      -1.338   0.220   0.039  0.00  0.00     0.004 A 
ATOM      3  C4  UNL d   1      -1.878   0.697   1.233  0.00  0.00    -0.003 A 
ATOM      4  C5  UNL d   1      -1.075   0.803   2.363  0.00  0.00     0.000 A 
ATOM      5  C6  UNL d   1       0.272   0.450   2.294  0.00  0.00     0.000 A 
ATOM      6  C7  UNL d   1       0.837  -0.017   1.094  0.00  0.00    -0.073 A 
ATOM      7  C8  UNL d   1       2.294  -0.390   1.079  0.00  0.00     0.078 C 
ENDROOT
BRANCH   1   8
ATOM      8  C1  UNL d   1       0.537  -0.693  -1.357  0.00  0.00     0.053 C 
ATOM      9  C   UNL d   1       0.700   0.396  -2.407  0.00  0.00     0.018 C 
ENDBRANCH   1   8
TORSDOF 1
ENDMDL
