MODEL 1
REMARK minimizedAffinity -3.38467574
REMARK minimizedRMSD -1
REMARK  1 active torsions:
REMARK  status: ('A' for Active; 'I' for Inactive)
REMARK    1  A    between atoms: C1_2  and  C2_3 
ROOT
ATOM      1  C2  UNL d   1       0.057   0.656   0.880  0.00  0.00    -0.076 A 
ATOM      2  C3  UNL d   1      -0.852   0.419  -0.166  0.00  0.00     0.004 A 
ATOM      3  C4  UNL d   1      -0.509  -0.395  -1.244  0.00  0.00    -0.003 A 
ATOM      4  C5  UNL d   1       0.749  -0.986  -1.293  0.00  0.00     0.000 A 
ATOM      5  C6  UNL d   1       1.657  -0.776  -0.256  0.00  0.00     0.000 A 
ATOM      6  C7  UNL d   1       1.321   0.029   0.846  0.00  0.00    -0.073 A 
ATOM      7  C8  UNL d   1       2.341   0.226   1.934  0.00  0.00     0.078 C 
ENDROOT
BRANCH   1   8
ATOM      8  C1  UNL d   1      -0.361   1.570   2.010  0.00  0.00     0.053 C 
ATOM      9  C   UNL d   1      -1.511   1.001   2.825  0.00  0.00     0.018 C 
ENDBRANCH   1   8
TORSDOF 1
ENDMDL
