MODEL 1
REMARK minimizedAffinity 0.15905264
REMARK minimizedRMSD -1
REMARK  1 active torsions:
REMARK  status: ('A' for Active; 'I' for Inactive)
REMARK    1  A    between atoms: C1_2  and  C2_3 
ROOT
ATOM      1  C2  UNL d   1       0.623  -0.640  -0.769  0.00  0.00    -0.076 A 
ATOM      2  C3  UNL d   1       1.668  -1.338  -0.140  0.00  0.00     0.004 A 
ATOM      3  C4  UNL d   1       2.139  -0.950   1.113  0.00  0.00    -0.003 A 
ATOM      4  C5  UNL d   1       1.571   0.144   1.758  0.00  0.00     0.000 A 
ATOM      5  C6  UNL d   1       0.521   0.837   1.157  0.00  0.00     0.000 A 
ATOM      6  C7  UNL d   1       0.024   0.448  -0.099  0.00  0.00    -0.073 A 
ATOM      7  C8  UNL d   1      -1.106   1.236  -0.703  0.00  0.00     0.078 C 
ENDROOT
BRANCH   1   8
ATOM      8  C1  UNL d   1       0.173  -1.091  -2.140  0.00  0.00     0.053 C 
ATOM      9  C   UNL d   1       0.879  -0.344  -3.260  0.00  0.00     0.018 C 
ENDBRANCH   1   8
TORSDOF 1
ENDMDL
