MODEL 1
REMARK minimizedAffinity -5.67597103
REMARK minimizedRMSD -1
REMARK  1 active torsions:
REMARK  status: ('A' for Active; 'I' for Inactive)
REMARK    1  A    between atoms: C1_2  and  C2_3 
ROOT
ATOM      1  C2  UNL d   1       0.389  -0.150   0.881  0.00  0.00    -0.076 A 
ATOM      2  C3  UNL d   1       1.351   0.160   1.859  0.00  0.00     0.004 A 
ATOM      3  C4  UNL d   1       1.006   0.880   3.002  0.00  0.00    -0.003 A 
ATOM      4  C5  UNL d   1      -0.307   1.300   3.186  0.00  0.00     0.000 A 
ATOM      5  C6  UNL d   1      -1.277   0.986   2.236  0.00  0.00     0.000 A 
ATOM      6  C7  UNL d   1      -0.950   0.247   1.086  0.00  0.00    -0.073 A 
ATOM      7  C8  UNL d   1      -2.035  -0.058   0.090  0.00  0.00     0.078 C 
ENDROOT
BRANCH   1   8
ATOM      8  C1  UNL d   1       0.827  -0.909  -0.351  0.00  0.00     0.053 C 
ATOM      9  C   UNL d   1       0.861  -0.033  -1.593  0.00  0.00     0.018 C 
ENDBRANCH   1   8
TORSDOF 1
ENDMDL
