MODEL 1
REMARK minimizedAffinity -2.30222106
REMARK minimizedRMSD -1
REMARK  1 active torsions:
REMARK  status: ('A' for Active; 'I' for Inactive)
REMARK    1  A    between atoms: C1_2  and  C2_3 
ROOT
ATOM      1  C2  UNL d   1      -0.208   0.400   1.206  0.00  0.00    -0.076 A 
ATOM      2  C3  UNL d   1       1.190   0.260   1.251  0.00  0.00     0.004 A 
ATOM      3  C4  UNL d   1       1.885  -0.343   0.204  0.00  0.00    -0.003 A 
ATOM      4  C5  UNL d   1       1.193  -0.814  -0.906  0.00  0.00     0.000 A 
ATOM      5  C6  UNL d   1      -0.192  -0.667  -0.976  0.00  0.00     0.000 A 
ATOM      6  C7  UNL d   1      -0.906  -0.047   0.065  0.00  0.00    -0.073 A 
ATOM      7  C8  UNL d   1      -2.400   0.079  -0.060  0.00  0.00     0.078 C 
ENDROOT
BRANCH   1   8
ATOM      8  C1  UNL d   1      -0.910   1.038   2.384  0.00  0.00     0.053 C 
ATOM      9  C   UNL d   1      -0.368   2.422   2.707  0.00  0.00     0.018 C 
ENDBRANCH   1   8
TORSDOF 1
ENDMDL
