MODEL 1
REMARK minimizedAffinity -3.60419989
REMARK minimizedRMSD -1
REMARK  1 active torsions:
REMARK  status: ('A' for Active; 'I' for Inactive)
REMARK    1  A    between atoms: C1_2  and  C2_3 
ROOT
ATOM      1  C2  UNL d   1       0.281   0.688   1.249  0.00  0.00    -0.076 A 
ATOM      2  C3  UNL d   1       1.488   0.189   1.769  0.00  0.00     0.004 A 
ATOM      3  C4  UNL d   1       2.164  -0.854   1.139  0.00  0.00    -0.003 A 
ATOM      4  C5  UNL d   1       1.644  -1.415  -0.022  0.00  0.00     0.000 A 
ATOM      5  C6  UNL d   1       0.457  -0.921  -0.562  0.00  0.00     0.000 A 
ATOM      6  C7  UNL d   1      -0.229   0.141   0.052  0.00  0.00    -0.073 A 
ATOM      7  C8  UNL d   1      -1.508   0.630  -0.570  0.00  0.00     0.078 C 
ENDROOT
BRANCH   1   8
ATOM      8  C1  UNL d   1      -0.422   1.802   1.991  0.00  0.00     0.053 C 
ATOM      9  C   UNL d   1      -1.405   1.282   3.029  0.00  0.00     0.018 C 
ENDBRANCH   1   8
TORSDOF 1
ENDMDL
