MODEL 1
REMARK minimizedAffinity 6.91091967
REMARK minimizedRMSD -1
REMARK  1 active torsions:
REMARK  status: ('A' for Active; 'I' for Inactive)
REMARK    1  A    between atoms: C1_2  and  C2_3 
ROOT
ATOM      1  C2  UNL d   1      -1.953  -0.256   1.806  0.00  0.00    -0.076 A 
ATOM      2  C3  UNL d   1      -1.032   0.684   1.312  0.00  0.00     0.004 A 
ATOM      3  C4  UNL d   1      -0.407   1.592   2.165  0.00  0.00    -0.003 A 
ATOM      4  C5  UNL d   1      -0.692   1.574   3.526  0.00  0.00     0.000 A 
ATOM      5  C6  UNL d   1      -1.589   0.636   4.036  0.00  0.00     0.000 A 
ATOM      6  C7  UNL d   1      -2.216  -0.297   3.192  0.00  0.00    -0.073 A 
ATOM      7  C8  UNL d   1      -3.179  -1.282   3.795  0.00  0.00     0.078 C 
ENDROOT
BRANCH   1   8
ATOM      8  C1  UNL d   1      -2.620  -1.198   0.830  0.00  0.00     0.053 C 
ATOM      9  C   UNL d   1      -3.164  -0.479  -0.395  0.00  0.00     0.018 C 
ENDBRANCH   1   8
TORSDOF 1
ENDMDL
