MODEL 1
REMARK minimizedAffinity -4.05268288
REMARK minimizedRMSD -1
REMARK  2 active torsions:
REMARK  status: ('A' for Active; 'I' for Inactive)
REMARK    1  A    between atoms: C1_2  and  C2_3 
REMARK    2  A    between atoms: C2_3  and  C3_4 
ROOT
ATOM      1  C3  UNL d   1      -0.761   1.159  -1.333  0.00  0.00    -0.075 A 
ATOM      2  C4  UNL d   1      -0.919   1.766  -2.587  0.00  0.00     0.002 A 
ATOM      3  C5  UNL d   1      -0.599   3.111  -2.768  0.00  0.00     0.002 A 
ATOM      4  C6  UNL d   1      -0.129   3.869  -1.698  0.00  0.00    -0.004 A 
ATOM      5  C7  UNL d   1       0.017   3.280  -0.443  0.00  0.00     0.002 A 
ATOM      6  C8  UNL d   1      -0.298   1.933  -0.260  0.00  0.00     0.002 A 
ENDROOT
BRANCH   1   7
ATOM      7  C2  UNL d   1      -1.077  -0.305  -1.137  0.00  0.00     0.056 C 
BRANCH   7   8
ATOM      8  C1  UNL d   1      -1.675  -0.636   0.234  0.00  0.00     0.007 C 
ATOM      9  C   UNL d   1      -3.190  -0.794   0.206  0.00  0.00     0.009 C 
ENDBRANCH   7   8
ENDBRANCH   1   7
TORSDOF 2
ENDMDL
