MODEL 1
REMARK minimizedAffinity -0.767245412
REMARK minimizedRMSD -1
REMARK  2 active torsions:
REMARK  status: ('A' for Active; 'I' for Inactive)
REMARK    1  A    between atoms: C1_2  and  C2_3 
REMARK    2  A    between atoms: C2_3  and  C3_4 
ROOT
ATOM      1  C3  UNL d   1      -0.298   1.348  -2.026  0.00  0.00    -0.075 A 
ATOM      2  C4  UNL d   1       0.818   1.868  -2.696  0.00  0.00     0.002 A 
ATOM      3  C5  UNL d   1       0.705   3.024  -3.470  0.00  0.00     0.002 A 
ATOM      4  C6  UNL d   1      -0.525   3.666  -3.591  0.00  0.00    -0.004 A 
ATOM      5  C7  UNL d   1      -1.645   3.149  -2.943  0.00  0.00     0.002 A 
ATOM      6  C8  UNL d   1      -1.533   1.995  -2.164  0.00  0.00     0.002 A 
ENDROOT
BRANCH   1   7
ATOM      7  C2  UNL d   1      -0.176   0.114  -1.163  0.00  0.00     0.056 C 
BRANCH   7   8
ATOM      8  C1  UNL d   1       0.306   0.396   0.264  0.00  0.00     0.007 C 
ATOM      9  C   UNL d   1       1.710  -0.125   0.538  0.00  0.00     0.009 C 
ENDBRANCH   7   8
ENDBRANCH   1   7
TORSDOF 2
ENDMDL
