MODEL 1
REMARK minimizedAffinity -3.08948374
REMARK minimizedRMSD -1
REMARK  2 active torsions:
REMARK  status: ('A' for Active; 'I' for Inactive)
REMARK    1  A    between atoms: C1_2  and  C2_3 
REMARK    2  A    between atoms: C2_3  and  C3_4 
ROOT
ATOM      1  C3  UNL d   1      -0.243   0.852  -0.788  0.00  0.00    -0.075 A 
ATOM      2  C4  UNL d   1      -0.695  -0.464  -0.613  0.00  0.00     0.002 A 
ATOM      3  C5  UNL d   1      -0.961  -0.958   0.665  0.00  0.00     0.002 A 
ATOM      4  C6  UNL d   1      -0.768  -0.148   1.782  0.00  0.00    -0.004 A 
ATOM      5  C7  UNL d   1      -0.303   1.155   1.621  0.00  0.00     0.002 A 
ATOM      6  C8  UNL d   1      -0.041   1.653   0.344  0.00  0.00     0.002 A 
ENDROOT
BRANCH   1   7
ATOM      7  C2  UNL d   1       0.018   1.402  -2.170  0.00  0.00     0.056 C 
BRANCH   7   8
ATOM      8  C1  UNL d   1      -0.977   2.480  -2.610  0.00  0.00     0.007 C 
ATOM      9  C   UNL d   1      -2.419   1.991  -2.640  0.00  0.00     0.009 C 
ENDBRANCH   7   8
ENDBRANCH   1   7
TORSDOF 2
ENDMDL
