MODEL 1
REMARK minimizedAffinity -4.39352703
REMARK minimizedRMSD -1
REMARK  2 active torsions:
REMARK  status: ('A' for Active; 'I' for Inactive)
REMARK    1  A    between atoms: C1_2  and  C2_3 
REMARK    2  A    between atoms: C2_3  and  C3_4 
ROOT
ATOM      1  C3  UNL d   1      -0.066  -0.730   0.332  0.00  0.00    -0.075 A 
ATOM      2  C4  UNL d   1      -0.652  -1.056   1.563  0.00  0.00     0.002 A 
ATOM      3  C5  UNL d   1       0.116  -1.602   2.592  0.00  0.00     0.002 A 
ATOM      4  C6  UNL d   1       1.475  -1.839   2.399  0.00  0.00    -0.004 A 
ATOM      5  C7  UNL d   1       2.065  -1.535   1.174  0.00  0.00     0.002 A 
ATOM      6  C8  UNL d   1       1.300  -0.984   0.145  0.00  0.00     0.002 A 
ENDROOT
BRANCH   1   7
ATOM      7  C2  UNL d   1      -0.885  -0.112  -0.775  0.00  0.00     0.056 C 
BRANCH   7   8
ATOM      8  C1  UNL d   1      -0.531   1.349  -1.072  0.00  0.00     0.007 C 
ATOM      9  C   UNL d   1      -0.440   2.211   0.180  0.00  0.00     0.009 C 
ENDBRANCH   7   8
ENDBRANCH   1   7
TORSDOF 2
ENDMDL
