MODEL 1
REMARK minimizedAffinity -5.68682814
REMARK minimizedRMSD -1
REMARK  2 active torsions:
REMARK  status: ('A' for Active; 'I' for Inactive)
REMARK    1  A    between atoms: C1_2  and  C2_3 
REMARK    2  A    between atoms: C2_3  and  C3_4 
ROOT
ATOM      1  C3  UNL d   1       0.193  -0.706   0.133  0.00  0.00    -0.075 A 
ATOM      2  C4  UNL d   1       1.327  -1.528   0.212  0.00  0.00     0.002 A 
ATOM      3  C5  UNL d   1       1.780  -1.992   1.448  0.00  0.00     0.002 A 
ATOM      4  C6  UNL d   1       1.114  -1.633   2.617  0.00  0.00    -0.004 A 
ATOM      5  C7  UNL d   1      -0.003  -0.803   2.551  0.00  0.00     0.002 A 
ATOM      6  C8  UNL d   1      -0.462  -0.341   1.317  0.00  0.00     0.002 A 
ENDROOT
BRANCH   1   7
ATOM      7  C2  UNL d   1      -0.319  -0.224  -1.203  0.00  0.00     0.056 C 
BRANCH   7   8
ATOM      8  C1  UNL d   1      -0.721   1.254  -1.221  0.00  0.00     0.007 C 
ATOM      9  C   UNL d   1      -0.830   1.830  -2.627  0.00  0.00     0.009 C 
ENDBRANCH   7   8
ENDBRANCH   1   7
TORSDOF 2
ENDMDL
