MODEL 1
REMARK minimizedAffinity -4.65979958
REMARK minimizedRMSD -1
REMARK  2 active torsions:
REMARK  status: ('A' for Active; 'I' for Inactive)
REMARK    1  A    between atoms: C1_2  and  C2_3 
REMARK    2  A    between atoms: C2_3  and  C3_4 
ROOT
ATOM      1  C3  UNL d   1      -0.105  -0.140   0.093  0.00  0.00    -0.075 A 
ATOM      2  C4  UNL d   1      -0.811  -0.684   1.176  0.00  0.00     0.002 A 
ATOM      3  C5  UNL d   1      -0.140  -1.071   2.336  0.00  0.00     0.002 A 
ATOM      4  C6  UNL d   1       1.243  -0.928   2.425  0.00  0.00    -0.004 A 
ATOM      5  C7  UNL d   1       1.956  -0.404   1.349  0.00  0.00     0.002 A 
ATOM      6  C8  UNL d   1       1.287  -0.013   0.189  0.00  0.00     0.002 A 
ENDROOT
BRANCH   1   7
ATOM      7  C2  UNL d   1      -0.829   0.308  -1.154  0.00  0.00     0.056 C 
BRANCH   7   8
ATOM      8  C1  UNL d   1      -0.160   1.482  -1.876  0.00  0.00     0.007 C 
ATOM      9  C   UNL d   1      -1.131   2.304  -2.713  0.00  0.00     0.009 C 
ENDBRANCH   7   8
ENDBRANCH   1   7
TORSDOF 2
ENDMDL
