MODEL 1
REMARK minimizedAffinity -1.74448168
REMARK minimizedRMSD -1
REMARK  0 active torsions:
REMARK  status: ('A' for Active; 'I' for Inactive)
ROOT
ATOM      1  C4' PXY d   1       0.097   5.133   0.799  0.00  0.00     0.077 C 
ATOM      2  C1' PXY d   1       0.591  -0.622   0.566  0.00  0.00     0.077 C 
ATOM      3  C1  PXY d   1       0.459   0.887   0.640  0.00  0.00    -0.082 A 
ATOM      4  C2  PXY d   1       0.148   1.570  -0.449  0.00  0.00     0.003 A 
ATOM      5  C3  PXY d   1       0.056   2.938  -0.408  0.00  0.00     0.003 A 
ATOM      6  C4  PXY d   1       0.232   3.608   0.773  0.00  0.00    -0.082 A 
ATOM      7  C5  PXY d   1       0.539   2.917   1.891  0.00  0.00     0.003 A 
ATOM      8  C6  PXY d   1       0.668   1.533   1.819  0.00  0.00     0.003 A 
ENDROOT
TORSDOF 0
ENDMDL
