MODEL 1
REMARK minimizedAffinity -6.31015062
REMARK minimizedRMSD -1
REMARK  0 active torsions:
REMARK  status: ('A' for Active; 'I' for Inactive)
ROOT
ATOM      1  C4' PXY d   1      -2.956   5.543   1.810  0.00  0.00     0.077 C 
ATOM      2  C1' PXY d   1       0.374   0.832   1.441  0.00  0.00     0.077 C 
ATOM      3  C1  PXY d   1      -0.492   2.073   1.529  0.00  0.00    -0.082 A 
ATOM      4  C2  PXY d   1      -1.178   2.315   2.634  0.00  0.00     0.003 A 
ATOM      5  C3  PXY d   1      -1.992   3.416   2.718  0.00  0.00     0.003 A 
ATOM      6  C4  PXY d   1      -2.062   4.307   1.680  0.00  0.00    -0.082 A 
ATOM      7  C5  PXY d   1      -1.356   4.073   0.554  0.00  0.00     0.003 A 
ATOM      8  C6  PXY d   1      -0.568   2.928   0.472  0.00  0.00     0.003 A 
ENDROOT
TORSDOF 0
ENDMDL
