MODEL 1
REMARK minimizedAffinity 4.94595003
REMARK minimizedRMSD -1
REMARK  0 active torsions:
REMARK  status: ('A' for Active; 'I' for Inactive)
ROOT
ATOM      1  C4' PXY d   1      -0.782   3.687  -2.391  0.00  0.00     0.077 C 
ATOM      2  C1' PXY d   1      -1.101   2.242   3.197  0.00  0.00     0.077 C 
ATOM      3  C1  PXY d   1      -1.029   2.627   1.733  0.00  0.00    -0.082 A 
ATOM      4  C2  PXY d   1      -0.276   1.919   0.907  0.00  0.00     0.003 A 
ATOM      5  C3  PXY d   1      -0.174   2.272  -0.414  0.00  0.00     0.003 A 
ATOM      6  C4  PXY d   1      -0.892   3.329  -0.906  0.00  0.00    -0.082 A 
ATOM      7  C5  PXY d   1      -1.671   4.050  -0.072  0.00  0.00     0.003 A 
ATOM      8  C6  PXY d   1      -1.729   3.700   1.274  0.00  0.00     0.003 A 
ENDROOT
TORSDOF 0
ENDMDL
