MODEL 1
REMARK minimizedAffinity 2.6254406
REMARK minimizedRMSD -1
REMARK  0 active torsions:
REMARK  status: ('A' for Active; 'I' for Inactive)
ROOT
ATOM      1  C4' PXY d   1      -0.742   1.227   2.727  0.00  0.00     0.077 C 
ATOM      2  C1' PXY d   1      -0.494   4.242  -2.198  0.00  0.00     0.077 C 
ATOM      3  C1  PXY d   1      -0.564   3.462  -0.901  0.00  0.00    -0.082 A 
ATOM      4  C2  PXY d   1       0.215   2.407  -0.729  0.00  0.00     0.003 A 
ATOM      5  C3  PXY d   1       0.142   1.671   0.425  0.00  0.00     0.003 A 
ATOM      6  C4  PXY d   1      -0.699   2.050   1.437  0.00  0.00    -0.082 A 
ATOM      7  C5  PXY d   1      -1.490   3.132   1.274  0.00  0.00     0.003 A 
ATOM      8  C6  PXY d   1      -1.430   3.841   0.078  0.00  0.00     0.003 A 
ENDROOT
TORSDOF 0
ENDMDL
