MODEL 1
REMARK minimizedAffinity 0.839214206
REMARK minimizedRMSD -1
REMARK  0 active torsions:
REMARK  status: ('A' for Active; 'I' for Inactive)
ROOT
ATOM      1  C4' PXY d   1      -2.292   5.422   1.172  0.00  0.00     0.077 C 
ATOM      2  C1' PXY d   1       0.383   0.382   2.099  0.00  0.00     0.077 C 
ATOM      3  C1  PXY d   1      -0.312   1.705   1.844  0.00  0.00    -0.082 A 
ATOM      4  C2  PXY d   1      -0.806   2.391   2.863  0.00  0.00     0.003 A 
ATOM      5  C3  PXY d   1      -1.465   3.574   2.648  0.00  0.00     0.003 A 
ATOM      6  C4  PXY d   1      -1.574   4.086   1.383  0.00  0.00    -0.082 A 
ATOM      7  C5  PXY d   1      -1.063   3.398   0.340  0.00  0.00     0.003 A 
ATOM      8  C6  PXY d   1      -0.434   2.179   0.575  0.00  0.00     0.003 A 
ENDROOT
TORSDOF 0
ENDMDL
