MODEL 1
REMARK minimizedAffinity -1.36306226
REMARK minimizedRMSD -1
REMARK  0 active torsions:
REMARK  status: ('A' for Active; 'I' for Inactive)
ROOT
ATOM      1  C4' PXY d   1      -0.405   1.510   2.714  0.00  0.00     0.077 C 
ATOM      2  C1' PXY d   1      -1.490   3.255  -2.689  0.00  0.00     0.077 C 
ATOM      3  C1  PXY d   1      -1.202   2.810  -1.269  0.00  0.00    -0.082 A 
ATOM      4  C2  PXY d   1      -0.891   1.546  -1.030  0.00  0.00     0.003 A 
ATOM      5  C3  PXY d   1      -0.659   1.119   0.252  0.00  0.00     0.003 A 
ATOM      6  C4  PXY d   1      -0.694   2.007   1.295  0.00  0.00    -0.082 A 
ATOM      7  C5  PXY d   1      -1.001   3.300   1.058  0.00  0.00     0.003 A 
ATOM      8  C6  PXY d   1      -1.273   3.704  -0.246  0.00  0.00     0.003 A 
ENDROOT
TORSDOF 0
ENDMDL
