MODEL 1
REMARK minimizedAffinity 4.46798706
REMARK minimizedRMSD -1
REMARK  0 active torsions:
REMARK  status: ('A' for Active; 'I' for Inactive)
ROOT
ATOM      1  C4' PXY d   1      -0.504   2.188   3.156  0.00  0.00     0.077 C 
ATOM      2  C1' PXY d   1      -0.801   3.199  -2.527  0.00  0.00     0.077 C 
ATOM      3  C1  PXY d   1      -0.723   2.947  -1.034  0.00  0.00    -0.082 A 
ATOM      4  C2  PXY d   1      -0.226   1.804  -0.589  0.00  0.00     0.003 A 
ATOM      5  C3  PXY d   1      -0.178   1.546   0.757  0.00  0.00     0.003 A 
ATOM      6  C4  PXY d   1      -0.593   2.490   1.658  0.00  0.00    -0.082 A 
ATOM      7  C5  PXY d   1      -1.091   3.662   1.212  0.00  0.00     0.003 A 
ATOM      8  C6  PXY d   1      -1.170   3.888  -0.159  0.00  0.00     0.003 A 
ENDROOT
TORSDOF 0
ENDMDL
