MODEL 1
REMARK minimizedAffinity 5.57482481
REMARK minimizedRMSD -1
REMARK  0 active torsions:
REMARK  status: ('A' for Active; 'I' for Inactive)
ROOT
ATOM      1  C4' PXY d   1      -0.016  -0.690   4.218  0.00  0.00     0.077 C 
ATOM      2  C1' PXY d   1      -0.993   3.822   0.739  0.00  0.00     0.077 C 
ATOM      3  C1  PXY d   1      -0.748   2.642   1.659  0.00  0.00    -0.082 A 
ATOM      4  C2  PXY d   1       0.473   2.144   1.772  0.00  0.00     0.003 A 
ATOM      5  C3  PXY d   1       0.707   1.057   2.574  0.00  0.00     0.003 A 
ATOM      6  C4  PXY d   1      -0.309   0.507   3.309  0.00  0.00    -0.082 A 
ATOM      7  C5  PXY d   1      -1.555   1.016   3.208  0.00  0.00     0.003 A 
ATOM      8  C6  PXY d   1      -1.780   2.094   2.356  0.00  0.00     0.003 A 
ENDROOT
TORSDOF 0
ENDMDL
