MODEL 1
REMARK minimizedAffinity -0.536684573
REMARK minimizedRMSD -1
REMARK  0 active torsions:
REMARK  status: ('A' for Active; 'I' for Inactive)
ROOT
ATOM      1  C4' PXY d   1      -3.377   4.967   1.475  0.00  0.00     0.077 C 
ATOM      2  C1' PXY d   1       1.645   2.178   2.115  0.00  0.00     0.077 C 
ATOM      3  C1  PXY d   1       0.322   2.898   1.950  0.00  0.00    -0.082 A 
ATOM      4  C2  PXY d   1       0.255   3.978   1.189  0.00  0.00     0.003 A 
ATOM      5  C3  PXY d   1      -0.926   4.661   1.054  0.00  0.00     0.003 A 
ATOM      6  C4  PXY d   1      -2.064   4.202   1.662  0.00  0.00    -0.082 A 
ATOM      7  C5  PXY d   1      -2.007   3.094   2.432  0.00  0.00     0.003 A 
ATOM      8  C6  PXY d   1      -0.789   2.440   2.589  0.00  0.00     0.003 A 
ENDROOT
TORSDOF 0
ENDMDL
