MODEL 1
REMARK minimizedAffinity -2.06615663
REMARK minimizedRMSD -1
REMARK  0 active torsions:
REMARK  status: ('A' for Active; 'I' for Inactive)
ROOT
ATOM      1  C4' PXY d   1       0.306   1.580   3.174  0.00  0.00     0.077 C 
ATOM      2  C1' PXY d   1      -2.348   5.554  -0.079  0.00  0.00     0.077 C 
ATOM      3  C1  PXY d   1      -1.642   4.512   0.766  0.00  0.00    -0.082 A 
ATOM      4  C2  PXY d   1      -2.353   3.687   1.517  0.00  0.00     0.003 A 
ATOM      5  C3  PXY d   1      -1.729   2.760   2.312  0.00  0.00     0.003 A 
ATOM      6  C4  PXY d   1      -0.365   2.641   2.297  0.00  0.00    -0.082 A 
ATOM      7  C5  PXY d   1       0.367   3.472   1.525  0.00  0.00     0.003 A 
ATOM      8  C6  PXY d   1      -0.283   4.433   0.757  0.00  0.00     0.003 A 
ENDROOT
TORSDOF 0
ENDMDL
