MODEL 1
REMARK minimizedAffinity 1.89066815
REMARK minimizedRMSD -1
REMARK  0 active torsions:
REMARK  status: ('A' for Active; 'I' for Inactive)
ROOT
ATOM      1  C4' PXY d   1       4.295  -4.823  -1.620  0.00  0.00     0.077 C 
ATOM      2  C1' PXY d   1       1.254   0.073  -1.182  0.00  0.00     0.077 C 
ATOM      3  C1  PXY d   1       2.058  -1.206  -1.308  0.00  0.00    -0.082 A 
ATOM      4  C2  PXY d   1       1.581  -2.330  -0.798  0.00  0.00     0.003 A 
ATOM      5  C3  PXY d   1       2.310  -3.490  -0.874  0.00  0.00     0.003 A 
ATOM      6  C4  PXY d   1       3.514  -3.510  -1.526  0.00  0.00    -0.082 A 
ATOM      7  C5  PXY d   1       4.002  -2.369  -2.058  0.00  0.00     0.003 A 
ATOM      8  C6  PXY d   1       3.266  -1.194  -1.934  0.00  0.00     0.003 A 
ENDROOT
TORSDOF 0
ENDMDL
