MODEL 1
REMARK minimizedAffinity 3.95970607
REMARK minimizedRMSD -1
REMARK  0 active torsions:
REMARK  status: ('A' for Active; 'I' for Inactive)
ROOT
ATOM      1  C4' PXY d   1       5.228  -4.023  -3.866  0.00  0.00     0.077 C 
ATOM      2  C1' PXY d   1       3.846  -5.995   1.390  0.00  0.00     0.077 C 
ATOM      3  C1  PXY d   1       4.221  -5.482   0.013  0.00  0.00    -0.082 A 
ATOM      4  C2  PXY d   1       3.488  -4.539  -0.555  0.00  0.00     0.003 A 
ATOM      5  C3  PXY d   1       3.794  -4.086  -1.813  0.00  0.00     0.003 A 
ATOM      6  C4  PXY d   1       4.893  -4.565  -2.473  0.00  0.00    -0.082 A 
ATOM      7  C5  PXY d   1       5.652  -5.520  -1.896  0.00  0.00     0.003 A 
ATOM      8  C6  PXY d   1       5.301  -5.996  -0.636  0.00  0.00     0.003 A 
ENDROOT
TORSDOF 0
ENDMDL
