MODEL 1
REMARK minimizedAffinity 22.7936096
REMARK minimizedRMSD -1
REMARK  2 active torsions:
REMARK  status: ('A' for Active; 'I' for Inactive)
REMARK    1  A    between atoms: C2'_3  and  C1'_4 
REMARK    2  A    between atoms: C1'_4  and  C1_5 
ROOT
ATOM      1  C1  I4B d   1       2.336   2.861  -1.057  0.00  0.00    -0.075 A 
ATOM      2  C2  I4B d   1       2.066   2.826   0.288  0.00  0.00     0.003 A 
ATOM      3  C3  I4B d   1       1.293   3.850   0.887  0.00  0.00     0.002 A 
ATOM      4  C4  I4B d   1       0.857   4.910   0.118  0.00  0.00    -0.004 A 
ATOM      5  C5  I4B d   1       1.113   4.932  -1.251  0.00  0.00     0.002 A 
ATOM      6  C6  I4B d   1       1.846   3.895  -1.844  0.00  0.00     0.003 A 
ENDROOT
BRANCH   1   7
ATOM      7  C1' I4B d   1       3.183   1.779  -1.650  0.00  0.00     0.060 C 
BRANCH   7   8
ATOM      8  C2' I4B d   1       2.958   0.516  -0.845  0.00  0.00    -0.013 C 
ATOM      9  C4' I4B d   1       2.167  -0.497  -1.630  0.00  0.00     0.013 C 
ATOM     10  C3' I4B d   1       4.299  -0.029  -0.455  0.00  0.00     0.013 C 
ENDBRANCH   7   8
ENDBRANCH   1   7
TORSDOF 2
ENDMDL
