MODEL 1
REMARK minimizedAffinity 7.2756114
REMARK minimizedRMSD -1
REMARK  2 active torsions:
REMARK  status: ('A' for Active; 'I' for Inactive)
REMARK    1  A    between atoms: C2'_3  and  C1'_4 
REMARK    2  A    between atoms: C1'_4  and  C1_5 
ROOT
ATOM      1  C1  I4B d   1      -4.827  -2.231   3.025  0.00  0.00    -0.075 A 
ATOM      2  C2  I4B d   1      -5.916  -2.991   2.679  0.00  0.00     0.003 A 
ATOM      3  C3  I4B d   1      -5.997  -4.347   3.081  0.00  0.00     0.002 A 
ATOM      4  C4  I4B d   1      -4.949  -4.911   3.780  0.00  0.00    -0.004 A 
ATOM      5  C5  I4B d   1      -3.856  -4.132   4.150  0.00  0.00     0.002 A 
ATOM      6  C6  I4B d   1      -3.800  -2.781   3.781  0.00  0.00     0.003 A 
ENDROOT
BRANCH   1   7
ATOM      7  C1' I4B d   1      -4.760  -0.812   2.555  0.00  0.00     0.060 C 
BRANCH   7   8
ATOM      8  C2' I4B d   1      -3.576  -0.152   3.232  0.00  0.00    -0.013 C 
ATOM      9  C4' I4B d   1      -2.586   0.362   2.220  0.00  0.00     0.013 C 
ATOM     10  C3' I4B d   1      -4.097   0.960   4.094  0.00  0.00     0.013 C 
ENDBRANCH   7   8
ENDBRANCH   1   7
TORSDOF 2
ENDMDL
