MODEL 1
REMARK minimizedAffinity 4.27178526
REMARK minimizedRMSD -1
REMARK  2 active torsions:
REMARK  status: ('A' for Active; 'I' for Inactive)
REMARK    1  A    between atoms: C2'_3  and  C1'_4 
REMARK    2  A    between atoms: C1'_4  and  C1_5 
ROOT
ATOM      1  C1  I4B d   1       2.085  -3.224  -1.332  0.00  0.00    -0.075 A 
ATOM      2  C2  I4B d   1       1.417  -2.613  -2.364  0.00  0.00     0.003 A 
ATOM      3  C3  I4B d   1       1.677  -2.991  -3.704  0.00  0.00     0.002 A 
ATOM      4  C4  I4B d   1       2.641  -3.942  -3.967  0.00  0.00    -0.004 A 
ATOM      5  C5  I4B d   1       3.301  -4.576  -2.919  0.00  0.00     0.002 A 
ATOM      6  C6  I4B d   1       3.013  -4.225  -1.592  0.00  0.00     0.003 A 
ENDROOT
BRANCH   1   7
ATOM      7  C1' I4B d   1       1.811  -2.778   0.069  0.00  0.00     0.060 C 
BRANCH   7   8
ATOM      8  C2' I4B d   1       1.279  -1.360   0.011  0.00  0.00    -0.013 C 
ATOM      9  C4' I4B d   1       0.359  -1.075   1.169  0.00  0.00     0.013 C 
ATOM     10  C3' I4B d   1       2.453  -0.426   0.009  0.00  0.00     0.013 C 
ENDBRANCH   7   8
ENDBRANCH   1   7
TORSDOF 2
ENDMDL
