MODEL 1
REMARK minimizedAffinity 1.03340495
REMARK minimizedRMSD -1
REMARK  2 active torsions:
REMARK  status: ('A' for Active; 'I' for Inactive)
REMARK    1  A    between atoms: C2'_3  and  C1'_4 
REMARK    2  A    between atoms: C1'_4  and  C1_5 
ROOT
ATOM      1  C1  I4B d   1       3.085  -4.644  -1.907  0.00  0.00    -0.075 A 
ATOM      2  C2  I4B d   1       2.245  -3.563  -1.994  0.00  0.00     0.003 A 
ATOM      3  C3  I4B d   1       2.363  -2.492  -1.074  0.00  0.00     0.002 A 
ATOM      4  C4  I4B d   1       3.296  -2.568  -0.060  0.00  0.00    -0.004 A 
ATOM      5  C5  I4B d   1       4.163  -3.655   0.012  0.00  0.00     0.002 A 
ATOM      6  C6  I4B d   1       4.065  -4.695  -0.924  0.00  0.00     0.003 A 
ENDROOT
BRANCH   1   7
ATOM      7  C1' I4B d   1       2.910  -5.772  -2.874  0.00  0.00     0.060 C 
BRANCH   7   8
ATOM      8  C2' I4B d   1       3.266  -5.261  -4.256  0.00  0.00    -0.013 C 
ATOM      9  C4' I4B d   1       2.267  -4.241  -4.734  0.00  0.00     0.013 C 
ATOM     10  C3' I4B d   1       4.647  -4.680  -4.193  0.00  0.00     0.013 C 
ENDBRANCH   7   8
ENDBRANCH   1   7
TORSDOF 2
ENDMDL
