MODEL 1
REMARK minimizedAffinity 13.0749483
REMARK minimizedRMSD -1
REMARK  2 active torsions:
REMARK  status: ('A' for Active; 'I' for Inactive)
REMARK    1  A    between atoms: C2'_3  and  C1'_4 
REMARK    2  A    between atoms: C1'_4  and  C1_5 
ROOT
ATOM      1  C1  I4B d   1       2.268  -1.398  -1.666  0.00  0.00    -0.075 A 
ATOM      2  C2  I4B d   1       2.667  -2.701  -1.507  0.00  0.00     0.003 A 
ATOM      3  C3  I4B d   1       3.631  -3.036  -0.525  0.00  0.00     0.002 A 
ATOM      4  C4  I4B d   1       4.202  -2.036   0.236  0.00  0.00    -0.004 A 
ATOM      5  C5  I4B d   1       3.779  -0.718   0.088  0.00  0.00     0.002 A 
ATOM      6  C6  I4B d   1       2.797  -0.398  -0.860  0.00  0.00     0.003 A 
ENDROOT
BRANCH   1   7
ATOM      7  C1' I4B d   1       1.272  -1.075  -2.735  0.00  0.00     0.060 C 
BRANCH   7   8
ATOM      8  C2' I4B d   1       1.950  -0.172  -3.747  0.00  0.00    -0.013 C 
ATOM      9  C4' I4B d   1       2.332  -0.935  -4.988  0.00  0.00     0.013 C 
ATOM     10  C3' I4B d   1       1.008   0.950  -4.069  0.00  0.00     0.013 C 
ENDBRANCH   7   8
ENDBRANCH   1   7
TORSDOF 2
ENDMDL
