MODEL 1
REMARK minimizedAffinity 1.91797447
REMARK minimizedRMSD -1
REMARK  2 active torsions:
REMARK  status: ('A' for Active; 'I' for Inactive)
REMARK    1  A    between atoms: C2'_3  and  C1'_4 
REMARK    2  A    between atoms: C1'_4  and  C1_5 
ROOT
ATOM      1  C1  I4B d   1      -1.333   2.233   5.270  0.00  0.00    -0.075 A 
ATOM      2  C2  I4B d   1      -0.184   2.052   5.998  0.00  0.00     0.003 A 
ATOM      3  C3  I4B d   1       1.053   1.852   5.339  0.00  0.00     0.002 A 
ATOM      4  C4  I4B d   1       1.087   1.790   3.961  0.00  0.00    -0.004 A 
ATOM      5  C5  I4B d   1      -0.075   1.997   3.224  0.00  0.00     0.002 A 
ATOM      6  C6  I4B d   1      -1.291   2.233   3.882  0.00  0.00     0.003 A 
ENDROOT
BRANCH   1   7
ATOM      7  C1' I4B d   1      -2.628   2.409   5.999  0.00  0.00     0.060 C 
BRANCH   7   8
ATOM      8  C2' I4B d   1      -3.697   2.742   4.977  0.00  0.00    -0.013 C 
ATOM      9  C4' I4B d   1      -4.186   1.501   4.277  0.00  0.00     0.013 C 
ATOM     10  C3' I4B d   1      -4.817   3.439   5.690  0.00  0.00     0.013 C 
ENDBRANCH   7   8
ENDBRANCH   1   7
TORSDOF 2
ENDMDL
