MODEL 1
REMARK minimizedAffinity 0.286449254
REMARK minimizedRMSD -1
REMARK  2 active torsions:
REMARK  status: ('A' for Active; 'I' for Inactive)
REMARK    1  A    between atoms: C2'_3  and  C1'_4 
REMARK    2  A    between atoms: C1'_4  and  C1_5 
ROOT
ATOM      1  C1  I4B d   1       2.879  -3.655  -1.724  0.00  0.00    -0.075 A 
ATOM      2  C2  I4B d   1       1.881  -2.823  -2.167  0.00  0.00     0.003 A 
ATOM      3  C3  I4B d   1       1.744  -2.546  -3.549  0.00  0.00     0.002 A 
ATOM      4  C4  I4B d   1       2.653  -3.077  -4.441  0.00  0.00    -0.004 A 
ATOM      5  C5  I4B d   1       3.651  -3.938  -3.993  0.00  0.00     0.002 A 
ATOM      6  C6  I4B d   1       3.757  -4.239  -2.627  0.00  0.00     0.003 A 
ENDROOT
BRANCH   1   7
ATOM      7  C1' I4B d   1       3.014  -3.900  -0.255  0.00  0.00     0.060 C 
BRANCH   7   8
ATOM      8  C2' I4B d   1       4.375  -4.518  -0.008  0.00  0.00    -0.013 C 
ATOM      9  C4' I4B d   1       5.331  -3.514   0.580  0.00  0.00     0.013 C 
ATOM     10  C3' I4B d   1       4.191  -5.691   0.909  0.00  0.00     0.013 C 
ENDBRANCH   7   8
ENDBRANCH   1   7
TORSDOF 2
ENDMDL
