MODEL 1
REMARK minimizedAffinity 12.1141071
REMARK minimizedRMSD -1
REMARK  2 active torsions:
REMARK  status: ('A' for Active; 'I' for Inactive)
REMARK    1  A    between atoms: C2'_3  and  C1'_4 
REMARK    2  A    between atoms: C1'_4  and  C1_5 
ROOT
ATOM      1  C1  I4B d   1       4.023  -4.767  -2.388  0.00  0.00    -0.075 A 
ATOM      2  C2  I4B d   1       2.990  -4.142  -1.734  0.00  0.00     0.003 A 
ATOM      3  C3  I4B d   1       1.880  -3.648  -2.462  0.00  0.00     0.002 A 
ATOM      4  C4  I4B d   1       1.867  -3.756  -3.838  0.00  0.00    -0.004 A 
ATOM      5  C5  I4B d   1       2.904  -4.410  -4.497  0.00  0.00     0.002 A 
ATOM      6  C6  I4B d   1       3.983  -4.930  -3.767  0.00  0.00     0.003 A 
ENDROOT
BRANCH   1   7
ATOM      7  C1' I4B d   1       5.195  -5.246  -1.592  0.00  0.00     0.060 C 
BRANCH   7   8
ATOM      8  C2' I4B d   1       4.972  -4.847  -0.147  0.00  0.00    -0.013 C 
ATOM      9  C4' I4B d   1       5.241  -6.000   0.784  0.00  0.00     0.013 C 
ATOM     10  C3' I4B d   1       5.870  -3.685   0.156  0.00  0.00     0.013 C 
ENDBRANCH   7   8
ENDBRANCH   1   7
TORSDOF 2
ENDMDL
