MODEL 1
REMARK minimizedAffinity 21.6165333
REMARK minimizedRMSD -1
REMARK  2 active torsions:
REMARK  status: ('A' for Active; 'I' for Inactive)
REMARK    1  A    between atoms: C2'_3  and  C1'_4 
REMARK    2  A    between atoms: C1'_4  and  C1_5 
ROOT
ATOM      1  C1  I4B d   1       2.362  -0.196  -1.874  0.00  0.00    -0.075 A 
ATOM      2  C2  I4B d   1       2.476  -0.876  -0.688  0.00  0.00     0.003 A 
ATOM      3  C3  I4B d   1       3.413  -0.455   0.288  0.00  0.00     0.002 A 
ATOM      4  C4  I4B d   1       4.244   0.612   0.017  0.00  0.00    -0.004 A 
ATOM      5  C5  I4B d   1       4.111   1.315  -1.178  0.00  0.00     0.002 A 
ATOM      6  C6  I4B d   1       3.156   0.916  -2.124  0.00  0.00     0.003 A 
ENDROOT
BRANCH   1   7
ATOM      7  C1' I4B d   1       1.386  -0.687  -2.896  0.00  0.00     0.060 C 
BRANCH   7   8
ATOM      8  C2' I4B d   1       1.787  -0.113  -4.239  0.00  0.00    -0.013 C 
ATOM      9  C4' I4B d   1       2.018  -1.204  -5.251  0.00  0.00     0.013 C 
ATOM     10  C3' I4B d   1       0.702   0.821  -4.686  0.00  0.00     0.013 C 
ENDBRANCH   7   8
ENDBRANCH   1   7
TORSDOF 2
ENDMDL
