MODEL 1
REMARK minimizedAffinity 14.9921551
REMARK minimizedRMSD -1
REMARK  2 active torsions:
REMARK  status: ('A' for Active; 'I' for Inactive)
REMARK    1  A    between atoms: C2'_3  and  C1'_4 
REMARK    2  A    between atoms: C1'_4  and  C1_5 
ROOT
ATOM      1  C1  I4B d   1      -2.624   1.219   3.478  0.00  0.00    -0.075 A 
ATOM      2  C2  I4B d   1      -2.181   2.205   2.632  0.00  0.00     0.003 A 
ATOM      3  C3  I4B d   1      -0.800   2.329   2.344  0.00  0.00     0.002 A 
ATOM      4  C4  I4B d   1       0.101   1.485   2.961  0.00  0.00    -0.004 A 
ATOM      5  C5  I4B d   1      -0.352   0.472   3.801  0.00  0.00     0.002 A 
ATOM      6  C6  I4B d   1      -1.725   0.330   4.052  0.00  0.00     0.003 A 
ENDROOT
BRANCH   1   7
ATOM      7  C1' I4B d   1      -4.086   1.138   3.786  0.00  0.00     0.060 C 
BRANCH   7   8
ATOM      8  C2' I4B d   1      -4.486   2.414   4.498  0.00  0.00    -0.013 C 
ATOM      9  C4' I4B d   1      -5.960   2.683   4.349  0.00  0.00     0.013 C 
ATOM     10  C3' I4B d   1      -4.103   2.277   5.941  0.00  0.00     0.013 C 
ENDBRANCH   7   8
ENDBRANCH   1   7
TORSDOF 2
ENDMDL
