MODEL 1
REMARK minimizedAffinity 22.6996155
REMARK minimizedRMSD -1
REMARK  2 active torsions:
REMARK  status: ('A' for Active; 'I' for Inactive)
REMARK    1  A    between atoms: C2'_3  and  C1'_4 
REMARK    2  A    between atoms: C1'_4  and  C1_5 
ROOT
ATOM      1  C1  I4B d   1      -1.288   1.608   3.536  0.00  0.00    -0.075 A 
ATOM      2  C2  I4B d   1      -0.951   2.028   4.799  0.00  0.00     0.003 A 
ATOM      3  C3  I4B d   1       0.409   2.110   5.183  0.00  0.00     0.002 A 
ATOM      4  C4  I4B d   1       1.391   1.717   4.297  0.00  0.00    -0.004 A 
ATOM      5  C5  I4B d   1       1.048   1.314   3.009  0.00  0.00     0.002 A 
ATOM      6  C6  I4B d   1      -0.299   1.270   2.622  0.00  0.00     0.003 A 
ENDROOT
BRANCH   1   7
ATOM      7  C1' I4B d   1      -2.736   1.502   3.174  0.00  0.00     0.060 C 
BRANCH   7   8
ATOM      8  C2' I4B d   1      -3.506   1.147   4.430  0.00  0.00    -0.013 C 
ATOM      9  C4' I4B d   1      -4.551   2.186   4.741  0.00  0.00     0.013 C 
ATOM     10  C3' I4B d   1      -4.128  -0.202   4.224  0.00  0.00     0.013 C 
ENDBRANCH   7   8
ENDBRANCH   1   7
TORSDOF 2
ENDMDL
