MODEL 1
REMARK minimizedAffinity 10.9444723
REMARK minimizedRMSD -1
REMARK  2 active torsions:
REMARK  status: ('A' for Active; 'I' for Inactive)
REMARK    1  A    between atoms: C2'_3  and  C1'_4 
REMARK    2  A    between atoms: C1'_4  and  C1_5 
ROOT
ATOM      1  C1  I4B d   1      -0.709  -3.806  -3.085  0.00  0.00    -0.075 A 
ATOM      2  C2  I4B d   1      -0.216  -4.418  -4.211  0.00  0.00     0.003 A 
ATOM      3  C3  I4B d   1      -0.971  -4.420  -5.409  0.00  0.00     0.002 A 
ATOM      4  C4  I4B d   1      -2.226  -3.846  -5.423  0.00  0.00    -0.004 A 
ATOM      5  C5  I4B d   1      -2.714  -3.207  -4.287  0.00  0.00     0.002 A 
ATOM      6  C6  I4B d   1      -1.946  -3.175  -3.114  0.00  0.00     0.003 A 
ENDROOT
BRANCH   1   7
ATOM      7  C1' I4B d   1       0.100  -3.851  -1.828  0.00  0.00     0.060 C 
BRANCH   7   8
ATOM      8  C2' I4B d   1       1.245  -2.869  -1.973  0.00  0.00    -0.013 C 
ATOM      9  C4' I4B d   1       0.739  -1.454  -2.075  0.00  0.00     0.013 C 
ATOM     10  C3' I4B d   1       2.151  -3.037  -0.791  0.00  0.00     0.013 C 
ENDBRANCH   7   8
ENDBRANCH   1   7
TORSDOF 2
ENDMDL
