MODEL 1
REMARK minimizedAffinity 22.8353119
REMARK minimizedRMSD -1
REMARK  2 active torsions:
REMARK  status: ('A' for Active; 'I' for Inactive)
REMARK    1  A    between atoms: C2'_3  and  C1'_4 
REMARK    2  A    between atoms: C1'_4  and  C1_5 
ROOT
ATOM      1  C1  I4B d   1       2.249   3.554  -1.235  0.00  0.00    -0.075 A 
ATOM      2  C2  I4B d   1       1.957   4.452  -2.231  0.00  0.00     0.003 A 
ATOM      3  C3  I4B d   1       1.298   5.667  -1.923  0.00  0.00     0.002 A 
ATOM      4  C4  I4B d   1       0.906   5.917  -0.624  0.00  0.00    -0.004 A 
ATOM      5  C5  I4B d   1       1.223   5.015   0.387  0.00  0.00     0.002 A 
ATOM      6  C6  I4B d   1       1.910   3.831   0.082  0.00  0.00     0.003 A 
ENDROOT
BRANCH   1   7
ATOM      7  C1' I4B d   1       2.918   2.266  -1.600  0.00  0.00     0.060 C 
BRANCH   7   8
ATOM      8  C2' I4B d   1       2.740   1.304  -0.444  0.00  0.00    -0.013 C 
ATOM      9  C4' I4B d   1       2.028   0.051  -0.881  0.00  0.00     0.013 C 
ATOM     10  C3' I4B d   1       4.098   0.989   0.110  0.00  0.00     0.013 C 
ENDBRANCH   7   8
ENDBRANCH   1   7
TORSDOF 2
ENDMDL
