MODEL 1
REMARK minimizedAffinity 11.2197647
REMARK minimizedRMSD -1
REMARK  0 active torsions:
REMARK  status: ('A' for Active; 'I' for Inactive)
ROOT
ATOM      1  C   UNL d   1       2.141   2.963  -2.719  0.00  0.00     0.020 A 
ATOM      2  C1  UNL d   1       2.765   4.075  -2.154  0.00  0.00     0.020 A 
ATOM      3  C2  UNL d   1       3.956   4.560  -2.700  0.00  0.00     0.034 A 
ATOM      4  C3  UNL d   1       4.526   3.933  -3.814  0.00  0.00     0.017 A 
ATOM      5  C4  UNL d   1       3.899   2.817  -4.380  0.00  0.00     0.017 A 
ATOM      6  C5  UNL d   1       2.707   2.336  -3.829  0.00  0.00     0.034 A 
ATOM      7 Cl   UNL d   1       4.542   1.990  -5.755  0.00  0.00    -0.070 Cl
ATOM      8 Cl1  UNL d   1       5.999   4.586  -4.438  0.00  0.00    -0.070 Cl
ENDROOT
TORSDOF 0
ENDMDL
