MODEL 1
REMARK minimizedAffinity 3.22170234
REMARK minimizedRMSD -1
REMARK  0 active torsions:
REMARK  status: ('A' for Active; 'I' for Inactive)
ROOT
ATOM      1  C   UNL d   1      -3.333  -6.000  -6.000  0.00  0.00     0.020 A 
ATOM      2  C1  UNL d   1      -4.031  -5.652  -4.844  0.00  0.00     0.020 A 
ATOM      3  C2  UNL d   1      -3.334  -5.303  -3.686  0.00  0.00     0.034 A 
ATOM      4  C3  UNL d   1      -1.935  -5.301  -3.680  0.00  0.00     0.017 A 
ATOM      5  C4  UNL d   1      -1.234  -5.650  -4.840  0.00  0.00     0.017 A 
ATOM      6  C5  UNL d   1      -1.937  -5.999  -5.998  0.00  0.00     0.034 A 
ATOM      7 Cl   UNL d   1       0.492  -5.671  -4.910  0.00  0.00    -0.070 Cl
ATOM      8 Cl1  UNL d   1      -1.138  -4.858  -2.212  0.00  0.00    -0.070 Cl
ENDROOT
TORSDOF 0
ENDMDL
