MODEL 1
REMARK minimizedAffinity 2.81138301
REMARK minimizedRMSD -1
REMARK  0 active torsions:
REMARK  status: ('A' for Active; 'I' for Inactive)
ROOT
ATOM      1  C   UNL d   1      -2.577  -5.667  -5.241  0.00  0.00     0.020 A 
ATOM      2  C1  UNL d   1      -1.455  -5.999  -6.000  0.00  0.00     0.020 A 
ATOM      3  C2  UNL d   1      -0.177  -5.866  -5.452  0.00  0.00     0.034 A 
ATOM      4  C3  UNL d   1      -0.018  -5.399  -4.143  0.00  0.00     0.017 A 
ATOM      5  C4  UNL d   1      -1.145  -5.065  -3.382  0.00  0.00     0.017 A 
ATOM      6  C5  UNL d   1      -2.422  -5.201  -3.935  0.00  0.00     0.034 A 
ATOM      7 Cl   UNL d   1      -1.028  -4.482  -1.759  0.00  0.00    -0.070 Cl
ATOM      8 Cl1  UNL d   1       1.591  -5.259  -3.529  0.00  0.00    -0.070 Cl
ENDROOT
TORSDOF 0
ENDMDL
