MODEL 1
REMARK minimizedAffinity 16.6205635
REMARK minimizedRMSD -1
REMARK  0 active torsions:
REMARK  status: ('A' for Active; 'I' for Inactive)
ROOT
ATOM      1  C   UNL d   1      -3.257  -1.382  -1.799  0.00  0.00     0.020 A 
ATOM      2  C1  UNL d   1      -4.172  -0.353  -1.581  0.00  0.00     0.020 A 
ATOM      3  C2  UNL d   1      -3.997   0.522  -0.507  0.00  0.00     0.034 A 
ATOM      4  C3  UNL d   1      -2.905   0.369   0.355  0.00  0.00     0.017 A 
ATOM      5  C4  UNL d   1      -1.987  -0.665   0.136  0.00  0.00     0.017 A 
ATOM      6  C5  UNL d   1      -2.166  -1.537  -0.942  0.00  0.00     0.034 A 
ATOM      7 Cl   UNL d   1      -0.615  -0.917   1.156  0.00  0.00    -0.070 Cl
ATOM      8 Cl1  UNL d   1      -2.751   1.487   1.664  0.00  0.00    -0.070 Cl
ENDROOT
TORSDOF 0
ENDMDL
