MODEL 1
REMARK minimizedAffinity 9.74491978
REMARK minimizedRMSD -1
REMARK  0 active torsions:
REMARK  status: ('A' for Active; 'I' for Inactive)
ROOT
ATOM      1  C   UNL d   1       0.003   5.809  -2.093  0.00  0.00     0.020 A 
ATOM      2  C1  UNL d   1      -0.356   4.887  -3.075  0.00  0.00     0.020 A 
ATOM      3  C2  UNL d   1       0.630   4.154  -3.739  0.00  0.00     0.034 A 
ATOM      4  C3  UNL d   1       1.980   4.343  -3.423  0.00  0.00     0.017 A 
ATOM      5  C4  UNL d   1       2.340   5.269  -2.437  0.00  0.00     0.017 A 
ATOM      6  C5  UNL d   1       1.348   5.999  -1.774  0.00  0.00     0.034 A 
ATOM      7 Cl   UNL d   1       3.985   5.557  -1.991  0.00  0.00    -0.070 Cl
ATOM      8 Cl1  UNL d   1       3.146   3.403  -4.284  0.00  0.00    -0.070 Cl
ENDROOT
TORSDOF 0
ENDMDL
