MODEL 1
REMARK minimizedAffinity 13.6229401
REMARK minimizedRMSD -1
REMARK  0 active torsions:
REMARK  status: ('A' for Active; 'I' for Inactive)
ROOT
ATOM      1  C   UNL d   1       5.998   4.101   0.068  0.00  0.00     0.020 A 
ATOM      2  C1  UNL d   1       5.651   3.758   1.374  0.00  0.00     0.020 A 
ATOM      3  C2  UNL d   1       4.508   2.992   1.615  0.00  0.00     0.034 A 
ATOM      4  C3  UNL d   1       3.709   2.566   0.548  0.00  0.00     0.017 A 
ATOM      5  C4  UNL d   1       4.058   2.911  -0.763  0.00  0.00     0.017 A 
ATOM      6  C5  UNL d   1       5.203   3.679  -0.998  0.00  0.00     0.034 A 
ATOM      7 Cl   UNL d   1       3.121   2.423  -2.131  0.00  0.00    -0.070 Cl
ATOM      8 Cl1  UNL d   1       2.311   1.621   0.918  0.00  0.00    -0.070 Cl
ENDROOT
TORSDOF 0
ENDMDL
