MODEL 1
REMARK minimizedAffinity 13.3010864
REMARK minimizedRMSD -1
REMARK  0 active torsions:
REMARK  status: ('A' for Active; 'I' for Inactive)
ROOT
ATOM      1  C   UNL d   1      -1.233  -1.536   1.318  0.00  0.00     0.020 A 
ATOM      2  C1  UNL d   1      -0.564  -1.043   2.438  0.00  0.00     0.020 A 
ATOM      3  C2  UNL d   1      -1.131  -0.014   3.193  0.00  0.00     0.034 A 
ATOM      4  C3  UNL d   1      -2.371   0.525   2.830  0.00  0.00     0.017 A 
ATOM      5  C4  UNL d   1      -3.041   0.029   1.706  0.00  0.00     0.017 A 
ATOM      6  C5  UNL d   1      -2.469  -1.001   0.953  0.00  0.00     0.034 A 
ATOM      7 Cl   UNL d   1      -4.574   0.644   1.195  0.00  0.00    -0.070 Cl
ATOM      8 Cl1  UNL d   1      -3.013   1.795   3.810  0.00  0.00    -0.070 Cl
ENDROOT
TORSDOF 0
ENDMDL
