MODEL 1
REMARK minimizedAffinity 9.83933067
REMARK minimizedRMSD -1
REMARK  0 active torsions:
REMARK  status: ('A' for Active; 'I' for Inactive)
ROOT
ATOM      1  C   UNL d   1       6.000   3.355   1.876  0.00  0.00     0.020 A 
ATOM      2  C1  UNL d   1       5.788   3.971   0.642  0.00  0.00     0.020 A 
ATOM      3  C2  UNL d   1       4.879   3.422  -0.264  0.00  0.00     0.034 A 
ATOM      4  C3  UNL d   1       4.178   2.255   0.061  0.00  0.00     0.017 A 
ATOM      5  C4  UNL d   1       4.391   1.639   1.299  0.00  0.00     0.017 A 
ATOM      6  C5  UNL d   1       5.302   2.192   2.203  0.00  0.00     0.034 A 
ATOM      7 Cl   UNL d   1       3.562   0.197   1.771  0.00  0.00    -0.070 Cl
ATOM      8 Cl1  UNL d   1       3.068   1.633  -1.109  0.00  0.00    -0.070 Cl
ENDROOT
TORSDOF 0
ENDMDL
