MODEL 1
REMARK minimizedAffinity 15.4425125
REMARK minimizedRMSD -1
REMARK  0 active torsions:
REMARK  status: ('A' for Active; 'I' for Inactive)
ROOT
ATOM      1  C   UNL d   1       5.055  -6.000   0.027  0.00  0.00     0.020 A 
ATOM      2  C1  UNL d   1       5.999  -4.985  -0.124  0.00  0.00     0.020 A 
ATOM      3  C2  UNL d   1       5.583  -3.677  -0.381  0.00  0.00     0.034 A 
ATOM      4  C3  UNL d   1       4.219  -3.380  -0.489  0.00  0.00     0.017 A 
ATOM      5  C4  UNL d   1       3.273  -4.400  -0.338  0.00  0.00     0.017 A 
ATOM      6  C5  UNL d   1       3.695  -5.708  -0.081  0.00  0.00     0.034 A 
ATOM      7 Cl   UNL d   1       1.573  -4.111  -0.458  0.00  0.00    -0.070 Cl
ATOM      8 Cl1  UNL d   1       3.776  -1.741  -0.809  0.00  0.00    -0.070 Cl
ENDROOT
TORSDOF 0
ENDMDL
