MODEL 1
REMARK minimizedAffinity 18.2119656
REMARK minimizedRMSD -1
REMARK  0 active torsions:
REMARK  status: ('A' for Active; 'I' for Inactive)
ROOT
ATOM      1  C   UNL d   1       1.525   3.701  -2.856  0.00  0.00     0.020 A 
ATOM      2  C1  UNL d   1       2.317   4.455  -1.992  0.00  0.00     0.020 A 
ATOM      3  C2  UNL d   1       3.642   4.741  -2.329  0.00  0.00     0.034 A 
ATOM      4  C3  UNL d   1       4.178   4.272  -3.534  0.00  0.00     0.017 A 
ATOM      5  C4  UNL d   1       3.382   3.515  -4.401  0.00  0.00     0.017 A 
ATOM      6  C5  UNL d   1       2.056   3.232  -4.058  0.00  0.00     0.034 A 
ATOM      7 Cl   UNL d   1       3.974   2.901  -5.904  0.00  0.00    -0.070 Cl
ATOM      8 Cl1  UNL d   1       5.824   4.663  -3.887  0.00  0.00    -0.070 Cl
ENDROOT
TORSDOF 0
ENDMDL
