MODEL 1
REMARK minimizedAffinity 9.31637192
REMARK minimizedRMSD -1
REMARK  0 active torsions:
REMARK  status: ('A' for Active; 'I' for Inactive)
ROOT
ATOM      1  C   UNL d   1       0.375   4.897  -2.276  0.00  0.00     0.020 A 
ATOM      2  C1  UNL d   1       1.194   5.997  -2.022  0.00  0.00     0.020 A 
ATOM      3  C2  UNL d   1       2.583   5.849  -2.029  0.00  0.00     0.034 A 
ATOM      4  C3  UNL d   1       3.156   4.599  -2.290  0.00  0.00     0.017 A 
ATOM      5  C4  UNL d   1       2.333   3.496  -2.545  0.00  0.00     0.017 A 
ATOM      6  C5  UNL d   1       0.943   3.650  -2.536  0.00  0.00     0.034 A 
ATOM      7 Cl   UNL d   1       2.967   1.923  -2.875  0.00  0.00    -0.070 Cl
ATOM      8 Cl1  UNL d   1       4.881   4.489  -2.284  0.00  0.00    -0.070 Cl
ENDROOT
TORSDOF 0
ENDMDL
