MODEL 1
REMARK minimizedAffinity 2.63855982
REMARK minimizedRMSD -1
REMARK  0 active torsions:
REMARK  status: ('A' for Active; 'I' for Inactive)
ROOT
ATOM      1  C   UNL d   1      -2.955  -0.961   1.206  0.00  0.00     0.020 A 
ATOM      2  C1  UNL d   1      -4.082  -0.151   1.072  0.00  0.00     0.020 A 
ATOM      3  C2  UNL d   1      -4.397   0.777   2.066  0.00  0.00     0.034 A 
ATOM      4  C3  UNL d   1      -3.585   0.897   3.200  0.00  0.00     0.017 A 
ATOM      5  C4  UNL d   1      -2.454   0.084   3.333  0.00  0.00     0.017 A 
ATOM      6  C5  UNL d   1      -2.143  -0.844   2.334  0.00  0.00     0.034 A 
ATOM      7 Cl   UNL d   1      -1.403   0.175   4.703  0.00  0.00    -0.070 Cl
ATOM      8 Cl1  UNL d   1      -4.034   2.066   4.390  0.00  0.00    -0.070 Cl
ENDROOT
TORSDOF 0
ENDMDL
