MODEL 1
REMARK minimizedAffinity 8.30019379
REMARK minimizedRMSD -1
REMARK  0 active torsions:
REMARK  status: ('A' for Active; 'I' for Inactive)
ROOT
ATOM      1  C   UNL d   1       5.552   4.215  -5.131  0.00  0.00     0.020 A 
ATOM      2  C1  UNL d   1       4.365   3.585  -5.502  0.00  0.00     0.020 A 
ATOM      3  C2  UNL d   1       3.261   3.615  -4.647  0.00  0.00     0.034 A 
ATOM      4  C3  UNL d   1       3.342   4.277  -3.416  0.00  0.00     0.017 A 
ATOM      5  C4  UNL d   1       4.535   4.909  -3.045  0.00  0.00     0.017 A 
ATOM      6  C5  UNL d   1       5.636   4.876  -3.905  0.00  0.00     0.034 A 
ATOM      7 Cl   UNL d   1       4.711   5.746  -1.543  0.00  0.00    -0.070 Cl
ATOM      8 Cl1  UNL d   1       1.939   4.274  -2.409  0.00  0.00    -0.070 Cl
ENDROOT
TORSDOF 0
ENDMDL
