MODEL 1
REMARK minimizedAffinity 7.90387535
REMARK minimizedRMSD -1
REMARK  0 active torsions:
REMARK  status: ('A' for Active; 'I' for Inactive)
ROOT
ATOM      1  C   UNL d   1       6.000   3.472   0.428  0.00  0.00     0.020 A 
ATOM      2  C1  UNL d   1       5.083   3.958   1.360  0.00  0.00     0.020 A 
ATOM      3  C2  UNL d   1       3.886   3.274   1.582  0.00  0.00     0.034 A 
ATOM      4  C3  UNL d   1       3.602   2.102   0.873  0.00  0.00     0.017 A 
ATOM      5  C4  UNL d   1       4.523   1.615  -0.062  0.00  0.00     0.017 A 
ATOM      6  C5  UNL d   1       5.720   2.303  -0.281  0.00  0.00     0.034 A 
ATOM      7 Cl   UNL d   1       4.243   0.175  -0.975  0.00  0.00    -0.070 Cl
ATOM      8 Cl1  UNL d   1       2.102   1.308   1.199  0.00  0.00    -0.070 Cl
ENDROOT
TORSDOF 0
ENDMDL
