MODEL 1
REMARK minimizedAffinity 11.7175608
REMARK minimizedRMSD -1
REMARK  0 active torsions:
REMARK  status: ('A' for Active; 'I' for Inactive)
ROOT
ATOM      1  C   UNL d   1       2.610   0.955   1.134  0.00  0.00     0.020 A 
ATOM      2  C1  UNL d   1       2.898   0.729  -0.211  0.00  0.00     0.020 A 
ATOM      3  C2  UNL d   1       3.949   1.414  -0.825  0.00  0.00     0.034 A 
ATOM      4  C3  UNL d   1       4.715   2.329  -0.093  0.00  0.00     0.017 A 
ATOM      5  C4  UNL d   1       4.426   2.555   1.257  0.00  0.00     0.017 A 
ATOM      6  C5  UNL d   1       3.373   1.866   1.867  0.00  0.00     0.034 A 
ATOM      7 Cl   UNL d   1       5.327   3.668   2.225  0.00  0.00    -0.070 Cl
ATOM      8 Cl1  UNL d   1       6.000   3.140  -0.916  0.00  0.00    -0.070 Cl
ENDROOT
TORSDOF 0
ENDMDL
