MODEL 1
REMARK minimizedAffinity 19.7314091
REMARK minimizedRMSD -1
REMARK  0 active torsions:
REMARK  status: ('A' for Active; 'I' for Inactive)
ROOT
ATOM      1  C   UNL d   1      -0.612  -1.599   2.514  0.00  0.00     0.020 A 
ATOM      2  C1  UNL d   1      -1.503  -2.457   1.870  0.00  0.00     0.020 A 
ATOM      3  C2  UNL d   1      -2.737  -1.976   1.425  0.00  0.00     0.034 A 
ATOM      4  C3  UNL d   1      -3.082  -0.634   1.622  0.00  0.00     0.017 A 
ATOM      5  C4  UNL d   1      -2.186   0.226   2.269  0.00  0.00     0.017 A 
ATOM      6  C5  UNL d   1      -0.953  -0.261   2.713  0.00  0.00     0.034 A 
ATOM      7 Cl   UNL d   1      -2.542   1.894   2.549  0.00  0.00    -0.070 Cl
ATOM      8 Cl1  UNL d   1      -4.623  -0.107   1.046  0.00  0.00    -0.070 Cl
ENDROOT
TORSDOF 0
ENDMDL
