MODEL 1
REMARK minimizedAffinity 15.1199131
REMARK minimizedRMSD -1
REMARK  0 active torsions:
REMARK  status: ('A' for Active; 'I' for Inactive)
ROOT
ATOM      1  C   UNL d   1       5.214   4.543  -2.060  0.00  0.00     0.020 A 
ATOM      2  C1  UNL d   1       5.994   4.571  -3.215  0.00  0.00     0.020 A 
ATOM      3  C2  UNL d   1       5.485   4.067  -4.414  0.00  0.00     0.034 A 
ATOM      4  C3  UNL d   1       4.193   3.531  -4.460  0.00  0.00     0.017 A 
ATOM      5  C4  UNL d   1       3.410   3.503  -3.299  0.00  0.00     0.017 A 
ATOM      6  C5  UNL d   1       3.925   4.010  -2.102  0.00  0.00     0.034 A 
ATOM      7 Cl   UNL d   1       1.807   2.858  -3.278  0.00  0.00    -0.070 Cl
ATOM      8 Cl1  UNL d   1       3.628   2.925  -5.976  0.00  0.00    -0.070 Cl
ENDROOT
TORSDOF 0
ENDMDL
