MODEL 1
REMARK minimizedAffinity 18.4483891
REMARK minimizedRMSD -1
REMARK  0 active torsions:
REMARK  status: ('A' for Active; 'I' for Inactive)
ROOT
ATOM      1  C   UNL d   1       1.312  -1.977   3.884  0.00  0.00     0.020 A 
ATOM      2  C1  UNL d   1       1.099  -2.740   2.737  0.00  0.00     0.020 A 
ATOM      3  C2  UNL d   1      -0.039  -2.525   1.956  0.00  0.00     0.034 A 
ATOM      4  C3  UNL d   1      -0.968  -1.544   2.322  0.00  0.00     0.017 A 
ATOM      5  C4  UNL d   1      -0.753  -0.778   3.474  0.00  0.00     0.017 A 
ATOM      6  C5  UNL d   1       0.388  -0.998   4.251  0.00  0.00     0.034 A 
ATOM      7 Cl   UNL d   1      -1.854   0.451   3.989  0.00  0.00    -0.070 Cl
ATOM      8 Cl1  UNL d   1      -2.353  -1.332   1.311  0.00  0.00    -0.070 Cl
ENDROOT
TORSDOF 0
ENDMDL
