MODEL 1
REMARK minimizedAffinity 15.5972815
REMARK minimizedRMSD -1
REMARK  0 active torsions:
REMARK  status: ('A' for Active; 'I' for Inactive)
ROOT
ATOM      1  C   UNL d   1      -2.659  -2.999  -2.975  0.00  0.00     0.020 A 
ATOM      2  C1  UNL d   1      -1.304  -3.313  -2.885  0.00  0.00     0.020 A 
ATOM      3  C2  UNL d   1      -0.742  -4.242  -3.763  0.00  0.00     0.034 A 
ATOM      4  C3  UNL d   1      -1.536  -4.861  -4.736  0.00  0.00     0.017 A 
ATOM      5  C4  UNL d   1      -2.897  -4.545  -4.826  0.00  0.00     0.017 A 
ATOM      6  C5  UNL d   1      -3.454  -3.613  -3.944  0.00  0.00     0.034 A 
ATOM      7 Cl   UNL d   1      -3.940  -5.266  -6.000  0.00  0.00    -0.070 Cl
ATOM      8 Cl1  UNL d   1      -0.775  -6.000  -5.789  0.00  0.00    -0.070 Cl
ENDROOT
TORSDOF 0
ENDMDL
