MODEL 1
REMARK minimizedAffinity 19.3957863
REMARK minimizedRMSD -1
REMARK  0 active torsions:
REMARK  status: ('A' for Active; 'I' for Inactive)
ROOT
ATOM      1  C   UNL d   1      -0.485  -1.456   2.608  0.00  0.00     0.020 A 
ATOM      2  C1  UNL d   1      -1.122  -2.187   1.606  0.00  0.00     0.020 A 
ATOM      3  C2  UNL d   1      -2.321  -1.724   1.058  0.00  0.00     0.034 A 
ATOM      4  C3  UNL d   1      -2.886  -0.527   1.512  0.00  0.00     0.017 A 
ATOM      5  C4  UNL d   1      -2.245   0.206   2.518  0.00  0.00     0.017 A 
ATOM      6  C5  UNL d   1      -1.046  -0.262   3.063  0.00  0.00     0.034 A 
ATOM      7 Cl   UNL d   1      -2.882   1.692   3.130  0.00  0.00    -0.070 Cl
ATOM      8 Cl1  UNL d   1      -4.369  -0.014   0.790  0.00  0.00    -0.070 Cl
ENDROOT
TORSDOF 0
ENDMDL
