MODEL 1
REMARK minimizedAffinity 7.27037382
REMARK minimizedRMSD -1
REMARK  2 active torsions:
REMARK  status: ('A' for Active; 'I' for Inactive)
REMARK    1  A    between atoms: C1_2  and  C2_3 
REMARK    2  A    between atoms: C2_3  and  C3_4 
ROOT
ATOM      1  C3  UNL d   1       4.672   0.761  -1.343  0.00  0.00    -0.075 A 
ATOM      2  C4  UNL d   1       4.266   0.012  -2.457  0.00  0.00     0.002 A 
ATOM      3  C5  UNL d   1       3.379  -1.054  -2.309  0.00  0.00     0.002 A 
ATOM      4  C6  UNL d   1       2.896  -1.392  -1.046  0.00  0.00    -0.004 A 
ATOM      5  C7  UNL d   1       3.305  -0.665   0.070  0.00  0.00     0.002 A 
ATOM      6  C8  UNL d   1       4.189   0.405  -0.077  0.00  0.00     0.002 A 
ENDROOT
BRANCH   1   7
ATOM      7  C2  UNL d   1       5.609   1.935  -1.501  0.00  0.00     0.056 C 
BRANCH   7   8
ATOM      8  C1  UNL d   1       4.899   3.287  -1.623  0.00  0.00     0.007 C 
ATOM      9  C   UNL d   1       5.858   4.471  -1.622  0.00  0.00     0.009 C 
ENDBRANCH   7   8
ENDBRANCH   1   7
TORSDOF 2
ENDMDL
