MODEL 1
REMARK minimizedAffinity 10.8680878
REMARK minimizedRMSD -1
REMARK  2 active torsions:
REMARK  status: ('A' for Active; 'I' for Inactive)
REMARK    1  A    between atoms: C1_2  and  C2_3 
REMARK    2  A    between atoms: C2_3  and  C3_4 
ROOT
ATOM      1  C3  UNL d   1      -1.358  -2.741  -2.323  0.00  0.00    -0.075 A 
ATOM      2  C4  UNL d   1      -1.703  -4.058  -1.984  0.00  0.00     0.002 A 
ATOM      3  C5  UNL d   1      -0.728  -4.957  -1.552  0.00  0.00     0.002 A 
ATOM      4  C6  UNL d   1       0.603  -4.557  -1.464  0.00  0.00    -0.004 A 
ATOM      5  C7  UNL d   1       0.960  -3.256  -1.814  0.00  0.00     0.002 A 
ATOM      6  C8  UNL d   1      -0.014  -2.353  -2.242  0.00  0.00     0.002 A 
ENDROOT
BRANCH   1   7
ATOM      7  C2  UNL d   1      -2.413  -1.754  -2.763  0.00  0.00     0.056 C 
BRANCH   7   8
ATOM      8  C1  UNL d   1      -1.865  -0.362  -3.093  0.00  0.00     0.007 C 
ATOM      9  C   UNL d   1      -2.756   0.423  -4.046  0.00  0.00     0.009 C 
ENDBRANCH   7   8
ENDBRANCH   1   7
TORSDOF 2
ENDMDL
