MODEL 1
REMARK minimizedAffinity 8.78217506
REMARK minimizedRMSD -1
REMARK  2 active torsions:
REMARK  status: ('A' for Active; 'I' for Inactive)
REMARK    1  A    between atoms: C1_2  and  C2_3 
REMARK    2  A    between atoms: C2_3  and  C3_4 
ROOT
ATOM      1  C3  UNL d   1      -4.010   1.437  -5.152  0.00  0.00    -0.075 A 
ATOM      2  C4  UNL d   1      -4.030   2.820  -4.920  0.00  0.00     0.002 A 
ATOM      3  C5  UNL d   1      -5.016   3.389  -4.114  0.00  0.00     0.002 A 
ATOM      4  C6  UNL d   1      -6.000   2.587  -3.540  0.00  0.00    -0.004 A 
ATOM      5  C7  UNL d   1      -6.000   1.214  -3.777  0.00  0.00     0.002 A 
ATOM      6  C8  UNL d   1      -5.011   0.641  -4.579  0.00  0.00     0.002 A 
ENDROOT
BRANCH   1   7
ATOM      7  C2  UNL d   1      -2.928   0.810  -5.998  0.00  0.00     0.056 C 
BRANCH   7   8
ATOM      8  C1  UNL d   1      -2.013  -0.150  -5.231  0.00  0.00     0.007 C 
ATOM      9  C   UNL d   1      -2.026   0.082  -3.726  0.00  0.00     0.009 C 
ENDBRANCH   7   8
ENDBRANCH   1   7
TORSDOF 2
ENDMDL
