MODEL 1
REMARK minimizedAffinity 11.0927382
REMARK minimizedRMSD -1
REMARK  2 active torsions:
REMARK  status: ('A' for Active; 'I' for Inactive)
REMARK    1  A    between atoms: C1_2  and  C2_3 
REMARK    2  A    between atoms: C2_3  and  C3_4 
ROOT
ATOM      1  C3  UNL d   1       1.899   0.297   0.668  0.00  0.00    -0.075 A 
ATOM      2  C4  UNL d   1       1.021   0.909  -0.239  0.00  0.00     0.002 A 
ATOM      3  C5  UNL d   1      -0.275   1.249   0.150  0.00  0.00     0.002 A 
ATOM      4  C6  UNL d   1      -0.712   0.974   1.444  0.00  0.00    -0.004 A 
ATOM      5  C7  UNL d   1       0.146   0.351   2.348  0.00  0.00     0.002 A 
ATOM      6  C8  UNL d   1       1.444   0.013   1.963  0.00  0.00     0.002 A 
ENDROOT
BRANCH   1   7
ATOM      7  C2  UNL d   1       3.312  -0.048   0.263  0.00  0.00     0.056 C 
BRANCH   7   8
ATOM      8  C1  UNL d   1       3.546  -0.041  -1.252  0.00  0.00     0.007 C 
ATOM      9  C   UNL d   1       4.751   0.791  -1.670  0.00  0.00     0.009 C 
ENDBRANCH   7   8
ENDBRANCH   1   7
TORSDOF 2
ENDMDL
