MODEL 1
REMARK minimizedAffinity 2.48429298
REMARK minimizedRMSD -1
REMARK  2 active torsions:
REMARK  status: ('A' for Active; 'I' for Inactive)
REMARK    1  A    between atoms: C1_2  and  C2_3 
REMARK    2  A    between atoms: C2_3  and  C3_4 
ROOT
ATOM      1  C3  UNL d   1      -3.858   1.900  -0.366  0.00  0.00    -0.075 A 
ATOM      2  C4  UNL d   1      -4.936   1.092  -0.756  0.00  0.00     0.002 A 
ATOM      3  C5  UNL d   1      -5.996   1.630  -1.486  0.00  0.00     0.002 A 
ATOM      4  C6  UNL d   1      -5.998   2.981  -1.826  0.00  0.00    -0.004 A 
ATOM      5  C7  UNL d   1      -4.940   3.796  -1.429  0.00  0.00     0.002 A 
ATOM      6  C8  UNL d   1      -3.875   3.260  -0.703  0.00  0.00     0.002 A 
ENDROOT
BRANCH   1   7
ATOM      7  C2  UNL d   1      -2.693   1.318   0.399  0.00  0.00     0.056 C 
BRANCH   7   8
ATOM      8  C1  UNL d   1      -1.339   1.942   0.044  0.00  0.00     0.007 C 
ATOM      9  C   UNL d   1      -0.161   1.236   0.701  0.00  0.00     0.009 C 
ENDBRANCH   7   8
ENDBRANCH   1   7
TORSDOF 2
ENDMDL
