MODEL 1
REMARK minimizedAffinity 16.2802391
REMARK minimizedRMSD -1
REMARK  2 active torsions:
REMARK  status: ('A' for Active; 'I' for Inactive)
REMARK    1  A    between atoms: C1_2  and  C2_3 
REMARK    2  A    between atoms: C2_3  and  C3_4 
ROOT
ATOM      1  C3  UNL d   1      -5.979   5.085   3.461  0.00  0.00    -0.075 A 
ATOM      2  C4  UNL d   1      -5.981   3.683   3.422  0.00  0.00     0.002 A 
ATOM      3  C5  UNL d   1      -5.996   2.942   4.604  0.00  0.00     0.002 A 
ATOM      4  C6  UNL d   1      -5.998   3.591   5.837  0.00  0.00    -0.004 A 
ATOM      5  C7  UNL d   1      -5.980   4.983   5.887  0.00  0.00     0.002 A 
ATOM      6  C8  UNL d   1      -5.970   5.727   4.706  0.00  0.00     0.002 A 
ENDROOT
BRANCH   1   7
ATOM      7  C2  UNL d   1      -5.993   5.893   2.185  0.00  0.00     0.056 C 
BRANCH   7   8
ATOM      8  C1  UNL d   1      -5.086   5.335   1.084  0.00  0.00     0.007 C 
ATOM      9  C   UNL d   1      -5.857   4.817  -0.123  0.00  0.00     0.009 C 
ENDBRANCH   7   8
ENDBRANCH   1   7
TORSDOF 2
ENDMDL
