MODEL 1
REMARK minimizedAffinity 6.24454403
REMARK minimizedRMSD -1
REMARK  2 active torsions:
REMARK  status: ('A' for Active; 'I' for Inactive)
REMARK    1  A    between atoms: C1_2  and  C2_3 
REMARK    2  A    between atoms: C2_3  and  C3_4 
ROOT
ATOM      1  C3  UNL d   1       1.990  -2.752  -0.897  0.00  0.00    -0.075 A 
ATOM      2  C4  UNL d   1       1.040  -3.740  -0.603  0.00  0.00     0.002 A 
ATOM      3  C5  UNL d   1       0.433  -4.468  -1.627  0.00  0.00     0.002 A 
ATOM      4  C6  UNL d   1       0.761  -4.210  -2.957  0.00  0.00    -0.004 A 
ATOM      5  C7  UNL d   1       1.691  -3.219  -3.261  0.00  0.00     0.002 A 
ATOM      6  C8  UNL d   1       2.303  -2.492  -2.238  0.00  0.00     0.002 A 
ENDROOT
BRANCH   1   7
ATOM      7  C2  UNL d   1       2.671  -1.982   0.209  0.00  0.00     0.056 C 
BRANCH   7   8
ATOM      8  C1  UNL d   1       2.555  -0.460   0.072  0.00  0.00     0.007 C 
ATOM      9  C   UNL d   1       3.889   0.222  -0.203  0.00  0.00     0.009 C 
ENDBRANCH   7   8
ENDBRANCH   1   7
TORSDOF 2
ENDMDL
