MODEL 1
REMARK minimizedAffinity 7.60359907
REMARK minimizedRMSD -1
REMARK  2 active torsions:
REMARK  status: ('A' for Active; 'I' for Inactive)
REMARK    1  A    between atoms: C1_2  and  C2_3 
REMARK    2  A    between atoms: C2_3  and  C3_4 
ROOT
ATOM      1  C3  UNL d   1       2.243  -2.822  -1.570  0.00  0.00    -0.075 A 
ATOM      2  C4  UNL d   1       1.326  -3.789  -1.135  0.00  0.00     0.002 A 
ATOM      3  C5  UNL d   1       0.741  -4.671  -2.045  0.00  0.00     0.002 A 
ATOM      4  C6  UNL d   1       1.058  -4.590  -3.399  0.00  0.00    -0.004 A 
ATOM      5  C7  UNL d   1       1.956  -3.623  -3.845  0.00  0.00     0.002 A 
ATOM      6  C8  UNL d   1       2.545  -2.742  -2.936  0.00  0.00     0.002 A 
ENDROOT
BRANCH   1   7
ATOM      7  C2  UNL d   1       2.902  -1.884  -0.586  0.00  0.00     0.056 C 
BRANCH   7   8
ATOM      8  C1  UNL d   1       3.646  -0.715  -1.241  0.00  0.00     0.007 C 
ATOM      9  C   UNL d   1       3.666   0.541  -0.381  0.00  0.00     0.009 C 
ENDBRANCH   7   8
ENDBRANCH   1   7
TORSDOF 2
ENDMDL
