MODEL 1
REMARK minimizedAffinity 3.27393436
REMARK minimizedRMSD -1
REMARK  2 active torsions:
REMARK  status: ('A' for Active; 'I' for Inactive)
REMARK    1  A    between atoms: C1_2  and  C2_3 
REMARK    2  A    between atoms: C2_3  and  C3_4 
ROOT
ATOM      1  C3  UNL d   1       4.992   1.901   0.522  0.00  0.00    -0.075 A 
ATOM      2  C4  UNL d   1       4.714   1.348  -0.736  0.00  0.00     0.002 A 
ATOM      3  C5  UNL d   1       3.765   0.333  -0.870  0.00  0.00     0.002 A 
ATOM      4  C6  UNL d   1       3.093  -0.148   0.252  0.00  0.00    -0.004 A 
ATOM      5  C7  UNL d   1       3.374   0.383   1.509  0.00  0.00     0.002 A 
ATOM      6  C8  UNL d   1       4.319   1.401   1.645  0.00  0.00     0.002 A 
ENDROOT
BRANCH   1   7
ATOM      7  C2  UNL d   1       5.996   3.020   0.669  0.00  0.00     0.056 C 
BRANCH   7   8
ATOM      8  C1  UNL d   1       5.999   4.012  -0.498  0.00  0.00     0.007 C 
ATOM      9  C   UNL d   1       5.603   5.424  -0.086  0.00  0.00     0.009 C 
ENDBRANCH   7   8
ENDBRANCH   1   7
TORSDOF 2
ENDMDL
