MODEL 1
REMARK minimizedAffinity 18.1102123
REMARK minimizedRMSD -1
REMARK  2 active torsions:
REMARK  status: ('A' for Active; 'I' for Inactive)
REMARK    1  A    between atoms: C1_2  and  C2_3 
REMARK    2  A    between atoms: C2_3  and  C3_4 
ROOT
ATOM      1  C3  UNL d   1       3.100   0.083  -0.506  0.00  0.00    -0.075 A 
ATOM      2  C4  UNL d   1       3.814   0.708   0.527  0.00  0.00     0.002 A 
ATOM      3  C5  UNL d   1       5.139   1.100   0.335  0.00  0.00     0.002 A 
ATOM      4  C6  UNL d   1       5.769   0.863  -0.885  0.00  0.00    -0.004 A 
ATOM      5  C7  UNL d   1       5.075   0.228  -1.912  0.00  0.00     0.002 A 
ATOM      6  C8  UNL d   1       3.747  -0.161  -1.724  0.00  0.00     0.002 A 
ENDROOT
BRANCH   1   7
ATOM      7  C2  UNL d   1       1.656  -0.317  -0.315  0.00  0.00     0.056 C 
BRANCH   7   8
ATOM      8  C1  UNL d   1       0.661   0.834  -0.497  0.00  0.00     0.007 C 
ATOM      9  C   UNL d   1      -0.142   1.138   0.760  0.00  0.00     0.009 C 
ENDBRANCH   7   8
ENDBRANCH   1   7
TORSDOF 2
ENDMDL
