MODEL 1
REMARK minimizedAffinity 4.32577562
REMARK minimizedRMSD -1
REMARK  1 active torsions:
REMARK  status: ('A' for Active; 'I' for Inactive)
REMARK    1  A    between atoms: N_2  and  C1_3 
ROOT
ATOM      1  C1  UNL d   1       1.497   0.084  -0.401  0.00  0.00     0.143 A 
ATOM      2  C2  UNL d   1       0.258  -0.453  -0.767  0.00  0.00    -0.057 A 
ATOM      3  C3  UNL d   1       0.089  -1.831  -0.948  0.00  0.00     0.033 A 
ATOM      4  C4  UNL d   1       1.167  -2.696  -0.793  0.00  0.00    -0.042 A 
ATOM      5  C5  UNL d   1       2.413  -2.182  -0.453  0.00  0.00     0.033 A 
ATOM      6  C6  UNL d   1       2.574  -0.805  -0.268  0.00  0.00    -0.057 A 
ENDROOT
BRANCH   1   7
ATOM      7  N   UNL d   1       1.752   1.454  -0.302  0.00  0.00    -0.732 N 
ATOM      8  C   UNL d   1       0.763   2.350   0.257  0.00  0.00     0.284 C 
ATOM      9  H3  UNL d   1       2.705   1.651  -0.007  0.00  0.00     0.395 HD
ENDBRANCH   1   7
TORSDOF 1
ENDMDL
