MODEL 1
REMARK minimizedAffinity 3.06728148
REMARK minimizedRMSD -1
REMARK  1 active torsions:
REMARK  status: ('A' for Active; 'I' for Inactive)
REMARK    1  A    between atoms: N_2  and  C1_3 
ROOT
ATOM      1  C1  UNL d   1      -2.002   2.583   2.028  0.00  0.00     0.143 A 
ATOM      2  C2  UNL d   1      -1.139   1.741   2.737  0.00  0.00    -0.057 A 
ATOM      3  C3  UNL d   1       0.235   1.719   2.471  0.00  0.00     0.033 A 
ATOM      4  C4  UNL d   1       0.768   2.520   1.466  0.00  0.00    -0.042 A 
ATOM      5  C5  UNL d   1      -0.074   3.346   0.731  0.00  0.00     0.033 A 
ATOM      6  C6  UNL d   1      -1.445   3.369   1.007  0.00  0.00    -0.057 A 
ENDROOT
BRANCH   1   7
ATOM      7  N   UNL d   1      -3.391   2.579   2.178  0.00  0.00    -0.732 N 
ATOM      8  C   UNL d   1      -4.208   1.631   1.452  0.00  0.00     0.284 C 
ATOM      9  H3  UNL d   1      -3.677   2.721   3.144  0.00  0.00     0.395 HD
ENDBRANCH   1   7
TORSDOF 1
ENDMDL
