MODEL 1
REMARK minimizedAffinity -0.418698519
REMARK minimizedRMSD -1
REMARK  1 active torsions:
REMARK  status: ('A' for Active; 'I' for Inactive)
REMARK    1  A    between atoms: N_2  and  C1_3 
ROOT
ATOM      1  C1  UNL d   1      -4.999   0.707  -2.085  0.00  0.00     0.143 A 
ATOM      2  C2  UNL d   1      -5.773   1.842  -2.348  0.00  0.00    -0.057 A 
ATOM      3  C3  UNL d   1      -5.733   2.474  -3.596  0.00  0.00     0.033 A 
ATOM      4  C4  UNL d   1      -4.893   1.998  -4.598  0.00  0.00    -0.042 A 
ATOM      5  C5  UNL d   1      -4.096   0.886  -4.350  0.00  0.00     0.033 A 
ATOM      6  C6  UNL d   1      -4.145   0.255  -3.104  0.00  0.00    -0.057 A 
ENDROOT
BRANCH   1   7
ATOM      7  N   UNL d   1      -4.920   0.092  -0.833  0.00  0.00    -0.732 N 
ATOM      8  C   UNL d   1      -5.074   0.866   0.380  0.00  0.00     0.284 C 
ATOM      9  H3  UNL d   1      -5.391  -0.810  -0.813  0.00  0.00     0.395 HD
ENDBRANCH   1   7
TORSDOF 1
ENDMDL
