MODEL 1
REMARK minimizedAffinity 0.149112388
REMARK minimizedRMSD -1
REMARK  1 active torsions:
REMARK  status: ('A' for Active; 'I' for Inactive)
REMARK    1  A    between atoms: N_2  and  C1_3 
ROOT
ATOM      1  C1  UNL d   1       1.279   0.058  -0.354  0.00  0.00     0.143 A 
ATOM      2  C2  UNL d   1       0.307  -0.827  -0.833  0.00  0.00    -0.057 A 
ATOM      3  C3  UNL d   1       0.490  -2.213  -0.765  0.00  0.00     0.033 A 
ATOM      4  C4  UNL d   1       1.666  -2.740  -0.242  0.00  0.00    -0.042 A 
ATOM      5  C5  UNL d   1       2.657  -1.879   0.217  0.00  0.00     0.033 A 
ATOM      6  C6  UNL d   1       2.465  -0.496   0.152  0.00  0.00    -0.057 A 
ENDROOT
BRANCH   1   7
ATOM      7  N   UNL d   1       1.198   1.447  -0.484  0.00  0.00    -0.732 N 
ATOM      8  C   UNL d   1       0.376   2.224   0.418  0.00  0.00     0.284 C 
ATOM      9  H3  UNL d   1       2.099   1.870  -0.695  0.00  0.00     0.395 HD
ENDBRANCH   1   7
TORSDOF 1
ENDMDL
