MODEL 1
REMARK minimizedAffinity 3.33444476
REMARK minimizedRMSD -1
REMARK  1 active torsions:
REMARK  status: ('A' for Active; 'I' for Inactive)
REMARK    1  A    between atoms: N_2  and  C1_3 
ROOT
ATOM      1  C1  UNL d   1      -2.542   2.161   1.566  0.00  0.00     0.143 A 
ATOM      2  C2  UNL d   1      -1.687   1.989   2.660  0.00  0.00    -0.057 A 
ATOM      3  C3  UNL d   1      -0.315   2.252   2.558  0.00  0.00     0.033 A 
ATOM      4  C4  UNL d   1       0.232   2.664   1.347  0.00  0.00    -0.042 A 
ATOM      5  C5  UNL d   1      -0.595   2.818   0.240  0.00  0.00     0.033 A 
ATOM      6  C6  UNL d   1      -1.965   2.560   0.350  0.00  0.00    -0.057 A 
ENDROOT
BRANCH   1   7
ATOM      7  N   UNL d   1      -3.897   1.822   1.577  0.00  0.00    -0.732 N 
ATOM      8  C   UNL d   1      -4.578   1.463   0.352  0.00  0.00     0.284 C 
ATOM      9  H3  UNL d   1      -4.146   1.243   2.376  0.00  0.00     0.395 HD
ENDBRANCH   1   7
TORSDOF 1
ENDMDL
