MODEL 1
REMARK minimizedAffinity 3.02036548
REMARK minimizedRMSD -1
REMARK  1 active torsions:
REMARK  status: ('A' for Active; 'I' for Inactive)
REMARK    1  A    between atoms: N_2  and  C1_3 
ROOT
ATOM      1  C1  UNL d   1       3.750   0.318  -0.840  0.00  0.00     0.143 A 
ATOM      2  C2  UNL d   1       4.563   0.582   0.268  0.00  0.00    -0.057 A 
ATOM      3  C3  UNL d   1       5.668   1.435   0.171  0.00  0.00     0.033 A 
ATOM      4  C4  UNL d   1       5.999   2.019  -1.048  0.00  0.00    -0.042 A 
ATOM      5  C5  UNL d   1       5.220   1.751  -2.168  0.00  0.00     0.033 A 
ATOM      6  C6  UNL d   1       4.113   0.903  -2.063  0.00  0.00    -0.057 A 
ENDROOT
BRANCH   1   7
ATOM      7  N   UNL d   1       2.696  -0.599  -0.831  0.00  0.00    -0.732 N 
ATOM      8  C   UNL d   1       2.854  -1.898  -0.213  0.00  0.00     0.284 C 
ATOM      9  H3  UNL d   1       1.799  -0.157  -0.645  0.00  0.00     0.395 HD
ENDBRANCH   1   7
TORSDOF 1
ENDMDL
