MODEL 1
REMARK minimizedAffinity 4.83342171
REMARK minimizedRMSD -1
REMARK  1 active torsions:
REMARK  status: ('A' for Active; 'I' for Inactive)
REMARK    1  A    between atoms: N_2  and  C1_3 
ROOT
ATOM      1  C1  UNL d   1      -2.211   1.647   1.640  0.00  0.00     0.143 A 
ATOM      2  C2  UNL d   1      -1.486   2.399   0.709  0.00  0.00    -0.057 A 
ATOM      3  C3  UNL d   1      -0.158   2.770   0.953  0.00  0.00     0.033 A 
ATOM      4  C4  UNL d   1       0.461   2.420   2.148  0.00  0.00    -0.042 A 
ATOM      5  C5  UNL d   1      -0.249   1.695   3.098  0.00  0.00     0.033 A 
ATOM      6  C6  UNL d   1      -1.573   1.321   2.847  0.00  0.00    -0.057 A 
ENDROOT
BRANCH   1   7
ATOM      7  N   UNL d   1      -3.565   1.332   1.499  0.00  0.00    -0.732 N 
ATOM      8  C   UNL d   1      -4.038   0.618   0.333  0.00  0.00     0.284 C 
ATOM      9  H3  UNL d   1      -3.985   1.024   2.374  0.00  0.00     0.395 HD
ENDBRANCH   1   7
TORSDOF 1
ENDMDL
