MODEL 1
REMARK minimizedAffinity 32.9783363
REMARK minimizedRMSD -1
REMARK  0 active torsions:
REMARK  status: ('A' for Active; 'I' for Inactive)
ROOT
ATOM      1  C   UNL d   1       3.041   1.439  -1.144  0.00  0.00     0.124 A 
ATOM      2  C1  UNL d   1       2.365   2.019  -0.079  0.00  0.00     0.062 A 
ATOM      3  C2  UNL d   1       2.666   3.319   0.317  0.00  0.00     0.162 A 
ATOM      4  C3  UNL d   1       3.646   4.050  -0.354  0.00  0.00    -0.034 A 
ATOM      5  C4  UNL d   1       4.322   3.460  -1.424  0.00  0.00     0.162 A 
ATOM      6  C5  UNL d   1       4.018   2.160  -1.815  0.00  0.00     0.062 A 
ATOM      7  F   UNL d   1       4.672   1.602  -2.845  0.00  0.00    -0.097 F 
ATOM      8  F1  UNL d   1       5.271   4.134  -2.091  0.00  0.00    -0.096 F 
ATOM      9  I   UNL d   1       4.098   5.994   0.234  0.00  0.00    -0.060 I 
ATOM     10  F2  UNL d   1       1.997   3.853   1.349  0.00  0.00    -0.096 F 
ATOM     11  F3  UNL d   1       1.421   1.324   0.572  0.00  0.00    -0.097 F 
ATOM     12  F4  UNL d   1       2.750   0.188  -1.522  0.00  0.00    -0.092 F 
ENDROOT
TORSDOF 0
ENDMDL
