MODEL 1
REMARK minimizedAffinity 15.6967077
REMARK minimizedRMSD -1
REMARK  0 active torsions:
REMARK  status: ('A' for Active; 'I' for Inactive)
ROOT
ATOM      1  C   UNL d   1       1.177   1.125  -1.840  0.00  0.00     0.124 A 
ATOM      2  C1  UNL d   1       2.449   1.681  -1.817  0.00  0.00     0.062 A 
ATOM      3  C2  UNL d   1       3.302   1.433  -0.746  0.00  0.00     0.162 A 
ATOM      4  C3  UNL d   1       2.887   0.625   0.312  0.00  0.00    -0.034 A 
ATOM      5  C4  UNL d   1       1.606   0.070   0.283  0.00  0.00     0.162 A 
ATOM      6  C5  UNL d   1       0.757   0.321  -0.790  0.00  0.00     0.062 A 
ATOM      7  F   UNL d   1      -0.472  -0.216  -0.810  0.00  0.00    -0.097 F 
ATOM      8  F1  UNL d   1       1.175  -0.711   1.284  0.00  0.00    -0.096 F 
ATOM      9  I   UNL d   1       4.160   0.252   1.916  0.00  0.00    -0.060 I 
ATOM     10  F2  UNL d   1       4.526   1.983  -0.751  0.00  0.00    -0.096 F 
ATOM     11  F3  UNL d   1       2.857   2.459  -2.830  0.00  0.00    -0.097 F 
ATOM     12  F4  UNL d   1       0.358   1.366  -2.871  0.00  0.00    -0.092 F 
ENDROOT
TORSDOF 0
ENDMDL
