MODEL 1
REMARK minimizedAffinity 31.2307472
REMARK minimizedRMSD -1
REMARK  0 active torsions:
REMARK  status: ('A' for Active; 'I' for Inactive)
ROOT
ATOM      1  C   UNL d   1      -1.859  -2.312  -1.670  0.00  0.00     0.124 A 
ATOM      2  C1  UNL d   1      -1.532  -2.848  -0.432  0.00  0.00     0.062 A 
ATOM      3  C2  UNL d   1      -2.276  -3.900   0.094  0.00  0.00     0.162 A 
ATOM      4  C3  UNL d   1      -3.355  -4.424  -0.619  0.00  0.00    -0.034 A 
ATOM      5  C4  UNL d   1      -3.678  -3.879  -1.863  0.00  0.00     0.162 A 
ATOM      6  C5  UNL d   1      -2.931  -2.828  -2.384  0.00  0.00     0.062 A 
ATOM      7  F   UNL d   1      -3.249  -2.311  -3.580  0.00  0.00    -0.097 F 
ATOM      8  F1  UNL d   1      -4.709  -4.359  -2.575  0.00  0.00    -0.096 F 
ATOM      9  I   UNL d   1      -4.470  -5.997   0.164  0.00  0.00    -0.060 I 
ATOM     10  F2  UNL d   1      -1.938  -4.398   1.292  0.00  0.00    -0.096 F 
ATOM     11  F3  UNL d   1      -0.497  -2.350   0.260  0.00  0.00    -0.097 F 
ATOM     12  F4  UNL d   1      -1.142  -1.299  -2.173  0.00  0.00    -0.092 F 
ENDROOT
TORSDOF 0
ENDMDL
