MODEL 1
REMARK minimizedAffinity 19.63167
REMARK minimizedRMSD -1
REMARK  0 active torsions:
REMARK  status: ('A' for Active; 'I' for Inactive)
ROOT
ATOM      1  C   UNL d   1       2.239   2.882   0.192  0.00  0.00     0.124 A 
ATOM      2  C1  UNL d   1       1.286   3.259   1.128  0.00  0.00     0.062 A 
ATOM      3  C2  UNL d   1       0.887   2.368   2.120  0.00  0.00     0.162 A 
ATOM      4  C3  UNL d   1       1.441   1.089   2.181  0.00  0.00    -0.034 A 
ATOM      5  C4  UNL d   1       2.398   0.716   1.236  0.00  0.00     0.162 A 
ATOM      6  C5  UNL d   1       2.794   1.611   0.247  0.00  0.00     0.062 A 
ATOM      7  F   UNL d   1       3.714   1.244  -0.657  0.00  0.00    -0.097 F 
ATOM      8  F1  UNL d   1       2.952  -0.505   1.266  0.00  0.00    -0.096 F 
ATOM      9  I   UNL d   1       0.847  -0.246   3.663  0.00  0.00    -0.060 I 
ATOM     10  F2  UNL d   1      -0.036   2.760   3.011  0.00  0.00    -0.096 F 
ATOM     11  F3  UNL d   1       0.747   4.486   1.077  0.00  0.00    -0.097 F 
ATOM     12  F4  UNL d   1       2.620   3.741  -0.761  0.00  0.00    -0.092 F 
ENDROOT
TORSDOF 0
ENDMDL
