MODEL 1
REMARK minimizedAffinity 17.0296497
REMARK minimizedRMSD -1
REMARK  0 active torsions:
REMARK  status: ('A' for Active; 'I' for Inactive)
ROOT
ATOM      1  C   UNL d   1      -2.524  -3.073  -1.234  0.00  0.00     0.124 A 
ATOM      2  C1  UNL d   1      -3.007  -4.139  -0.488  0.00  0.00     0.062 A 
ATOM      3  C2  UNL d   1      -3.986  -4.976  -1.015  0.00  0.00     0.162 A 
ATOM      4  C3  UNL d   1      -4.489  -4.750  -2.296  0.00  0.00    -0.034 A 
ATOM      5  C4  UNL d   1      -3.999  -3.676  -3.041  0.00  0.00     0.162 A 
ATOM      6  C5  UNL d   1      -3.020  -2.842  -2.509  0.00  0.00     0.062 A 
ATOM      7  F   UNL d   1      -2.555  -1.812  -3.231  0.00  0.00    -0.097 F 
ATOM      8  F1  UNL d   1      -4.460  -3.430  -4.276  0.00  0.00    -0.096 F 
ATOM      9  I   UNL d   1      -5.953  -6.000  -3.088  0.00  0.00    -0.060 I 
ATOM     10  F2  UNL d   1      -4.434  -5.998  -0.272  0.00  0.00    -0.096 F 
ATOM     11  F3  UNL d   1      -2.529  -4.363   0.745  0.00  0.00    -0.097 F 
ATOM     12  F4  UNL d   1      -1.582  -2.268  -0.724  0.00  0.00    -0.092 F 
ENDROOT
TORSDOF 0
ENDMDL
