MODEL 1
REMARK minimizedAffinity 20.9297371
REMARK minimizedRMSD -1
REMARK  0 active torsions:
REMARK  status: ('A' for Active; 'I' for Inactive)
ROOT
ATOM      1  C   UNL d   1       2.237   0.812   3.633  0.00  0.00     0.124 A 
ATOM      2  C1  UNL d   1       3.471   0.236   3.363  0.00  0.00     0.062 A 
ATOM      3  C2  UNL d   1       4.014   0.312   2.084  0.00  0.00     0.162 A 
ATOM      4  C3  UNL d   1       3.324   0.967   1.064  0.00  0.00    -0.034 A 
ATOM      5  C4  UNL d   1       2.083   1.543   1.343  0.00  0.00     0.162 A 
ATOM      6  C5  UNL d   1       1.545   1.464   2.623  0.00  0.00     0.062 A 
ATOM      7  F   UNL d   1       0.352   2.021   2.882  0.00  0.00    -0.097 F 
ATOM      8  F1  UNL d   1       1.393   2.181   0.386  0.00  0.00    -0.096 F 
ATOM      9  I   UNL d   1       4.133   1.083  -0.850  0.00  0.00    -0.060 I 
ATOM     10  F2  UNL d   1       5.208  -0.253   1.852  0.00  0.00    -0.096 F 
ATOM     11  F3  UNL d   1       4.142  -0.396   4.337  0.00  0.00    -0.097 F 
ATOM     12  F4  UNL d   1       1.717   0.736   4.865  0.00  0.00    -0.092 F 
ENDROOT
TORSDOF 0
ENDMDL
