MODEL 1
REMARK minimizedAffinity 9.4737854
REMARK minimizedRMSD -1
REMARK  0 active torsions:
REMARK  status: ('A' for Active; 'I' for Inactive)
ROOT
ATOM      1  C   UNL d   1       3.311   2.240  -3.079  0.00  0.00     0.124 A 
ATOM      2  C1  UNL d   1       4.133   2.574  -4.145  0.00  0.00     0.062 A 
ATOM      3  C2  UNL d   1       3.804   3.641  -4.976  0.00  0.00     0.162 A 
ATOM      4  C3  UNL d   1       2.645   4.383  -4.744  0.00  0.00    -0.034 A 
ATOM      5  C4  UNL d   1       1.822   4.040  -3.669  0.00  0.00     0.162 A 
ATOM      6  C5  UNL d   1       2.156   2.973  -2.842  0.00  0.00     0.062 A 
ATOM      7  F   UNL d   1       1.360   2.652  -1.812  0.00  0.00    -0.097 F 
ATOM      8  F1  UNL d   1       0.701   4.732  -3.417  0.00  0.00    -0.096 F 
ATOM      9  I   UNL d   1       2.149   5.978  -5.984  0.00  0.00    -0.060 I 
ATOM     10  F2  UNL d   1       4.617   3.941  -6.000  0.00  0.00    -0.096 F 
ATOM     11  F3  UNL d   1       5.249   1.867  -4.377  0.00  0.00    -0.097 F 
ATOM     12  F4  UNL d   1       3.630   1.213  -2.281  0.00  0.00    -0.092 F 
ENDROOT
TORSDOF 0
ENDMDL
