MODEL 1
REMARK minimizedAffinity 26.6284924
REMARK minimizedRMSD -1
REMARK  0 active torsions:
REMARK  status: ('A' for Active; 'I' for Inactive)
ROOT
ATOM      1  C   UNL d   1       2.529   2.250  -3.496  0.00  0.00     0.124 A 
ATOM      2  C1  UNL d   1       3.454   1.365  -2.960  0.00  0.00     0.062 A 
ATOM      3  C2  UNL d   1       3.391   1.017  -1.614  0.00  0.00     0.162 A 
ATOM      4  C3  UNL d   1       2.398   1.553  -0.794  0.00  0.00    -0.034 A 
ATOM      5  C4  UNL d   1       1.472   2.443  -1.340  0.00  0.00     0.162 A 
ATOM      6  C5  UNL d   1       1.539   2.788  -2.686  0.00  0.00     0.062 A 
ATOM      7  F   UNL d   1       0.645   3.644  -3.202  0.00  0.00    -0.097 F 
ATOM      8  F1  UNL d   1       0.504   2.977  -0.580  0.00  0.00    -0.096 F 
ATOM      9  I   UNL d   1       2.300   1.034   1.219  0.00  0.00    -0.060 I 
ATOM     10  F2  UNL d   1       4.298   0.159  -1.123  0.00  0.00    -0.096 F 
ATOM     11  F3  UNL d   1       4.412   0.845  -3.741  0.00  0.00    -0.097 F 
ATOM     12  F4  UNL d   1       2.593   2.585  -4.791  0.00  0.00    -0.092 F 
ENDROOT
TORSDOF 0
ENDMDL
