MODEL 1
REMARK minimizedAffinity 22.1183681
REMARK minimizedRMSD -1
REMARK  0 active torsions:
REMARK  status: ('A' for Active; 'I' for Inactive)
ROOT
ATOM      1  C   UNL d   1       2.124   0.001   3.204  0.00  0.00     0.124 A 
ATOM      2  C1  UNL d   1       3.394  -0.450   2.869  0.00  0.00     0.062 A 
ATOM      3  C2  UNL d   1       3.951  -0.122   1.637  0.00  0.00     0.162 A 
ATOM      4  C3  UNL d   1       3.239   0.662   0.729  0.00  0.00    -0.034 A 
ATOM      5  C4  UNL d   1       1.962   1.111   1.072  0.00  0.00     0.162 A 
ATOM      6  C5  UNL d   1       1.410   0.780   2.305  0.00  0.00     0.062 A 
ATOM      7  F   UNL d   1       0.183   1.217   2.626  0.00  0.00    -0.097 F 
ATOM      8  F1  UNL d   1       1.251   1.867   0.223  0.00  0.00    -0.096 F 
ATOM      9  I   UNL d   1       4.068   1.154  -1.115  0.00  0.00    -0.060 I 
ATOM     10  F2  UNL d   1       5.179  -0.572   1.340  0.00  0.00    -0.096 F 
ATOM     11  F3  UNL d   1       4.085  -1.205   3.735  0.00  0.00    -0.097 F 
ATOM     12  F4  UNL d   1       1.590  -0.317   4.390  0.00  0.00    -0.092 F 
ENDROOT
TORSDOF 0
ENDMDL
