MODEL 1
REMARK minimizedAffinity 23.7752151
REMARK minimizedRMSD -1
REMARK  0 active torsions:
REMARK  status: ('A' for Active; 'I' for Inactive)
ROOT
ATOM      1  C   UNL d   1      -2.088  -2.568   3.488  0.00  0.00     0.124 A 
ATOM      2  C1  UNL d   1      -2.026  -1.353   2.819  0.00  0.00     0.062 A 
ATOM      3  C2  UNL d   1      -2.954  -0.354   3.095  0.00  0.00     0.162 A 
ATOM      4  C3  UNL d   1      -3.953  -0.564   4.045  0.00  0.00    -0.034 A 
ATOM      5  C4  UNL d   1      -4.010  -1.789   4.713  0.00  0.00     0.162 A 
ATOM      6  C5  UNL d   1      -3.080  -2.784   4.434  0.00  0.00     0.062 A 
ATOM      7  F   UNL d   1      -3.142  -3.957   5.082  0.00  0.00    -0.097 F 
ATOM      8  F1  UNL d   1      -4.958  -2.024   5.633  0.00  0.00    -0.096 F 
ATOM      9  I   UNL d   1      -5.344   0.928   4.460  0.00  0.00    -0.060 I 
ATOM     10  F2  UNL d   1      -2.870   0.810   2.433  0.00  0.00    -0.096 F 
ATOM     11  F3  UNL d   1      -1.069  -1.142   1.904  0.00  0.00    -0.097 F 
ATOM     12  F4  UNL d   1      -1.194  -3.528   3.220  0.00  0.00    -0.092 F 
ENDROOT
TORSDOF 0
ENDMDL
