MODEL 1
REMARK minimizedAffinity 23.4679699
REMARK minimizedRMSD -1
REMARK  0 active torsions:
REMARK  status: ('A' for Active; 'I' for Inactive)
ROOT
ATOM      1  C   UNL d   1       1.268  -0.422   0.864  0.00  0.00     0.124 A 
ATOM      2  C1  UNL d   1       0.647   0.391   1.803  0.00  0.00     0.062 A 
ATOM      3  C2  UNL d   1       1.158   1.656   2.081  0.00  0.00     0.162 A 
ATOM      4  C3  UNL d   1       2.296   2.116   1.418  0.00  0.00    -0.034 A 
ATOM      5  C4  UNL d   1       2.915   1.293   0.476  0.00  0.00     0.162 A 
ATOM      6  C5  UNL d   1       2.401   0.030   0.202  0.00  0.00     0.062 A 
ATOM      7  F   UNL d   1       3.002  -0.754  -0.705  0.00  0.00    -0.097 F 
ATOM      8  F1  UNL d   1       4.010   1.705  -0.179  0.00  0.00    -0.096 F 
ATOM      9  I   UNL d   1       3.062   4.007   1.831  0.00  0.00    -0.060 I 
ATOM     10  F2  UNL d   1       0.538   2.419   2.993  0.00  0.00    -0.096 F 
ATOM     11  F3  UNL d   1      -0.447  -0.043   2.445  0.00  0.00    -0.097 F 
ATOM     12  F4  UNL d   1       0.775  -1.638   0.600  0.00  0.00    -0.092 F 
ENDROOT
TORSDOF 0
ENDMDL
