MODEL 1
REMARK minimizedAffinity 24.8930435
REMARK minimizedRMSD -1
REMARK  0 active torsions:
REMARK  status: ('A' for Active; 'I' for Inactive)
ROOT
ATOM      1  C   UNL d   1       2.402  -3.612  -3.851  0.00  0.00     0.124 A 
ATOM      2  C1  UNL d   1       2.232  -3.546  -2.475  0.00  0.00     0.062 A 
ATOM      3  C2  UNL d   1       0.975  -3.751  -1.915  0.00  0.00     0.162 A 
ATOM      4  C3  UNL d   1      -0.123  -4.024  -2.730  0.00  0.00    -0.034 A 
ATOM      5  C4  UNL d   1       0.056  -4.088  -4.114  0.00  0.00     0.162 A 
ATOM      6  C5  UNL d   1       1.314  -3.882  -4.669  0.00  0.00     0.062 A 
ATOM      7  F   UNL d   1       1.477  -3.946  -5.998  0.00  0.00    -0.097 F 
ATOM      8  F1  UNL d   1      -0.979  -4.349  -4.927  0.00  0.00    -0.096 F 
ATOM      9  I   UNL d   1      -2.005  -4.331  -1.897  0.00  0.00    -0.060 I 
ATOM     10  F2  UNL d   1       0.839  -3.682  -0.582  0.00  0.00    -0.096 F 
ATOM     11  F3  UNL d   1       3.282  -3.284  -1.683  0.00  0.00    -0.097 F 
ATOM     12  F4  UNL d   1       3.613  -3.413  -4.387  0.00  0.00    -0.092 F 
ENDROOT
TORSDOF 0
ENDMDL
