MODEL 1
REMARK minimizedAffinity 11.6901112
REMARK minimizedRMSD -1
REMARK  0 active torsions:
REMARK  status: ('A' for Active; 'I' for Inactive)
ROOT
ATOM      1  C   UNL d   1      -1.755  -2.635   0.515  0.00  0.00     0.124 A 
ATOM      2  C1  UNL d   1      -2.005  -3.856   1.128  0.00  0.00     0.062 A 
ATOM      3  C2  UNL d   1      -2.776  -4.818   0.482  0.00  0.00     0.162 A 
ATOM      4  C3  UNL d   1      -3.303  -4.564  -0.785  0.00  0.00    -0.034 A 
ATOM      5  C4  UNL d   1      -3.048  -3.334  -1.394  0.00  0.00     0.162 A 
ATOM      6  C5  UNL d   1      -2.277  -2.375  -0.744  0.00  0.00     0.062 A 
ATOM      7  F   UNL d   1      -2.036  -1.197  -1.337  0.00  0.00    -0.097 F 
ATOM      8  F1  UNL d   1      -3.539  -3.057  -2.611  0.00  0.00    -0.096 F 
ATOM      9  I   UNL d   1      -4.456  -6.000  -1.753  0.00  0.00    -0.060 I 
ATOM     10  F2  UNL d   1      -3.002  -5.988   1.097  0.00  0.00    -0.096 F 
ATOM     11  F3  UNL d   1      -1.503  -4.109   2.345  0.00  0.00    -0.097 F 
ATOM     12  F4  UNL d   1      -1.014  -1.711   1.139  0.00  0.00    -0.092 F 
ENDROOT
TORSDOF 0
ENDMDL
