MODEL 1
REMARK minimizedAffinity 13.5079384
REMARK minimizedRMSD -1
REMARK  0 active torsions:
REMARK  status: ('A' for Active; 'I' for Inactive)
ROOT
ATOM      1  C   UNL d   1      -4.004   0.759   3.381  0.00  0.00     0.124 A 
ATOM      2  C1  UNL d   1      -3.197  -0.356   3.210  0.00  0.00     0.062 A 
ATOM      3  C2  UNL d   1      -1.894  -0.212   2.742  0.00  0.00     0.162 A 
ATOM      4  C3  UNL d   1      -1.389   1.053   2.443  0.00  0.00    -0.034 A 
ATOM      5  C4  UNL d   1      -2.207   2.171   2.617  0.00  0.00     0.162 A 
ATOM      6  C5  UNL d   1      -3.509   2.021   3.085  0.00  0.00     0.062 A 
ATOM      7  F   UNL d   1      -4.288   3.101   3.250  0.00  0.00    -0.097 F 
ATOM      8  F1  UNL d   1      -1.754   3.402   2.340  0.00  0.00    -0.096 F 
ATOM      9  I   UNL d   1       0.559   1.273   1.743  0.00  0.00    -0.060 I 
ATOM     10  F2  UNL d   1      -1.136  -1.308   2.586  0.00  0.00    -0.096 F 
ATOM     11  F3  UNL d   1      -3.673  -1.577   3.495  0.00  0.00    -0.097 F 
ATOM     12  F4  UNL d   1      -5.258   0.618   3.831  0.00  0.00    -0.092 F 
ENDROOT
TORSDOF 0
ENDMDL
