MODEL 1
REMARK minimizedAffinity 22.3431282
REMARK minimizedRMSD -1
REMARK  0 active torsions:
REMARK  status: ('A' for Active; 'I' for Inactive)
ROOT
ATOM      1  C   UNL d   1      -0.260  -3.835  -4.023  0.00  0.00     0.124 A 
ATOM      2  C1  UNL d   1      -0.291  -4.057  -2.654  0.00  0.00     0.062 A 
ATOM      3  C2  UNL d   1      -1.463  -3.838  -1.935  0.00  0.00     0.162 A 
ATOM      4  C3  UNL d   1      -2.614  -3.394  -2.586  0.00  0.00    -0.034 A 
ATOM      5  C4  UNL d   1      -2.575  -3.171  -3.963  0.00  0.00     0.162 A 
ATOM      6  C5  UNL d   1      -1.401  -3.392  -4.677  0.00  0.00     0.062 A 
ATOM      7  F   UNL d   1      -1.373  -3.176  -6.000  0.00  0.00    -0.097 F 
ATOM      8  F1  UNL d   1      -3.664  -2.744  -4.620  0.00  0.00    -0.096 F 
ATOM      9  I   UNL d   1      -4.369  -3.064  -1.515  0.00  0.00    -0.060 I 
ATOM     10  F2  UNL d   1      -1.465  -4.061  -0.613  0.00  0.00    -0.096 F 
ATOM     11  F3  UNL d   1       0.810  -4.484  -2.020  0.00  0.00    -0.097 F 
ATOM     12  F4  UNL d   1       0.869  -4.046  -4.712  0.00  0.00    -0.092 F 
ENDROOT
TORSDOF 0
ENDMDL
