MODEL 1
REMARK minimizedAffinity 6.52030134
REMARK minimizedRMSD -1
REMARK  2 active torsions:
REMARK  status: ('A' for Active; 'I' for Inactive)
REMARK    1  A    between atoms: C1_2  and  C2_3 
REMARK    2  A    between atoms: C2_3  and  C3_4 
ROOT
ATOM      1  C3  UNL d   1       1.497   2.207  -1.364  0.00  0.00    -0.075 A 
ATOM      2  C4  UNL d   1       2.377   1.980  -0.296  0.00  0.00     0.002 A 
ATOM      3  C5  UNL d   1       2.634   0.682   0.146  0.00  0.00     0.002 A 
ATOM      4  C6  UNL d   1       2.009  -0.402  -0.466  0.00  0.00    -0.004 A 
ATOM      5  C7  UNL d   1       1.121  -0.187  -1.517  0.00  0.00     0.002 A 
ATOM      6  C8  UNL d   1       0.865   1.110  -1.965  0.00  0.00     0.002 A 
ENDROOT
BRANCH   1   7
ATOM      7  C2  UNL d   1       1.237   3.607  -1.867  0.00  0.00     0.056 C 
BRANCH   7   8
ATOM      8  C1  UNL d   1       1.545   4.705  -0.843  0.00  0.00     0.007 C 
ATOM      9  C   UNL d   1       2.035   5.999  -1.479  0.00  0.00     0.009 C 
ENDBRANCH   7   8
ENDBRANCH   1   7
TORSDOF 2
ENDMDL
