MODEL 1
REMARK minimizedAffinity -1.16731071
REMARK minimizedRMSD -1
REMARK  2 active torsions:
REMARK  status: ('A' for Active; 'I' for Inactive)
REMARK    1  A    between atoms: C1_2  and  C2_3 
REMARK    2  A    between atoms: C2_3  and  C3_4 
ROOT
ATOM      1  C3  UNL d   1       1.404   3.030  -0.691  0.00  0.00    -0.075 A 
ATOM      2  C4  UNL d   1       0.745   2.947  -1.926  0.00  0.00     0.002 A 
ATOM      3  C5  UNL d   1       0.640   1.725  -2.592  0.00  0.00     0.002 A 
ATOM      4  C6  UNL d   1       1.201   0.576  -2.039  0.00  0.00    -0.004 A 
ATOM      5  C7  UNL d   1       1.873   0.651  -0.820  0.00  0.00     0.002 A 
ATOM      6  C8  UNL d   1       1.975   1.871  -0.149  0.00  0.00     0.002 A 
ENDROOT
BRANCH   1   7
ATOM      7  C2  UNL d   1       1.495   4.343   0.049  0.00  0.00     0.056 C 
BRANCH   7   8
ATOM      8  C1  UNL d   1       1.512   5.574  -0.864  0.00  0.00     0.007 C 
ATOM      9  C   UNL d   1       2.915   5.995  -1.279  0.00  0.00     0.009 C 
ENDBRANCH   7   8
ENDBRANCH   1   7
TORSDOF 2
ENDMDL
