MODEL 1
REMARK minimizedAffinity 2.15674138
REMARK minimizedRMSD -1
REMARK  2 active torsions:
REMARK  status: ('A' for Active; 'I' for Inactive)
REMARK    1  A    between atoms: C1_2  and  C2_3 
REMARK    2  A    between atoms: C2_3  and  C3_4 
ROOT
ATOM      1  C3  UNL d   1      -2.383   0.835   3.955  0.00  0.00    -0.075 A 
ATOM      2  C4  UNL d   1      -3.380   0.244   3.165  0.00  0.00     0.002 A 
ATOM      3  C5  UNL d   1      -3.842   0.882   2.013  0.00  0.00     0.002 A 
ATOM      4  C6  UNL d   1      -3.321   2.120   1.643  0.00  0.00    -0.004 A 
ATOM      5  C7  UNL d   1      -2.342   2.724   2.429  0.00  0.00     0.002 A 
ATOM      6  C8  UNL d   1      -1.875   2.086   3.579  0.00  0.00     0.002 A 
ENDROOT
BRANCH   1   7
ATOM      7  C2  UNL d   1      -1.857   0.136   5.186  0.00  0.00     0.056 C 
BRANCH   7   8
ATOM      8  C1  UNL d   1      -0.666  -0.789   4.918  0.00  0.00     0.007 C 
ATOM      9  C   UNL d   1      -1.050  -2.064   4.179  0.00  0.00     0.009 C 
ENDBRANCH   7   8
ENDBRANCH   1   7
TORSDOF 2
ENDMDL
