MODEL 1
REMARK minimizedAffinity -2.97747254
REMARK minimizedRMSD -1
REMARK  2 active torsions:
REMARK  status: ('A' for Active; 'I' for Inactive)
REMARK    1  A    between atoms: C1_2  and  C2_3 
REMARK    2  A    between atoms: C2_3  and  C3_4 
ROOT
ATOM      1  C3  UNL d   1       1.459   2.783  -0.214  0.00  0.00    -0.075 A 
ATOM      2  C4  UNL d   1       1.862   1.587   0.396  0.00  0.00     0.002 A 
ATOM      3  C5  UNL d   1       1.862   0.390  -0.322  0.00  0.00     0.002 A 
ATOM      4  C6  UNL d   1       1.450   0.373  -1.652  0.00  0.00    -0.004 A 
ATOM      5  C7  UNL d   1       1.032   1.553  -2.264  0.00  0.00     0.002 A 
ATOM      6  C8  UNL d   1       1.035   2.752  -1.549  0.00  0.00     0.002 A 
ENDROOT
BRANCH   1   7
ATOM      7  C2  UNL d   1       1.485   4.087   0.548  0.00  0.00     0.056 C 
BRANCH   7   8
ATOM      8  C1  UNL d   1       1.469   5.332  -0.345  0.00  0.00     0.007 C 
ATOM      9  C   UNL d   1       2.833   5.996  -0.474  0.00  0.00     0.009 C 
ENDBRANCH   7   8
ENDBRANCH   1   7
TORSDOF 2
ENDMDL
