MODEL 1
REMARK minimizedAffinity -4.72613049
REMARK minimizedRMSD -1
REMARK  2 active torsions:
REMARK  status: ('A' for Active; 'I' for Inactive)
REMARK    1  A    between atoms: C1_2  and  C2_3 
REMARK    2  A    between atoms: C2_3  and  C3_4 
ROOT
ATOM      1  C3  UNL d   1       1.382   2.703   0.748  0.00  0.00    -0.075 A 
ATOM      2  C4  UNL d   1       1.259   1.467   0.095  0.00  0.00     0.002 A 
ATOM      3  C5  UNL d   1       1.224   1.403  -1.298  0.00  0.00     0.002 A 
ATOM      4  C6  UNL d   1       1.300   2.570  -2.055  0.00  0.00    -0.004 A 
ATOM      5  C7  UNL d   1       1.405   3.804  -1.417  0.00  0.00     0.002 A 
ATOM      6  C8  UNL d   1       1.445   3.871  -0.023  0.00  0.00     0.002 A 
ENDROOT
BRANCH   1   7
ATOM      7  C2  UNL d   1       1.450   2.777   2.254  0.00  0.00     0.056 C 
BRANCH   7   8
ATOM      8  C1  UNL d   1       2.525   3.733   2.783  0.00  0.00     0.007 C 
ATOM      9  C   UNL d   1       2.110   4.459   4.056  0.00  0.00     0.009 C 
ENDBRANCH   7   8
ENDBRANCH   1   7
TORSDOF 2
ENDMDL
