MODEL 1
REMARK minimizedAffinity -6.37382174
REMARK minimizedRMSD -1
REMARK  2 active torsions:
REMARK  status: ('A' for Active; 'I' for Inactive)
REMARK    1  A    between atoms: C1_2  and  C2_3 
REMARK    2  A    between atoms: C2_3  and  C3_4 
ROOT
ATOM      1  C3  UNL d   1       1.440   1.184  -0.357  0.00  0.00    -0.075 A 
ATOM      2  C4  UNL d   1       1.693   2.116  -1.374  0.00  0.00     0.002 A 
ATOM      3  C5  UNL d   1       1.620   3.485  -1.115  0.00  0.00     0.002 A 
ATOM      4  C6  UNL d   1       1.284   3.939   0.159  0.00  0.00    -0.004 A 
ATOM      5  C7  UNL d   1       1.014   3.022   1.172  0.00  0.00     0.002 A 
ATOM      6  C8  UNL d   1       1.090   1.652   0.917  0.00  0.00     0.002 A 
ENDROOT
BRANCH   1   7
ATOM      7  C2  UNL d   1       1.546  -0.298  -0.623  0.00  0.00     0.056 C 
BRANCH   7   8
ATOM      8  C1  UNL d   1       0.739  -0.773  -1.836  0.00  0.00     0.007 C 
ATOM      9  C   UNL d   1       1.577  -0.901  -3.101  0.00  0.00     0.009 C 
ENDBRANCH   7   8
ENDBRANCH   1   7
TORSDOF 2
ENDMDL
