MODEL 1
REMARK minimizedAffinity -4.58080673
REMARK minimizedRMSD -1
REMARK  2 active torsions:
REMARK  status: ('A' for Active; 'I' for Inactive)
REMARK    1  A    between atoms: C1_2  and  C2_3 
REMARK    2  A    between atoms: C2_3  and  C3_4 
ROOT
ATOM      1  C3  UNL d   1       1.393   0.670  -0.918  0.00  0.00    -0.075 A 
ATOM      2  C4  UNL d   1       1.090   0.946   0.423  0.00  0.00     0.002 A 
ATOM      3  C5  UNL d   1       0.956   2.263   0.863  0.00  0.00     0.002 A 
ATOM      4  C6  UNL d   1       1.133   3.319  -0.028  0.00  0.00    -0.004 A 
ATOM      5  C7  UNL d   1       1.450   3.058  -1.359  0.00  0.00     0.002 A 
ATOM      6  C8  UNL d   1       1.580   1.740  -1.803  0.00  0.00     0.002 A 
ENDROOT
BRANCH   1   7
ATOM      7  C2  UNL d   1       1.510  -0.754  -1.406  0.00  0.00     0.056 C 
BRANCH   7   8
ATOM      8  C1  UNL d   1       0.908  -1.792  -0.453  0.00  0.00     0.007 C 
ATOM      9  C   UNL d   1      -0.099  -2.714  -1.128  0.00  0.00     0.009 C 
ENDBRANCH   7   8
ENDBRANCH   1   7
TORSDOF 2
ENDMDL
