MODEL 1
REMARK minimizedAffinity 1.07153702
REMARK minimizedRMSD -1
REMARK  2 active torsions:
REMARK  status: ('A' for Active; 'I' for Inactive)
REMARK    1  A    between atoms: C1_2  and  C2_3 
REMARK    2  A    between atoms: C2_3  and  C3_4 
ROOT
ATOM      1  C3  UNL d   1       0.623   1.065  -1.271  0.00  0.00    -0.075 A 
ATOM      2  C4  UNL d   1       0.431  -0.308  -1.482  0.00  0.00     0.002 A 
ATOM      3  C5  UNL d   1       1.156  -1.246  -0.746  0.00  0.00     0.002 A 
ATOM      4  C6  UNL d   1       2.087  -0.824   0.200  0.00  0.00    -0.004 A 
ATOM      5  C7  UNL d   1       2.298   0.538   0.406  0.00  0.00     0.002 A 
ATOM      6  C8  UNL d   1       1.570   1.478  -0.325  0.00  0.00     0.002 A 
ENDROOT
BRANCH   1   7
ATOM      7  C2  UNL d   1      -0.180   2.085  -2.043  0.00  0.00     0.056 C 
BRANCH   7   8
ATOM      8  C1  UNL d   1      -1.696   1.946  -1.869  0.00  0.00     0.007 C 
ATOM      9  C   UNL d   1      -2.471   3.161  -2.362  0.00  0.00     0.009 C 
ENDBRANCH   7   8
ENDBRANCH   1   7
TORSDOF 2
ENDMDL
