MODEL 1
REMARK minimizedAffinity -1.14389968
REMARK minimizedRMSD -1
REMARK  2 active torsions:
REMARK  status: ('A' for Active; 'I' for Inactive)
REMARK    1  A    between atoms: C1_2  and  C2_3 
REMARK    2  A    between atoms: C2_3  and  C3_4 
ROOT
ATOM      1  C3  UNL d   1       1.596   2.764  -0.563  0.00  0.00    -0.075 A 
ATOM      2  C4  UNL d   1       1.259   2.470  -1.892  0.00  0.00     0.002 A 
ATOM      3  C5  UNL d   1       1.384   1.170  -2.384  0.00  0.00     0.002 A 
ATOM      4  C6  UNL d   1       1.857   0.152  -1.558  0.00  0.00    -0.004 A 
ATOM      5  C7  UNL d   1       2.210   0.436  -0.241  0.00  0.00     0.002 A 
ATOM      6  C8  UNL d   1       2.082   1.735   0.255  0.00  0.00     0.002 A 
ENDROOT
BRANCH   1   7
ATOM      7  C2  UNL d   1       1.435   4.162  -0.016  0.00  0.00     0.056 C 
BRANCH   7   8
ATOM      8  C1  UNL d   1       1.552   5.263  -1.076  0.00  0.00     0.007 C 
ATOM      9  C   UNL d   1       2.886   5.998  -1.032  0.00  0.00     0.009 C 
ENDBRANCH   7   8
ENDBRANCH   1   7
TORSDOF 2
ENDMDL
