MODEL 1
REMARK minimizedAffinity -3.50152969
REMARK minimizedRMSD -1
REMARK  2 active torsions:
REMARK  status: ('A' for Active; 'I' for Inactive)
REMARK    1  A    between atoms: C1_2  and  C2_3 
REMARK    2  A    between atoms: C2_3  and  C3_4 
ROOT
ATOM      1  C3  UNL d   1       1.282   2.154  -0.785  0.00  0.00    -0.075 A 
ATOM      2  C4  UNL d   1       1.456   2.074   0.604  0.00  0.00     0.002 A 
ATOM      3  C5  UNL d   1       1.560   0.833   1.235  0.00  0.00     0.002 A 
ATOM      4  C6  UNL d   1       1.482  -0.340   0.488  0.00  0.00    -0.004 A 
ATOM      5  C7  UNL d   1       1.292  -0.273  -0.890  0.00  0.00     0.002 A 
ATOM      6  C8  UNL d   1       1.192   0.967  -1.525  0.00  0.00     0.002 A 
ENDROOT
BRANCH   1   7
ATOM      7  C2  UNL d   1       1.199   3.493  -1.477  0.00  0.00     0.056 C 
BRANCH   7   8
ATOM      8  C1  UNL d   1       2.004   4.601  -0.791  0.00  0.00     0.007 C 
ATOM      9  C   UNL d   1       1.612   6.000  -1.248  0.00  0.00     0.009 C 
ENDBRANCH   7   8
ENDBRANCH   1   7
TORSDOF 2
ENDMDL
