MODEL 1
REMARK minimizedAffinity -4.65118313
REMARK minimizedRMSD -1
REMARK  2 active torsions:
REMARK  status: ('A' for Active; 'I' for Inactive)
REMARK    1  A    between atoms: C1_2  and  C2_3 
REMARK    2  A    between atoms: C2_3  and  C3_4 
ROOT
ATOM      1  C3  UNL d   1       1.185   2.244  -0.896  0.00  0.00    -0.075 A 
ATOM      2  C4  UNL d   1       1.393   2.038   0.475  0.00  0.00     0.002 A 
ATOM      3  C5  UNL d   1       1.312   0.756   1.019  0.00  0.00     0.002 A 
ATOM      4  C6  UNL d   1       1.013  -0.333   0.203  0.00  0.00    -0.004 A 
ATOM      5  C7  UNL d   1       0.789  -0.137  -1.159  0.00  0.00     0.002 A 
ATOM      6  C8  UNL d   1       0.874   1.144  -1.706  0.00  0.00     0.002 A 
ENDROOT
BRANCH   1   7
ATOM      7  C2  UNL d   1       1.300   3.625  -1.496  0.00  0.00     0.056 C 
BRANCH   7   8
ATOM      8  C1  UNL d   1       1.664   4.717  -0.484  0.00  0.00     0.007 C 
ATOM      9  C   UNL d   1       2.163   5.999  -1.136  0.00  0.00     0.009 C 
ENDBRANCH   7   8
ENDBRANCH   1   7
TORSDOF 2
ENDMDL
