MODEL 1
REMARK minimizedAffinity -1.27685857
REMARK minimizedRMSD -1
REMARK  2 active torsions:
REMARK  status: ('A' for Active; 'I' for Inactive)
REMARK    1  A    between atoms: C1_2  and  C2_3 
REMARK    2  A    between atoms: C2_3  and  C3_4 
ROOT
ATOM      1  C3  UNL d   1      -5.296   0.070   3.434  0.00  0.00    -0.075 A 
ATOM      2  C4  UNL d   1      -5.937   1.122   4.104  0.00  0.00     0.002 A 
ATOM      3  C5  UNL d   1      -5.292   2.345   4.283  0.00  0.00     0.002 A 
ATOM      4  C6  UNL d   1      -3.996   2.530   3.805  0.00  0.00    -0.004 A 
ATOM      5  C7  UNL d   1      -3.343   1.486   3.153  0.00  0.00     0.002 A 
ATOM      6  C8  UNL d   1      -3.988   0.262   2.968  0.00  0.00     0.002 A 
ENDROOT
BRANCH   1   7
ATOM      7  C2  UNL d   1      -6.000  -1.248   3.211  0.00  0.00     0.056 C 
BRANCH   7   8
ATOM      8  C1  UNL d   1      -5.075  -2.468   3.278  0.00  0.00     0.007 C 
ATOM      9  C   UNL d   1      -5.759  -3.763   2.860  0.00  0.00     0.009 C 
ENDBRANCH   7   8
ENDBRANCH   1   7
TORSDOF 2
ENDMDL
