MODEL 1
REMARK minimizedAffinity 9.46977806
REMARK minimizedRMSD -1
REMARK  2 active torsions:
REMARK  status: ('A' for Active; 'I' for Inactive)
REMARK    1  A    between atoms: C1_2  and  C2_3 
REMARK    2  A    between atoms: C2_3  and  C3_4 
ROOT
ATOM      1  C3  UNL d   1       1.512   3.448  -0.498  0.00  0.00    -0.075 A 
ATOM      2  C4  UNL d   1       1.493   2.206   0.151  0.00  0.00     0.002 A 
ATOM      3  C5  UNL d   1       1.282   1.031  -0.573  0.00  0.00     0.002 A 
ATOM      4  C6  UNL d   1       1.078   1.086  -1.950  0.00  0.00    -0.004 A 
ATOM      5  C7  UNL d   1       1.079   2.316  -2.603  0.00  0.00     0.002 A 
ATOM      6  C8  UNL d   1       1.293   3.492  -1.882  0.00  0.00     0.002 A 
ENDROOT
BRANCH   1   7
ATOM      7  C2  UNL d   1       1.768   4.720   0.275  0.00  0.00     0.056 C 
BRANCH   7   8
ATOM      8  C1  UNL d   1       1.897   5.969  -0.604  0.00  0.00     0.007 C 
ATOM      9  C   UNL d   1       3.179   5.996  -1.425  0.00  0.00     0.009 C 
ENDBRANCH   7   8
ENDBRANCH   1   7
TORSDOF 2
ENDMDL
