MODEL 1
REMARK minimizedAffinity -1.52243149
REMARK minimizedRMSD -1
REMARK  0 active torsions:
REMARK  status: ('A' for Active; 'I' for Inactive)
ROOT
ATOM      1  C4' PXY d   1      -3.283   4.347  -5.966  0.00  0.00     0.077 C 
ATOM      2  C1' PXY d   1      -3.719  -1.417  -5.999  0.00  0.00     0.077 C 
ATOM      3  C1  PXY d   1      -3.593   0.093  -5.985  0.00  0.00    -0.082 A 
ATOM      4  C2  PXY d   1      -4.684   0.841  -5.968  0.00  0.00     0.003 A 
ATOM      5  C3  PXY d   1      -4.589   2.209  -5.987  0.00  0.00     0.003 A 
ATOM      6  C4  PXY d   1      -3.363   2.818  -5.971  0.00  0.00    -0.082 A 
ATOM      7  C5  PXY d   1      -2.244   2.062  -5.978  0.00  0.00     0.003 A 
ATOM      8  C6  PXY d   1      -2.363   0.675  -6.000  0.00  0.00     0.003 A 
ENDROOT
TORSDOF 0
ENDMDL
