MODEL 1
REMARK minimizedAffinity 1.93989122
REMARK minimizedRMSD -1
REMARK  0 active torsions:
REMARK  status: ('A' for Active; 'I' for Inactive)
ROOT
ATOM      1  C4' PXY d   1      -3.366   2.389  -5.240  0.00  0.00     0.077 C 
ATOM      2  C1' PXY d   1      -5.027  -3.148  -5.232  0.00  0.00     0.077 C 
ATOM      3  C1  PXY d   1      -4.580  -1.699  -5.238  0.00  0.00    -0.082 A 
ATOM      4  C2  PXY d   1      -5.231  -0.811  -4.505  0.00  0.00     0.003 A 
ATOM      5  C3  PXY d   1      -4.860   0.509  -4.523  0.00  0.00     0.003 A 
ATOM      6  C4  PXY d   1      -3.777   0.914  -5.258  0.00  0.00    -0.082 A 
ATOM      7  C5  PXY d   1      -3.101   0.012  -5.999  0.00  0.00     0.003 A 
ATOM      8  C6  PXY d   1      -3.519  -1.316  -6.000  0.00  0.00     0.003 A 
ENDROOT
TORSDOF 0
ENDMDL
