MODEL 1
REMARK minimizedAffinity -4.47982645
REMARK minimizedRMSD -1
REMARK  0 active torsions:
REMARK  status: ('A' for Active; 'I' for Inactive)
ROOT
ATOM      1  C4' PXY d   1      -2.695   3.358  -5.721  0.00  0.00     0.077 C 
ATOM      2  C1' PXY d   1      -5.489  -1.701  -5.859  0.00  0.00     0.077 C 
ATOM      3  C1  PXY d   1      -4.746  -0.380  -5.815  0.00  0.00    -0.082 A 
ATOM      4  C2  PXY d   1      -5.414   0.751  -5.977  0.00  0.00     0.003 A 
ATOM      5  C3  PXY d   1      -4.754   1.953  -5.972  0.00  0.00     0.003 A 
ATOM      6  C4  PXY d   1      -3.404   2.001  -5.748  0.00  0.00    -0.082 A 
ATOM      7  C5  PXY d   1      -2.718   0.852  -5.572  0.00  0.00     0.003 A 
ATOM      8  C6  PXY d   1      -3.400  -0.360  -5.621  0.00  0.00     0.003 A 
ENDROOT
TORSDOF 0
ENDMDL
