MODEL 1
REMARK minimizedAffinity -0.539556086
REMARK minimizedRMSD -1
REMARK  0 active torsions:
REMARK  status: ('A' for Active; 'I' for Inactive)
ROOT
ATOM      1  C4' PXY d   1      -4.912  -0.931  -5.994  0.00  0.00     0.077 C 
ATOM      2  C1' PXY d   1      -3.040   4.538  -5.973  0.00  0.00     0.077 C 
ATOM      3  C1  PXY d   1      -3.519   3.100  -5.984  0.00  0.00    -0.082 A 
ATOM      4  C2  PXY d   1      -4.817   2.843  -5.987  0.00  0.00     0.003 A 
ATOM      5  C3  PXY d   1      -5.268   1.548  -5.965  0.00  0.00     0.003 A 
ATOM      6  C4  PXY d   1      -4.382   0.505  -5.992  0.00  0.00    -0.082 A 
ATOM      7  C5  PXY d   1      -3.056   0.759  -6.000  0.00  0.00     0.003 A 
ATOM      8  C6  PXY d   1      -2.618   2.080  -5.981  0.00  0.00     0.003 A 
ENDROOT
TORSDOF 0
ENDMDL
