MODEL 1
REMARK minimizedAffinity -3.2381382
REMARK minimizedRMSD -1
REMARK  0 active torsions:
REMARK  status: ('A' for Active; 'I' for Inactive)
ROOT
ATOM      1  C4' PXY d   1      -3.746   5.283  -6.000  0.00  0.00     0.077 C 
ATOM      2  C1' PXY d   1      -4.733  -0.411  -5.855  0.00  0.00     0.077 C 
ATOM      3  C1  PXY d   1      -4.486   1.084  -5.899  0.00  0.00    -0.082 A 
ATOM      4  C2  PXY d   1      -3.245   1.542  -5.913  0.00  0.00     0.003 A 
ATOM      5  C3  PXY d   1      -3.003   2.892  -5.920  0.00  0.00     0.003 A 
ATOM      6  C4  PXY d   1      -4.043   3.781  -5.966  0.00  0.00    -0.082 A 
ATOM      7  C5  PXY d   1      -5.312   3.322  -5.962  0.00  0.00     0.003 A 
ATOM      8  C6  PXY d   1      -5.536   1.949  -5.913  0.00  0.00     0.003 A 
ENDROOT
TORSDOF 0
ENDMDL
