MODEL 1
REMARK minimizedAffinity -2.45673037
REMARK minimizedRMSD -1
REMARK  0 active torsions:
REMARK  status: ('A' for Active; 'I' for Inactive)
ROOT
ATOM      1  C4' PXY d   1      -4.697  -0.058  -5.972  0.00  0.00     0.077 C 
ATOM      2  C1' PXY d   1      -2.344   5.222  -5.998  0.00  0.00     0.077 C 
ATOM      3  C1  PXY d   1      -2.972   3.842  -5.986  0.00  0.00    -0.082 A 
ATOM      4  C2  PXY d   1      -2.196   2.770  -5.977  0.00  0.00     0.003 A 
ATOM      5  C3  PXY d   1      -2.747   1.515  -5.999  0.00  0.00     0.003 A 
ATOM      6  C4  PXY d   1      -4.107   1.355  -5.975  0.00  0.00    -0.082 A 
ATOM      7  C5  PXY d   1      -4.905   2.444  -5.973  0.00  0.00     0.003 A 
ATOM      8  C6  PXY d   1      -4.326   3.709  -5.993  0.00  0.00     0.003 A 
ENDROOT
TORSDOF 0
ENDMDL
