MODEL 1
REMARK minimizedAffinity -3.18364692
REMARK minimizedRMSD -1
REMARK  0 active torsions:
REMARK  status: ('A' for Active; 'I' for Inactive)
ROOT
ATOM      1  C4' PXY d   1      -2.619   3.643  -5.753  0.00  0.00     0.077 C 
ATOM      2  C1' PXY d   1      -5.282  -1.486  -5.858  0.00  0.00     0.077 C 
ATOM      3  C1  PXY d   1      -4.574  -0.146  -5.823  0.00  0.00    -0.082 A 
ATOM      4  C2  PXY d   1      -5.270   0.966  -5.995  0.00  0.00     0.003 A 
ATOM      5  C3  PXY d   1      -4.641   2.184  -5.998  0.00  0.00     0.003 A 
ATOM      6  C4  PXY d   1      -3.294   2.269  -5.771  0.00  0.00    -0.082 A 
ATOM      7  C5  PXY d   1      -2.578   1.139  -5.584  0.00  0.00     0.003 A 
ATOM      8  C6  PXY d   1      -3.229  -0.090  -5.626  0.00  0.00     0.003 A 
ENDROOT
TORSDOF 0
ENDMDL
