MODEL 1
REMARK minimizedAffinity -1.91493917
REMARK minimizedRMSD -1
REMARK  0 active torsions:
REMARK  status: ('A' for Active; 'I' for Inactive)
ROOT
ATOM      1  C4' PXY d   1      -3.364   4.529  -5.996  0.00  0.00     0.077 C 
ATOM      2  C1' PXY d   1      -4.477  -1.143  -5.983  0.00  0.00     0.077 C 
ATOM      3  C1  PXY d   1      -4.197   0.346  -5.992  0.00  0.00    -0.082 A 
ATOM      4  C2  PXY d   1      -2.946   0.777  -6.000  0.00  0.00     0.003 A 
ATOM      5  C3  PXY d   1      -2.674   2.121  -5.976  0.00  0.00     0.003 A 
ATOM      6  C4  PXY d   1      -3.694   3.034  -5.997  0.00  0.00    -0.082 A 
ATOM      7  C5  PXY d   1      -4.973   2.603  -5.999  0.00  0.00     0.003 A 
ATOM      8  C6  PXY d   1      -5.228   1.234  -5.982  0.00  0.00     0.003 A 
ENDROOT
TORSDOF 0
ENDMDL
