MODEL 1
REMARK minimizedAffinity -2.58716607
REMARK minimizedRMSD -1
REMARK  0 active torsions:
REMARK  status: ('A' for Active; 'I' for Inactive)
ROOT
ATOM      1  C4' PXY d   1      -5.915   4.045  -6.000  0.00  0.00     0.077 C 
ATOM      2  C1' PXY d   1      -2.280  -0.450  -5.974  0.00  0.00     0.077 C 
ATOM      3  C1  PXY d   1      -3.243   0.721  -5.986  0.00  0.00    -0.082 A 
ATOM      4  C2  PXY d   1      -2.770   1.957  -5.999  0.00  0.00     0.003 A 
ATOM      5  C3  PXY d   1      -3.626   3.028  -5.978  0.00  0.00     0.003 A 
ATOM      6  C4  PXY d   1      -4.981   2.832  -5.997  0.00  0.00    -0.082 A 
ATOM      7  C5  PXY d   1      -5.471   1.574  -5.995  0.00  0.00     0.003 A 
ATOM      8  C6  PXY d   1      -4.586   0.501  -5.975  0.00  0.00     0.003 A 
ENDROOT
TORSDOF 0
ENDMDL
