MODEL 1
REMARK minimizedAffinity -1.86864901
REMARK minimizedRMSD -1
REMARK  0 active torsions:
REMARK  status: ('A' for Active; 'I' for Inactive)
ROOT
ATOM      1  C4' PXY d   1      -4.253  -0.745  -5.975  0.00  0.00     0.077 C 
ATOM      2  C1' PXY d   1      -3.790   5.017  -5.992  0.00  0.00     0.077 C 
ATOM      3  C1  PXY d   1      -3.899   3.505  -5.993  0.00  0.00    -0.082 A 
ATOM      4  C2  PXY d   1      -5.094   2.935  -5.987  0.00  0.00     0.003 A 
ATOM      5  C3  PXY d   1      -5.211   1.570  -5.955  0.00  0.00     0.003 A 
ATOM      6  C4  PXY d   1      -4.094   0.778  -5.983  0.00  0.00    -0.082 A 
ATOM      7  C5  PXY d   1      -2.872   1.351  -6.000  0.00  0.00     0.003 A 
ATOM      8  C6  PXY d   1      -2.774   2.739  -5.990  0.00  0.00     0.003 A 
ENDROOT
TORSDOF 0
ENDMDL
