MODEL 1
REMARK minimizedAffinity -1.82659245
REMARK minimizedRMSD -1
REMARK  0 active torsions:
REMARK  status: ('A' for Active; 'I' for Inactive)
ROOT
ATOM      1  C4' PXY d   1      -5.997   5.456  -5.924  0.00  0.00     0.077 C 
ATOM      2  C1' PXY d   1      -2.985   0.523  -6.000  0.00  0.00     0.077 C 
ATOM      3  C1  PXY d   1      -3.764   1.823  -5.974  0.00  0.00    -0.082 A 
ATOM      4  C2  PXY d   1      -5.087   1.793  -5.986  0.00  0.00     0.003 A 
ATOM      5  C3  PXY d   1      -5.808   2.959  -5.996  0.00  0.00     0.003 A 
ATOM      6  C4  PXY d   1      -5.168   4.169  -5.939  0.00  0.00    -0.082 A 
ATOM      7  C5  PXY d   1      -3.819   4.208  -5.916  0.00  0.00     0.003 A 
ATOM      8  C6  PXY d   1      -3.106   3.013  -5.949  0.00  0.00     0.003 A 
ENDROOT
TORSDOF 0
ENDMDL
