MODEL 1
REMARK minimizedAffinity -2.24900579
REMARK minimizedRMSD -1
REMARK  0 active torsions:
REMARK  status: ('A' for Active; 'I' for Inactive)
ROOT
ATOM      1  C4' PXY d   1      -4.402  -0.514  -5.993  0.00  0.00     0.077 C 
ATOM      2  C1' PXY d   1      -3.927   5.247  -5.982  0.00  0.00     0.077 C 
ATOM      3  C1  PXY d   1      -4.064   3.737  -5.980  0.00  0.00    -0.082 A 
ATOM      4  C2  PXY d   1      -2.977   2.982  -5.967  0.00  0.00     0.003 A 
ATOM      5  C3  PXY d   1      -3.082   1.615  -5.997  0.00  0.00     0.003 A 
ATOM      6  C4  PXY d   1      -4.312   1.014  -5.987  0.00  0.00    -0.082 A 
ATOM      7  C5  PXY d   1      -5.426   1.778  -5.989  0.00  0.00     0.003 A 
ATOM      8  C6  PXY d   1      -5.297   3.163  -6.000  0.00  0.00     0.003 A 
ENDROOT
TORSDOF 0
ENDMDL
