MODEL 1
REMARK minimizedAffinity -2.34184909
REMARK minimizedRMSD -1
REMARK  0 active torsions:
REMARK  status: ('A' for Active; 'I' for Inactive)
ROOT
ATOM      1  C4' PXY d   1      -3.775   4.300  -6.000  0.00  0.00     0.077 C 
ATOM      2  C1' PXY d   1      -4.516  -1.433  -5.978  0.00  0.00     0.077 C 
ATOM      3  C1  PXY d   1      -4.310   0.069  -5.979  0.00  0.00    -0.082 A 
ATOM      4  C2  PXY d   1      -5.360   0.873  -5.967  0.00  0.00     0.003 A 
ATOM      5  C3  PXY d   1      -5.192   2.234  -6.000  0.00  0.00     0.003 A 
ATOM      6  C4  PXY d   1      -3.935   2.777  -5.990  0.00  0.00    -0.082 A 
ATOM      7  C5  PXY d   1      -2.859   1.963  -5.991  0.00  0.00     0.003 A 
ATOM      8  C6  PXY d   1      -3.051   0.584  -6.000  0.00  0.00     0.003 A 
ENDROOT
TORSDOF 0
ENDMDL
