MODEL 1
REMARK minimizedAffinity -2.93877554
REMARK minimizedRMSD -1
REMARK  0 active torsions:
REMARK  status: ('A' for Active; 'I' for Inactive)
ROOT
ATOM      1  C4' PXY d   1      -4.886  -1.464  -5.955  0.00  0.00     0.077 C 
ATOM      2  C1' PXY d   1      -3.018   4.007  -6.000  0.00  0.00     0.077 C 
ATOM      3  C1  PXY d   1      -3.519   2.576  -5.983  0.00  0.00    -0.082 A 
ATOM      4  C2  PXY d   1      -2.650   1.579  -5.962  0.00  0.00     0.003 A 
ATOM      5  C3  PXY d   1      -3.085   0.279  -5.979  0.00  0.00     0.003 A 
ATOM      6  C4  PXY d   1      -4.425  -0.003  -5.963  0.00  0.00    -0.082 A 
ATOM      7  C5  PXY d   1      -5.318   1.009  -5.974  0.00  0.00     0.003 A 
ATOM      8  C6  PXY d   1      -4.856   2.321  -5.998  0.00  0.00     0.003 A 
ENDROOT
TORSDOF 0
ENDMDL
