MODEL 1
REMARK minimizedAffinity -1.40529919
REMARK minimizedRMSD -1
REMARK  0 active torsions:
REMARK  status: ('A' for Active; 'I' for Inactive)
ROOT
ATOM      1  C4' PXY d   1      -4.957   0.096  -5.993  0.00  0.00     0.077 C 
ATOM      2  C1' PXY d   1      -3.010   5.539  -5.986  0.00  0.00     0.077 C 
ATOM      3  C1  PXY d   1      -3.509   4.107  -5.993  0.00  0.00    -0.082 A 
ATOM      4  C2  PXY d   1      -4.811   3.869  -6.000  0.00  0.00     0.003 A 
ATOM      5  C3  PXY d   1      -5.280   2.580  -5.974  0.00  0.00     0.003 A 
ATOM      6  C4  PXY d   1      -4.408   1.525  -5.995  0.00  0.00    -0.082 A 
ATOM      7  C5  PXY d   1      -3.079   1.760  -5.999  0.00  0.00     0.003 A 
ATOM      8  C6  PXY d   1      -2.623   3.075  -5.984  0.00  0.00     0.003 A 
ENDROOT
TORSDOF 0
ENDMDL
