MODEL 1
REMARK minimizedAffinity 2.25738907
REMARK minimizedRMSD -1
REMARK  0 active torsions:
REMARK  status: ('A' for Active; 'I' for Inactive)
ROOT
ATOM      1  C4' PXY d   1      -2.294   2.598   3.308  0.00  0.00     0.077 C 
ATOM      2  C1' PXY d   1       1.336   0.362  -0.596  0.00  0.00     0.077 C 
ATOM      3  C1  PXY d   1       0.378   0.956   0.418  0.00  0.00    -0.082 A 
ATOM      4  C2  PXY d   1       0.710   0.972   1.699  0.00  0.00     0.003 A 
ATOM      5  C3  PXY d   1      -0.157   1.476   2.634  0.00  0.00     0.003 A 
ATOM      6  C4  PXY d   1      -1.354   2.017   2.247  0.00  0.00    -0.082 A 
ATOM      7  C5  PXY d   1      -1.695   2.014   0.941  0.00  0.00     0.003 A 
ATOM      8  C6  PXY d   1      -0.818   1.460   0.013  0.00  0.00     0.003 A 
ENDROOT
TORSDOF 0
ENDMDL
