MODEL 1
REMARK minimizedAffinity -0.231796682
REMARK minimizedRMSD -1
REMARK  0 active torsions:
REMARK  status: ('A' for Active; 'I' for Inactive)
ROOT
ATOM      1  C4' PXY d   1      -1.387  -5.630  -4.365  0.00  0.00     0.077 C 
ATOM      2  C1' PXY d   1      -5.691  -1.956  -5.543  0.00  0.00     0.077 C 
ATOM      3  C1  PXY d   1      -4.569  -2.929  -5.240  0.00  0.00    -0.082 A 
ATOM      4  C2  PXY d   1      -3.740  -2.680  -4.239  0.00  0.00     0.003 A 
ATOM      5  C3  PXY d   1      -2.701  -3.533  -3.971  0.00  0.00     0.003 A 
ATOM      6  C4  PXY d   1      -2.540  -4.680  -4.702  0.00  0.00    -0.082 A 
ATOM      7  C5  PXY d   1      -3.388  -4.946  -5.718  0.00  0.00     0.003 A 
ATOM      8  C6  PXY d   1      -4.412  -4.047  -6.000  0.00  0.00     0.003 A 
ENDROOT
TORSDOF 0
ENDMDL
