MODEL 1
REMARK minimizedAffinity 8.32884598
REMARK minimizedRMSD -1
REMARK  0 active torsions:
REMARK  status: ('A' for Active; 'I' for Inactive)
ROOT
ATOM      1  C4' PXY d   1       1.042   1.684   1.751  0.00  0.00     0.077 C 
ATOM      2  C1' PXY d   1       0.358  -0.642  -3.496  0.00  0.00     0.077 C 
ATOM      3  C1  PXY d   1       0.528  -0.023  -2.123  0.00  0.00    -0.082 A 
ATOM      4  C2  PXY d   1       1.666  -0.187  -1.468  0.00  0.00     0.003 A 
ATOM      5  C3  PXY d   1       1.826   0.338  -0.212  0.00  0.00     0.003 A 
ATOM      6  C4  PXY d   1       0.829   1.085   0.358  0.00  0.00    -0.082 A 
ATOM      7  C5  PXY d   1      -0.331   1.266  -0.308  0.00  0.00     0.003 A 
ATOM      8  C6  PXY d   1      -0.488   0.689  -1.565  0.00  0.00     0.003 A 
ENDROOT
TORSDOF 0
ENDMDL
