MODEL 1
REMARK minimizedAffinity 0.40599823
REMARK minimizedRMSD -1
REMARK  0 active torsions:
REMARK  status: ('A' for Active; 'I' for Inactive)
ROOT
ATOM      1  C4' PXY d   1      -1.220  -5.999  -4.268  0.00  0.00     0.077 C 
ATOM      2  C1' PXY d   1      -6.000  -3.247  -5.997  0.00  0.00     0.077 C 
ATOM      3  C1  PXY d   1      -4.752  -3.980  -5.545  0.00  0.00    -0.082 A 
ATOM      4  C2  PXY d   1      -3.857  -3.351  -4.802  0.00  0.00     0.003 A 
ATOM      5  C3  PXY d   1      -2.708  -3.989  -4.411  0.00  0.00     0.003 A 
ATOM      6  C4  PXY d   1      -2.498  -5.301  -4.740  0.00  0.00    -0.082 A 
ATOM      7  C5  PXY d   1      -3.412  -5.954  -5.489  0.00  0.00     0.003 A 
ATOM      8  C6  PXY d   1      -4.552  -5.275  -5.910  0.00  0.00     0.003 A 
ENDROOT
TORSDOF 0
ENDMDL
