MODEL 1
REMARK minimizedAffinity -3.01850963
REMARK minimizedRMSD -1
REMARK  2 active torsions:
REMARK  status: ('A' for Active; 'I' for Inactive)
REMARK    1  A    between atoms: C1_2  and  C2_3 
REMARK    2  A    between atoms: C2_3  and  C3_4 
ROOT
ATOM      1  C3  UNL d   1       0.129   0.148   0.063  0.00  0.00    -0.075 A 
ATOM      2  C4  UNL d   1      -0.297  -0.200   1.353  0.00  0.00     0.002 A 
ATOM      3  C5  UNL d   1      -0.915  -1.428   1.588  0.00  0.00     0.002 A 
ATOM      4  C6  UNL d   1      -1.125  -2.318   0.537  0.00  0.00    -0.004 A 
ATOM      5  C7  UNL d   1      -0.721  -1.976  -0.751  0.00  0.00     0.002 A 
ATOM      6  C8  UNL d   1      -0.097  -0.750  -0.989  0.00  0.00     0.002 A 
ENDROOT
BRANCH   1   7
ATOM      7  C2  UNL d   1       0.826   1.463  -0.193  0.00  0.00     0.056 C 
BRANCH   7   8
ATOM      8  C1  UNL d   1       0.343   2.609   0.702  0.00  0.00     0.007 C 
ATOM      9  C   UNL d   1       1.448   3.590   1.071  0.00  0.00     0.009 C 
ENDBRANCH   7   8
ENDBRANCH   1   7
TORSDOF 2
ENDMDL
