MODEL 1
REMARK minimizedAffinity -2.4088521
REMARK minimizedRMSD -1
REMARK  2 active torsions:
REMARK  status: ('A' for Active; 'I' for Inactive)
REMARK    1  A    between atoms: C1_2  and  C2_3 
REMARK    2  A    between atoms: C2_3  and  C3_4 
ROOT
ATOM      1  C3  UNL d   1       0.554   1.478   0.142  0.00  0.00    -0.075 A 
ATOM      2  C4  UNL d   1       1.952   1.593   0.166  0.00  0.00     0.002 A 
ATOM      3  C5  UNL d   1       2.557   2.840   0.327  0.00  0.00     0.002 A 
ATOM      4  C6  UNL d   1       1.774   3.986   0.455  0.00  0.00    -0.004 A 
ATOM      5  C7  UNL d   1       0.385   3.885   0.416  0.00  0.00     0.002 A 
ATOM      6  C8  UNL d   1      -0.222   2.638   0.260  0.00  0.00     0.002 A 
ENDROOT
BRANCH   1   7
ATOM      7  C2  UNL d   1      -0.106   0.127  -0.002  0.00  0.00     0.056 C 
BRANCH   7   8
ATOM      8  C1  UNL d   1      -0.202  -0.663   1.308  0.00  0.00     0.007 C 
ATOM      9  C   UNL d   1      -1.109  -1.882   1.208  0.00  0.00     0.009 C 
ENDBRANCH   7   8
ENDBRANCH   1   7
TORSDOF 2
ENDMDL
