MODEL 1
REMARK minimizedAffinity -5.51082277
REMARK minimizedRMSD -1
REMARK  2 active torsions:
REMARK  status: ('A' for Active; 'I' for Inactive)
REMARK    1  A    between atoms: C1_2  and  C2_3 
REMARK    2  A    between atoms: C2_3  and  C3_4 
ROOT
ATOM      1  C3  UNL d   1       0.311   1.025   0.044  0.00  0.00    -0.075 A 
ATOM      2  C4  UNL d   1       1.567   1.366   0.568  0.00  0.00     0.002 A 
ATOM      3  C5  UNL d   1       1.916   2.703   0.756  0.00  0.00     0.002 A 
ATOM      4  C6  UNL d   1       1.021   3.715   0.415  0.00  0.00    -0.004 A 
ATOM      5  C7  UNL d   1      -0.222   3.388  -0.122  0.00  0.00     0.002 A 
ATOM      6  C8  UNL d   1      -0.576   2.050  -0.307  0.00  0.00     0.002 A 
ENDROOT
BRANCH   1   7
ATOM      7  C2  UNL d   1      -0.084  -0.422  -0.134  0.00  0.00     0.056 C 
BRANCH   7   8
ATOM      8  C1  UNL d   1      -0.809  -1.024   1.074  0.00  0.00     0.007 C 
ATOM      9  C   UNL d   1      -1.186  -2.486   0.881  0.00  0.00     0.009 C 
ENDBRANCH   7   8
ENDBRANCH   1   7
TORSDOF 2
ENDMDL
