MODEL 1
REMARK minimizedAffinity -4.48924112
REMARK minimizedRMSD -1
REMARK  2 active torsions:
REMARK  status: ('A' for Active; 'I' for Inactive)
REMARK    1  A    between atoms: C1_2  and  C2_3 
REMARK    2  A    between atoms: C2_3  and  C3_4 
ROOT
ATOM      1  C3  UNL d   1       0.983   0.707   0.788  0.00  0.00    -0.075 A 
ATOM      2  C4  UNL d   1      -0.207   0.788   0.051  0.00  0.00     0.002 A 
ATOM      3  C5  UNL d   1      -1.113  -0.273   0.049  0.00  0.00     0.002 A 
ATOM      4  C6  UNL d   1      -0.837  -1.429   0.775  0.00  0.00    -0.004 A 
ATOM      5  C7  UNL d   1       0.350  -1.527   1.498  0.00  0.00     0.002 A 
ATOM      6  C8  UNL d   1       1.256  -0.466   1.504  0.00  0.00     0.002 A 
ENDROOT
BRANCH   1   7
ATOM      7  C2  UNL d   1       1.954   1.863   0.817  0.00  0.00     0.056 C 
BRANCH   7   8
ATOM      8  C1  UNL d   1       1.371   3.181   0.295  0.00  0.00     0.007 C 
ATOM      9  C   UNL d   1       0.663   3.992   1.371  0.00  0.00     0.009 C 
ENDBRANCH   7   8
ENDBRANCH   1   7
TORSDOF 2
ENDMDL
