MODEL 1
REMARK minimizedAffinity -2.5715704
REMARK minimizedRMSD -1
REMARK  2 active torsions:
REMARK  status: ('A' for Active; 'I' for Inactive)
REMARK    1  A    between atoms: C1_2  and  C2_3 
REMARK    2  A    between atoms: C2_3  and  C3_4 
ROOT
ATOM      1  C3  UNL d   1      -0.297  -0.637   0.049  0.00  0.00    -0.075 A 
ATOM      2  C4  UNL d   1       0.073  -0.729  -1.301  0.00  0.00     0.002 A 
ATOM      3  C5  UNL d   1      -0.079  -1.929  -1.997  0.00  0.00     0.002 A 
ATOM      4  C6  UNL d   1      -0.591  -3.052  -1.350  0.00  0.00    -0.004 A 
ATOM      5  C7  UNL d   1      -0.946  -2.977  -0.005  0.00  0.00     0.002 A 
ATOM      6  C8  UNL d   1      -0.799  -1.776   0.692  0.00  0.00     0.002 A 
ENDROOT
BRANCH   1   7
ATOM      7  C2  UNL d   1      -0.163   0.667   0.799  0.00  0.00     0.056 C 
BRANCH   7   8
ATOM      8  C1  UNL d   1       0.155   1.871  -0.094  0.00  0.00     0.007 C 
ATOM      9  C   UNL d   1       0.210   3.187   0.669  0.00  0.00     0.009 C 
ENDBRANCH   7   8
ENDBRANCH   1   7
TORSDOF 2
ENDMDL
