MODEL 1
REMARK minimizedAffinity -4.62657738
REMARK minimizedRMSD -1
REMARK  2 active torsions:
REMARK  status: ('A' for Active; 'I' for Inactive)
REMARK    1  A    between atoms: C1_2  and  C2_3 
REMARK    2  A    between atoms: C2_3  and  C3_4 
ROOT
ATOM      1  C3  UNL d   1       0.166   0.518   0.503  0.00  0.00    -0.075 A 
ATOM      2  C4  UNL d   1       0.491   0.118   1.808  0.00  0.00     0.002 A 
ATOM      3  C5  UNL d   1       0.189  -1.170   2.250  0.00  0.00     0.002 A 
ATOM      4  C6  UNL d   1      -0.450  -2.070   1.400  0.00  0.00    -0.004 A 
ATOM      5  C7  UNL d   1      -0.793  -1.678   0.107  0.00  0.00     0.002 A 
ATOM      6  C8  UNL d   1      -0.487  -0.391  -0.339  0.00  0.00     0.002 A 
ENDROOT
BRANCH   1   7
ATOM      7  C2  UNL d   1       0.517   1.901   0.009  0.00  0.00     0.056 C 
BRANCH   7   8
ATOM      8  C1  UNL d   1       1.228   2.773   1.049  0.00  0.00     0.007 C 
ATOM      9  C   UNL d   1       2.533   3.370   0.540  0.00  0.00     0.009 C 
ENDBRANCH   7   8
ENDBRANCH   1   7
TORSDOF 2
ENDMDL
