MODEL 1
REMARK minimizedAffinity -4.32771969
REMARK minimizedRMSD -1
REMARK  2 active torsions:
REMARK  status: ('A' for Active; 'I' for Inactive)
REMARK    1  A    between atoms: C1_2  and  C2_3 
REMARK    2  A    between atoms: C2_3  and  C3_4 
ROOT
ATOM      1  C3  UNL d   1      -0.082   0.072   0.107  0.00  0.00    -0.075 A 
ATOM      2  C4  UNL d   1      -0.426   1.295  -0.488  0.00  0.00     0.002 A 
ATOM      3  C5  UNL d   1       0.104   2.492  -0.005  0.00  0.00     0.002 A 
ATOM      4  C6  UNL d   1       0.974   2.483   1.083  0.00  0.00    -0.004 A 
ATOM      5  C7  UNL d   1       1.309   1.276   1.692  0.00  0.00     0.002 A 
ATOM      6  C8  UNL d   1       0.785   0.077   1.208  0.00  0.00     0.002 A 
ENDROOT
BRANCH   1   7
ATOM      7  C2  UNL d   1      -0.628  -1.229  -0.430  0.00  0.00     0.056 C 
BRANCH   7   8
ATOM      8  C1  UNL d   1      -0.187  -1.547  -1.862  0.00  0.00     0.007 C 
ATOM      9  C   UNL d   1      -0.644  -2.919  -2.341  0.00  0.00     0.009 C 
ENDBRANCH   7   8
ENDBRANCH   1   7
TORSDOF 2
ENDMDL
