MODEL 1
REMARK minimizedAffinity -3.99874163
REMARK minimizedRMSD -1
REMARK  2 active torsions:
REMARK  status: ('A' for Active; 'I' for Inactive)
REMARK    1  A    between atoms: C1_2  and  C2_3 
REMARK    2  A    between atoms: C2_3  and  C3_4 
ROOT
ATOM      1  C3  UNL d   1       0.510   1.092   0.334  0.00  0.00    -0.075 A 
ATOM      2  C4  UNL d   1      -0.778   1.404  -0.126  0.00  0.00     0.002 A 
ATOM      3  C5  UNL d   1      -1.888   0.708   0.354  0.00  0.00     0.002 A 
ATOM      4  C6  UNL d   1      -1.725  -0.312   1.288  0.00  0.00    -0.004 A 
ATOM      5  C7  UNL d   1      -0.449  -0.642   1.738  0.00  0.00     0.002 A 
ATOM      6  C8  UNL d   1       0.664   0.055   1.264  0.00  0.00     0.002 A 
ENDROOT
BRANCH   1   7
ATOM      7  C2  UNL d   1       1.713   1.860  -0.159  0.00  0.00     0.056 C 
BRANCH   7   8
ATOM      8  C1  UNL d   1       1.728   3.333   0.263  0.00  0.00     0.007 C 
ATOM      9  C   UNL d   1       2.291   3.552   1.661  0.00  0.00     0.009 C 
ENDBRANCH   7   8
ENDBRANCH   1   7
TORSDOF 2
ENDMDL
