MODEL 1
REMARK minimizedAffinity -0.496669322
REMARK minimizedRMSD -1
REMARK  2 active torsions:
REMARK  status: ('A' for Active; 'I' for Inactive)
REMARK    1  A    between atoms: C1_2  and  C2_3 
REMARK    2  A    between atoms: C2_3  and  C3_4 
ROOT
ATOM      1  C3  UNL d   1       0.223   0.007   0.943  0.00  0.00    -0.075 A 
ATOM      2  C4  UNL d   1      -0.044  -0.899   1.979  0.00  0.00     0.002 A 
ATOM      3  C5  UNL d   1      -0.793  -2.051   1.738  0.00  0.00     0.002 A 
ATOM      4  C6  UNL d   1      -1.294  -2.306   0.463  0.00  0.00    -0.004 A 
ATOM      5  C7  UNL d   1      -1.049  -1.405  -0.570  0.00  0.00     0.002 A 
ATOM      6  C8  UNL d   1      -0.296  -0.254  -0.333  0.00  0.00     0.002 A 
ENDROOT
BRANCH   1   7
ATOM      7  C2  UNL d   1       1.058   1.240   1.190  0.00  0.00     0.056 C 
BRANCH   7   8
ATOM      8  C1  UNL d   1       1.236   2.131  -0.044  0.00  0.00     0.007 C 
ATOM      9  C   UNL d   1       2.000   3.416   0.248  0.00  0.00     0.009 C 
ENDBRANCH   7   8
ENDBRANCH   1   7
TORSDOF 2
ENDMDL
