MODEL 1
REMARK minimizedAffinity -4.56057835
REMARK minimizedRMSD -1
REMARK  2 active torsions:
REMARK  status: ('A' for Active; 'I' for Inactive)
REMARK    1  A    between atoms: C1_2  and  C2_3 
REMARK    2  A    between atoms: C2_3  and  C3_4 
ROOT
ATOM      1  C3  UNL d   1      -0.331   0.568   0.235  0.00  0.00    -0.075 A 
ATOM      2  C4  UNL d   1      -0.164  -0.525  -0.627  0.00  0.00     0.002 A 
ATOM      3  C5  UNL d   1      -0.688  -1.775  -0.294  0.00  0.00     0.002 A 
ATOM      4  C6  UNL d   1      -1.373  -1.950   0.906  0.00  0.00    -0.004 A 
ATOM      5  C7  UNL d   1      -1.530  -0.875   1.777  0.00  0.00     0.002 A 
ATOM      6  C8  UNL d   1      -1.011   0.378   1.445  0.00  0.00     0.002 A 
ENDROOT
BRANCH   1   7
ATOM      7  C2  UNL d   1       0.208   1.931  -0.132  0.00  0.00     0.056 C 
BRANCH   7   8
ATOM      8  C1  UNL d   1       1.555   2.265   0.518  0.00  0.00     0.007 C 
ATOM      9  C   UNL d   1       1.911   3.743   0.434  0.00  0.00     0.009 C 
ENDBRANCH   7   8
ENDBRANCH   1   7
TORSDOF 2
ENDMDL
