MODEL 1
REMARK minimizedAffinity -3.71555352
REMARK minimizedRMSD -1
REMARK  0 active torsions:
REMARK  status: ('A' for Active; 'I' for Inactive)
ROOT
ATOM      1  C   UNL d   1       2.058  -0.806   1.630  0.00  0.00     0.023 A 
ATOM      2  C1  UNL d   1       2.389  -1.091   0.305  0.00  0.00     0.003 A 
ATOM      3  C2  UNL d   1       1.561  -0.657  -0.732  0.00  0.00     0.048 A 
ATOM      4  C3  UNL d   1       0.403   0.063  -0.437  0.00  0.00     0.023 A 
ATOM      5  C4  UNL d   1       0.068   0.351   0.887  0.00  0.00     0.048 A 
ATOM      6  C5  UNL d   1       0.899  -0.086   1.920  0.00  0.00     0.003 A 
ATOM      7  I   UNL d   1      -0.831   0.710  -1.979  0.00  0.00    -0.146 I 
ENDROOT
TORSDOF 0
ENDMDL
