MODEL 1
REMARK minimizedAffinity -3.81313348
REMARK minimizedRMSD -1
REMARK  0 active torsions:
REMARK  status: ('A' for Active; 'I' for Inactive)
ROOT
ATOM      1  C   UNL d   1       0.719  -0.712   2.689  0.00  0.00     0.023 A 
ATOM      2  C1  UNL d   1       1.614  -0.682   1.619  0.00  0.00     0.003 A 
ATOM      3  C2  UNL d   1       1.265  -0.032   0.433  0.00  0.00     0.048 A 
ATOM      4  C3  UNL d   1       0.020   0.587   0.325  0.00  0.00     0.023 A 
ATOM      5  C4  UNL d   1      -0.878   0.561   1.393  0.00  0.00     0.048 A 
ATOM      6  C5  UNL d   1      -0.525  -0.091   2.576  0.00  0.00     0.003 A 
ATOM      7  I   UNL d   1      -0.501   1.556  -1.438  0.00  0.00    -0.146 I 
ENDROOT
TORSDOF 0
ENDMDL
