MODEL 1
REMARK minimizedAffinity -1.90380013
REMARK minimizedRMSD -1
REMARK  0 active torsions:
REMARK  status: ('A' for Active; 'I' for Inactive)
ROOT
ATOM      1  C   UNL d   1       0.137  -0.925   2.491  0.00  0.00     0.023 A 
ATOM      2  C1  UNL d   1       0.987   0.148   2.223  0.00  0.00     0.003 A 
ATOM      3  C2  UNL d   1       0.873   0.846   1.018  0.00  0.00     0.048 A 
ATOM      4  C3  UNL d   1      -0.093   0.466   0.088  0.00  0.00     0.023 A 
ATOM      5  C4  UNL d   1      -0.946  -0.607   0.353  0.00  0.00     0.048 A 
ATOM      6  C5  UNL d   1      -0.828  -1.302   1.558  0.00  0.00     0.003 A 
ATOM      7  I   UNL d   1      -0.265   1.503  -1.705  0.00  0.00    -0.146 I 
ENDROOT
TORSDOF 0
ENDMDL
