MODEL 1
REMARK minimizedAffinity -4.01775551
REMARK minimizedRMSD -1
REMARK  0 active torsions:
REMARK  status: ('A' for Active; 'I' for Inactive)
ROOT
ATOM      1  C   UNL d   1       0.079  -1.043   2.144  0.00  0.00     0.023 A 
ATOM      2  C1  UNL d   1      -1.018  -1.203   1.296  0.00  0.00     0.003 A 
ATOM      3  C2  UNL d   1      -1.099  -0.469   0.111  0.00  0.00     0.048 A 
ATOM      4  C3  UNL d   1      -0.079   0.422  -0.221  0.00  0.00     0.023 A 
ATOM      5  C4  UNL d   1       1.021   0.585   0.624  0.00  0.00     0.048 A 
ATOM      6  C5  UNL d   1       1.097  -0.151   1.808  0.00  0.00     0.003 A 
ATOM      7  I   UNL d   1      -0.197   1.516  -1.984  0.00  0.00    -0.146 I 
ENDROOT
TORSDOF 0
ENDMDL
