MODEL 1
REMARK minimizedAffinity -2.51217508
REMARK minimizedRMSD -1
REMARK  0 active torsions:
REMARK  status: ('A' for Active; 'I' for Inactive)
ROOT
ATOM      1  C   UNL d   1       0.810  -0.867   3.113  0.00  0.00     0.023 A 
ATOM      2  C1  UNL d   1      -0.528  -0.959   2.731  0.00  0.00     0.003 A 
ATOM      3  C2  UNL d   1      -0.921  -0.549   1.455  0.00  0.00     0.048 A 
ATOM      4  C3  UNL d   1       0.029  -0.048   0.566  0.00  0.00     0.023 A 
ATOM      5  C4  UNL d   1       1.370   0.045   0.944  0.00  0.00     0.048 A 
ATOM      6  C5  UNL d   1       1.758  -0.365   2.221  0.00  0.00     0.003 A 
ATOM      7  I   UNL d   1      -0.553   0.562  -1.333  0.00  0.00    -0.146 I 
ENDROOT
TORSDOF 0
ENDMDL
