MODEL 1
REMARK minimizedAffinity -1.06156075
REMARK minimizedRMSD -1
REMARK  0 active torsions:
REMARK  status: ('A' for Active; 'I' for Inactive)
ROOT
ATOM      1  C   UNL d   1       1.488  -0.669   2.948  0.00  0.00     0.023 A 
ATOM      2  C1  UNL d   1       2.066   0.199   2.022  0.00  0.00     0.003 A 
ATOM      3  C2  UNL d   1       1.471   0.385   0.772  0.00  0.00     0.048 A 
ATOM      4  C3  UNL d   1       0.297  -0.299   0.456  0.00  0.00     0.023 A 
ATOM      5  C4  UNL d   1      -0.285  -1.168   1.381  0.00  0.00     0.048 A 
ATOM      6  C5  UNL d   1       0.315  -1.352   2.628  0.00  0.00     0.003 A 
ATOM      7  I   UNL d   1      -0.591  -0.023  -1.402  0.00  0.00    -0.146 I 
ENDROOT
TORSDOF 0
ENDMDL
