MODEL 1
REMARK minimizedAffinity -2.72208095
REMARK minimizedRMSD -1
REMARK  0 active torsions:
REMARK  status: ('A' for Active; 'I' for Inactive)
ROOT
ATOM      1  C   UNL d   1       2.261  -2.761   2.165  0.00  0.00     0.023 A 
ATOM      2  C1  UNL d   1       2.541  -2.692   0.800  0.00  0.00     0.003 A 
ATOM      3  C2  UNL d   1       1.763  -1.885  -0.033  0.00  0.00     0.048 A 
ATOM      4  C3  UNL d   1       0.707  -1.150   0.505  0.00  0.00     0.023 A 
ATOM      5  C4  UNL d   1       0.424  -1.216   1.871  0.00  0.00     0.048 A 
ATOM      6  C5  UNL d   1       1.204  -2.024   2.700  0.00  0.00     0.003 A 
ATOM      7  I   UNL d   1      -0.453   0.051  -0.733  0.00  0.00    -0.146 I 
ENDROOT
TORSDOF 0
ENDMDL
