MODEL 1
REMARK minimizedAffinity -4.4654851
REMARK minimizedRMSD -1
REMARK  0 active torsions:
REMARK  status: ('A' for Active; 'I' for Inactive)
ROOT
ATOM      1  C   UNL d   1       1.026  -0.923   3.095  0.00  0.00     0.023 A 
ATOM      2  C1  UNL d   1      -0.151  -1.390   2.510  0.00  0.00     0.003 A 
ATOM      3  C2  UNL d   1      -0.581  -0.866   1.289  0.00  0.00     0.048 A 
ATOM      4  C3  UNL d   1       0.171   0.123   0.658  0.00  0.00     0.023 A 
ATOM      5  C4  UNL d   1       1.350   0.593   1.238  0.00  0.00     0.048 A 
ATOM      6  C5  UNL d   1       1.776   0.067   2.460  0.00  0.00     0.003 A 
ATOM      7  I   UNL d   1      -0.467   0.904  -1.160  0.00  0.00    -0.146 I 
ENDROOT
TORSDOF 0
ENDMDL
