MODEL 1
REMARK minimizedAffinity -5.13841915
REMARK minimizedRMSD -1
REMARK  0 active torsions:
REMARK  status: ('A' for Active; 'I' for Inactive)
ROOT
ATOM      1  C4' PXY d   1      -1.527   2.110  -3.242  0.00  0.00     0.077 C 
ATOM      2  C1' PXY d   1      -1.653  -1.050   1.596  0.00  0.00     0.077 C 
ATOM      3  C1  PXY d   1      -1.630  -0.228   0.323  0.00  0.00    -0.082 A 
ATOM      4  C2  PXY d   1      -0.517   0.391  -0.036  0.00  0.00     0.003 A 
ATOM      5  C3  PXY d   1      -0.488   1.165  -1.168  0.00  0.00     0.003 A 
ATOM      6  C4  PXY d   1      -1.594   1.262  -1.969  0.00  0.00    -0.082 A 
ATOM      7  C5  PXY d   1      -2.730   0.624  -1.616  0.00  0.00     0.003 A 
ATOM      8  C6  PXY d   1      -2.751  -0.123  -0.441  0.00  0.00     0.003 A 
ENDROOT
TORSDOF 0
ENDMDL
