MODEL 1
REMARK minimizedAffinity -6.24313211
REMARK minimizedRMSD -1
REMARK  0 active torsions:
REMARK  status: ('A' for Active; 'I' for Inactive)
ROOT
ATOM      1  C4' PXY d   1      -1.858   1.559  -0.906  0.00  0.00     0.077 C 
ATOM      2  C1' PXY d   1       1.668  -2.478   1.258  0.00  0.00     0.077 C 
ATOM      3  C1  PXY d   1       0.733  -1.427   0.692  0.00  0.00    -0.082 A 
ATOM      4  C2  PXY d   1       1.208  -0.502  -0.126  0.00  0.00     0.003 A 
ATOM      5  C3  PXY d   1       0.383   0.475  -0.621  0.00  0.00     0.003 A 
ATOM      6  C4  PXY d   1      -0.953   0.473  -0.318  0.00  0.00    -0.082 A 
ATOM      7  C5  PXY d   1      -1.447  -0.474   0.507  0.00  0.00     0.003 A 
ATOM      8  C6  PXY d   1      -0.584  -1.433   1.031  0.00  0.00     0.003 A 
ENDROOT
TORSDOF 0
ENDMDL
