MODEL 1
REMARK minimizedAffinity -4.37588263
REMARK minimizedRMSD -1
REMARK  0 active torsions:
REMARK  status: ('A' for Active; 'I' for Inactive)
ROOT
ATOM      1  C4' PXY d   1      -1.340   2.084  -1.457  0.00  0.00     0.077 C 
ATOM      2  C1' PXY d   1       1.852  -1.639   1.604  0.00  0.00     0.077 C 
ATOM      3  C1  PXY d   1       1.004  -0.668   0.806  0.00  0.00    -0.082 A 
ATOM      4  C2  PXY d   1       1.514  -0.081  -0.265  0.00  0.00     0.003 A 
ATOM      5  C3  PXY d   1       0.772   0.823  -0.980  0.00  0.00     0.003 A 
ATOM      6  C4  PXY d   1      -0.524   1.090  -0.626  0.00  0.00    -0.082 A 
ATOM      7  C5  PXY d   1      -1.055   0.487   0.458  0.00  0.00     0.003 A 
ATOM      8  C6  PXY d   1      -0.272  -0.397   1.195  0.00  0.00     0.003 A 
ENDROOT
TORSDOF 0
ENDMDL
