MODEL 1
REMARK minimizedAffinity -2.11875391
REMARK minimizedRMSD -1
REMARK  0 active torsions:
REMARK  status: ('A' for Active; 'I' for Inactive)
ROOT
ATOM      1  C4' PXY d   1      -0.948   2.386  -1.859  0.00  0.00     0.077 C 
ATOM      2  C1' PXY d   1       2.226  -1.505   1.005  0.00  0.00     0.077 C 
ATOM      3  C1  PXY d   1       1.383  -0.490   0.259  0.00  0.00    -0.082 A 
ATOM      4  C2  PXY d   1       1.868   0.094  -0.825  0.00  0.00     0.003 A 
ATOM      5  C3  PXY d   1       1.132   1.038  -1.493  0.00  0.00     0.003 A 
ATOM      6  C4  PXY d   1      -0.136   1.348  -1.079  0.00  0.00    -0.082 A 
ATOM      7  C5  PXY d   1      -0.643   0.749   0.019  0.00  0.00     0.003 A 
ATOM      8  C6  PXY d   1       0.137  -0.176   0.707  0.00  0.00     0.003 A 
ENDROOT
TORSDOF 0
ENDMDL
