MODEL 1
REMARK minimizedAffinity -2.64167404
REMARK minimizedRMSD -1
REMARK  0 active torsions:
REMARK  status: ('A' for Active; 'I' for Inactive)
ROOT
ATOM      1  C4' PXY d   1       1.511  -0.996   1.084  0.00  0.00     0.077 C 
ATOM      2  C1' PXY d   1      -2.396   1.761  -2.163  0.00  0.00     0.077 C 
ATOM      3  C1  PXY d   1      -1.380   1.038  -1.302  0.00  0.00    -0.082 A 
ATOM      4  C2  PXY d   1      -0.091   1.144  -1.582  0.00  0.00     0.003 A 
ATOM      5  C3  PXY d   1       0.839   0.471  -0.832  0.00  0.00     0.003 A 
ATOM      6  C4  PXY d   1       0.450  -0.276   0.247  0.00  0.00    -0.082 A 
ATOM      7  C5  PXY d   1      -0.862  -0.381   0.546  0.00  0.00     0.003 A 
ATOM      8  C6  PXY d   1      -1.793   0.277  -0.252  0.00  0.00     0.003 A 
ENDROOT
TORSDOF 0
ENDMDL
