MODEL 1
REMARK minimizedAffinity 0.0877191722
REMARK minimizedRMSD -1
REMARK  0 active torsions:
REMARK  status: ('A' for Active; 'I' for Inactive)
ROOT
ATOM      1  C4' PXY d   1      -1.018   2.126  -2.161  0.00  0.00     0.077 C 
ATOM      2  C1' PXY d   1       2.174  -1.264   1.264  0.00  0.00     0.077 C 
ATOM      3  C1  PXY d   1       1.326  -0.381   0.370  0.00  0.00    -0.082 A 
ATOM      4  C2  PXY d   1       1.859   0.155  -0.716  0.00  0.00     0.003 A 
ATOM      5  C3  PXY d   1       1.116   0.982  -1.518  0.00  0.00     0.003 A 
ATOM      6  C4  PXY d   1      -0.202   1.220  -1.235  0.00  0.00    -0.082 A 
ATOM      7  C5  PXY d   1      -0.757   0.668  -0.134  0.00  0.00     0.003 A 
ATOM      8  C6  PXY d   1       0.026  -0.135   0.689  0.00  0.00     0.003 A 
ENDROOT
TORSDOF 0
ENDMDL
