MODEL 1
REMARK minimizedAffinity 0.420354337
REMARK minimizedRMSD -1
REMARK  0 active torsions:
REMARK  status: ('A' for Active; 'I' for Inactive)
ROOT
ATOM      1  C4' PXY d   1      -1.224   2.272  -1.857  0.00  0.00     0.077 C 
ATOM      2  C1' PXY d   1       2.320  -1.354   0.919  0.00  0.00     0.077 C 
ATOM      3  C1  PXY d   1       1.381  -0.412   0.192  0.00  0.00    -0.082 A 
ATOM      4  C2  PXY d   1       1.871   0.465  -0.669  0.00  0.00     0.003 A 
ATOM      5  C3  PXY d   1       1.039   1.347  -1.310  0.00  0.00     0.003 A 
ATOM      6  C4  PXY d   1      -0.314   1.294  -1.108  0.00  0.00    -0.082 A 
ATOM      7  C5  PXY d   1      -0.823   0.395  -0.239  0.00  0.00     0.003 A 
ATOM      8  C6  PXY d   1       0.042  -0.463   0.433  0.00  0.00     0.003 A 
ENDROOT
TORSDOF 0
ENDMDL
