MODEL 1
REMARK minimizedAffinity -1.66766047
REMARK minimizedRMSD -1
REMARK  0 active torsions:
REMARK  status: ('A' for Active; 'I' for Inactive)
ROOT
ATOM      1  C4' PXY d   1      -0.870   2.336  -1.583  0.00  0.00     0.077 C 
ATOM      2  C1' PXY d   1       1.848  -1.783   1.427  0.00  0.00     0.077 C 
ATOM      3  C1  PXY d   1       1.124  -0.709   0.639  0.00  0.00    -0.082 A 
ATOM      4  C2  PXY d   1       1.794   0.026  -0.233  0.00  0.00     0.003 A 
ATOM      5  C3  PXY d   1       1.161   1.023  -0.930  0.00  0.00     0.003 A 
ATOM      6  C4  PXY d   1      -0.182   1.234  -0.773  0.00  0.00    -0.082 A 
ATOM      7  C5  PXY d   1      -0.875   0.480   0.107  0.00  0.00     0.003 A 
ATOM      8  C6  PXY d   1      -0.206  -0.499   0.836  0.00  0.00     0.003 A 
ENDROOT
TORSDOF 0
ENDMDL
