MODEL 1
REMARK minimizedAffinity -2.30385733
REMARK minimizedRMSD -1
REMARK  0 active torsions:
REMARK  status: ('A' for Active; 'I' for Inactive)
ROOT
ATOM      1  C4' PXY d   1      -1.131  -0.694   1.785  0.00  0.00     0.077 C 
ATOM      2  C1' PXY d   1      -1.238   2.235  -3.197  0.00  0.00     0.077 C 
ATOM      3  C1  PXY d   1      -1.197   1.468  -1.890  0.00  0.00    -0.082 A 
ATOM      4  C2  PXY d   1      -2.174   0.626  -1.595  0.00  0.00     0.003 A 
ATOM      5  C3  PXY d   1      -2.169  -0.052  -0.403  0.00  0.00     0.003 A 
ATOM      6  C4  PXY d   1      -1.127   0.094   0.472  0.00  0.00    -0.082 A 
ATOM      7  C5  PXY d   1      -0.121   0.944   0.174  0.00  0.00     0.003 A 
ATOM      8  C6  PXY d   1      -0.166   1.653  -1.023  0.00  0.00     0.003 A 
ENDROOT
TORSDOF 0
ENDMDL
