MODEL 1
REMARK minimizedAffinity 0.222920001
REMARK minimizedRMSD -1
REMARK  0 active torsions:
REMARK  status: ('A' for Active; 'I' for Inactive)
ROOT
ATOM      1  C4' PXY d   1      -1.989  -0.146   2.385  0.00  0.00     0.077 C 
ATOM      2  C1' PXY d   1       2.163   0.228  -1.619  0.00  0.00     0.077 C 
ATOM      3  C1  PXY d   1       1.066   0.137  -0.577  0.00  0.00    -0.082 A 
ATOM      4  C2  PXY d   1       1.384  -0.072   0.691  0.00  0.00     0.003 A 
ATOM      5  C3  PXY d   1       0.403  -0.189   1.642  0.00  0.00     0.003 A 
ATOM      6  C4  PXY d   1      -0.914  -0.037   1.300  0.00  0.00    -0.082 A 
ATOM      7  C5  PXY d   1      -1.246   0.187   0.011  0.00  0.00     0.003 A 
ATOM      8  C6  PXY d   1      -0.238   0.262  -0.945  0.00  0.00     0.003 A 
ENDROOT
TORSDOF 0
ENDMDL
