MODEL 1
REMARK minimizedAffinity -3.42671585
REMARK minimizedRMSD -1
REMARK  0 active torsions:
REMARK  status: ('A' for Active; 'I' for Inactive)
ROOT
ATOM      1  C4' PXY d   1       3.007  -0.047  -1.340  0.00  0.00     0.077 C 
ATOM      2  C1' PXY d   1      -1.582  -0.324   2.165  0.00  0.00     0.077 C 
ATOM      3  C1  PXY d   1      -0.371  -0.257   1.255  0.00  0.00    -0.082 A 
ATOM      4  C2  PXY d   1      -0.306   0.677   0.320  0.00  0.00     0.003 A 
ATOM      5  C3  PXY d   1       0.766   0.732  -0.532  0.00  0.00     0.003 A 
ATOM      6  C4  PXY d   1       1.808  -0.146  -0.393  0.00  0.00    -0.082 A 
ATOM      7  C5  PXY d   1       1.754  -1.095   0.565  0.00  0.00     0.003 A 
ATOM      8  C6  PXY d   1       0.637  -1.160   1.394  0.00  0.00     0.003 A 
ENDROOT
TORSDOF 0
ENDMDL
