MODEL 1
REMARK minimizedAffinity -3.58765316
REMARK minimizedRMSD -1
REMARK  0 active torsions:
REMARK  status: ('A' for Active; 'I' for Inactive)
ROOT
ATOM      1  C4' PXY d   1      -1.909  -1.382   0.790  0.00  0.00     0.077 C 
ATOM      2  C1' PXY d   1       3.129   0.695  -1.140  0.00  0.00     0.077 C 
ATOM      3  C1  PXY d   1       1.814   0.139  -0.631  0.00  0.00    -0.082 A 
ATOM      4  C2  PXY d   1       0.674   0.657  -1.062  0.00  0.00     0.003 A 
ATOM      5  C3  PXY d   1      -0.524   0.187  -0.587  0.00  0.00     0.003 A 
ATOM      6  C4  PXY d   1      -0.557  -0.858   0.296  0.00  0.00    -0.082 A 
ATOM      7  C5  PXY d   1       0.601  -1.399   0.731  0.00  0.00     0.003 A 
ATOM      8  C6  PXY d   1       1.807  -0.881   0.269  0.00  0.00     0.003 A 
ENDROOT
TORSDOF 0
ENDMDL
