MODEL 1
REMARK minimizedAffinity -5.60487843
REMARK minimizedRMSD -1
REMARK  0 active torsions:
REMARK  status: ('A' for Active; 'I' for Inactive)
ROOT
ATOM      1  C4' PXY d   1       1.556  -0.038  -0.826  0.00  0.00     0.077 C 
ATOM      2  C1' PXY d   1      -1.433  -3.152   3.019  0.00  0.00     0.077 C 
ATOM      3  C1  PXY d   1      -0.638  -2.339   2.017  0.00  0.00    -0.082 A 
ATOM      4  C2  PXY d   1      -1.230  -1.358   1.354  0.00  0.00     0.003 A 
ATOM      5  C3  PXY d   1      -0.534  -0.633   0.421  0.00  0.00     0.003 A 
ATOM      6  C4  PXY d   1       0.795  -0.880   0.202  0.00  0.00    -0.082 A 
ATOM      7  C5  PXY d   1       1.408  -1.872   0.882  0.00  0.00     0.003 A 
ATOM      8  C6  PXY d   1       0.674  -2.623   1.795  0.00  0.00     0.003 A 
ENDROOT
TORSDOF 0
ENDMDL
