MODEL 1
REMARK minimizedAffinity 0.243796498
REMARK minimizedRMSD -1
REMARK  0 active torsions:
REMARK  status: ('A' for Active; 'I' for Inactive)
ROOT
ATOM      1  C4' PXY d   1       1.492   0.364  -0.768  0.00  0.00     0.077 C 
ATOM      2  C1' PXY d   1      -2.186  -1.280   3.378  0.00  0.00     0.077 C 
ATOM      3  C1  PXY d   1      -1.231  -0.849   2.282  0.00  0.00    -0.082 A 
ATOM      4  C2  PXY d   1       0.062  -1.098   2.406  0.00  0.00     0.003 A 
ATOM      5  C3  PXY d   1       0.944  -0.687   1.440  0.00  0.00     0.003 A 
ATOM      6  C4  PXY d   1       0.490  -0.062   0.309  0.00  0.00    -0.082 A 
ATOM      7  C5  PXY d   1      -0.830   0.186   0.170  0.00  0.00     0.003 A 
ATOM      8  C6  PXY d   1      -1.703  -0.203   1.182  0.00  0.00     0.003 A 
ENDROOT
TORSDOF 0
ENDMDL
