MODEL 1
REMARK minimizedAffinity -4.97300911
REMARK minimizedRMSD -1
REMARK  0 active torsions:
REMARK  status: ('A' for Active; 'I' for Inactive)
ROOT
ATOM      1  C4' PXY d   1      -1.291   1.228  -0.825  0.00  0.00     0.077 C 
ATOM      2  C1' PXY d   1       0.813  -2.675   2.884  0.00  0.00     0.077 C 
ATOM      3  C1  PXY d   1       0.273  -1.649   1.907  0.00  0.00    -0.082 A 
ATOM      4  C2  PXY d   1      -0.917  -1.110   2.116  0.00  0.00     0.003 A 
ATOM      5  C3  PXY d   1      -1.434  -0.204   1.226  0.00  0.00     0.003 A 
ATOM      6  C4  PXY d   1      -0.702   0.194   0.139  0.00  0.00    -0.082 A 
ATOM      7  C5  PXY d   1       0.517  -0.343  -0.075  0.00  0.00     0.003 A 
ATOM      8  C6  PXY d   1       1.007  -1.292   0.818  0.00  0.00     0.003 A 
ENDROOT
TORSDOF 0
ENDMDL
