MODEL 1
REMARK minimizedAffinity -5.72912216
REMARK minimizedRMSD -1
REMARK  0 active torsions:
REMARK  status: ('A' for Active; 'I' for Inactive)
ROOT
ATOM      1  C4' PXY d   1      -2.018   1.311  -3.496  0.00  0.00     0.077 C 
ATOM      2  C1' PXY d   1      -1.703  -0.571   1.961  0.00  0.00     0.077 C 
ATOM      3  C1  PXY d   1      -1.794  -0.087   0.527  0.00  0.00    -0.082 A 
ATOM      4  C2  PXY d   1      -0.806   0.628   0.014  0.00  0.00     0.003 A 
ATOM      5  C3  PXY d   1      -0.886   1.101  -1.271  0.00  0.00     0.003 A 
ATOM      6  C4  PXY d   1      -1.965   0.794  -2.056  0.00  0.00    -0.082 A 
ATOM      7  C5  PXY d   1      -2.972   0.056  -1.543  0.00  0.00     0.003 A 
ATOM      8  C6  PXY d   1      -2.890  -0.380  -0.224  0.00  0.00     0.003 A 
ENDROOT
TORSDOF 0
ENDMDL
