MODEL 1
REMARK minimizedAffinity -3.68015742
REMARK minimizedRMSD -1
REMARK  0 active torsions:
REMARK  status: ('A' for Active; 'I' for Inactive)
ROOT
ATOM      1  C4' PXY d   1      -1.601   2.099  -2.962  0.00  0.00     0.077 C 
ATOM      2  C1' PXY d   1      -1.246  -0.752   2.054  0.00  0.00     0.077 C 
ATOM      3  C1  PXY d   1      -1.331   0.005   0.743  0.00  0.00    -0.082 A 
ATOM      4  C2  PXY d   1      -2.395  -0.142  -0.030  0.00  0.00     0.003 A 
ATOM      5  C3  PXY d   1      -2.474   0.510  -1.233  0.00  0.00     0.003 A 
ATOM      6  C4  PXY d   1      -1.477   1.362  -1.626  0.00  0.00    -0.082 A 
ATOM      7  C5  PXY d   1      -0.393   1.526  -0.839  0.00  0.00     0.003 A 
ATOM      8  C6  PXY d   1      -0.313   0.823   0.360  0.00  0.00     0.003 A 
ENDROOT
TORSDOF 0
ENDMDL
