MODEL 1
REMARK minimizedAffinity -2.7684195
REMARK minimizedRMSD -1
REMARK  0 active torsions:
REMARK  status: ('A' for Active; 'I' for Inactive)
ROOT
ATOM      1  C4' PXY d   1      -2.046   1.759  -3.514  0.00  0.00     0.077 C 
ATOM      2  C1' PXY d   1      -1.948  -0.415   1.841  0.00  0.00     0.077 C 
ATOM      3  C1  PXY d   1      -1.981   0.145   0.433  0.00  0.00    -0.082 A 
ATOM      4  C2  PXY d   1      -0.996   0.923   0.015  0.00  0.00     0.003 A 
ATOM      5  C3  PXY d   1      -1.026   1.464  -1.245  0.00  0.00     0.003 A 
ATOM      6  C4  PXY d   1      -2.049   1.164  -2.103  0.00  0.00    -0.082 A 
ATOM      7  C5  PXY d   1      -3.053   0.362  -1.688  0.00  0.00     0.003 A 
ATOM      8  C6  PXY d   1      -3.024  -0.144  -0.392  0.00  0.00     0.003 A 
ENDROOT
TORSDOF 0
ENDMDL
