MODEL 1
REMARK minimizedAffinity -5.69534111
REMARK minimizedRMSD -1
REMARK  0 active torsions:
REMARK  status: ('A' for Active; 'I' for Inactive)
ROOT
ATOM      1  C4' PXY d   1      -1.055   1.682  -0.535  0.00  0.00     0.077 C 
ATOM      2  C1' PXY d   1       0.702  -2.881   2.549  0.00  0.00     0.077 C 
ATOM      3  C1  PXY d   1       0.254  -1.682   1.737  0.00  0.00    -0.082 A 
ATOM      4  C2  PXY d   1      -0.914  -1.117   1.996  0.00  0.00     0.003 A 
ATOM      5  C3  PXY d   1      -1.349  -0.051   1.250  0.00  0.00     0.003 A 
ATOM      6  C4  PXY d   1      -0.557   0.475   0.265  0.00  0.00    -0.082 A 
ATOM      7  C5  PXY d   1       0.641  -0.089   0.002  0.00  0.00     0.003 A 
ATOM      8  C6  PXY d   1       1.046  -1.196   0.743  0.00  0.00     0.003 A 
ENDROOT
TORSDOF 0
ENDMDL
