MODEL 1
REMARK minimizedAffinity -4.03818226
REMARK minimizedRMSD -1
REMARK  2 active torsions:
REMARK  status: ('A' for Active; 'I' for Inactive)
REMARK    1  A    between atoms: C1_2  and  C2_3 
REMARK    2  A    between atoms: C2_3  and  C3_4 
ROOT
ATOM      1  C3  UNL d   1       0.695   0.446  -3.156  0.00  0.00    -0.075 A 
ATOM      2  C4  UNL d   1       1.293   1.199  -4.177  0.00  0.00     0.002 A 
ATOM      3  C5  UNL d   1       0.918   1.012  -5.508  0.00  0.00     0.002 A 
ATOM      4  C6  UNL d   1      -0.050   0.065  -5.835  0.00  0.00    -0.004 A 
ATOM      5  C7  UNL d   1      -0.638  -0.701  -4.830  0.00  0.00     0.002 A 
ATOM      6  C8  UNL d   1      -0.268  -0.512  -3.498  0.00  0.00     0.002 A 
ENDROOT
BRANCH   1   7
ATOM      7  C2  UNL d   1       1.076   0.665  -1.711  0.00  0.00     0.056 C 
BRANCH   7   8
ATOM      8  C1  UNL d   1       0.440  -0.336  -0.740  0.00  0.00     0.007 C 
ATOM      9  C   UNL d   1      -0.013   0.301   0.567  0.00  0.00     0.009 C 
ENDBRANCH   7   8
ENDBRANCH   1   7
TORSDOF 2
ENDMDL
