MODEL 1
REMARK minimizedAffinity -4.57567596
REMARK minimizedRMSD -1
REMARK  2 active torsions:
REMARK  status: ('A' for Active; 'I' for Inactive)
REMARK    1  A    between atoms: C1_2  and  C2_3 
REMARK    2  A    between atoms: C2_3  and  C3_4 
ROOT
ATOM      1  C3  UNL d   1       0.363  -0.332  -2.082  0.00  0.00    -0.075 A 
ATOM      2  C4  UNL d   1       1.634   0.137  -2.444  0.00  0.00     0.002 A 
ATOM      3  C5  UNL d   1       1.811   0.868  -3.619  0.00  0.00     0.002 A 
ATOM      4  C6  UNL d   1       0.724   1.130  -4.450  0.00  0.00    -0.004 A 
ATOM      5  C7  UNL d   1      -0.540   0.654  -4.109  0.00  0.00     0.002 A 
ATOM      6  C8  UNL d   1      -0.721  -0.074  -2.931  0.00  0.00     0.002 A 
ENDROOT
BRANCH   1   7
ATOM      7  C2  UNL d   1       0.160  -1.099  -0.796  0.00  0.00     0.056 C 
BRANCH   7   8
ATOM      8  C1  UNL d   1       0.399  -0.268   0.469  0.00  0.00     0.007 C 
ATOM      9  C   UNL d   1      -0.746   0.684   0.787  0.00  0.00     0.009 C 
ENDBRANCH   7   8
ENDBRANCH   1   7
TORSDOF 2
ENDMDL
