MODEL 1
REMARK minimizedAffinity -2.60782433
REMARK minimizedRMSD -1
REMARK  2 active torsions:
REMARK  status: ('A' for Active; 'I' for Inactive)
REMARK    1  A    between atoms: C1_2  and  C2_3 
REMARK    2  A    between atoms: C2_3  and  C3_4 
ROOT
ATOM      1  C3  UNL d   1       1.094   0.101  -2.979  0.00  0.00    -0.075 A 
ATOM      2  C4  UNL d   1      -0.017  -0.674  -3.342  0.00  0.00     0.002 A 
ATOM      3  C5  UNL d   1      -0.525  -0.621  -4.640  0.00  0.00     0.002 A 
ATOM      4  C6  UNL d   1       0.064   0.214  -5.588  0.00  0.00    -0.004 A 
ATOM      5  C7  UNL d   1       1.157   1.001  -5.234  0.00  0.00     0.002 A 
ATOM      6  C8  UNL d   1       1.670   0.946  -3.937  0.00  0.00     0.002 A 
ENDROOT
BRANCH   1   7
ATOM      7  C2  UNL d   1       1.666   0.026  -1.584  0.00  0.00     0.056 C 
BRANCH   7   8
ATOM      8  C1  UNL d   1       0.666  -0.448  -0.524  0.00  0.00     0.007 C 
ATOM      9  C   UNL d   1       0.979   0.073   0.872  0.00  0.00     0.009 C 
ENDBRANCH   7   8
ENDBRANCH   1   7
TORSDOF 2
ENDMDL
