MODEL 1
REMARK minimizedAffinity -0.136778757
REMARK minimizedRMSD -1
REMARK  2 active torsions:
REMARK  status: ('A' for Active; 'I' for Inactive)
REMARK    1  A    between atoms: C1_2  and  C2_3 
REMARK    2  A    between atoms: C2_3  and  C3_4 
ROOT
ATOM      1  C3  UNL d   1       0.272   0.103  -0.456  0.00  0.00    -0.075 A 
ATOM      2  C4  UNL d   1      -0.879   0.534   0.220  0.00  0.00     0.002 A 
ATOM      3  C5  UNL d   1      -0.847   0.765   1.596  0.00  0.00     0.002 A 
ATOM      4  C6  UNL d   1       0.330   0.559   2.313  0.00  0.00    -0.004 A 
ATOM      5  C7  UNL d   1       1.474   0.115   1.654  0.00  0.00     0.002 A 
ATOM      6  C8  UNL d   1       1.446  -0.113   0.277  0.00  0.00     0.002 A 
ENDROOT
BRANCH   1   7
ATOM      7  C2  UNL d   1       0.252  -0.121  -1.949  0.00  0.00     0.056 C 
BRANCH   7   8
ATOM      8  C1  UNL d   1       1.530   0.330  -2.665  0.00  0.00     0.007 C 
ATOM      9  C   UNL d   1       1.353   0.482  -4.170  0.00  0.00     0.009 C 
ENDBRANCH   7   8
ENDBRANCH   1   7
TORSDOF 2
ENDMDL
