MODEL 1
REMARK minimizedAffinity -4.68114185
REMARK minimizedRMSD -1
REMARK  2 active torsions:
REMARK  status: ('A' for Active; 'I' for Inactive)
REMARK    1  A    between atoms: C1_2  and  C2_3 
REMARK    2  A    between atoms: C2_3  and  C3_4 
ROOT
ATOM      1  C3  UNL d   1      -0.224  -0.063   0.546  0.00  0.00    -0.075 A 
ATOM      2  C4  UNL d   1      -1.443   0.402   1.059  0.00  0.00     0.002 A 
ATOM      3  C5  UNL d   1      -1.479   1.144   2.240  0.00  0.00     0.002 A 
ATOM      4  C6  UNL d   1      -0.300   1.421   2.928  0.00  0.00    -0.004 A 
ATOM      5  C7  UNL d   1       0.916   0.951   2.436  0.00  0.00     0.002 A 
ATOM      6  C8  UNL d   1       0.955   0.212   1.252  0.00  0.00     0.002 A 
ENDROOT
BRANCH   1   7
ATOM      7  C2  UNL d   1      -0.175  -0.841  -0.747  0.00  0.00     0.056 C 
BRANCH   7   8
ATOM      8  C1  UNL d   1       0.527  -0.104  -1.892  0.00  0.00     0.007 C 
ATOM      9  C   UNL d   1      -0.262  -0.127  -3.194  0.00  0.00     0.009 C 
ENDBRANCH   7   8
ENDBRANCH   1   7
TORSDOF 2
ENDMDL
