MODEL 1
REMARK minimizedAffinity -3.20425797
REMARK minimizedRMSD -1
REMARK  2 active torsions:
REMARK  status: ('A' for Active; 'I' for Inactive)
REMARK    1  A    between atoms: C1_2  and  C2_3 
REMARK    2  A    between atoms: C2_3  and  C3_4 
ROOT
ATOM      1  C3  UNL d   1       0.599   0.206   0.325  0.00  0.00    -0.075 A 
ATOM      2  C4  UNL d   1      -0.710  -0.297   0.304  0.00  0.00     0.002 A 
ATOM      3  C5  UNL d   1      -1.614   0.040   1.312  0.00  0.00     0.002 A 
ATOM      4  C6  UNL d   1      -1.219   0.872   2.357  0.00  0.00    -0.004 A 
ATOM      5  C7  UNL d   1       0.084   1.364   2.397  0.00  0.00     0.002 A 
ATOM      6  C8  UNL d   1       0.989   1.032   1.387  0.00  0.00     0.002 A 
ENDROOT
BRANCH   1   7
ATOM      7  C2  UNL d   1       1.574  -0.131  -0.778  0.00  0.00     0.056 C 
BRANCH   7   8
ATOM      8  C1  UNL d   1       1.124   0.329  -2.169  0.00  0.00     0.007 C 
ATOM      9  C   UNL d   1       2.283   0.559  -3.129  0.00  0.00     0.009 C 
ENDBRANCH   7   8
ENDBRANCH   1   7
TORSDOF 2
ENDMDL
