MODEL 1
REMARK minimizedAffinity -1.93358469
REMARK minimizedRMSD -1
REMARK  2 active torsions:
REMARK  status: ('A' for Active; 'I' for Inactive)
REMARK    1  A    between atoms: C1_2  and  C2_3 
REMARK    2  A    between atoms: C2_3  and  C3_4 
ROOT
ATOM      1  C3  UNL d   1       0.364   0.429   0.167  0.00  0.00    -0.075 A 
ATOM      2  C4  UNL d   1      -0.766  -0.323   0.522  0.00  0.00     0.002 A 
ATOM      3  C5  UNL d   1      -1.318  -0.213   1.798  0.00  0.00     0.002 A 
ATOM      4  C6  UNL d   1      -0.744   0.640   2.738  0.00  0.00    -0.004 A 
ATOM      5  C7  UNL d   1       0.389   1.379   2.402  0.00  0.00     0.002 A 
ATOM      6  C8  UNL d   1       0.941   1.274   1.124  0.00  0.00     0.002 A 
ENDROOT
BRANCH   1   7
ATOM      7  C2  UNL d   1       0.949   0.336  -1.222  0.00  0.00     0.056 C 
BRANCH   7   8
ATOM      8  C1  UNL d   1       0.149   1.093  -2.287  0.00  0.00     0.007 C 
ATOM      9  C   UNL d   1       0.630   0.820  -3.706  0.00  0.00     0.009 C 
ENDBRANCH   7   8
ENDBRANCH   1   7
TORSDOF 2
ENDMDL
