MODEL 1
REMARK minimizedAffinity -0.155427277
REMARK minimizedRMSD -1
REMARK  0 active torsions:
REMARK  status: ('A' for Active; 'I' for Inactive)
ROOT
ATOM      1  C   UNL d   1       0.560   0.578   0.733  0.00  0.00     0.023 A 
ATOM      2  C1  UNL d   1      -0.344  -0.349   1.250  0.00  0.00     0.003 A 
ATOM      3  C2  UNL d   1      -1.432   0.084   2.012  0.00  0.00     0.048 A 
ATOM      4  C3  UNL d   1      -1.609   1.446   2.251  0.00  0.00     0.023 A 
ATOM      5  C4  UNL d   1      -0.708   2.378   1.734  0.00  0.00     0.048 A 
ATOM      6  C5  UNL d   1       0.378   1.940   0.974  0.00  0.00     0.003 A 
ATOM      7  I   UNL d   1      -3.227   2.093   3.384  0.00  0.00    -0.146 I 
ENDROOT
TORSDOF 0
ENDMDL
