MODEL 1
REMARK minimizedAffinity 4.09630871
REMARK minimizedRMSD -1
REMARK  0 active torsions:
REMARK  status: ('A' for Active; 'I' for Inactive)
ROOT
ATOM      1  C   UNL d   1      -1.729   0.183   2.017  0.00  0.00     0.023 A 
ATOM      2  C1  UNL d   1      -2.636  -0.573   2.759  0.00  0.00     0.003 A 
ATOM      3  C2  UNL d   1      -3.596   0.063   3.549  0.00  0.00     0.048 A 
ATOM      4  C3  UNL d   1      -3.644   1.456   3.592  0.00  0.00     0.023 A 
ATOM      5  C4  UNL d   1      -2.739   2.217   2.849  0.00  0.00     0.048 A 
ATOM      6  C5  UNL d   1      -1.781   1.576   2.062  0.00  0.00     0.003 A 
ATOM      7  I   UNL d   1      -5.071   2.406   4.767  0.00  0.00    -0.146 I 
ENDROOT
TORSDOF 0
ENDMDL
