MODEL 1
REMARK minimizedAffinity 1.5692333
REMARK minimizedRMSD -1
REMARK  0 active torsions:
REMARK  status: ('A' for Active; 'I' for Inactive)
ROOT
ATOM      1  C   UNL d   1       0.103   0.611   0.893  0.00  0.00     0.023 A 
ATOM      2  C1  UNL d   1      -0.050   1.955   1.230  0.00  0.00     0.003 A 
ATOM      3  C2  UNL d   1      -1.182   2.376   1.933  0.00  0.00     0.048 A 
ATOM      4  C3  UNL d   1      -2.155   1.446   2.295  0.00  0.00     0.023 A 
ATOM      5  C4  UNL d   1      -2.005   0.099   1.961  0.00  0.00     0.048 A 
ATOM      6  C5  UNL d   1      -0.873  -0.317   1.258  0.00  0.00     0.003 A 
ATOM      7  I   UNL d   1      -3.840   2.069   3.341  0.00  0.00    -0.146 I 
ENDROOT
TORSDOF 0
ENDMDL
