MODEL 1
REMARK minimizedAffinity 6.40033913
REMARK minimizedRMSD -1
REMARK  0 active torsions:
REMARK  status: ('A' for Active; 'I' for Inactive)
ROOT
ATOM      1  C   UNL d   1      -0.271   1.104   1.037  0.00  0.00     0.023 A 
ATOM      2  C1  UNL d   1      -0.465   2.416   1.469  0.00  0.00     0.003 A 
ATOM      3  C2  UNL d   1      -1.575   2.737   2.254  0.00  0.00     0.048 A 
ATOM      4  C3  UNL d   1      -2.486   1.741   2.604  0.00  0.00     0.023 A 
ATOM      5  C4  UNL d   1      -2.295   0.427   2.174  0.00  0.00     0.048 A 
ATOM      6  C5  UNL d   1      -1.185   0.111   1.389  0.00  0.00     0.003 A 
ATOM      7  I   UNL d   1      -4.138   2.217   3.772  0.00  0.00    -0.146 I 
ENDROOT
TORSDOF 0
ENDMDL
