MODEL 1
REMARK minimizedAffinity -3.46394563
REMARK minimizedRMSD -1
REMARK  0 active torsions:
REMARK  status: ('A' for Active; 'I' for Inactive)
ROOT
ATOM      1  C   UNL d   1      -1.629  -0.782   1.889  0.00  0.00     0.023 A 
ATOM      2  C1  UNL d   1      -2.040   0.453   2.390  0.00  0.00     0.003 A 
ATOM      3  C2  UNL d   1      -1.286   1.599   2.132  0.00  0.00     0.048 A 
ATOM      4  C3  UNL d   1      -0.121   1.504   1.372  0.00  0.00     0.023 A 
ATOM      5  C4  UNL d   1       0.295   0.270   0.868  0.00  0.00     0.048 A 
ATOM      6  C5  UNL d   1      -0.463  -0.874   1.129  0.00  0.00     0.003 A 
ATOM      7  I   UNL d   1       1.004   3.208   0.986  0.00  0.00    -0.146 I 
ENDROOT
TORSDOF 0
ENDMDL
