MODEL 1
REMARK minimizedAffinity 7.0818162
REMARK minimizedRMSD -1
REMARK  0 active torsions:
REMARK  status: ('A' for Active; 'I' for Inactive)
ROOT
ATOM      1  C   UNL d   1      -5.997   1.830   5.972  0.00  0.00     0.023 A 
ATOM      2  C1  UNL d   1      -5.137   2.928   6.000  0.00  0.00     0.003 A 
ATOM      3  C2  UNL d   1      -4.143   3.062   5.028  0.00  0.00     0.048 A 
ATOM      4  C3  UNL d   1      -4.015   2.096   4.031  0.00  0.00     0.023 A 
ATOM      5  C4  UNL d   1      -4.874   0.996   3.999  0.00  0.00     0.048 A 
ATOM      6  C5  UNL d   1      -5.866   0.866   4.973  0.00  0.00     0.003 A 
ATOM      7  I   UNL d   1      -2.537   2.294   2.584  0.00  0.00    -0.146 I 
ENDROOT
TORSDOF 0
ENDMDL
