MODEL 1
REMARK minimizedAffinity 3.64762354
REMARK minimizedRMSD -1
REMARK  0 active torsions:
REMARK  status: ('A' for Active; 'I' for Inactive)
ROOT
ATOM      1  C   UNL d   1      -0.938   2.032   0.529  0.00  0.00     0.023 A 
ATOM      2  C1  UNL d   1      -0.126   0.969   0.131  0.00  0.00     0.003 A 
ATOM      3  C2  UNL d   1       0.238  -0.016   1.052  0.00  0.00     0.048 A 
ATOM      4  C3  UNL d   1      -0.215   0.067   2.368  0.00  0.00     0.023 A 
ATOM      5  C4  UNL d   1      -1.029   1.127   2.770  0.00  0.00     0.048 A 
ATOM      6  C5  UNL d   1      -1.389   2.110   1.847  0.00  0.00     0.003 A 
ATOM      7  I   UNL d   1       0.325  -1.398   3.740  0.00  0.00    -0.146 I 
ENDROOT
TORSDOF 0
ENDMDL
