MODEL 1
REMARK minimizedAffinity 3.76668191
REMARK minimizedRMSD -1
REMARK  0 active torsions:
REMARK  status: ('A' for Active; 'I' for Inactive)
ROOT
ATOM      1  C   UNL d   1       0.124   2.386   0.771  0.00  0.00     0.023 A 
ATOM      2  C1  UNL d   1       0.864   1.210   0.647  0.00  0.00     0.003 A 
ATOM      3  C2  UNL d   1       0.410   0.031   1.241  0.00  0.00     0.048 A 
ATOM      4  C3  UNL d   1      -0.786   0.034   1.958  0.00  0.00     0.023 A 
ATOM      5  C4  UNL d   1      -1.531   1.207   2.084  0.00  0.00     0.048 A 
ATOM      6  C5  UNL d   1      -1.073   2.384   1.489  0.00  0.00     0.003 A 
ATOM      7  I   UNL d   1      -1.464  -1.720   2.843  0.00  0.00    -0.146 I 
ENDROOT
TORSDOF 0
ENDMDL
