MODEL 1
REMARK minimizedAffinity -4.5265851
REMARK minimizedRMSD -1
REMARK  0 active torsions:
REMARK  status: ('A' for Active; 'I' for Inactive)
ROOT
ATOM      1  C   UNL d   1      -2.715   0.653   1.719  0.00  0.00     0.023 A 
ATOM      2  C1  UNL d   1      -2.021  -0.546   1.556  0.00  0.00     0.003 A 
ATOM      3  C2  UNL d   1      -0.670  -0.530   1.202  0.00  0.00     0.048 A 
ATOM      4  C3  UNL d   1      -0.020   0.689   1.013  0.00  0.00     0.023 A 
ATOM      5  C4  UNL d   1      -0.710   1.891   1.176  0.00  0.00     0.048 A 
ATOM      6  C5  UNL d   1      -2.061   1.870   1.529  0.00  0.00     0.003 A 
ATOM      7  I   UNL d   1       1.991   0.716   0.487  0.00  0.00    -0.146 I 
ENDROOT
TORSDOF 0
ENDMDL
