MODEL 1
REMARK minimizedAffinity -1.75960982
REMARK minimizedRMSD -1
REMARK  0 active torsions:
REMARK  status: ('A' for Active; 'I' for Inactive)
ROOT
ATOM      1  C   UNL d   1       1.338   0.397   0.499  0.00  0.00     0.023 A 
ATOM      2  C1  UNL d   1       0.096  -0.237   0.508  0.00  0.00     0.003 A 
ATOM      3  C2  UNL d   1      -0.979   0.341   1.187  0.00  0.00     0.048 A 
ATOM      4  C3  UNL d   1      -0.805   1.554   1.853  0.00  0.00     0.023 A 
ATOM      5  C4  UNL d   1       0.436   2.192   1.846  0.00  0.00     0.048 A 
ATOM      6  C5  UNL d   1       1.508   1.610   1.166  0.00  0.00     0.003 A 
ATOM      7  I   UNL d   1      -2.403   2.416   2.864  0.00  0.00    -0.146 I 
ENDROOT
TORSDOF 0
ENDMDL
