MODEL 1
REMARK minimizedAffinity 7.91457033
REMARK minimizedRMSD -1
REMARK  0 active torsions:
REMARK  status: ('A' for Active; 'I' for Inactive)
ROOT
ATOM      1  C   UNL d   1      -3.812  -1.232  -2.585  0.00  0.00     0.023 A 
ATOM      2  C1  UNL d   1      -3.913  -1.282  -1.194  0.00  0.00     0.003 A 
ATOM      3  C2  UNL d   1      -3.962  -2.514  -0.540  0.00  0.00     0.048 A 
ATOM      4  C3  UNL d   1      -3.908  -3.694  -1.282  0.00  0.00     0.023 A 
ATOM      5  C4  UNL d   1      -3.806  -3.649  -2.673  0.00  0.00     0.048 A 
ATOM      6  C5  UNL d   1      -3.759  -2.415  -3.323  0.00  0.00     0.003 A 
ATOM      7  I   UNL d   1      -3.980  -5.529  -0.310  0.00  0.00    -0.146 I 
ENDROOT
TORSDOF 0
ENDMDL
