MODEL 1
REMARK minimizedAffinity 3.10779428
REMARK minimizedRMSD -1
REMARK  0 active torsions:
REMARK  status: ('A' for Active; 'I' for Inactive)
ROOT
ATOM      1  C   UNL d   1       0.809  -0.874   0.890  0.00  0.00     0.023 A 
ATOM      2  C1  UNL d   1      -0.031  -1.045   1.991  0.00  0.00     0.003 A 
ATOM      3  C2  UNL d   1      -0.872  -0.007   2.396  0.00  0.00     0.048 A 
ATOM      4  C3  UNL d   1      -0.870   1.199   1.696  0.00  0.00     0.023 A 
ATOM      5  C4  UNL d   1      -0.032   1.374   0.594  0.00  0.00     0.048 A 
ATOM      6  C5  UNL d   1       0.808   0.334   0.192  0.00  0.00     0.003 A 
ATOM      7  I   UNL d   1      -2.121   2.745   2.298  0.00  0.00    -0.146 I 
ENDROOT
TORSDOF 0
ENDMDL
