MODEL 1
REMARK minimizedAffinity -1.79433155
REMARK minimizedRMSD -1
REMARK  0 active torsions:
REMARK  status: ('A' for Active; 'I' for Inactive)
ROOT
ATOM      1  C   UNL d   1      -1.395   1.062   1.377  0.00  0.00     0.023 A 
ATOM      2  C1  UNL d   1      -1.611   2.438   1.293  0.00  0.00     0.003 A 
ATOM      3  C2  UNL d   1      -0.546   3.298   1.017  0.00  0.00     0.048 A 
ATOM      4  C3  UNL d   1       0.732   2.776   0.825  0.00  0.00     0.023 A 
ATOM      5  C4  UNL d   1       0.954   1.400   0.908  0.00  0.00     0.048 A 
ATOM      6  C5  UNL d   1      -0.114   0.544   1.185  0.00  0.00     0.003 A 
ATOM      7  I   UNL d   1       2.319   4.054   0.414  0.00  0.00    -0.146 I 
ENDROOT
TORSDOF 0
ENDMDL
