MODEL 1
REMARK minimizedAffinity 2.76753926
REMARK minimizedRMSD -1
REMARK  0 active torsions:
REMARK  status: ('A' for Active; 'I' for Inactive)
ROOT
ATOM      1  C   UNL d   1       0.840  -0.410   0.880  0.00  0.00     0.023 A 
ATOM      2  C1  UNL d   1      -0.328  -0.748   1.564  0.00  0.00     0.003 A 
ATOM      3  C2  UNL d   1      -1.312   0.218   1.788  0.00  0.00     0.048 A 
ATOM      4  C3  UNL d   1      -1.121   1.519   1.325  0.00  0.00     0.023 A 
ATOM      5  C4  UNL d   1       0.045   1.862   0.639  0.00  0.00     0.048 A 
ATOM      6  C5  UNL d   1       1.026   0.893   0.418  0.00  0.00     0.003 A 
ATOM      7  I   UNL d   1      -2.584   2.958   1.657  0.00  0.00    -0.146 I 
ENDROOT
TORSDOF 0
ENDMDL
