MODEL 1
REMARK minimizedAffinity 0.0573233999
REMARK minimizedRMSD -1
REMARK  0 active torsions:
REMARK  status: ('A' for Active; 'I' for Inactive)
ROOT
ATOM      1  C   UNL d   1       0.087   0.866   0.877  0.00  0.00     0.023 A 
ATOM      2  C1  UNL d   1      -0.880  -0.124   1.050  0.00  0.00     0.003 A 
ATOM      3  C2  UNL d   1      -2.046   0.155   1.766  0.00  0.00     0.048 A 
ATOM      4  C3  UNL d   1      -2.239   1.426   2.305  0.00  0.00     0.023 A 
ATOM      5  C4  UNL d   1      -1.274   2.421   2.133  0.00  0.00     0.048 A 
ATOM      6  C5  UNL d   1      -0.110   2.137   1.417  0.00  0.00     0.003 A 
ATOM      7  I   UNL d   1      -3.973   1.844   3.371  0.00  0.00    -0.146 I 
ENDROOT
TORSDOF 0
ENDMDL
