MODEL 1
REMARK minimizedAffinity 1.45930493
REMARK minimizedRMSD -1
REMARK  0 active torsions:
REMARK  status: ('A' for Active; 'I' for Inactive)
ROOT
ATOM      1  C   UNL d   1       0.466   1.819   0.733  0.00  0.00     0.023 A 
ATOM      2  C1  UNL d   1      -0.637   2.327   1.421  0.00  0.00     0.003 A 
ATOM      3  C2  UNL d   1      -1.566   1.455   1.993  0.00  0.00     0.048 A 
ATOM      4  C3  UNL d   1      -1.386   0.078   1.875  0.00  0.00     0.023 A 
ATOM      5  C4  UNL d   1      -0.283  -0.435   1.188  0.00  0.00     0.048 A 
ATOM      6  C5  UNL d   1       0.642   0.440   0.617  0.00  0.00     0.003 A 
ATOM      7  I   UNL d   1      -2.767  -1.221   2.726  0.00  0.00    -0.146 I 
ENDROOT
TORSDOF 0
ENDMDL
