MODEL 1
REMARK minimizedAffinity 14.5295944
REMARK minimizedRMSD -1
REMARK  0 active torsions:
REMARK  status: ('A' for Active; 'I' for Inactive)
ROOT
ATOM      1  C1  DEN d   1       3.893   2.877   0.966  0.00  0.00     0.130 A 
ATOM      2  C2  DEN d   1       4.559   2.175   2.061  0.00  0.00    -0.031 A 
ATOM      3  C3  DEN d   1       4.425   0.724   1.821  0.00  0.00     0.027 A 
ATOM      4  C4  DEN d   1       3.262  -0.497  -0.131  0.00  0.00     0.027 A 
ATOM      5  C5  DEN d   1       2.546  -0.326  -1.295  0.00  0.00    -0.003 A 
ATOM      6  C6  DEN d   1       2.202   0.913  -1.765  0.00  0.00     0.001 A 
ATOM      7  C7  DEN d   1       2.613   2.033  -1.091  0.00  0.00     0.017 A 
ATOM      8  C8  DEN d   1       3.330   1.868   0.087  0.00  0.00    -0.094 A 
ATOM      9  C9  DEN d   1       3.678   0.607   0.540  0.00  0.00    -0.072 A 
ENDROOT
TORSDOF 0
ENDMDL
