MODEL 1
REMARK minimizedAffinity 13.37078
REMARK minimizedRMSD -1
REMARK  0 active torsions:
REMARK  status: ('A' for Active; 'I' for Inactive)
ROOT
ATOM      1  C1  DEN d   1      -1.146  -3.414  -2.931  0.00  0.00     0.130 A 
ATOM      2  C2  DEN d   1      -1.748  -2.124  -3.259  0.00  0.00    -0.031 A 
ATOM      3  C3  DEN d   1      -2.052  -1.427  -1.994  0.00  0.00     0.027 A 
ATOM      4  C4  DEN d   1      -1.648  -2.213   0.429  0.00  0.00     0.027 A 
ATOM      5  C5  DEN d   1      -1.172  -3.242   1.211  0.00  0.00    -0.003 A 
ATOM      6  C6  DEN d   1      -0.689  -4.405   0.672  0.00  0.00     0.001 A 
ATOM      7  C7  DEN d   1      -0.630  -4.549  -0.689  0.00  0.00     0.017 A 
ATOM      8  C8  DEN d   1      -1.115  -3.519  -1.483  0.00  0.00    -0.094 A 
ATOM      9  C9  DEN d   1      -1.587  -2.346  -0.920  0.00  0.00    -0.072 A 
ENDROOT
TORSDOF 0
ENDMDL
