MODEL 1
REMARK minimizedAffinity 11.5579891
REMARK minimizedRMSD -1
REMARK  0 active torsions:
REMARK  status: ('A' for Active; 'I' for Inactive)
ROOT
ATOM      1  C1  DEN d   1       4.130   2.135  -0.026  0.00  0.00     0.130 A 
ATOM      2  C2  DEN d   1       3.308   2.416   1.148  0.00  0.00    -0.031 A 
ATOM      3  C3  DEN d   1       2.049   1.656   1.017  0.00  0.00     0.027 A 
ATOM      4  C4  DEN d   1       1.297   0.075  -0.878  0.00  0.00     0.027 A 
ATOM      5  C5  DEN d   1       1.652  -0.469  -2.093  0.00  0.00    -0.003 A 
ATOM      6  C6  DEN d   1       2.832  -0.160  -2.715  0.00  0.00     0.001 A 
ATOM      7  C7  DEN d   1       3.722   0.683  -2.103  0.00  0.00     0.017 A 
ATOM      8  C8  DEN d   1       3.368   1.242  -0.881  0.00  0.00    -0.094 A 
ATOM      9  C9  DEN d   1       2.176   0.907  -0.263  0.00  0.00    -0.072 A 
ENDROOT
TORSDOF 0
ENDMDL
