MODEL 1
REMARK minimizedAffinity 4.84626722
REMARK minimizedRMSD -1
REMARK  0 active torsions:
REMARK  status: ('A' for Active; 'I' for Inactive)
ROOT
ATOM      1  C1  DEN d   1      -2.182  -1.972  -2.137  0.00  0.00     0.130 A 
ATOM      2  C2  DEN d   1      -1.564  -2.979  -2.995  0.00  0.00    -0.031 A 
ATOM      3  C3  DEN d   1      -0.875  -3.957  -2.128  0.00  0.00     0.027 A 
ATOM      4  C4  DEN d   1      -0.712  -4.011   0.445  0.00  0.00     0.027 A 
ATOM      5  C5  DEN d   1      -1.067  -3.361   1.606  0.00  0.00    -0.003 A 
ATOM      6  C6  DEN d   1      -1.783  -2.194   1.600  0.00  0.00     0.001 A 
ATOM      7  C7  DEN d   1      -2.207  -1.664   0.410  0.00  0.00     0.017 A 
ATOM      8  C8  DEN d   1      -1.847  -2.310  -0.765  0.00  0.00    -0.094 A 
ATOM      9  C9  DEN d   1      -1.133  -3.495  -0.738  0.00  0.00    -0.072 A 
ENDROOT
TORSDOF 0
ENDMDL
