MODEL 1
REMARK minimizedAffinity 7.6441865
REMARK minimizedRMSD -1
REMARK  0 active torsions:
REMARK  status: ('A' for Active; 'I' for Inactive)
ROOT
ATOM      1  C1  DEN d   1       4.424   1.039  -2.365  0.00  0.00     0.130 A 
ATOM      2  C2  DEN d   1       3.679  -0.068  -2.958  0.00  0.00    -0.031 A 
ATOM      3  C3  DEN d   1       2.567  -0.409  -2.049  0.00  0.00     0.027 A 
ATOM      4  C4  DEN d   1       1.926   0.668   0.206  0.00  0.00     0.027 A 
ATOM      5  C5  DEN d   1       2.269   1.634   1.126  0.00  0.00    -0.003 A 
ATOM      6  C6  DEN d   1       3.365   2.440   0.965  0.00  0.00     0.001 A 
ATOM      7  C7  DEN d   1       4.132   2.325  -0.165  0.00  0.00     0.017 A 
ATOM      8  C8  DEN d   1       3.797   1.349  -1.093  0.00  0.00    -0.094 A 
ATOM      9  C9  DEN d   1       2.678   0.552  -0.918  0.00  0.00    -0.072 A 
ENDROOT
TORSDOF 0
ENDMDL
