MODEL 1
REMARK minimizedAffinity 8.75413132
REMARK minimizedRMSD -1
REMARK  0 active torsions:
REMARK  status: ('A' for Active; 'I' for Inactive)
ROOT
ATOM      1  C1  DEN d   1       3.631  -0.134  -2.548  0.00  0.00     0.130 A 
ATOM      2  C2  DEN d   1       4.854  -0.750  -3.056  0.00  0.00    -0.031 A 
ATOM      3  C3  DEN d   1       6.000   0.053  -2.585  0.00  0.00     0.027 A 
ATOM      4  C4  DEN d   1       6.000   2.177  -1.121  0.00  0.00     0.027 A 
ATOM      5  C5  DEN d   1       5.202   3.082  -0.457  0.00  0.00    -0.003 A 
ATOM      6  C6  DEN d   1       3.835   2.999  -0.471  0.00  0.00     0.001 A 
ATOM      7  C7  DEN d   1       3.225   1.962  -1.126  0.00  0.00     0.017 A 
ATOM      8  C8  DEN d   1       4.022   1.050  -1.805  0.00  0.00    -0.094 A 
ATOM      9  C9  DEN d   1       5.403   1.144  -1.768  0.00  0.00    -0.072 A 
ENDROOT
TORSDOF 0
ENDMDL
