MODEL 1
REMARK minimizedAffinity 14.5950422
REMARK minimizedRMSD -1
REMARK  0 active torsions:
REMARK  status: ('A' for Active; 'I' for Inactive)
ROOT
ATOM      1  C1  DEN d   1      -1.258  -2.816   3.943  0.00  0.00     0.130 A 
ATOM      2  C2  DEN d   1      -1.979  -1.681   4.513  0.00  0.00    -0.031 A 
ATOM      3  C3  DEN d   1      -2.414  -0.812   3.401  0.00  0.00     0.027 A 
ATOM      4  C4  DEN d   1      -2.049  -1.117   0.865  0.00  0.00     0.027 A 
ATOM      5  C5  DEN d   1      -1.484  -1.921  -0.099  0.00  0.00    -0.003 A 
ATOM      6  C6  DEN d   1      -0.780  -3.054   0.216  0.00  0.00     0.001 A 
ATOM      7  C7  DEN d   1      -0.662  -3.437   1.526  0.00  0.00     0.017 A 
ATOM      8  C8  DEN d   1      -1.223  -2.627   2.504  0.00  0.00    -0.094 A 
ATOM      9  C9  DEN d   1      -1.941  -1.493   2.165  0.00  0.00    -0.072 A 
ENDROOT
TORSDOF 0
ENDMDL
