MODEL 1
REMARK minimizedAffinity 10.398283
REMARK minimizedRMSD -1
REMARK  0 active torsions:
REMARK  status: ('A' for Active; 'I' for Inactive)
ROOT
ATOM      1  C1  DEN d   1      -1.540  -1.106   4.799  0.00  0.00     0.130 A 
ATOM      2  C2  DEN d   1      -2.086  -2.442   4.579  0.00  0.00    -0.031 A 
ATOM      3  C3  DEN d   1      -3.531  -2.401   4.882  0.00  0.00     0.027 A 
ATOM      4  C4  DEN d   1      -4.968  -0.406   5.662  0.00  0.00     0.027 A 
ATOM      5  C5  DEN d   1      -4.947   0.929   6.000  0.00  0.00    -0.003 A 
ATOM      6  C6  DEN d   1      -3.792   1.665   5.994  0.00  0.00     0.001 A 
ATOM      7  C7  DEN d   1      -2.617   1.081   5.599  0.00  0.00     0.017 A 
ATOM      8  C8  DEN d   1      -2.629  -0.266   5.264  0.00  0.00    -0.094 A 
ATOM      9  C9  DEN d   1      -3.810  -0.990   5.265  0.00  0.00    -0.072 A 
ENDROOT
TORSDOF 0
ENDMDL
