MODEL 1
REMARK minimizedAffinity 27.4143448
REMARK minimizedRMSD -1
REMARK  0 active torsions:
REMARK  status: ('A' for Active; 'I' for Inactive)
ROOT
ATOM      1  C1  DEN d   1       3.693   2.067   4.202  0.00  0.00     0.130 A 
ATOM      2  C2  DEN d   1       5.079   2.075   3.742  0.00  0.00    -0.031 A 
ATOM      3  C3  DEN d   1       5.683   3.364   4.136  0.00  0.00     0.027 A 
ATOM      4  C4  DEN d   1       4.614   5.334   5.411  0.00  0.00     0.027 A 
ATOM      5  C5  DEN d   1       3.457   5.795   5.999  0.00  0.00    -0.003 A 
ATOM      6  C6  DEN d   1       2.298   5.066   6.000  0.00  0.00     0.001 A 
ATOM      7  C7  DEN d   1       2.282   3.816   5.440  0.00  0.00     0.017 A 
ATOM      8  C8  DEN d   1       3.443   3.348   4.838  0.00  0.00    -0.094 A 
ATOM      9  C9  DEN d   1       4.608   4.095   4.859  0.00  0.00    -0.072 A 
ENDROOT
TORSDOF 0
ENDMDL
