MODEL 1
REMARK minimizedAffinity 13.9799414
REMARK minimizedRMSD -1
REMARK  0 active torsions:
REMARK  status: ('A' for Active; 'I' for Inactive)
ROOT
ATOM      1  C1  DEN d   1      -0.131  -5.242   0.379  0.00  0.00     0.130 A 
ATOM      2  C2  DEN d   1      -0.390  -5.945   1.632  0.00  0.00    -0.031 A 
ATOM      3  C3  DEN d   1      -1.287  -5.104   2.450  0.00  0.00     0.027 A 
ATOM      4  C4  DEN d   1      -2.298  -2.796   1.898  0.00  0.00     0.027 A 
ATOM      5  C5  DEN d   1      -2.356  -1.792   0.956  0.00  0.00    -0.003 A 
ATOM      6  C6  DEN d   1      -1.656  -1.852  -0.219  0.00  0.00     0.001 A 
ATOM      7  C7  DEN d   1      -0.901  -2.959  -0.504  0.00  0.00     0.017 A 
ATOM      8  C8  DEN d   1      -0.832  -3.972   0.443  0.00  0.00    -0.094 A 
ATOM      9  C9  DEN d   1      -1.557  -3.898   1.620  0.00  0.00    -0.072 A 
ENDROOT
TORSDOF 0
ENDMDL
