MODEL 1
REMARK minimizedAffinity 20.4005413
REMARK minimizedRMSD -1
REMARK  0 active torsions:
REMARK  status: ('A' for Active; 'I' for Inactive)
ROOT
ATOM      1  C1  DEN d   1       4.774   1.130  -3.434  0.00  0.00     0.130 A 
ATOM      2  C2  DEN d   1       5.999   1.926  -3.427  0.00  0.00    -0.031 A 
ATOM      3  C3  DEN d   1       5.995   2.758  -2.207  0.00  0.00     0.027 A 
ATOM      4  C4  DEN d   1       4.225   2.885  -0.335  0.00  0.00     0.027 A 
ATOM      5  C5  DEN d   1       3.007   2.405   0.092  0.00  0.00    -0.003 A 
ATOM      6  C6  DEN d   1       2.282   1.500  -0.636  0.00  0.00     0.001 A 
ATOM      7  C7  DEN d   1       2.791   1.011  -1.811  0.00  0.00     0.017 A 
ATOM      8  C8  DEN d   1       4.016   1.496  -2.252  0.00  0.00    -0.094 A 
ATOM      9  C9  DEN d   1       4.738   2.402  -1.495  0.00  0.00    -0.072 A 
ENDROOT
TORSDOF 0
ENDMDL
