MODEL 1
REMARK minimizedAffinity 20.1952782
REMARK minimizedRMSD -1
REMARK  0 active torsions:
REMARK  status: ('A' for Active; 'I' for Inactive)
ROOT
ATOM      1  C1  DEN d   1       4.606   2.237  -0.014  0.00  0.00     0.130 A 
ATOM      2  C2  DEN d   1       3.190   2.590  -0.073  0.00  0.00    -0.031 A 
ATOM      3  C3  DEN d   1       2.550   2.119   1.171  0.00  0.00     0.027 A 
ATOM      4  C4  DEN d   1       3.609   0.889   3.176  0.00  0.00     0.027 A 
ATOM      5  C5  DEN d   1       4.778   0.360   3.678  0.00  0.00    -0.003 A 
ATOM      6  C6  DEN d   1       5.954   0.390   2.977  0.00  0.00     0.001 A 
ATOM      7  C7  DEN d   1       5.998   1.001   1.751  0.00  0.00     0.017 A 
ATOM      8  C8  DEN d   1       4.822   1.529   1.234  0.00  0.00    -0.094 A 
ATOM      9  C9  DEN d   1       3.646   1.500   1.964  0.00  0.00    -0.072 A 
ENDROOT
TORSDOF 0
ENDMDL
