MODEL 1
REMARK minimizedAffinity 18.5021915
REMARK minimizedRMSD -1
REMARK  0 active torsions:
REMARK  status: ('A' for Active; 'I' for Inactive)
ROOT
ATOM      1  C1  DEN d   1      -0.507  -4.837   0.990  0.00  0.00     0.130 A 
ATOM      2  C2  DEN d   1      -0.201  -5.067  -0.420  0.00  0.00    -0.031 A 
ATOM      3  C3  DEN d   1      -0.529  -3.835  -1.165  0.00  0.00     0.027 A 
ATOM      4  C4  DEN d   1      -1.470  -1.604  -0.277  0.00  0.00     0.027 A 
ATOM      5  C5  DEN d   1      -1.901  -0.936   0.848  0.00  0.00    -0.003 A 
ATOM      6  C6  DEN d   1      -1.929  -1.527   2.083  0.00  0.00     0.001 A 
ATOM      7  C7  DEN d   1      -1.476  -2.812   2.231  0.00  0.00     0.017 A 
ATOM      8  C8  DEN d   1      -1.047  -3.494   1.100  0.00  0.00    -0.094 A 
ATOM      9  C9  DEN d   1      -1.015  -2.875  -0.138  0.00  0.00    -0.072 A 
ENDROOT
TORSDOF 0
ENDMDL
