MODEL 1
REMARK minimizedAffinity 16.1411514
REMARK minimizedRMSD -1
REMARK  0 active torsions:
REMARK  status: ('A' for Active; 'I' for Inactive)
ROOT
ATOM      1  C1  DEN d   1       3.852   5.148   0.007  0.00  0.00     0.130 A 
ATOM      2  C2  DEN d   1       4.959   5.719  -0.754  0.00  0.00    -0.031 A 
ATOM      3  C3  DEN d   1       5.999   4.680  -0.896  0.00  0.00     0.027 A 
ATOM      4  C4  DEN d   1       6.000   2.254  -0.019  0.00  0.00     0.027 A 
ATOM      5  C5  DEN d   1       5.283   1.318   0.692  0.00  0.00    -0.003 A 
ATOM      6  C6  DEN d   1       4.064   1.600   1.250  0.00  0.00     0.001 A 
ATOM      7  C7  DEN d   1       3.504   2.837   1.066  0.00  0.00     0.017 A 
ATOM      8  C8  DEN d   1       4.224   3.789   0.356  0.00  0.00    -0.094 A 
ATOM      9  C9  DEN d   1       5.449   3.480  -0.210  0.00  0.00    -0.072 A 
ENDROOT
TORSDOF 0
ENDMDL
