MODEL 1
REMARK minimizedAffinity 13.2150574
REMARK minimizedRMSD -1
REMARK  0 active torsions:
REMARK  status: ('A' for Active; 'I' for Inactive)
ROOT
ATOM      1  C1  DEN d   1      -1.814  -1.178  -2.917  0.00  0.00     0.130 A 
ATOM      2  C2  DEN d   1      -1.021  -1.997  -3.830  0.00  0.00    -0.031 A 
ATOM      3  C3  DEN d   1      -0.479  -3.138  -3.065  0.00  0.00     0.027 A 
ATOM      4  C4  DEN d   1      -0.793  -3.716  -0.572  0.00  0.00     0.027 A 
ATOM      5  C5  DEN d   1      -1.373  -3.311   0.610  0.00  0.00    -0.003 A 
ATOM      6  C6  DEN d   1      -2.107  -2.159   0.706  0.00  0.00     0.001 A 
ATOM      7  C7  DEN d   1      -2.317  -1.393  -0.411  0.00  0.00     0.017 A 
ATOM      8  C8  DEN d   1      -1.729  -1.791  -1.604  0.00  0.00    -0.094 A 
ATOM      9  C9  DEN d   1      -1.001  -2.966  -1.683  0.00  0.00    -0.072 A 
ENDROOT
TORSDOF 0
ENDMDL
