MODEL 1
REMARK minimizedAffinity 11.8489628
REMARK minimizedRMSD -1
REMARK  0 active torsions:
REMARK  status: ('A' for Active; 'I' for Inactive)
ROOT
ATOM      1  C1  DEN d   1       3.431   0.819  -1.936  0.00  0.00     0.130 A 
ATOM      2  C2  DEN d   1       2.422  -0.225  -1.775  0.00  0.00    -0.031 A 
ATOM      3  C3  DEN d   1       1.866  -0.115  -0.412  0.00  0.00     0.027 A 
ATOM      4  C4  DEN d   1       2.462   1.563   1.454  0.00  0.00     0.027 A 
ATOM      5  C5  DEN d   1       3.268   2.628   1.790  0.00  0.00    -0.003 A 
ATOM      6  C6  DEN d   1       4.201   3.139   0.927  0.00  0.00     0.001 A 
ATOM      7  C7  DEN d   1       4.320   2.613  -0.332  0.00  0.00     0.017 A 
ATOM      8  C8  DEN d   1       3.516   1.535  -0.676  0.00  0.00    -0.094 A 
ATOM      9  C9  DEN d   1       2.570   1.040   0.207  0.00  0.00    -0.072 A 
ENDROOT
TORSDOF 0
ENDMDL
