MODEL 1
REMARK minimizedAffinity -4.21038675
REMARK minimizedRMSD -1
REMARK  0 active torsions:
REMARK  status: ('A' for Active; 'I' for Inactive)
ROOT
ATOM      1  C2' OXE d   1       0.517   0.393  -0.799  0.00  0.00     0.078 C 
ATOM      2  C1' OXE d   1       1.724   0.061   1.713  0.00  0.00     0.078 C 
ATOM      3  C1  OXE d   1       0.218   0.028   1.647  0.00  0.00    -0.078 A 
ATOM      4  C2  OXE d   1      -0.366   0.238   0.420  0.00  0.00    -0.078 A 
ATOM      5  C3  OXE d   1      -1.750   0.163   0.294  0.00  0.00     0.003 A 
ATOM      6  C4  OXE d   1      -2.559   0.029   1.429  0.00  0.00    -0.002 A 
ATOM      7  C5  OXE d   1      -1.986  -0.146   2.693  0.00  0.00    -0.002 A 
ATOM      8  C6  OXE d   1      -0.601  -0.192   2.813  0.00  0.00     0.003 A 
ENDROOT
TORSDOF 0
ENDMDL
