MODEL 1
REMARK minimizedAffinity -5.03500509
REMARK minimizedRMSD -1
REMARK  0 active torsions:
REMARK  status: ('A' for Active; 'I' for Inactive)
ROOT
ATOM      1  C2' OXE d   1      -1.230   1.224  -1.062  0.00  0.00     0.078 C 
ATOM      2  C1' OXE d   1      -2.962   0.837   1.113  0.00  0.00     0.078 C 
ATOM      3  C1  OXE d   1      -1.487   0.627   1.343  0.00  0.00    -0.078 A 
ATOM      4  C2  OXE d   1      -0.651   0.773   0.261  0.00  0.00    -0.078 A 
ATOM      5  C3  OXE d   1       0.724   0.644   0.430  0.00  0.00     0.003 A 
ATOM      6  C4  OXE d   1       1.251   0.216   1.655  0.00  0.00    -0.002 A 
ATOM      7  C5  OXE d   1       0.414   0.023   2.759  0.00  0.00    -0.002 A 
ATOM      8  C6  OXE d   1      -0.950   0.265   2.631  0.00  0.00     0.003 A 
ENDROOT
TORSDOF 0
ENDMDL
