MODEL 1
REMARK minimizedAffinity -4.09963465
REMARK minimizedRMSD -1
REMARK  0 active torsions:
REMARK  status: ('A' for Active; 'I' for Inactive)
ROOT
ATOM      1  C2' OXE d   1      -0.338   0.380  -1.531  0.00  0.00     0.078 C 
ATOM      2  C1' OXE d   1      -0.404  -1.808  -3.288  0.00  0.00     0.078 C 
ATOM      3  C1  OXE d   1       0.942  -1.220  -2.947  0.00  0.00    -0.078 A 
ATOM      4  C2  OXE d   1       0.962  -0.120  -2.124  0.00  0.00    -0.078 A 
ATOM      5  C3  OXE d   1       2.180   0.428  -1.734  0.00  0.00     0.003 A 
ATOM      6  C4  OXE d   1       3.377  -0.034  -2.295  0.00  0.00    -0.002 A 
ATOM      7  C5  OXE d   1       3.376  -1.127  -3.167  0.00  0.00    -0.002 A 
ATOM      8  C6  OXE d   1       2.174  -1.757  -3.470  0.00  0.00     0.003 A 
ENDROOT
TORSDOF 0
ENDMDL
