MODEL 1
REMARK minimizedAffinity -5.51840782
REMARK minimizedRMSD -1
REMARK  0 active torsions:
REMARK  status: ('A' for Active; 'I' for Inactive)
ROOT
ATOM      1  C2' OXE d   1      -0.697   0.290  -0.642  0.00  0.00     0.078 C 
ATOM      2  C1' OXE d   1      -3.207   0.372   0.612  0.00  0.00     0.078 C 
ATOM      3  C1  OXE d   1      -2.022  -0.064   1.437  0.00  0.00    -0.078 A 
ATOM      4  C2  OXE d   1      -0.806  -0.146   0.803  0.00  0.00    -0.078 A 
ATOM      5  C3  OXE d   1       0.330  -0.490   1.531  0.00  0.00     0.003 A 
ATOM      6  C4  OXE d   1       0.219  -0.902   2.865  0.00  0.00    -0.002 A 
ATOM      7  C5  OXE d   1      -1.017  -0.864   3.519  0.00  0.00    -0.002 A 
ATOM      8  C6  OXE d   1      -2.138  -0.407   2.833  0.00  0.00     0.003 A 
ENDROOT
TORSDOF 0
ENDMDL
