MODEL 1
REMARK minimizedAffinity -5.23574448
REMARK minimizedRMSD -1
REMARK  0 active torsions:
REMARK  status: ('A' for Active; 'I' for Inactive)
ROOT
ATOM      1  C2' OXE d   1       0.307   0.713  -1.229  0.00  0.00     0.078 C 
ATOM      2  C1' OXE d   1       2.315   1.180   0.676  0.00  0.00     0.078 C 
ATOM      3  C1  OXE d   1       1.038   0.529   1.145  0.00  0.00    -0.078 A 
ATOM      4  C2  OXE d   1       0.042   0.347   0.216  0.00  0.00    -0.078 A 
ATOM      5  C3  OXE d   1      -1.135  -0.298   0.584  0.00  0.00     0.003 A 
ATOM      6  C4  OXE d   1      -1.375  -0.624   1.924  0.00  0.00    -0.002 A 
ATOM      7  C5  OXE d   1      -0.391  -0.410   2.894  0.00  0.00    -0.002 A 
ATOM      8  C6  OXE d   1       0.835   0.125   2.515  0.00  0.00     0.003 A 
ENDROOT
TORSDOF 0
ENDMDL
