MODEL 1
REMARK minimizedAffinity -3.22424531
REMARK minimizedRMSD -1
REMARK  0 active torsions:
REMARK  status: ('A' for Active; 'I' for Inactive)
ROOT
ATOM      1  C2' OXE d   1      -2.482   0.082   0.683  0.00  0.00     0.078 C 
ATOM      2  C1' OXE d   1      -0.543  -0.365   2.662  0.00  0.00     0.078 C 
ATOM      3  C1  OXE d   1      -0.073  -0.224   1.236  0.00  0.00    -0.078 A 
ATOM      4  C2  OXE d   1      -1.033  -0.052   0.268  0.00  0.00    -0.078 A 
ATOM      5  C3  OXE d   1      -0.650   0.138  -1.057  0.00  0.00     0.003 A 
ATOM      6  C4  OXE d   1       0.692   0.003  -1.433  0.00  0.00    -0.002 A 
ATOM      7  C5  OXE d   1       1.682  -0.212  -0.468  0.00  0.00    -0.002 A 
ATOM      8  C6  OXE d   1       1.321  -0.285   0.873  0.00  0.00     0.003 A 
ENDROOT
TORSDOF 0
ENDMDL
