MODEL 1
REMARK minimizedAffinity -5.24854946
REMARK minimizedRMSD -1
REMARK  0 active torsions:
REMARK  status: ('A' for Active; 'I' for Inactive)
ROOT
ATOM      1  C2' OXE d   1      -3.091   0.282   1.096  0.00  0.00     0.078 C 
ATOM      2  C1' OXE d   1      -0.969  -0.113   2.890  0.00  0.00     0.078 C 
ATOM      3  C1  OXE d   1      -0.631   0.080   1.433  0.00  0.00    -0.078 A 
ATOM      4  C2  OXE d   1      -1.678   0.226   0.555  0.00  0.00    -0.078 A 
ATOM      5  C3  OXE d   1      -1.421   0.461  -0.792  0.00  0.00     0.003 A 
ATOM      6  C4  OXE d   1      -0.112   0.398  -1.286  0.00  0.00    -0.002 A 
ATOM      7  C5  OXE d   1       0.967   0.210  -0.415  0.00  0.00    -0.002 A 
ATOM      8  C6  OXE d   1       0.728   0.093   0.950  0.00  0.00     0.003 A 
ENDROOT
TORSDOF 0
ENDMDL
