MODEL 1
REMARK minimizedAffinity -2.12948656
REMARK minimizedRMSD -1
REMARK  0 active torsions:
REMARK  status: ('A' for Active; 'I' for Inactive)
ROOT
ATOM      1  C2' OXE d   1       0.377  -0.451   3.209  0.00  0.00     0.078 C 
ATOM      2  C1' OXE d   1      -2.095   0.268   2.090  0.00  0.00     0.078 C 
ATOM      3  C1  OXE d   1      -0.923   0.098   1.156  0.00  0.00    -0.078 A 
ATOM      4  C2  OXE d   1       0.294  -0.208   1.717  0.00  0.00    -0.078 A 
ATOM      5  C3  OXE d   1       1.395  -0.430   0.896  0.00  0.00     0.003 A 
ATOM      6  C4  OXE d   1       1.312  -0.194  -0.481  0.00  0.00    -0.002 A 
ATOM      7  C5  OXE d   1       0.092   0.157  -1.069  0.00  0.00    -0.002 A 
ATOM      8  C6  OXE d   1      -1.042   0.265  -0.271  0.00  0.00     0.003 A 
ENDROOT
TORSDOF 0
ENDMDL
