MODEL 1
REMARK minimizedAffinity -3.9037621
REMARK minimizedRMSD -1
REMARK  0 active torsions:
REMARK  status: ('A' for Active; 'I' for Inactive)
ROOT
ATOM      1  C2' OXE d   1      -2.082  -0.076   0.608  0.00  0.00     0.078 C 
ATOM      2  C1' OXE d   1       0.125   0.503  -1.027  0.00  0.00     0.078 C 
ATOM      3  C1  OXE d   1       0.306   0.621   0.465  0.00  0.00    -0.078 A 
ATOM      4  C2  OXE d   1      -0.793   0.382   1.256  0.00  0.00    -0.078 A 
ATOM      5  C3  OXE d   1      -0.667   0.424   2.642  0.00  0.00     0.003 A 
ATOM      6  C4  OXE d   1       0.526   0.857   3.232  0.00  0.00    -0.002 A 
ATOM      7  C5  OXE d   1       1.645   1.144   2.444  0.00  0.00    -0.002 A 
ATOM      8  C6  OXE d   1       1.565   0.991   1.064  0.00  0.00     0.003 A 
ENDROOT
TORSDOF 0
ENDMDL
