MODEL 1
REMARK minimizedAffinity -4.46696997
REMARK minimizedRMSD -1
REMARK  0 active torsions:
REMARK  status: ('A' for Active; 'I' for Inactive)
ROOT
ATOM      1  C2' OXE d   1       0.338   0.146  -1.120  0.00  0.00     0.078 C 
ATOM      2  C1' OXE d   1       2.278   0.810   0.798  0.00  0.00     0.078 C 
ATOM      3  C1  OXE d   1       0.960   0.265   1.290  0.00  0.00    -0.078 A 
ATOM      4  C2  OXE d   1       0.000  -0.014   0.347  0.00  0.00    -0.078 A 
ATOM      5  C3  OXE d   1      -1.213  -0.570   0.742  0.00  0.00     0.003 A 
ATOM      6  C4  OXE d   1      -1.522  -0.705   2.101  0.00  0.00    -0.002 A 
ATOM      7  C5  OXE d   1      -0.573  -0.390   3.079  0.00  0.00    -0.002 A 
ATOM      8  C6  OXE d   1       0.686   0.055   2.690  0.00  0.00     0.003 A 
ENDROOT
TORSDOF 0
ENDMDL
