MODEL 1
REMARK minimizedAffinity -5.14442444
REMARK minimizedRMSD -1
REMARK  0 active torsions:
REMARK  status: ('A' for Active; 'I' for Inactive)
ROOT
ATOM      1  C2' OXE d   1      -0.044   0.061  -0.489  0.00  0.00     0.078 C 
ATOM      2  C1' OXE d   1       1.685  -0.545   1.637  0.00  0.00     0.078 C 
ATOM      3  C1  OXE d   1       0.211  -0.446   1.937  0.00  0.00    -0.078 A 
ATOM      4  C2  OXE d   1      -0.623  -0.103   0.900  0.00  0.00    -0.078 A 
ATOM      5  C3  OXE d   1      -1.999  -0.051   1.110  0.00  0.00     0.003 A 
ATOM      6  C4  OXE d   1      -2.525  -0.194   2.399  0.00  0.00    -0.002 A 
ATOM      7  C5  OXE d   1      -1.689  -0.505   3.477  0.00  0.00    -0.002 A 
ATOM      8  C6  OXE d   1      -0.327  -0.676   3.255  0.00  0.00     0.003 A 
ENDROOT
TORSDOF 0
ENDMDL
