MODEL 1
REMARK minimizedAffinity -3.27253056
REMARK minimizedRMSD -1
REMARK  0 active torsions:
REMARK  status: ('A' for Active; 'I' for Inactive)
ROOT
ATOM      1  C2' OXE d   1       2.640   2.331   0.795  0.00  0.00     0.078 C 
ATOM      2  C1' OXE d   1       1.477   0.399   2.467  0.00  0.00     0.078 C 
ATOM      3  C1  OXE d   1       1.174   0.326   0.991  0.00  0.00    -0.078 A 
ATOM      4  C2  OXE d   1       1.710   1.303   0.187  0.00  0.00    -0.078 A 
ATOM      5  C3  OXE d   1       1.507   1.252  -1.189  0.00  0.00     0.003 A 
ATOM      6  C4  OXE d   1       0.638   0.304  -1.743  0.00  0.00    -0.002 A 
ATOM      7  C5  OXE d   1       0.051  -0.677  -0.936  0.00  0.00    -0.002 A 
ATOM      8  C6  OXE d   1       0.342  -0.705   0.423  0.00  0.00     0.003 A 
ENDROOT
TORSDOF 0
ENDMDL
