MODEL 1
REMARK minimizedAffinity -0.514085829
REMARK minimizedRMSD -1
REMARK  0 active torsions:
REMARK  status: ('A' for Active; 'I' for Inactive)
ROOT
ATOM      1  C2' OXE d   1      -1.445   0.762   3.696  0.00  0.00     0.078 C 
ATOM      2  C1' OXE d   1       0.893   2.253   4.132  0.00  0.00     0.078 C 
ATOM      3  C1  OXE d   1       0.786   1.473   2.845  0.00  0.00    -0.078 A 
ATOM      4  C2  OXE d   1      -0.341   0.709   2.661  0.00  0.00    -0.078 A 
ATOM      5  C3  OXE d   1      -0.516   0.014   1.468  0.00  0.00     0.003 A 
ATOM      6  C4  OXE d   1       0.514  -0.038   0.520  0.00  0.00    -0.002 A 
ATOM      7  C5  OXE d   1       1.687   0.702   0.706  0.00  0.00    -0.002 A 
ATOM      8  C6  OXE d   1       1.821   1.494   1.841  0.00  0.00     0.003 A 
ENDROOT
TORSDOF 0
ENDMDL
