MODEL 1
REMARK minimizedAffinity -4.79066372
REMARK minimizedRMSD -1
REMARK  0 active torsions:
REMARK  status: ('A' for Active; 'I' for Inactive)
ROOT
ATOM      1  C2' OXE d   1       0.781  -0.365   2.720  0.00  0.00     0.078 C 
ATOM      2  C1' OXE d   1       0.228  -0.076  -0.017  0.00  0.00     0.078 C 
ATOM      3  C1  OXE d   1      -0.924   0.041   0.950  0.00  0.00    -0.078 A 
ATOM      4  C2  OXE d   1      -0.651  -0.148   2.283  0.00  0.00    -0.078 A 
ATOM      5  C3  OXE d   1      -1.668   0.003   3.222  0.00  0.00     0.003 A 
ATOM      6  C4  OXE d   1      -2.992   0.194   2.810  0.00  0.00    -0.002 A 
ATOM      7  C5  OXE d   1      -3.297   0.349   1.454  0.00  0.00    -0.002 A 
ATOM      8  C6  OXE d   1      -2.271   0.318   0.516  0.00  0.00     0.003 A 
ENDROOT
TORSDOF 0
ENDMDL
