MODEL 1
REMARK minimizedAffinity 1.00042915
REMARK minimizedRMSD -1
REMARK  0 active torsions:
REMARK  status: ('A' for Active; 'I' for Inactive)
ROOT
ATOM      1  C   UNL d   1       5.657   5.999   2.087  0.00  0.00     0.020 A 
ATOM      2  C1  UNL d   1       5.922   4.823   1.386  0.00  0.00     0.020 A 
ATOM      3  C2  UNL d   1       5.326   3.624   1.785  0.00  0.00     0.034 A 
ATOM      4  C3  UNL d   1       4.463   3.599   2.886  0.00  0.00     0.017 A 
ATOM      5  C4  UNL d   1       4.199   4.780   3.589  0.00  0.00     0.017 A 
ATOM      6  C5  UNL d   1       4.798   5.978   3.186  0.00  0.00     0.034 A 
ATOM      7 Cl   UNL d   1       3.145   4.828   4.958  0.00  0.00    -0.070 Cl
ATOM      8 Cl1  UNL d   1       3.761   2.082   3.323  0.00  0.00    -0.070 Cl
ENDROOT
TORSDOF 0
ENDMDL
