MODEL 1
REMARK minimizedAffinity 14.7651358
REMARK minimizedRMSD -1
REMARK  0 active torsions:
REMARK  status: ('A' for Active; 'I' for Inactive)
ROOT
ATOM      1  C   UNL d   1       0.332  -0.922   1.642  0.00  0.00     0.020 A 
ATOM      2  C1  UNL d   1       0.614   0.424   1.874  0.00  0.00     0.020 A 
ATOM      3  C2  UNL d   1       1.527   0.785   2.867  0.00  0.00     0.034 A 
ATOM      4  C3  UNL d   1       2.162  -0.201   3.632  0.00  0.00     0.017 A 
ATOM      5  C4  UNL d   1       1.878  -1.551   3.398  0.00  0.00     0.017 A 
ATOM      6  C5  UNL d   1       0.963  -1.907   2.403  0.00  0.00     0.034 A 
ATOM      7 Cl   UNL d   1       2.622  -2.824   4.300  0.00  0.00    -0.070 Cl
ATOM      8 Cl1  UNL d   1       3.281   0.317   4.842  0.00  0.00    -0.070 Cl
ENDROOT
TORSDOF 0
ENDMDL
