MODEL 1
REMARK minimizedAffinity 8.93748569
REMARK minimizedRMSD -1
REMARK  0 active torsions:
REMARK  status: ('A' for Active; 'I' for Inactive)
ROOT
ATOM      1  C   UNL d   1      -0.613   0.158   2.486  0.00  0.00     0.020 A 
ATOM      2  C1  UNL d   1      -0.938  -1.161   2.798  0.00  0.00     0.020 A 
ATOM      3  C2  UNL d   1       0.000  -1.981   3.429  0.00  0.00     0.034 A 
ATOM      4  C3  UNL d   1       1.268  -1.483   3.748  0.00  0.00     0.017 A 
ATOM      5  C4  UNL d   1       1.594  -0.159   3.434  0.00  0.00     0.017 A 
ATOM      6  C5  UNL d   1       0.651   0.658   2.803  0.00  0.00     0.034 A 
ATOM      7 Cl   UNL d   1       3.138   0.527   3.797  0.00  0.00    -0.070 Cl
ATOM      8 Cl1  UNL d   1       2.379  -2.553   4.527  0.00  0.00    -0.070 Cl
ENDROOT
TORSDOF 0
ENDMDL
