MODEL 1
REMARK minimizedAffinity 16.1381245
REMARK minimizedRMSD -1
REMARK  0 active torsions:
REMARK  status: ('A' for Active; 'I' for Inactive)
ROOT
ATOM      1  C   UNL d   1      -0.848  -1.506  -1.574  0.00  0.00     0.020 A 
ATOM      2  C1  UNL d   1      -1.829  -1.824  -2.513  0.00  0.00     0.020 A 
ATOM      3  C2  UNL d   1      -1.578  -1.640  -3.874  0.00  0.00     0.034 A 
ATOM      4  C3  UNL d   1      -0.343  -1.136  -4.301  0.00  0.00     0.017 A 
ATOM      5  C4  UNL d   1       0.640  -0.818  -3.357  0.00  0.00     0.017 A 
ATOM      6  C5  UNL d   1       0.384  -1.004  -1.996  0.00  0.00     0.034 A 
ATOM      7 Cl   UNL d   1       2.187  -0.192  -3.807  0.00  0.00    -0.070 Cl
ATOM      8 Cl1  UNL d   1      -0.102  -0.934  -6.000  0.00  0.00    -0.070 Cl
ENDROOT
TORSDOF 0
ENDMDL
