MODEL 1
REMARK minimizedAffinity -2.22695923
REMARK minimizedRMSD -1
REMARK  1 active torsions:
REMARK  status: ('A' for Active; 'I' for Inactive)
REMARK    1  A    between atoms: C1_2  and  C2_3 
ROOT
ATOM      1  C2  UNL d   1       5.402   1.368   4.925  0.00  0.00    -0.073 A 
ATOM      2  C3  UNL d   1       5.707   0.954   3.623  0.00  0.00    -0.002 A 
ATOM      3  C4  UNL d   1       6.000   1.895   2.635  0.00  0.00     0.004 A 
ATOM      4  C5  UNL d   1       5.998   3.256   2.939  0.00  0.00    -0.004 A 
ATOM      5  C6  UNL d   1       5.708   3.688   4.237  0.00  0.00    -0.075 A 
ATOM      6  C7  UNL d   1       5.699   5.149   4.580  0.00  0.00     0.076 C 
ATOM      7  C8  UNL d   1       5.411   2.738   5.223  0.00  0.00     0.001 A 
ENDROOT
BRANCH   1   8
ATOM      8  C1  UNL d   1       5.090   0.355   5.996  0.00  0.00     0.053 C 
ATOM      9  C   UNL d   1       5.974  -0.878   5.890  0.00  0.00     0.018 C 
ENDBRANCH   1   8
TORSDOF 1
ENDMDL
