MODEL 1
REMARK minimizedAffinity 3.63811636
REMARK minimizedRMSD -1
REMARK  1 active torsions:
REMARK  status: ('A' for Active; 'I' for Inactive)
REMARK    1  A    between atoms: C1_2  and  C2_3 
ROOT
ATOM      1  C2  UNL d   1       5.894   0.714   3.433  0.00  0.00    -0.073 A 
ATOM      2  C3  UNL d   1       5.925   1.536   4.566  0.00  0.00    -0.002 A 
ATOM      3  C4  UNL d   1       5.972   0.975   5.842  0.00  0.00     0.004 A 
ATOM      4  C5  UNL d   1       5.995  -0.411   6.000  0.00  0.00    -0.004 A 
ATOM      5  C6  UNL d   1       5.977  -1.249   4.880  0.00  0.00    -0.075 A 
ATOM      6  C7  UNL d   1       5.999  -2.741   5.032  0.00  0.00     0.076 C 
ATOM      7  C8  UNL d   1       5.927  -0.678   3.601  0.00  0.00     0.001 A 
ENDROOT
BRANCH   1   8
ATOM      8  C1  UNL d   1       5.849   1.315   2.052  0.00  0.00     0.053 C 
ATOM      9  C   UNL d   1       4.537   1.020   1.343  0.00  0.00     0.018 C 
ENDBRANCH   1   8
TORSDOF 1
ENDMDL
