MODEL 1
REMARK minimizedAffinity -3.53836083
REMARK minimizedRMSD -1
REMARK  1 active torsions:
REMARK  status: ('A' for Active; 'I' for Inactive)
REMARK    1  A    between atoms: C1_2  and  C2_3 
ROOT
ATOM      1  C2  UNL d   1       5.978   1.535   4.798  0.00  0.00    -0.073 A 
ATOM      2  C3  UNL d   1       6.000   1.003   3.504  0.00  0.00    -0.002 A 
ATOM      3  C4  UNL d   1       6.000   1.849   2.394  0.00  0.00     0.004 A 
ATOM      4  C5  UNL d   1       5.986   3.233   2.567  0.00  0.00    -0.004 A 
ATOM      5  C6  UNL d   1       5.976   3.784   3.852  0.00  0.00    -0.075 A 
ATOM      6  C7  UNL d   1       5.959   5.270   4.055  0.00  0.00     0.076 C 
ATOM      7  C8  UNL d   1       5.974   2.928   4.962  0.00  0.00     0.001 A 
ENDROOT
BRANCH   1   8
ATOM      8  C1  UNL d   1       5.985   0.625   6.000  0.00  0.00     0.053 C 
ATOM      9  C   UNL d   1       5.382  -0.735   5.688  0.00  0.00     0.018 C 
ENDBRANCH   1   8
TORSDOF 1
ENDMDL
