MODEL 1
REMARK minimizedAffinity -2.08171821
REMARK minimizedRMSD -1
REMARK  1 active torsions:
REMARK  status: ('A' for Active; 'I' for Inactive)
REMARK    1  A    between atoms: C1_2  and  C2_3 
ROOT
ATOM      1  C2  UNL d   1       5.999   3.194   3.387  0.00  0.00    -0.073 A 
ATOM      2  C3  UNL d   1       5.993   4.043   4.500  0.00  0.00    -0.002 A 
ATOM      3  C4  UNL d   1       5.993   5.428   4.329  0.00  0.00     0.004 A 
ATOM      4  C5  UNL d   1       5.992   5.978   3.047  0.00  0.00    -0.004 A 
ATOM      5  C6  UNL d   1       5.987   5.145   1.923  0.00  0.00    -0.075 A 
ATOM      6  C7  UNL d   1       5.988   5.721   0.537  0.00  0.00     0.076 C 
ATOM      7  C8  UNL d   1       5.990   3.756   2.102  0.00  0.00     0.001 A 
ENDROOT
BRANCH   1   8
ATOM      8  C1  UNL d   1       5.993   1.698   3.567  0.00  0.00     0.053 C 
ATOM      9  C   UNL d   1       4.882   1.240   4.498  0.00  0.00     0.018 C 
ENDBRANCH   1   8
TORSDOF 1
ENDMDL
