MODEL 1
REMARK minimizedAffinity 4.58576393
REMARK minimizedRMSD -1
REMARK  1 active torsions:
REMARK  status: ('A' for Active; 'I' for Inactive)
REMARK    1  A    between atoms: C1_2  and  C2_3 
ROOT
ATOM      1  C2  UNL d   1       5.984   4.833   2.521  0.00  0.00    -0.073 A 
ATOM      2  C3  UNL d   1       5.996   5.998   3.297  0.00  0.00    -0.002 A 
ATOM      3  C4  UNL d   1       5.997   5.916   4.690  0.00  0.00     0.004 A 
ATOM      4  C5  UNL d   1       5.993   4.672   5.321  0.00  0.00    -0.004 A 
ATOM      5  C6  UNL d   1       5.992   3.497   4.562  0.00  0.00    -0.075 A 
ATOM      6  C7  UNL d   1       5.985   2.151   5.225  0.00  0.00     0.076 C 
ATOM      7  C8  UNL d   1       5.989   3.587   3.164  0.00  0.00     0.001 A 
ENDROOT
BRANCH   1   8
ATOM      8  C1  UNL d   1       5.989   4.916   1.016  0.00  0.00     0.053 C 
ATOM      9  C   UNL d   1       4.998   5.946   0.498  0.00  0.00     0.018 C 
ENDBRANCH   1   8
TORSDOF 1
ENDMDL
