MODEL 1
REMARK minimizedAffinity -1.32083189
REMARK minimizedRMSD -1
REMARK  1 active torsions:
REMARK  status: ('A' for Active; 'I' for Inactive)
REMARK    1  A    between atoms: C1_2  and  C2_3 
ROOT
ATOM      1  C2  UNL d   1       5.978   0.858   4.399  0.00  0.00    -0.073 A 
ATOM      2  C3  UNL d   1       5.971   1.337   5.714  0.00  0.00    -0.002 A 
ATOM      3  C4  UNL d   1       5.981   2.710   5.963  0.00  0.00     0.004 A 
ATOM      4  C5  UNL d   1       5.991   3.616   4.903  0.00  0.00    -0.004 A 
ATOM      5  C6  UNL d   1       5.986   3.157   3.582  0.00  0.00    -0.075 A 
ATOM      6  C7  UNL d   1       5.999   4.119   2.431  0.00  0.00     0.076 C 
ATOM      7  C8  UNL d   1       5.979   1.776   3.340  0.00  0.00     0.001 A 
ENDROOT
BRANCH   1   8
ATOM      8  C1  UNL d   1       5.961  -0.624   4.124  0.00  0.00     0.053 C 
ATOM      9  C   UNL d   1       5.913  -1.441   5.406  0.00  0.00     0.018 C 
ENDBRANCH   1   8
TORSDOF 1
ENDMDL
