MODEL 1
REMARK minimizedAffinity 1.30545104
REMARK minimizedRMSD -1
REMARK  1 active torsions:
REMARK  status: ('A' for Active; 'I' for Inactive)
REMARK    1  A    between atoms: C1_2  and  C2_3 
ROOT
ATOM      1  C2  UNL d   1       5.818   2.615   4.056  0.00  0.00    -0.073 A 
ATOM      2  C3  UNL d   1       5.996   3.114   5.352  0.00  0.00    -0.002 A 
ATOM      3  C4  UNL d   1       5.966   4.489   5.588  0.00  0.00     0.004 A 
ATOM      4  C5  UNL d   1       5.751   5.378   4.535  0.00  0.00    -0.004 A 
ATOM      5  C6  UNL d   1       5.559   4.898   3.235  0.00  0.00    -0.075 A 
ATOM      6  C7  UNL d   1       5.328   5.841   2.091  0.00  0.00     0.076 C 
ATOM      7  C8  UNL d   1       5.593   3.516   3.006  0.00  0.00     0.001 A 
ENDROOT
BRANCH   1   8
ATOM      8  C1  UNL d   1       5.844   1.131   3.798  0.00  0.00     0.053 C 
ATOM      9  C   UNL d   1       5.124   0.350   4.886  0.00  0.00     0.018 C 
ENDBRANCH   1   8
TORSDOF 1
ENDMDL
