MODEL 1
REMARK minimizedAffinity 2.45527291
REMARK minimizedRMSD -1
REMARK  1 active torsions:
REMARK  status: ('A' for Active; 'I' for Inactive)
REMARK    1  A    between atoms: C1_2  and  C2_3 
ROOT
ATOM      1  C2  UNL d   1       5.027   1.261   3.527  0.00  0.00    -0.073 A 
ATOM      2  C3  UNL d   1       5.509   1.823   4.714  0.00  0.00    -0.002 A 
ATOM      3  C4  UNL d   1       5.967   1.004   5.748  0.00  0.00     0.004 A 
ATOM      4  C5  UNL d   1       5.953  -0.383   5.602  0.00  0.00    -0.004 A 
ATOM      5  C6  UNL d   1       5.487  -0.964   4.418  0.00  0.00    -0.075 A 
ATOM      6  C7  UNL d   1       5.464  -2.454   4.247  0.00  0.00     0.076 C 
ATOM      7  C8  UNL d   1       5.027  -0.134   3.386  0.00  0.00     0.001 A 
ENDROOT
BRANCH   1   8
ATOM      8  C1  UNL d   1       4.538   2.141   2.406  0.00  0.00     0.053 C 
ATOM      9  C   UNL d   1       4.799   3.613   2.682  0.00  0.00     0.018 C 
ENDBRANCH   1   8
TORSDOF 1
ENDMDL
