MODEL 1
REMARK minimizedAffinity 0.701631248
REMARK minimizedRMSD -1
REMARK  1 active torsions:
REMARK  status: ('A' for Active; 'I' for Inactive)
REMARK    1  A    between atoms: C1_2  and  C2_3 
ROOT
ATOM      1  C2  UNL d   1       4.219   5.237  -0.026  0.00  0.00    -0.073 A 
ATOM      2  C3  UNL d   1       4.229   3.838  -0.017  0.00  0.00    -0.002 A 
ATOM      3  C4  UNL d   1       4.545   3.143   1.152  0.00  0.00     0.004 A 
ATOM      4  C5  UNL d   1       4.847   3.838   2.322  0.00  0.00    -0.004 A 
ATOM      5  C6  UNL d   1       4.830   5.236   2.336  0.00  0.00    -0.075 A 
ATOM      6  C7  UNL d   1       5.155   5.999   3.587  0.00  0.00     0.076 C 
ATOM      7  C8  UNL d   1       4.515   5.927   1.159  0.00  0.00     0.001 A 
ENDROOT
BRANCH   1   8
ATOM      8  C1  UNL d   1       3.873   5.992  -1.283  0.00  0.00     0.053 C 
ATOM      9  C   UNL d   1       4.342   5.264  -2.533  0.00  0.00     0.018 C 
ENDBRANCH   1   8
TORSDOF 1
ENDMDL
