MODEL 1
REMARK minimizedAffinity -4.80780029
REMARK minimizedRMSD -1
REMARK  1 active torsions:
REMARK  status: ('A' for Active; 'I' for Inactive)
REMARK    1  A    between atoms: C1_2  and  C2_3 
ROOT
ATOM      1  C2  UNL d   1       0.093  -0.036   0.939  0.00  0.00    -0.076 A 
ATOM      2  C3  UNL d   1       1.267  -0.411   1.615  0.00  0.00     0.004 A 
ATOM      3  C4  UNL d   1       1.403  -0.202   2.986  0.00  0.00    -0.003 A 
ATOM      4  C5  UNL d   1       0.367   0.386   3.704  0.00  0.00     0.000 A 
ATOM      5  C6  UNL d   1      -0.812   0.748   3.052  0.00  0.00     0.000 A 
ATOM      6  C7  UNL d   1      -0.971   0.528   1.673  0.00  0.00    -0.073 A 
ATOM      7  C8  UNL d   1      -2.261   0.944   1.021  0.00  0.00     0.078 C 
ENDROOT
BRANCH   1   8
ATOM      8  C1  UNL d   1       0.013  -0.263  -0.554  0.00  0.00     0.053 C 
ATOM      9  C   UNL d   1       0.667  -1.569  -0.981  0.00  0.00     0.018 C 
ENDBRANCH   1   8
TORSDOF 1
ENDMDL
