MODEL 1
REMARK minimizedAffinity -5.44713259
REMARK minimizedRMSD -1
REMARK  1 active torsions:
REMARK  status: ('A' for Active; 'I' for Inactive)
REMARK    1  A    between atoms: C1_2  and  C2_3 
ROOT
ATOM      1  C2  UNL d   1      -0.087  -0.659  -3.817  0.00  0.00    -0.076 A 
ATOM      2  C3  UNL d   1      -0.835  -1.848  -3.886  0.00  0.00     0.004 A 
ATOM      3  C4  UNL d   1      -1.813  -2.024  -4.863  0.00  0.00    -0.003 A 
ATOM      4  C5  UNL d   1      -2.060  -1.014  -5.787  0.00  0.00     0.000 A 
ATOM      5  C6  UNL d   1      -1.316   0.164  -5.744  0.00  0.00     0.000 A 
ATOM      6  C7  UNL d   1      -0.314   0.351  -4.776  0.00  0.00    -0.073 A 
ATOM      7  C8  UNL d   1       0.453   1.645  -4.772  0.00  0.00     0.078 C 
ENDROOT
BRANCH   1   8
ATOM      8  C1  UNL d   1       0.942  -0.514  -2.719  0.00  0.00     0.053 C 
ATOM      9  C   UNL d   1       0.368  -0.800  -1.340  0.00  0.00     0.018 C 
ENDBRANCH   1   8
TORSDOF 1
ENDMDL
