MODEL 1
REMARK minimizedAffinity -4.879179
REMARK minimizedRMSD -1
REMARK  1 active torsions:
REMARK  status: ('A' for Active; 'I' for Inactive)
REMARK    1  A    between atoms: C1_2  and  C2_3 
ROOT
ATOM      1  C2  UNL d   1       0.260  -0.130   0.494  0.00  0.00    -0.076 A 
ATOM      2  C3  UNL d   1      -1.062   0.344   0.435  0.00  0.00     0.004 A 
ATOM      3  C4  UNL d   1      -1.627   1.029   1.510  0.00  0.00    -0.003 A 
ATOM      4  C5  UNL d   1      -0.879   1.251   2.661  0.00  0.00     0.000 A 
ATOM      5  C6  UNL d   1       0.440   0.803   2.730  0.00  0.00     0.000 A 
ATOM      6  C7  UNL d   1       1.030   0.125   1.649  0.00  0.00    -0.073 A 
ATOM      7  C8  UNL d   1       2.454  -0.341   1.780  0.00  0.00     0.078 C 
ENDROOT
BRANCH   1   8
ATOM      8  C1  UNL d   1       0.811  -0.890  -0.692  0.00  0.00     0.053 C 
ATOM      9  C   UNL d   1       0.687  -0.110  -1.992  0.00  0.00     0.018 C 
ENDBRANCH   1   8
TORSDOF 1
ENDMDL
