MODEL 1
REMARK minimizedAffinity -2.19611287
REMARK minimizedRMSD -1
REMARK  1 active torsions:
REMARK  status: ('A' for Active; 'I' for Inactive)
REMARK    1  A    between atoms: C1_2  and  C2_3 
ROOT
ATOM      1  C2  UNL d   1       0.381  -0.409  -1.970  0.00  0.00    -0.076 A 
ATOM      2  C3  UNL d   1       1.675  -0.023  -1.580  0.00  0.00     0.004 A 
ATOM      3  C4  UNL d   1       2.640   0.311  -2.529  0.00  0.00    -0.003 A 
ATOM      4  C5  UNL d   1       2.326   0.265  -3.882  0.00  0.00     0.000 A 
ATOM      5  C6  UNL d   1       1.042  -0.099  -4.287  0.00  0.00     0.000 A 
ATOM      6  C7  UNL d   1       0.053  -0.423  -3.343  0.00  0.00    -0.073 A 
ATOM      7  C8  UNL d   1      -1.314  -0.814  -3.835  0.00  0.00     0.078 C 
ENDROOT
BRANCH   1   8
ATOM      8  C1  UNL d   1      -0.616  -0.787  -0.898  0.00  0.00     0.053 C 
ATOM      9  C   UNL d   1      -0.801   0.311   0.138  0.00  0.00     0.018 C 
ENDBRANCH   1   8
TORSDOF 1
ENDMDL
