MODEL 1
REMARK minimizedAffinity -5.54868889
REMARK minimizedRMSD -1
REMARK  1 active torsions:
REMARK  status: ('A' for Active; 'I' for Inactive)
REMARK    1  A    between atoms: C1_2  and  C2_3 
ROOT
ATOM      1  C2  UNL d   1       0.416   0.325   1.368  0.00  0.00    -0.076 A 
ATOM      2  C3  UNL d   1       1.630  -0.226   1.814  0.00  0.00     0.004 A 
ATOM      3  C4  UNL d   1       1.989  -0.176   3.160  0.00  0.00    -0.003 A 
ATOM      4  C5  UNL d   1       1.139   0.425   4.082  0.00  0.00     0.000 A 
ATOM      5  C6  UNL d   1      -0.077   0.961   3.661  0.00  0.00     0.000 A 
ATOM      6  C7  UNL d   1      -0.462   0.904   2.310  0.00  0.00    -0.073 A 
ATOM      7  C8  UNL d   1      -1.782   1.504   1.910  0.00  0.00     0.078 C 
ENDROOT
BRANCH   1   8
ATOM      8  C1  UNL d   1       0.092   0.266  -0.107  0.00  0.00     0.053 C 
ATOM      9  C   UNL d   1       0.428  -1.083  -0.724  0.00  0.00     0.018 C 
ENDBRANCH   1   8
TORSDOF 1
ENDMDL
