MODEL 1
REMARK minimizedAffinity -4.94465876
REMARK minimizedRMSD -1
REMARK  1 active torsions:
REMARK  status: ('A' for Active; 'I' for Inactive)
REMARK    1  A    between atoms: C1_2  and  C2_3 
ROOT
ATOM      1  C2  UNL d   1       0.195  -0.314   0.496  0.00  0.00    -0.076 A 
ATOM      2  C3  UNL d   1      -1.061   0.270   0.253  0.00  0.00     0.004 A 
ATOM      3  C4  UNL d   1      -1.775   0.889   1.277  0.00  0.00    -0.003 A 
ATOM      4  C5  UNL d   1      -1.244   0.935   2.562  0.00  0.00     0.000 A 
ATOM      5  C6  UNL d   1       0.008   0.377   2.817  0.00  0.00     0.000 A 
ATOM      6  C7  UNL d   1       0.748  -0.236   1.792  0.00  0.00    -0.073 A 
ATOM      7  C8  UNL d   1       2.091  -0.827   2.125  0.00  0.00     0.078 C 
ENDROOT
BRANCH   1   8
ATOM      8  C1  UNL d   1       0.911  -0.995  -0.649  0.00  0.00     0.053 C 
ATOM      9  C   UNL d   1       0.373  -0.571  -2.007  0.00  0.00     0.018 C 
ENDBRANCH   1   8
TORSDOF 1
ENDMDL
