MODEL 1
REMARK minimizedAffinity 14.3830681
REMARK minimizedRMSD -1
REMARK  0 active torsions:
REMARK  status: ('A' for Active; 'I' for Inactive)
ROOT
ATOM      1  N1  IND d   1       3.615   1.883  -5.094  0.00  0.00    -0.196 N 
ATOM      2  C2  IND d   1       4.945   1.568  -5.140  0.00  0.00     0.054 A 
ATOM      3  C3  IND d   1       5.132   0.268  -4.816  0.00  0.00    -0.031 A 
ATOM      4  C4  IND d   1       3.391  -1.550  -4.276  0.00  0.00     0.051 A 
ATOM      5  C5  IND d   1       2.052  -1.733  -4.076  0.00  0.00    -0.031 A 
ATOM      6  C6  IND d   1       1.147  -0.700  -4.209  0.00  0.00     0.015 A 
ATOM      7  C7  IND d   1       1.548   0.557  -4.561  0.00  0.00    -0.016 A 
ATOM      8  C8  IND d   1       2.908   0.749  -4.759  0.00  0.00    -0.047 A 
ATOM      9  C9  IND d   1       3.836  -0.286  -4.583  0.00  0.00    -0.096 A 
ATOM     10  HN1 IND d   1       3.278   2.658  -5.248  0.00  0.00     0.298 HD
ENDROOT
TORSDOF 0
ENDMDL
