MODEL 1
REMARK minimizedAffinity 13.7567883
REMARK minimizedRMSD -1
REMARK  0 active torsions:
REMARK  status: ('A' for Active; 'I' for Inactive)
ROOT
ATOM      1  N1  IND d   1       3.054   0.780  -5.743  0.00  0.00    -0.196 N 
ATOM      2  C2  IND d   1       4.150   0.004  -6.000  0.00  0.00     0.054 A 
ATOM      3  C3  IND d   1       3.893  -1.288  -5.696  0.00  0.00    -0.031 A 
ATOM      4  C4  IND d   1       1.711  -2.369  -4.859  0.00  0.00     0.051 A 
ATOM      5  C5  IND d   1       0.447  -2.059  -4.442  0.00  0.00    -0.031 A 
ATOM      6  C6  IND d   1      -0.023  -0.762  -4.440  0.00  0.00     0.015 A 
ATOM      7  C7  IND d   1       0.753   0.278  -4.868  0.00  0.00    -0.016 A 
ATOM      8  C8  IND d   1       2.040  -0.032  -5.285  0.00  0.00    -0.047 A 
ATOM      9  C9  IND d   1       2.537  -1.341  -5.250  0.00  0.00    -0.096 A 
ATOM     10  HN1 IND d   1       3.007   1.632  -5.850  0.00  0.00     0.298 HD
ENDROOT
TORSDOF 0
ENDMDL
