MODEL 1
REMARK minimizedAffinity 13.0234108
REMARK minimizedRMSD -1
REMARK  0 active torsions:
REMARK  status: ('A' for Active; 'I' for Inactive)
ROOT
ATOM      1  N1  IND d   1       1.300  -2.285  -4.502  0.00  0.00    -0.196 N 
ATOM      2  C2  IND d   1       2.148  -2.977  -5.321  0.00  0.00     0.054 A 
ATOM      3  C3  IND d   1       1.472  -3.930  -6.000  0.00  0.00    -0.031 A 
ATOM      4  C4  IND d   1      -1.046  -4.465  -5.999  0.00  0.00     0.051 A 
ATOM      5  C5  IND d   1      -2.219  -4.126  -5.384  0.00  0.00    -0.031 A 
ATOM      6  C6  IND d   1      -2.281  -3.135  -4.427  0.00  0.00     0.015 A 
ATOM      7  C7  IND d   1      -1.168  -2.434  -4.055  0.00  0.00    -0.016 A 
ATOM      8  C8  IND d   1       0.025  -2.780  -4.672  0.00  0.00    -0.047 A 
ATOM      9  C9  IND d   1       0.102  -3.814  -5.613  0.00  0.00    -0.096 A 
ATOM     10  HN1 IND d   1       1.524  -1.647  -3.970  0.00  0.00     0.298 HD
ENDROOT
TORSDOF 0
ENDMDL
