MODEL 1
REMARK minimizedAffinity 10.0802736
REMARK minimizedRMSD -1
REMARK  0 active torsions:
REMARK  status: ('A' for Active; 'I' for Inactive)
ROOT
ATOM      1  N1  IND d   1      -1.876  -3.783  -4.229  0.00  0.00    -0.196 N 
ATOM      2  C2  IND d   1      -1.497  -4.136  -5.494  0.00  0.00     0.054 A 
ATOM      3  C3  IND d   1      -0.637  -3.223  -5.999  0.00  0.00    -0.031 A 
ATOM      4  C4  IND d   1       0.361  -1.126  -4.888  0.00  0.00     0.051 A 
ATOM      5  C5  IND d   1       0.286  -0.370  -3.753  0.00  0.00    -0.031 A 
ATOM      6  C6  IND d   1      -0.528  -0.721  -2.695  0.00  0.00     0.015 A 
ATOM      7  C7  IND d   1      -1.292  -1.853  -2.730  0.00  0.00    -0.016 A 
ATOM      8  C8  IND d   1      -1.224  -2.619  -3.884  0.00  0.00    -0.047 A 
ATOM      9  C9  IND d   1      -0.432  -2.246  -4.978  0.00  0.00    -0.096 A 
ATOM     10  HN1 IND d   1      -2.430  -4.214  -3.732  0.00  0.00     0.298 HD
ENDROOT
TORSDOF 0
ENDMDL
