MODEL 1
REMARK minimizedAffinity 14.0059853
REMARK minimizedRMSD -1
REMARK  0 active torsions:
REMARK  status: ('A' for Active; 'I' for Inactive)
ROOT
ATOM      1  N1  IND d   1      -1.063   3.094   4.832  0.00  0.00    -0.196 N 
ATOM      2  C2  IND d   1      -0.350   3.004   5.995  0.00  0.00     0.054 A 
ATOM      3  C3  IND d   1       0.403   1.881   6.000  0.00  0.00    -0.031 A 
ATOM      4  C4  IND d   1       0.695   0.100   4.164  0.00  0.00     0.051 A 
ATOM      5  C5  IND d   1       0.222  -0.269   2.936  0.00  0.00    -0.031 A 
ATOM      6  C6  IND d   1      -0.721   0.481   2.262  0.00  0.00     0.015 A 
ATOM      7  C7  IND d   1      -1.219   1.638   2.789  0.00  0.00    -0.016 A 
ATOM      8  C8  IND d   1      -0.746   2.013   4.039  0.00  0.00    -0.047 A 
ATOM      9  C9  IND d   1       0.179   1.234   4.746  0.00  0.00    -0.096 A 
ATOM     10  HN1 IND d   1      -1.617   3.720   4.630  0.00  0.00     0.298 HD
ENDROOT
TORSDOF 0
ENDMDL
