MODEL 1
REMARK minimizedAffinity 7.63441801
REMARK minimizedRMSD -1
REMARK  0 active torsions:
REMARK  status: ('A' for Active; 'I' for Inactive)
ROOT
ATOM      1  N1  IND d   1       0.793  -2.469   3.505  0.00  0.00    -0.196 N 
ATOM      2  C2  IND d   1       1.925  -2.061   4.154  0.00  0.00     0.054 A 
ATOM      3  C3  IND d   1       2.007  -0.712   4.154  0.00  0.00    -0.031 A 
ATOM      4  C4  IND d   1       0.344   1.027   3.239  0.00  0.00     0.051 A 
ATOM      5  C5  IND d   1      -0.818   1.137   2.528  0.00  0.00    -0.031 A 
ATOM      6  C6  IND d   1      -1.519   0.027   2.101  0.00  0.00     0.015 A 
ATOM      7  C7  IND d   1      -1.087  -1.239   2.379  0.00  0.00    -0.016 A 
ATOM      8  C8  IND d   1       0.097  -1.354   3.094  0.00  0.00    -0.047 A 
ATOM      9  C9  IND d   1       0.835  -0.231   3.494  0.00  0.00    -0.096 A 
ATOM     10  HN1 IND d   1       0.556  -3.285   3.375  0.00  0.00     0.298 HD
ENDROOT
TORSDOF 0
ENDMDL
