MODEL 1
REMARK minimizedAffinity 16.9840202
REMARK minimizedRMSD -1
REMARK  0 active torsions:
REMARK  status: ('A' for Active; 'I' for Inactive)
ROOT
ATOM      1  N1  IND d   1       0.464  -2.042   2.704  0.00  0.00    -0.196 N 
ATOM      2  C2  IND d   1       1.623  -1.420   3.075  0.00  0.00     0.054 A 
ATOM      3  C3  IND d   1       1.452  -0.079   3.095  0.00  0.00    -0.031 A 
ATOM      4  C4  IND d   1      -0.674   1.305   2.653  0.00  0.00     0.051 A 
ATOM      5  C5  IND d   1      -1.972   1.184   2.245  0.00  0.00    -0.031 A 
ATOM      6  C6  IND d   1      -2.537  -0.043   1.965  0.00  0.00     0.015 A 
ATOM      7  C7  IND d   1      -1.825  -1.202   2.096  0.00  0.00    -0.016 A 
ATOM      8  C8  IND d   1      -0.504  -1.082   2.503  0.00  0.00    -0.047 A 
ATOM      9  C9  IND d   1       0.087   0.164   2.748  0.00  0.00    -0.096 A 
ATOM     10  HN1 IND d   1       0.357  -2.890   2.611  0.00  0.00     0.298 HD
ENDROOT
TORSDOF 0
ENDMDL
