MODEL 1
REMARK minimizedAffinity -3.77647758
REMARK minimizedRMSD -1
REMARK  3 active torsions:
REMARK  status: ('A' for Active; 'I' for Inactive)
REMARK    1  A    between atoms: C3'_2  and  C2'_3 
REMARK    2  A    between atoms: C2'_3  and  C1'_4 
REMARK    3  A    between atoms: C1'_4  and  C1_5 
ROOT
ATOM      1  C1  N4B d   1      -0.284   0.475  -0.721  0.00  0.00    -0.075 A 
ATOM      2  C2  N4B d   1      -0.345   1.120   0.534  0.00  0.00     0.002 A 
ATOM      3  C3  N4B d   1      -0.192   2.482   0.615  0.00  0.00     0.002 A 
ATOM      4  C4  N4B d   1       0.039   3.216  -0.539  0.00  0.00    -0.004 A 
ATOM      5  C5  N4B d   1       0.070   2.589  -1.750  0.00  0.00     0.002 A 
ATOM      6  C6  N4B d   1      -0.085   1.221  -1.847  0.00  0.00     0.002 A 
ENDROOT
BRANCH   1   7
ATOM      7  C1' N4B d   1      -0.359  -1.021  -0.850  0.00  0.00     0.057 C 
BRANCH   7   8
ATOM      8  C2' N4B d   1      -1.376  -1.381  -1.930  0.00  0.00     0.009 C 
BRANCH   8   9
ATOM      9  C3' N4B d   1      -1.163  -2.786  -2.465  0.00  0.00     0.004 C 
ATOM     10  C4' N4B d   1       0.065  -2.904  -3.318  0.00  0.00     0.003 C 
ENDBRANCH   8   9
ENDBRANCH   7   8
ENDBRANCH   1   7
TORSDOF 3
ENDMDL
