MODEL 1
REMARK minimizedAffinity -4.71832275
REMARK minimizedRMSD -1
REMARK  3 active torsions:
REMARK  status: ('A' for Active; 'I' for Inactive)
REMARK    1  A    between atoms: C3'_2  and  C2'_3 
REMARK    2  A    between atoms: C2'_3  and  C1'_4 
REMARK    3  A    between atoms: C1'_4  and  C1_5 
ROOT
ATOM      1  C1  N4B d   1      -0.422   0.701   0.090  0.00  0.00    -0.075 A 
ATOM      2  C2  N4B d   1      -1.125   1.469   1.044  0.00  0.00     0.002 A 
ATOM      3  C3  N4B d   1      -1.108   2.841   0.969  0.00  0.00     0.002 A 
ATOM      4  C4  N4B d   1      -0.383   3.463  -0.036  0.00  0.00    -0.004 A 
ATOM      5  C5  N4B d   1       0.272   2.713  -0.969  0.00  0.00     0.002 A 
ATOM      6  C6  N4B d   1       0.261   1.335  -0.908  0.00  0.00     0.002 A 
ENDROOT
BRANCH   1   7
ATOM      7  C1' N4B d   1      -0.341  -0.798   0.182  0.00  0.00     0.057 C 
BRANCH   7   8
ATOM      8  C2' N4B d   1       0.127  -1.357  -1.159  0.00  0.00     0.009 C 
BRANCH   8   9
ATOM      9  C3' N4B d   1      -0.538  -2.683  -1.485  0.00  0.00     0.004 C 
ATOM     10  C4' N4B d   1      -0.561  -2.976  -2.956  0.00  0.00     0.003 C 
ENDBRANCH   8   9
ENDBRANCH   7   8
ENDBRANCH   1   7
TORSDOF 3
ENDMDL
