MODEL 1
REMARK minimizedAffinity -1.52276409
REMARK minimizedRMSD -1
REMARK  3 active torsions:
REMARK  status: ('A' for Active; 'I' for Inactive)
REMARK    1  A    between atoms: C3'_2  and  C2'_3 
REMARK    2  A    between atoms: C2'_3  and  C1'_4 
REMARK    3  A    between atoms: C1'_4  and  C1_5 
ROOT
ATOM      1  C1  N4B d   1      -0.072   0.408  -0.067  0.00  0.00    -0.075 A 
ATOM      2  C2  N4B d   1       1.047   0.880  -0.788  0.00  0.00     0.002 A 
ATOM      3  C3  N4B d   1       1.351   2.219  -0.785  0.00  0.00     0.002 A 
ATOM      4  C4  N4B d   1       0.544   3.104  -0.086  0.00  0.00    -0.004 A 
ATOM      5  C5  N4B d   1      -0.520   2.637   0.630  0.00  0.00     0.002 A 
ATOM      6  C6  N4B d   1      -0.835   1.293   0.638  0.00  0.00     0.002 A 
ENDROOT
BRANCH   1   7
ATOM      7  C1' N4B d   1      -0.494  -1.035  -0.111  0.00  0.00     0.057 C 
BRANCH   7   8
ATOM      8  C2' N4B d   1      -0.317  -1.566  -1.530  0.00  0.00     0.009 C 
BRANCH   8   9
ATOM      9  C3' N4B d   1      -1.282  -2.698  -1.838  0.00  0.00     0.004 C 
ATOM     10  C4' N4B d   1      -0.635  -3.824  -2.588  0.00  0.00     0.003 C 
ENDBRANCH   8   9
ENDBRANCH   7   8
ENDBRANCH   1   7
TORSDOF 3
ENDMDL
