MODEL 1
REMARK minimizedAffinity -5.58281517
REMARK minimizedRMSD -1
REMARK  3 active torsions:
REMARK  status: ('A' for Active; 'I' for Inactive)
REMARK    1  A    between atoms: C3'_2  and  C2'_3 
REMARK    2  A    between atoms: C2'_3  and  C1'_4 
REMARK    3  A    between atoms: C1'_4  and  C1_5 
ROOT
ATOM      1  C1  N4B d   1       0.165   0.181   0.452  0.00  0.00    -0.075 A 
ATOM      2  C2  N4B d   1      -1.103   0.755   0.689  0.00  0.00     0.002 A 
ATOM      3  C3  N4B d   1      -1.297   2.100   0.485  0.00  0.00     0.002 A 
ATOM      4  C4  N4B d   1      -0.238   2.890   0.066  0.00  0.00    -0.004 A 
ATOM      5  C5  N4B d   1       0.978   2.323  -0.185  0.00  0.00     0.002 A 
ATOM      6  C6  N4B d   1       1.186   0.973   0.011  0.00  0.00     0.002 A 
ENDROOT
BRANCH   1   7
ATOM      7  C1' N4B d   1       0.448  -1.267   0.742  0.00  0.00     0.057 C 
BRANCH   7   8
ATOM      8  C2' N4B d   1      -0.415  -2.138  -0.166  0.00  0.00     0.009 C 
BRANCH   8   9
ATOM      9  C3' N4B d   1       0.185  -2.278  -1.555  0.00  0.00     0.004 C 
ATOM     10  C4' N4B d   1      -0.722  -2.996  -2.509  0.00  0.00     0.003 C 
ENDBRANCH   8   9
ENDBRANCH   7   8
ENDBRANCH   1   7
TORSDOF 3
ENDMDL
