MODEL 1
REMARK minimizedAffinity 0.50957197
REMARK minimizedRMSD -1
REMARK  3 active torsions:
REMARK  status: ('A' for Active; 'I' for Inactive)
REMARK    1  A    between atoms: C3'_2  and  C2'_3 
REMARK    2  A    between atoms: C2'_3  and  C1'_4 
REMARK    3  A    between atoms: C1'_4  and  C1_5 
ROOT
ATOM      1  C1  N4B d   1       0.527   0.915   0.633  0.00  0.00    -0.075 A 
ATOM      2  C2  N4B d   1      -0.525   0.020   0.930  0.00  0.00     0.002 A 
ATOM      3  C3  N4B d   1      -1.826   0.460   0.914  0.00  0.00     0.002 A 
ATOM      4  C4  N4B d   1      -2.097   1.789   0.624  0.00  0.00    -0.004 A 
ATOM      5  C5  N4B d   1      -1.077   2.641   0.314  0.00  0.00     0.002 A 
ATOM      6  C6  N4B d   1       0.234   2.212   0.322  0.00  0.00     0.002 A 
ENDROOT
BRANCH   1   7
ATOM      7  C1' N4B d   1       1.970   0.502   0.721  0.00  0.00     0.057 C 
BRANCH   7   8
ATOM      8  C2' N4B d   1       2.244  -0.585  -0.314  0.00  0.00     0.009 C 
BRANCH   8   9
ATOM      9  C3' N4B d   1       1.545  -0.302  -1.633  0.00  0.00     0.004 C 
ATOM     10  C4' N4B d   1       1.363  -1.534  -2.469  0.00  0.00     0.003 C 
ENDBRANCH   8   9
ENDBRANCH   7   8
ENDBRANCH   1   7
TORSDOF 3
ENDMDL
