MODEL 1
REMARK minimizedAffinity -5.12744522
REMARK minimizedRMSD -1
REMARK  3 active torsions:
REMARK  status: ('A' for Active; 'I' for Inactive)
REMARK    1  A    between atoms: C3'_2  and  C2'_3 
REMARK    2  A    between atoms: C2'_3  and  C1'_4 
REMARK    3  A    between atoms: C1'_4  and  C1_5 
ROOT
ATOM      1  C1  N4B d   1       0.516   0.095   0.260  0.00  0.00    -0.075 A 
ATOM      2  C2  N4B d   1       1.443   1.086  -0.130  0.00  0.00     0.002 A 
ATOM      3  C3  N4B d   1       1.039   2.393  -0.255  0.00  0.00     0.002 A 
ATOM      4  C4  N4B d   1      -0.286   2.727  -0.015  0.00  0.00    -0.004 A 
ATOM      5  C5  N4B d   1      -1.169   1.767   0.385  0.00  0.00     0.002 A 
ATOM      6  C6  N4B d   1      -0.775   0.451   0.519  0.00  0.00     0.002 A 
ENDROOT
BRANCH   1   7
ATOM      7  C1' N4B d   1       0.892  -1.361   0.327  0.00  0.00     0.057 C 
BRANCH   7   8
ATOM      8  C2' N4B d   1      -0.233  -2.196  -0.277  0.00  0.00     0.009 C 
BRANCH   8   9
ATOM      9  C3' N4B d   1       0.035  -2.543  -1.731  0.00  0.00     0.004 C 
ATOM     10  C4' N4B d   1      -1.081  -3.325  -2.357  0.00  0.00     0.003 C 
ENDBRANCH   8   9
ENDBRANCH   7   8
ENDBRANCH   1   7
TORSDOF 3
ENDMDL
