MODEL 1
REMARK minimizedAffinity -5.86304712
REMARK minimizedRMSD -1
REMARK  3 active torsions:
REMARK  status: ('A' for Active; 'I' for Inactive)
REMARK    1  A    between atoms: C3'_2  and  C2'_3 
REMARK    2  A    between atoms: C2'_3  and  C1'_4 
REMARK    3  A    between atoms: C1'_4  and  C1_5 
ROOT
ATOM      1  C1  N4B d   1      -0.195  -1.842  -0.956  0.00  0.00    -0.075 A 
ATOM      2  C2  N4B d   1      -0.805  -3.114  -0.900  0.00  0.00     0.002 A 
ATOM      3  C3  N4B d   1      -1.206  -3.734  -2.057  0.00  0.00     0.002 A 
ATOM      4  C4  N4B d   1      -1.025  -3.097  -3.276  0.00  0.00    -0.004 A 
ATOM      5  C5  N4B d   1      -0.412  -1.879  -3.323  0.00  0.00     0.002 A 
ATOM      6  C6  N4B d   1       0.000  -1.246  -2.168  0.00  0.00     0.002 A 
ENDROOT
BRANCH   1   7
ATOM      7  C1' N4B d   1       0.182  -1.086   0.289  0.00  0.00     0.057 C 
BRANCH   7   8
ATOM      8  C2' N4B d   1       0.331   0.394  -0.049  0.00  0.00     0.009 C 
BRANCH   8   9
ATOM      9  C3' N4B d   1      -0.843   1.214   0.459  0.00  0.00     0.004 C 
ATOM     10  C4' N4B d   1      -0.526   2.675   0.568  0.00  0.00     0.003 C 
ENDBRANCH   8   9
ENDBRANCH   7   8
ENDBRANCH   1   7
TORSDOF 3
ENDMDL
