MODEL 1
REMARK minimizedAffinity -5.73395967
REMARK minimizedRMSD -1
REMARK  3 active torsions:
REMARK  status: ('A' for Active; 'I' for Inactive)
REMARK    1  A    between atoms: C3'_2  and  C2'_3 
REMARK    2  A    between atoms: C2'_3  and  C1'_4 
REMARK    3  A    between atoms: C1'_4  and  C1_5 
ROOT
ATOM      1  C1  N4B d   1      -1.171   1.106   0.287  0.00  0.00    -0.075 A 
ATOM      2  C2  N4B d   1      -0.552   2.174   0.974  0.00  0.00     0.002 A 
ATOM      3  C3  N4B d   1       0.059   3.181   0.269  0.00  0.00     0.002 A 
ATOM      4  C4  N4B d   1       0.082   3.133  -1.117  0.00  0.00    -0.004 A 
ATOM      5  C5  N4B d   1      -0.540   2.111  -1.774  0.00  0.00     0.002 A 
ATOM      6  C6  N4B d   1      -1.162   1.094  -1.078  0.00  0.00     0.002 A 
ENDROOT
BRANCH   1   7
ATOM      7  C1' N4B d   1      -1.777  -0.062   1.015  0.00  0.00     0.057 C 
BRANCH   7   8
ATOM      8  C2' N4B d   1      -0.674  -1.049   1.384  0.00  0.00     0.009 C 
BRANCH   8   9
ATOM      9  C3' N4B d   1       0.384  -1.152   0.299  0.00  0.00     0.004 C 
ATOM     10  C4' N4B d   1       1.739  -0.713   0.765  0.00  0.00     0.003 C 
ENDBRANCH   8   9
ENDBRANCH   7   8
ENDBRANCH   1   7
TORSDOF 3
ENDMDL
