MODEL 1
REMARK minimizedAffinity -6.85090113
REMARK minimizedRMSD -1
REMARK  3 active torsions:
REMARK  status: ('A' for Active; 'I' for Inactive)
REMARK    1  A    between atoms: C3'_2  and  C2'_3 
REMARK    2  A    between atoms: C2'_3  and  C1'_4 
REMARK    3  A    between atoms: C1'_4  and  C1_5 
ROOT
ATOM      1  C1  N4B d   1       1.406   0.964   0.164  0.00  0.00    -0.075 A 
ATOM      2  C2  N4B d   1       0.134   1.562   0.024  0.00  0.00     0.002 A 
ATOM      3  C3  N4B d   1       0.016   2.930   0.023  0.00  0.00     0.002 A 
ATOM      4  C4  N4B d   1       1.147   3.717   0.177  0.00  0.00    -0.004 A 
ATOM      5  C5  N4B d   1       2.375   3.132   0.286  0.00  0.00     0.002 A 
ATOM      6  C6  N4B d   1       2.509   1.758   0.286  0.00  0.00     0.002 A 
ENDROOT
BRANCH   1   7
ATOM      7  C1' N4B d   1       1.576  -0.528   0.258  0.00  0.00     0.057 C 
BRANCH   7   8
ATOM      8  C2' N4B d   1       0.342  -1.210  -0.325  0.00  0.00     0.009 C 
BRANCH   8   9
ATOM      9  C3' N4B d   1       0.609  -1.781  -1.707  0.00  0.00     0.004 C 
ATOM     10  C4' N4B d   1      -0.466  -2.722  -2.164  0.00  0.00     0.003 C 
ENDBRANCH   8   9
ENDBRANCH   7   8
ENDBRANCH   1   7
TORSDOF 3
ENDMDL
