MODEL 1
REMARK minimizedAffinity -1.45112419
REMARK minimizedRMSD -1
REMARK  0 active torsions:
REMARK  status: ('A' for Active; 'I' for Inactive)
ROOT
ATOM      1  C   UNL d   1      -0.113   0.250   2.180  0.00  0.00     0.124 A 
ATOM      2  C1  UNL d   1       1.029  -0.243   1.564  0.00  0.00     0.062 A 
ATOM      3  C2  UNL d   1       1.047  -0.452   0.188  0.00  0.00     0.162 A 
ATOM      4  C3  UNL d   1      -0.080  -0.167  -0.582  0.00  0.00    -0.034 A 
ATOM      5  C4  UNL d   1      -1.225   0.328   0.045  0.00  0.00     0.162 A 
ATOM      6  C5  UNL d   1      -1.239   0.535   1.420  0.00  0.00     0.062 A 
ATOM      7  F   UNL d   1      -2.343   1.011   2.014  0.00  0.00    -0.097 F 
ATOM      8  F1  UNL d   1      -2.327   0.613  -0.666  0.00  0.00    -0.096 F 
ATOM      9  I   UNL d   1      -0.057  -0.477  -2.640  0.00  0.00    -0.060 I 
ATOM     10  F2  UNL d   1       2.164  -0.929  -0.381  0.00  0.00    -0.096 F 
ATOM     11  F3  UNL d   1       2.117  -0.520   2.296  0.00  0.00    -0.097 F 
ATOM     12  F4  UNL d   1      -0.129   0.449   3.504  0.00  0.00    -0.092 F 
ENDROOT
TORSDOF 0
ENDMDL
