MODEL 1
REMARK minimizedAffinity -2.15959167
REMARK minimizedRMSD -1
REMARK  0 active torsions:
REMARK  status: ('A' for Active; 'I' for Inactive)
ROOT
ATOM      1  C   UNL d   1       0.653   0.054  -4.752  0.00  0.00     0.124 A 
ATOM      2  C1  UNL d   1      -0.426  -0.780  -4.493  0.00  0.00     0.062 A 
ATOM      3  C2  UNL d   1      -0.921  -0.902  -3.198  0.00  0.00     0.162 A 
ATOM      4  C3  UNL d   1      -0.338  -0.188  -2.152  0.00  0.00    -0.034 A 
ATOM      5  C4  UNL d   1       0.748   0.648  -2.419  0.00  0.00     0.162 A 
ATOM      6  C5  UNL d   1       1.239   0.767  -3.715  0.00  0.00     0.062 A 
ATOM      7  F   UNL d   1       2.282   1.573  -3.963  0.00  0.00    -0.097 F 
ATOM      8  F1  UNL d   1       1.332   1.349  -1.436  0.00  0.00    -0.096 F 
ATOM      9  I   UNL d   1      -1.076  -0.368  -0.214  0.00  0.00    -0.060 I 
ATOM     10  F2  UNL d   1      -1.965  -1.715  -2.977  0.00  0.00    -0.096 F 
ATOM     11  F3  UNL d   1      -0.993  -1.470  -5.493  0.00  0.00    -0.097 F 
ATOM     12  F4  UNL d   1       1.129   0.169  -5.999  0.00  0.00    -0.092 F 
ENDROOT
TORSDOF 0
ENDMDL
