MODEL 1
REMARK minimizedAffinity -2.79565668
REMARK minimizedRMSD -1
REMARK  0 active torsions:
REMARK  status: ('A' for Active; 'I' for Inactive)
ROOT
ATOM      1  C   UNL d   1      -0.024   0.575   1.966  0.00  0.00     0.124 A 
ATOM      2  C1  UNL d   1      -1.141   0.724   1.155  0.00  0.00     0.062 A 
ATOM      3  C2  UNL d   1      -1.125   0.247  -0.153  0.00  0.00     0.162 A 
ATOM      4  C3  UNL d   1       0.012  -0.384  -0.658  0.00  0.00    -0.034 A 
ATOM      5  C4  UNL d   1       1.131  -0.529   0.163  0.00  0.00     0.162 A 
ATOM      6  C5  UNL d   1       1.110  -0.051   1.469  0.00  0.00     0.062 A 
ATOM      7  F   UNL d   1       2.190  -0.196   2.251  0.00  0.00    -0.097 F 
ATOM      8  F1  UNL d   1       2.241  -1.131  -0.291  0.00  0.00    -0.096 F 
ATOM      9  I   UNL d   1       0.040  -1.097  -2.613  0.00  0.00    -0.060 I 
ATOM     10  F2  UNL d   1      -2.218   0.405  -0.914  0.00  0.00    -0.096 F 
ATOM     11  F3  UNL d   1      -2.238   1.329   1.631  0.00  0.00    -0.097 F 
ATOM     12  F4  UNL d   1      -0.042   1.035   3.223  0.00  0.00    -0.092 F 
ENDROOT
TORSDOF 0
ENDMDL
