MODEL 1
REMARK minimizedAffinity -3.33955026
REMARK minimizedRMSD -1
REMARK  0 active torsions:
REMARK  status: ('A' for Active; 'I' for Inactive)
ROOT
ATOM      1  C   UNL d   1      -0.197  -0.054   1.810  0.00  0.00     0.124 A 
ATOM      2  C1  UNL d   1       0.938  -0.606   1.233  0.00  0.00     0.062 A 
ATOM      3  C2  UNL d   1       0.983  -0.838  -0.139  0.00  0.00     0.162 A 
ATOM      4  C3  UNL d   1      -0.110  -0.515  -0.944  0.00  0.00    -0.034 A 
ATOM      5  C4  UNL d   1      -1.248   0.040  -0.355  0.00  0.00     0.162 A 
ATOM      6  C5  UNL d   1      -1.288   0.269   1.016  0.00  0.00     0.062 A 
ATOM      7  F   UNL d   1      -2.385   0.803   1.573  0.00  0.00    -0.097 F 
ATOM      8  F1  UNL d   1      -2.317   0.362  -1.099  0.00  0.00    -0.096 F 
ATOM      9  I   UNL d   1      -0.046  -0.859  -2.995  0.00  0.00    -0.060 I 
ATOM     10  F2  UNL d   1       2.092  -1.373  -0.671  0.00  0.00    -0.096 F 
ATOM     11  F3  UNL d   1       1.994  -0.920   1.998  0.00  0.00    -0.097 F 
ATOM     12  F4  UNL d   1      -0.238   0.167   3.131  0.00  0.00    -0.092 F 
ENDROOT
TORSDOF 0
ENDMDL
