MODEL 1
REMARK minimizedAffinity -0.264278442
REMARK minimizedRMSD -1
REMARK  0 active torsions:
REMARK  status: ('A' for Active; 'I' for Inactive)
ROOT
ATOM      1  C   UNL d   1      -0.473  -0.064   1.972  0.00  0.00     0.124 A 
ATOM      2  C1  UNL d   1      -1.450   0.409   1.107  0.00  0.00     0.062 A 
ATOM      3  C2  UNL d   1      -1.272   0.313  -0.270  0.00  0.00     0.162 A 
ATOM      4  C3  UNL d   1      -0.111  -0.259  -0.792  0.00  0.00    -0.034 A 
ATOM      5  C4  UNL d   1       0.868  -0.731   0.085  0.00  0.00     0.162 A 
ATOM      6  C5  UNL d   1       0.684  -0.633   1.460  0.00  0.00     0.062 A 
ATOM      7  F   UNL d   1       1.630  -1.091   2.294  0.00  0.00    -0.097 F 
ATOM      8  F1  UNL d   1       1.995  -1.287  -0.383  0.00  0.00    -0.096 F 
ATOM      9  I   UNL d   1       0.159  -0.403  -2.850  0.00  0.00    -0.060 I 
ATOM     10  F2  UNL d   1      -2.233   0.778  -1.083  0.00  0.00    -0.096 F 
ATOM     11  F3  UNL d   1      -2.569   0.960   1.599  0.00  0.00    -0.097 F 
ATOM     12  F4  UNL d   1      -0.647   0.030   3.296  0.00  0.00    -0.092 F 
ENDROOT
TORSDOF 0
ENDMDL
