MODEL 1
REMARK minimizedAffinity 0.00713968463
REMARK minimizedRMSD -1
REMARK  2 active torsions:
REMARK  status: ('A' for Active; 'I' for Inactive)
REMARK    1  A    between atoms: C2'_3  and  C1'_4 
REMARK    2  A    between atoms: C1'_4  and  C1_5 
ROOT
ATOM      1  C1  I4B d   1       3.125  -0.791  -0.619  0.00  0.00    -0.075 A 
ATOM      2  C2  I4B d   1       2.363  -1.784  -0.055  0.00  0.00     0.003 A 
ATOM      3  C3  I4B d   1       1.116  -1.474   0.540  0.00  0.00     0.002 A 
ATOM      4  C4  I4B d   1       0.695  -0.161   0.592  0.00  0.00    -0.004 A 
ATOM      5  C5  I4B d   1       1.458   0.841  -0.001  0.00  0.00     0.002 A 
ATOM      6  C6  I4B d   1       2.675   0.523  -0.622  0.00  0.00     0.003 A 
ENDROOT
BRANCH   1   7
ATOM      7  C1' I4B d   1       4.452  -1.149  -1.210  0.00  0.00     0.060 C 
BRANCH   7   8
ATOM      8  C2' I4B d   1       4.647  -0.314  -2.459  0.00  0.00    -0.013 C 
ATOM      9  C4' I4B d   1       4.519   1.156  -2.159  0.00  0.00     0.013 C 
ATOM     10  C3' I4B d   1       5.999  -0.635  -3.024  0.00  0.00     0.013 C 
ENDBRANCH   7   8
ENDBRANCH   1   7
TORSDOF 2
ENDMDL
