MODEL 1
REMARK minimizedAffinity -0.99698025
REMARK minimizedRMSD -1
REMARK  2 active torsions:
REMARK  status: ('A' for Active; 'I' for Inactive)
REMARK    1  A    between atoms: C2'_3  and  C1'_4 
REMARK    2  A    between atoms: C1'_4  and  C1_5 
ROOT
ATOM      1  C1  I4B d   1       2.249   0.425  -0.769  0.00  0.00    -0.075 A 
ATOM      2  C2  I4B d   1       2.397  -0.929  -0.605  0.00  0.00     0.003 A 
ATOM      3  C3  I4B d   1       3.549  -1.586  -1.102  0.00  0.00     0.002 A 
ATOM      4  C4  I4B d   1       4.497  -0.864  -1.797  0.00  0.00    -0.004 A 
ATOM      5  C5  I4B d   1       4.356   0.514  -1.943  0.00  0.00     0.002 A 
ATOM      6  C6  I4B d   1       3.232   1.164  -1.416  0.00  0.00     0.003 A 
ENDROOT
BRANCH   1   7
ATOM      7  C1' I4B d   1       1.005   1.081  -0.261  0.00  0.00     0.060 C 
BRANCH   7   8
ATOM      8  C2' I4B d   1       0.715   0.525   1.119  0.00  0.00    -0.013 C 
ATOM      9  C4' I4B d   1       0.196  -0.886   1.039  0.00  0.00     0.013 C 
ATOM     10  C3' I4B d   1       1.980   0.593   1.921  0.00  0.00     0.013 C 
ENDBRANCH   7   8
ENDBRANCH   1   7
TORSDOF 2
ENDMDL
