MODEL 1
REMARK minimizedAffinity -1.87598276
REMARK minimizedRMSD -1
REMARK  2 active torsions:
REMARK  status: ('A' for Active; 'I' for Inactive)
REMARK    1  A    between atoms: C2'_3  and  C1'_4 
REMARK    2  A    between atoms: C1'_4  and  C1_5 
ROOT
ATOM      1  C1  I4B d   1       2.897  -0.899  -0.670  0.00  0.00    -0.075 A 
ATOM      2  C2  I4B d   1       2.654  -1.608   0.480  0.00  0.00     0.003 A 
ATOM      3  C3  I4B d   1       1.571  -1.254   1.320  0.00  0.00     0.002 A 
ATOM      4  C4  I4B d   1       0.792  -0.161   1.001  0.00  0.00    -0.004 A 
ATOM      5  C5  I4B d   1       1.025   0.542  -0.177  0.00  0.00     0.002 A 
ATOM      6  C6  I4B d   1       2.077   0.164  -1.025  0.00  0.00     0.003 A 
ENDROOT
BRANCH   1   7
ATOM      7  C1' I4B d   1       4.070  -1.279  -1.517  0.00  0.00     0.060 C 
BRANCH   7   8
ATOM      8  C2' I4B d   1       4.230  -0.225  -2.593  0.00  0.00    -0.013 C 
ATOM      9  C4' I4B d   1       3.918   1.149  -2.061  0.00  0.00     0.013 C 
ATOM     10  C3' I4B d   1       5.636  -0.300  -3.110  0.00  0.00     0.013 C 
ENDBRANCH   7   8
ENDBRANCH   1   7
TORSDOF 2
ENDMDL
