MODEL 1
REMARK minimizedAffinity 6.80456352
REMARK minimizedRMSD -1
REMARK  2 active torsions:
REMARK  status: ('A' for Active; 'I' for Inactive)
REMARK    1  A    between atoms: C2'_3  and  C1'_4 
REMARK    2  A    between atoms: C1'_4  and  C1_5 
ROOT
ATOM      1  C1  I4B d   1       2.440   0.734  -0.600  0.00  0.00    -0.075 A 
ATOM      2  C2  I4B d   1       1.319   0.260   0.034  0.00  0.00     0.003 A 
ATOM      3  C3  I4B d   1       1.056  -1.131   0.072  0.00  0.00     0.002 A 
ATOM      4  C4  I4B d   1       1.908  -2.002  -0.576  0.00  0.00    -0.004 A 
ATOM      5  C5  I4B d   1       3.057  -1.522  -1.198  0.00  0.00     0.002 A 
ATOM      6  C6  I4B d   1       3.331  -0.147  -1.201  0.00  0.00     0.003 A 
ENDROOT
BRANCH   1   7
ATOM      7  C1' I4B d   1       2.670   2.211  -0.650  0.00  0.00     0.060 C 
BRANCH   7   8
ATOM      8  C2' I4B d   1       3.698   2.487  -1.729  0.00  0.00    -0.013 C 
ATOM      9  C4' I4B d   1       3.045   3.003  -2.984  0.00  0.00     0.013 C 
ATOM     10  C3' I4B d   1       4.684   3.478  -1.185  0.00  0.00     0.013 C 
ENDBRANCH   7   8
ENDBRANCH   1   7
TORSDOF 2
ENDMDL
