MODEL 1
REMARK minimizedAffinity -3.41913486
REMARK minimizedRMSD -1
REMARK  2 active torsions:
REMARK  status: ('A' for Active; 'I' for Inactive)
REMARK    1  A    between atoms: C2'_3  and  C1'_4 
REMARK    2  A    between atoms: C1'_4  and  C1_5 
ROOT
ATOM      1  C1  I4B d   1       1.628  -0.177  -0.047  0.00  0.00    -0.075 A 
ATOM      2  C2  I4B d   1       2.220   0.745  -0.874  0.00  0.00     0.003 A 
ATOM      3  C3  I4B d   1       3.335   0.379  -1.667  0.00  0.00     0.002 A 
ATOM      4  C4  I4B d   1       3.853  -0.895  -1.564  0.00  0.00    -0.004 A 
ATOM      5  C5  I4B d   1       3.238  -1.835  -0.742  0.00  0.00     0.002 A 
ATOM      6  C6  I4B d   1       2.111  -1.478   0.012  0.00  0.00     0.003 A 
ENDROOT
BRANCH   1   7
ATOM      7  C1' I4B d   1       0.473   0.251   0.801  0.00  0.00     0.060 C 
BRANCH   7   8
ATOM      8  C2' I4B d   1       0.321  -0.753   1.926  0.00  0.00    -0.013 C 
ATOM      9  C4' I4B d   1       0.872  -0.211   3.218  0.00  0.00     0.013 C 
ATOM     10  C3' I4B d   1      -1.135  -1.086   2.055  0.00  0.00     0.013 C 
ENDBRANCH   7   8
ENDBRANCH   1   7
TORSDOF 2
ENDMDL
