MODEL 1
REMARK minimizedAffinity -0.835001588
REMARK minimizedRMSD -1
REMARK  2 active torsions:
REMARK  status: ('A' for Active; 'I' for Inactive)
REMARK    1  A    between atoms: C2'_3  and  C1'_4 
REMARK    2  A    between atoms: C1'_4  and  C1_5 
ROOT
ATOM      1  C1  I4B d   1       0.528  -1.473   1.241  0.00  0.00    -0.075 A 
ATOM      2  C2  I4B d   1       0.927  -0.259   0.739  0.00  0.00     0.003 A 
ATOM      3  C3  I4B d   1       2.024  -0.183  -0.152  0.00  0.00     0.002 A 
ATOM      4  C4  I4B d   1       2.721  -1.330  -0.473  0.00  0.00    -0.004 A 
ATOM      5  C5  I4B d   1       2.301  -2.562   0.019  0.00  0.00     0.002 A 
ATOM      6  C6  I4B d   1       1.190  -2.637   0.871  0.00  0.00     0.003 A 
ENDROOT
BRANCH   1   7
ATOM      7  C1' I4B d   1      -0.614  -1.514   2.206  0.00  0.00     0.060 C 
BRANCH   7   8
ATOM      8  C2' I4B d   1      -1.853  -1.026   1.483  0.00  0.00    -0.013 C 
ATOM      9  C4' I4B d   1      -2.733  -2.177   1.070  0.00  0.00     0.013 C 
ATOM     10  C3' I4B d   1      -2.583  -0.088   2.397  0.00  0.00     0.013 C 
ENDBRANCH   7   8
ENDBRANCH   1   7
TORSDOF 2
ENDMDL
