MODEL 1
REMARK minimizedAffinity -2.41734886
REMARK minimizedRMSD -1
REMARK  2 active torsions:
REMARK  status: ('A' for Active; 'I' for Inactive)
REMARK    1  A    between atoms: C2'_3  and  C1'_4 
REMARK    2  A    between atoms: C1'_4  and  C1_5 
ROOT
ATOM      1  C1  I4B d   1       3.036   0.567  -1.371  0.00  0.00    -0.075 A 
ATOM      2  C2  I4B d   1       3.599  -0.684  -1.408  0.00  0.00     0.003 A 
ATOM      3  C3  I4B d   1       4.819  -0.896  -2.094  0.00  0.00     0.002 A 
ATOM      4  C4  I4B d   1       5.412   0.153  -2.767  0.00  0.00    -0.004 A 
ATOM      5  C5  I4B d   1       4.852   1.425  -2.709  0.00  0.00     0.002 A 
ATOM      6  C6  I4B d   1       3.662   1.637  -1.996  0.00  0.00     0.003 A 
ENDROOT
BRANCH   1   7
ATOM      7  C1' I4B d   1       1.729   0.749  -0.665  0.00  0.00     0.060 C 
BRANCH   7   8
ATOM      8  C2' I4B d   1       1.636  -0.303   0.422  0.00  0.00    -0.013 C 
ATOM      9  C4' I4B d   1       1.725   0.319   1.790  0.00  0.00     0.013 C 
ATOM     10  C3' I4B d   1       0.341  -1.038   0.244  0.00  0.00     0.013 C 
ENDBRANCH   7   8
ENDBRANCH   1   7
TORSDOF 2
ENDMDL
