MODEL 1
REMARK minimizedAffinity -1.34078467
REMARK minimizedRMSD -1
REMARK  2 active torsions:
REMARK  status: ('A' for Active; 'I' for Inactive)
REMARK    1  A    between atoms: C2'_3  and  C1'_4 
REMARK    2  A    between atoms: C1'_4  and  C1_5 
ROOT
ATOM      1  C1  I4B d   1       2.939  -0.731  -0.927  0.00  0.00    -0.075 A 
ATOM      2  C2  I4B d   1       2.329  -1.728  -0.206  0.00  0.00     0.003 A 
ATOM      3  C3  I4B d   1       1.492  -1.406   0.890  0.00  0.00     0.002 A 
ATOM      4  C4  I4B d   1       1.334  -0.086   1.259  0.00  0.00    -0.004 A 
ATOM      5  C5  I4B d   1       1.935   0.925   0.514  0.00  0.00     0.002 A 
ATOM      6  C6  I4B d   1       2.732   0.601  -0.594  0.00  0.00     0.003 A 
ENDROOT
BRANCH   1   7
ATOM      7  C1' I4B d   1       3.842  -1.108  -2.058  0.00  0.00     0.060 C 
BRANCH   7   8
ATOM      8  C2' I4B d   1       4.969  -0.097  -2.112  0.00  0.00    -0.013 C 
ATOM      9  C4' I4B d   1       6.000  -0.484  -3.140  0.00  0.00     0.013 C 
ATOM     10  C3' I4B d   1       4.373   1.244  -2.422  0.00  0.00     0.013 C 
ENDBRANCH   7   8
ENDBRANCH   1   7
TORSDOF 2
ENDMDL
