MODEL 1
REMARK minimizedAffinity 8.73538399
REMARK minimizedRMSD -1
REMARK  1 active torsions:
REMARK  status: ('A' for Active; 'I' for Inactive)
REMARK    1  A    between atoms: C1_2  and  C2_3 
ROOT
ATOM      1  C2  UNL d   1       1.633  -0.768  -0.491  0.00  0.00    -0.081 A 
ATOM      2  C3  UNL d   1       1.717   0.471   0.155  0.00  0.00     0.006 A 
ATOM      3  C4  UNL d   1       1.675   0.548   1.549  0.00  0.00     0.002 A 
ATOM      4  C5  UNL d   1       1.558  -0.613   2.320  0.00  0.00    -0.080 A 
ATOM      5  C6  UNL d   1       1.543  -0.547   3.819  0.00  0.00     0.076 C 
ATOM      6  C7  UNL d   1       1.456  -1.850   1.675  0.00  0.00     0.002 A 
ATOM      7  C8  UNL d   1       1.497  -1.927   0.281  0.00  0.00     0.006 A 
ENDROOT
BRANCH   1   8
ATOM      8  C1  UNL d   1       1.742  -0.860  -1.991  0.00  0.00     0.054 C 
ATOM      9  C   UNL d   1       2.149  -2.258  -2.432  0.00  0.00     0.018 C 
ENDBRANCH   1   8
TORSDOF 1
ENDMDL
