MODEL 1
REMARK minimizedAffinity 12.5910387
REMARK minimizedRMSD -1
REMARK  1 active torsions:
REMARK  status: ('A' for Active; 'I' for Inactive)
REMARK    1  A    between atoms: C1_2  and  C2_3 
ROOT
ATOM      1  C2  UNL d   1       5.041  -0.905  -4.627  0.00  0.00    -0.081 A 
ATOM      2  C3  UNL d   1       5.737   0.000  -3.816  0.00  0.00     0.006 A 
ATOM      3  C4  UNL d   1       5.262   0.318  -2.541  0.00  0.00     0.002 A 
ATOM      4  C5  UNL d   1       4.089  -0.269  -2.053  0.00  0.00    -0.080 A 
ATOM      5  C6  UNL d   1       3.585   0.041  -0.675  0.00  0.00     0.076 C 
ATOM      6  C7  UNL d   1       3.385  -1.159  -2.871  0.00  0.00     0.002 A 
ATOM      7  C8  UNL d   1       3.858  -1.477  -4.145  0.00  0.00     0.006 A 
ENDROOT
BRANCH   1   8
ATOM      8  C1  UNL d   1       5.585  -1.299  -5.976  0.00  0.00     0.054 C 
ATOM      9  C   UNL d   1       6.000  -2.763  -5.999  0.00  0.00     0.018 C 
ENDBRANCH   1   8
TORSDOF 1
ENDMDL
