MODEL 1
REMARK minimizedAffinity 8.15716457
REMARK minimizedRMSD -1
REMARK  1 active torsions:
REMARK  status: ('A' for Active; 'I' for Inactive)
REMARK    1  A    between atoms: C1_2  and  C2_3 
ROOT
ATOM      1  C2  UNL d   1       2.684   0.309   1.295  0.00  0.00    -0.081 A 
ATOM      2  C3  UNL d   1       1.708   1.300   1.453  0.00  0.00     0.006 A 
ATOM      3  C4  UNL d   1       1.807   2.508   0.759  0.00  0.00     0.002 A 
ATOM      4  C5  UNL d   1       2.878   2.742  -0.110  0.00  0.00    -0.080 A 
ATOM      5  C6  UNL d   1       2.979   4.022  -0.885  0.00  0.00     0.076 C 
ATOM      6  C7  UNL d   1       3.862   1.758  -0.256  0.00  0.00     0.002 A 
ATOM      7  C8  UNL d   1       3.764   0.550   0.439  0.00  0.00     0.006 A 
ENDROOT
BRANCH   1   8
ATOM      8  C1  UNL d   1       2.547  -1.021   1.993  0.00  0.00     0.054 C 
ATOM      9  C   UNL d   1       1.529  -1.910   1.293  0.00  0.00     0.018 C 
ENDBRANCH   1   8
TORSDOF 1
ENDMDL
