MODEL 1
REMARK minimizedAffinity 0.522063136
REMARK minimizedRMSD -1
REMARK  1 active torsions:
REMARK  status: ('A' for Active; 'I' for Inactive)
REMARK    1  A    between atoms: C1_2  and  C2_3 
ROOT
ATOM      1  C2  UNL d   1       1.547  -1.087   4.074  0.00  0.00    -0.081 A 
ATOM      2  C3  UNL d   1       1.430   0.020   4.923  0.00  0.00     0.006 A 
ATOM      3  C4  UNL d   1       1.188   1.292   4.398  0.00  0.00     0.002 A 
ATOM      4  C5  UNL d   1       1.052   1.477   3.018  0.00  0.00    -0.080 A 
ATOM      5  C6  UNL d   1       0.762   2.832   2.445  0.00  0.00     0.076 C 
ATOM      6  C7  UNL d   1       1.186   0.373   2.169  0.00  0.00     0.002 A 
ATOM      7  C8  UNL d   1       1.428  -0.898   2.692  0.00  0.00     0.006 A 
ENDROOT
BRANCH   1   8
ATOM      8  C1  UNL d   1       1.743  -2.470   4.640  0.00  0.00     0.054 C 
ATOM      9  C   UNL d   1       1.023  -2.630   5.972  0.00  0.00     0.018 C 
ENDBRANCH   1   8
TORSDOF 1
ENDMDL
