MODEL 1
REMARK minimizedAffinity 4.36668253
REMARK minimizedRMSD -1
REMARK  1 active torsions:
REMARK  status: ('A' for Active; 'I' for Inactive)
REMARK    1  A    between atoms: C1_2  and  C2_3 
ROOT
ATOM      1  C2  UNL d   1       0.831   0.759   1.338  0.00  0.00    -0.081 A 
ATOM      2  C3  UNL d   1      -0.027   1.761   0.867  0.00  0.00     0.006 A 
ATOM      3  C4  UNL d   1       0.490   2.925   0.294  0.00  0.00     0.002 A 
ATOM      4  C5  UNL d   1       1.872   3.103   0.174  0.00  0.00    -0.080 A 
ATOM      5  C6  UNL d   1       2.440   4.335  -0.467  0.00  0.00     0.076 C 
ATOM      6  C7  UNL d   1       2.730   2.111   0.660  0.00  0.00     0.002 A 
ATOM      7  C8  UNL d   1       2.213   0.947   1.234  0.00  0.00     0.006 A 
ENDROOT
BRANCH   1   8
ATOM      8  C1  UNL d   1       0.275  -0.525   1.898  0.00  0.00     0.054 C 
ATOM      9  C   UNL d   1       1.180  -1.094   2.981  0.00  0.00     0.018 C 
ENDBRANCH   1   8
TORSDOF 1
ENDMDL
