MODEL 1
REMARK minimizedAffinity -1.16500533
REMARK minimizedRMSD -1
REMARK  1 active torsions:
REMARK  status: ('A' for Active; 'I' for Inactive)
REMARK    1  A    between atoms: C1_2  and  C2_3 
ROOT
ATOM      1  C2  UNL d   1      -5.351  -4.316  -4.257  0.00  0.00    -0.081 A 
ATOM      2  C3  UNL d   1      -5.058  -5.408  -3.431  0.00  0.00     0.006 A 
ATOM      3  C4  UNL d   1      -4.537  -5.208  -2.151  0.00  0.00     0.002 A 
ATOM      4  C5  UNL d   1      -4.308  -3.914  -1.672  0.00  0.00    -0.080 A 
ATOM      5  C6  UNL d   1      -3.777  -3.684  -0.289  0.00  0.00     0.076 C 
ATOM      6  C7  UNL d   1      -4.584  -2.823  -2.504  0.00  0.00     0.002 A 
ATOM      7  C8  UNL d   1      -5.104  -3.023  -3.785  0.00  0.00     0.006 A 
ENDROOT
BRANCH   1   8
ATOM      8  C1  UNL d   1      -5.974  -4.527  -5.614  0.00  0.00     0.054 C 
ATOM      9  C   UNL d   1      -5.975  -5.999  -6.000  0.00  0.00     0.018 C 
ENDBRANCH   1   8
TORSDOF 1
ENDMDL
