MODEL 1
REMARK minimizedAffinity 5.89415836
REMARK minimizedRMSD -1
REMARK  1 active torsions:
REMARK  status: ('A' for Active; 'I' for Inactive)
REMARK    1  A    between atoms: C3_4  and  O_7 
ROOT
ATOM      1  C   UNL d   1       5.301   3.018   4.026  0.00  0.00    -0.033 A 
ATOM      2  C1  UNL d   1       5.002   2.221   5.133  0.00  0.00     0.039 A 
ATOM      3  C2  UNL d   1       3.848   1.435   5.138  0.00  0.00    -0.080 A 
ATOM      4  C3  UNL d   1       3.004   1.453   4.032  0.00  0.00     0.150 A 
ATOM      5  C4  UNL d   1       3.298   2.242   2.924  0.00  0.00    -0.007 A 
ATOM      6  C5  UNL d   1       4.450   3.027   2.921  0.00  0.00     0.039 A 
ENDROOT
BRANCH   4   7
ATOM      7  O   UNL d   1       1.864   0.707   3.993  0.00  0.00    -0.526 OA
ATOM      8  H5  UNL d   1       1.776   0.235   4.838  0.00  0.00     0.418 HD
ENDBRANCH   4   7
TORSDOF 1
ENDMDL
