MODEL 1
REMARK minimizedAffinity -0.247192204
REMARK minimizedRMSD -1
REMARK  1 active torsions:
REMARK  status: ('A' for Active; 'I' for Inactive)
REMARK    1  A    between atoms: C3_4  and  O_7 
ROOT
ATOM      1  C   UNL d   1       0.975  -1.752  -0.673  0.00  0.00    -0.033 A 
ATOM      2  C1  UNL d   1       2.172  -2.431  -0.909  0.00  0.00     0.039 A 
ATOM      3  C2  UNL d   1       3.355  -1.716  -1.109  0.00  0.00    -0.080 A 
ATOM      4  C3  UNL d   1       3.327  -0.325  -1.069  0.00  0.00     0.150 A 
ATOM      5  C4  UNL d   1       2.139   0.358  -0.830  0.00  0.00    -0.007 A 
ATOM      6  C5  UNL d   1       0.959  -0.358  -0.632  0.00  0.00     0.039 A 
ENDROOT
BRANCH   4   7
ATOM      7  O   UNL d   1       4.455   0.416  -1.262  0.00  0.00    -0.526 OA
ATOM      8  H5  UNL d   1       5.193  -0.189  -1.445  0.00  0.00     0.418 HD
ENDBRANCH   4   7
TORSDOF 1
ENDMDL
