MODEL 1
REMARK minimizedAffinity -2.10019994
REMARK minimizedRMSD -1
REMARK  1 active torsions:
REMARK  status: ('A' for Active; 'I' for Inactive)
REMARK    1  A    between atoms: C3_4  and  O_7 
ROOT
ATOM      1  C   UNL d   1       4.230  -1.446  -2.352  0.00  0.00    -0.033 A 
ATOM      2  C1  UNL d   1       3.280  -2.460  -2.217  0.00  0.00     0.039 A 
ATOM      3  C2  UNL d   1       2.103  -2.226  -1.503  0.00  0.00    -0.080 A 
ATOM      4  C3  UNL d   1       1.889  -0.975  -0.930  0.00  0.00     0.150 A 
ATOM      5  C4  UNL d   1       2.830   0.041  -1.063  0.00  0.00    -0.007 A 
ATOM      6  C5  UNL d   1       4.005  -0.195  -1.776  0.00  0.00     0.039 A 
ENDROOT
BRANCH   4   7
ATOM      7  O   UNL d   1       0.758  -0.701  -0.220  0.00  0.00    -0.526 OA
ATOM      8  H5  UNL d   1       0.213  -1.505  -0.187  0.00  0.00     0.418 HD
ENDBRANCH   4   7
TORSDOF 1
ENDMDL
