MODEL 1
REMARK minimizedAffinity 0.118038565
REMARK minimizedRMSD -1
REMARK  1 active torsions:
REMARK  status: ('A' for Active; 'I' for Inactive)
REMARK    1  A    between atoms: C3_4  and  O_7 
ROOT
ATOM      1  C   UNL d   1       4.654  -0.265  -1.615  0.00  0.00    -0.033 A 
ATOM      2  C1  UNL d   1       4.034   0.970  -1.413  0.00  0.00     0.039 A 
ATOM      3  C2  UNL d   1       2.658   1.033  -1.182  0.00  0.00    -0.080 A 
ATOM      4  C3  UNL d   1       1.916  -0.144  -1.153  0.00  0.00     0.150 A 
ATOM      5  C4  UNL d   1       2.527  -1.378  -1.350  0.00  0.00    -0.007 A 
ATOM      6  C5  UNL d   1       3.901  -1.439  -1.581  0.00  0.00     0.039 A 
ENDROOT
BRANCH   4   7
ATOM      7  O   UNL d   1       0.570  -0.132  -0.936  0.00  0.00    -0.526 OA
ATOM      8  H5  UNL d   1       0.281   0.791  -0.846  0.00  0.00     0.418 HD
ENDBRANCH   4   7
TORSDOF 1
ENDMDL
