MODEL 1
REMARK minimizedAffinity -3.17256379
REMARK minimizedRMSD -1
REMARK  1 active torsions:
REMARK  status: ('A' for Active; 'I' for Inactive)
REMARK    1  A    between atoms: C3_4  and  O_7 
ROOT
ATOM      1  C   UNL d   1       4.168   0.258  -1.503  0.00  0.00    -0.033 A 
ATOM      2  C1  UNL d   1       3.285  -0.717  -1.032  0.00  0.00     0.039 A 
ATOM      3  C2  UNL d   1       3.250  -1.977  -1.632  0.00  0.00    -0.080 A 
ATOM      4  C3  UNL d   1       4.102  -2.250  -2.699  0.00  0.00     0.150 A 
ATOM      5  C4  UNL d   1       4.986  -1.286  -3.170  0.00  0.00    -0.007 A 
ATOM      6  C5  UNL d   1       5.019  -0.027  -2.571  0.00  0.00     0.039 A 
ENDROOT
BRANCH   4   7
ATOM      7  O   UNL d   1       4.100  -3.464  -3.319  0.00  0.00    -0.526 OA
ATOM      8  H5  UNL d   1       3.419  -4.020  -2.906  0.00  0.00     0.418 HD
ENDBRANCH   4   7
TORSDOF 1
ENDMDL
