MODEL 1
REMARK minimizedAffinity 1.12355304
REMARK minimizedRMSD -1
REMARK  1 active torsions:
REMARK  status: ('A' for Active; 'I' for Inactive)
REMARK    1  A    between atoms: C3_4  and  O_7 
ROOT
ATOM      1  C   UNL d   1       0.269  -1.073  -0.701  0.00  0.00    -0.033 A 
ATOM      2  C1  UNL d   1      -0.561  -0.304  -1.519  0.00  0.00     0.039 A 
ATOM      3  C2  UNL d   1      -1.069  -0.840  -2.703  0.00  0.00    -0.080 A 
ATOM      4  C3  UNL d   1      -0.740  -2.146  -3.058  0.00  0.00     0.150 A 
ATOM      5  C4  UNL d   1       0.083  -2.919  -2.246  0.00  0.00    -0.007 A 
ATOM      6  C5  UNL d   1       0.590  -2.382  -1.064  0.00  0.00     0.039 A 
ENDROOT
BRANCH   4   7
ATOM      7  O   UNL d   1      -1.208  -2.711  -4.207  0.00  0.00    -0.526 OA
ATOM      8  H5  UNL d   1      -1.740  -2.050  -4.681  0.00  0.00     0.418 HD
ENDBRANCH   4   7
TORSDOF 1
ENDMDL
