MODEL 1
REMARK minimizedAffinity 0.45308125
REMARK minimizedRMSD -1
REMARK  1 active torsions:
REMARK  status: ('A' for Active; 'I' for Inactive)
REMARK    1  A    between atoms: C3_4  and  O_7 
ROOT
ATOM      1  C   UNL d   1       3.188  -2.425  -2.534  0.00  0.00    -0.033 A 
ATOM      2  C1  UNL d   1       2.772  -1.707  -1.411  0.00  0.00     0.039 A 
ATOM      3  C2  UNL d   1       3.450  -0.547  -1.032  0.00  0.00    -0.080 A 
ATOM      4  C3  UNL d   1       4.540  -0.115  -1.783  0.00  0.00     0.150 A 
ATOM      5  C4  UNL d   1       4.957  -0.824  -2.905  0.00  0.00    -0.007 A 
ATOM      6  C5  UNL d   1       4.279  -1.982  -3.282  0.00  0.00     0.039 A 
ENDROOT
BRANCH   4   7
ATOM      7  O   UNL d   1       5.236   1.008  -1.449  0.00  0.00    -0.526 OA
ATOM      8  H5  UNL d   1       4.852   1.377  -0.636  0.00  0.00     0.418 HD
ENDBRANCH   4   7
TORSDOF 1
ENDMDL
