MODEL 1
REMARK minimizedAffinity 1.52380049
REMARK minimizedRMSD -1
REMARK  1 active torsions:
REMARK  status: ('A' for Active; 'I' for Inactive)
REMARK    1  A    between atoms: C3_4  and  O_7 
ROOT
ATOM      1  C   UNL d   1      -0.017  -2.404  -1.341  0.00  0.00    -0.033 A 
ATOM      2  C1  UNL d   1       1.375  -2.405  -1.230  0.00  0.00     0.039 A 
ATOM      3  C2  UNL d   1       2.054  -1.225  -0.923  0.00  0.00    -0.080 A 
ATOM      4  C3  UNL d   1       1.331  -0.051  -0.729  0.00  0.00     0.150 A 
ATOM      5  C4  UNL d   1      -0.056  -0.043  -0.834  0.00  0.00    -0.007 A 
ATOM      6  C5  UNL d   1      -0.732  -1.223  -1.141  0.00  0.00     0.039 A 
ENDROOT
BRANCH   4   7
ATOM      7  O   UNL d   1       1.950   1.127  -0.432  0.00  0.00    -0.526 OA
ATOM      8  H5  UNL d   1       2.910   0.975  -0.420  0.00  0.00     0.418 HD
ENDBRANCH   4   7
TORSDOF 1
ENDMDL
