MODEL 1
REMARK minimizedAffinity 0.607391179
REMARK minimizedRMSD -1
REMARK  1 active torsions:
REMARK  status: ('A' for Active; 'I' for Inactive)
REMARK    1  A    between atoms: C3_4  and  O_7 
ROOT
ATOM      1  C   UNL d   1       0.783  -1.450  -0.666  0.00  0.00    -0.033 A 
ATOM      2  C1  UNL d   1       1.861  -2.174  -1.180  0.00  0.00     0.039 A 
ATOM      3  C2  UNL d   1       3.033  -1.514  -1.554  0.00  0.00    -0.080 A 
ATOM      4  C3  UNL d   1       3.115  -0.131  -1.407  0.00  0.00     0.150 A 
ATOM      5  C4  UNL d   1       2.046   0.595  -0.892  0.00  0.00    -0.007 A 
ATOM      6  C5  UNL d   1       0.876  -0.066  -0.520  0.00  0.00     0.039 A 
ENDROOT
BRANCH   4   7
ATOM      7  O   UNL d   1       4.236   0.558  -1.763  0.00  0.00    -0.526 OA
ATOM      8  H5  UNL d   1       4.880  -0.071  -2.129  0.00  0.00     0.418 HD
ENDBRANCH   4   7
TORSDOF 1
ENDMDL
