MODEL 1
REMARK minimizedAffinity -3.3226378
REMARK minimizedRMSD -1
REMARK  1 active torsions:
REMARK  status: ('A' for Active; 'I' for Inactive)
REMARK    1  A    between atoms: C3_4  and  O_7 
ROOT
ATOM      1  C   UNL d   1       0.100  -1.819  -0.882  0.00  0.00    -0.033 A 
ATOM      2  C1  UNL d   1      -0.026  -0.449  -1.117  0.00  0.00     0.039 A 
ATOM      3  C2  UNL d   1       1.092   0.383  -1.023  0.00  0.00    -0.080 A 
ATOM      4  C3  UNL d   1       2.328  -0.168  -0.696  0.00  0.00     0.150 A 
ATOM      5  C4  UNL d   1       2.461  -1.533  -0.465  0.00  0.00    -0.007 A 
ATOM      6  C5  UNL d   1       1.344  -2.361  -0.557  0.00  0.00     0.039 A 
ENDROOT
BRANCH   4   7
ATOM      7  O   UNL d   1       3.446   0.605  -0.589  0.00  0.00    -0.526 OA
ATOM      8  H5  UNL d   1       3.197   1.531  -0.747  0.00  0.00     0.418 HD
ENDBRANCH   4   7
TORSDOF 1
ENDMDL
