MODEL 1
REMARK minimizedAffinity 0.401589721
REMARK minimizedRMSD -1
REMARK  0 active torsions:
REMARK  status: ('A' for Active; 'I' for Inactive)
ROOT
ATOM      1  C4' PXY d   1      -3.650  -1.321   3.122  0.00  0.00     0.077 C 
ATOM      2  C1' PXY d   1      -2.031   2.792  -0.603  0.00  0.00     0.077 C 
ATOM      3  C1  PXY d   1      -2.465   1.709   0.365  0.00  0.00    -0.082 A 
ATOM      4  C2  PXY d   1      -2.260   1.871   1.662  0.00  0.00     0.003 A 
ATOM      5  C3  PXY d   1      -2.616   0.888   2.549  0.00  0.00     0.003 A 
ATOM      6  C4  PXY d   1      -3.237  -0.250   2.108  0.00  0.00    -0.082 A 
ATOM      7  C5  PXY d   1      -3.460  -0.418   0.788  0.00  0.00     0.003 A 
ATOM      8  C6  PXY d   1      -3.053   0.574  -0.100  0.00  0.00     0.003 A 
ENDROOT
TORSDOF 0
ENDMDL
