MODEL 1
REMARK minimizedAffinity -2.75615215
REMARK minimizedRMSD -1
REMARK  0 active torsions:
REMARK  status: ('A' for Active; 'I' for Inactive)
ROOT
ATOM      1  C4' PXY d   1      -2.378   2.068  -0.202  0.00  0.00     0.077 C 
ATOM      2  C1' PXY d   1      -2.664  -1.731   4.145  0.00  0.00     0.077 C 
ATOM      3  C1  PXY d   1      -2.583  -0.744   2.997  0.00  0.00    -0.082 A 
ATOM      4  C2  PXY d   1      -2.603   0.555   3.249  0.00  0.00     0.003 A 
ATOM      5  C3  PXY d   1      -2.563   1.462   2.222  0.00  0.00     0.003 A 
ATOM      6  C4  PXY d   1      -2.448   1.035   0.926  0.00  0.00    -0.082 A 
ATOM      7  C5  PXY d   1      -2.416  -0.288   0.661  0.00  0.00     0.003 A 
ATOM      8  C6  PXY d   1      -2.499  -1.193   1.716  0.00  0.00     0.003 A 
ENDROOT
TORSDOF 0
ENDMDL
