MODEL 1
REMARK minimizedAffinity 0.00228161528
REMARK minimizedRMSD -1
REMARK  0 active torsions:
REMARK  status: ('A' for Active; 'I' for Inactive)
ROOT
ATOM      1  C4' PXY d   1      -2.779  -1.012   0.682  0.00  0.00     0.077 C 
ATOM      2  C1' PXY d   1      -3.435   4.693   0.020  0.00  0.00     0.077 C 
ATOM      3  C1  PXY d   1      -3.275   3.195   0.189  0.00  0.00    -0.082 A 
ATOM      4  C2  PXY d   1      -2.402   2.725   1.065  0.00  0.00     0.003 A 
ATOM      5  C3  PXY d   1      -2.222   1.374   1.208  0.00  0.00     0.003 A 
ATOM      6  C4  PXY d   1      -2.981   0.493   0.484  0.00  0.00    -0.082 A 
ATOM      7  C5  PXY d   1      -3.881   0.965  -0.404  0.00  0.00     0.003 A 
ATOM      8  C6  PXY d   1      -4.019   2.341  -0.564  0.00  0.00     0.003 A 
ENDROOT
TORSDOF 0
ENDMDL
