MODEL 1
REMARK minimizedAffinity -4.26351309
REMARK minimizedRMSD -1
REMARK  0 active torsions:
REMARK  status: ('A' for Active; 'I' for Inactive)
ROOT
ATOM      1  C4' PXY d   1      -2.994   3.279  -0.678  0.00  0.00     0.077 C 
ATOM      2  C1' PXY d   1      -2.891  -1.177   3.002  0.00  0.00     0.077 C 
ATOM      3  C1  PXY d   1      -2.919  -0.017   2.027  0.00  0.00    -0.082 A 
ATOM      4  C2  PXY d   1      -2.428   1.157   2.392  0.00  0.00     0.003 A 
ATOM      5  C3  PXY d   1      -2.474   2.225   1.534  0.00  0.00     0.003 A 
ATOM      6  C4  PXY d   1      -2.979   2.077   0.270  0.00  0.00    -0.082 A 
ATOM      7  C5  PXY d   1      -3.472   0.880  -0.114  0.00  0.00     0.003 A 
ATOM      8  C6  PXY d   1      -3.453  -0.181   0.787  0.00  0.00     0.003 A 
ENDROOT
TORSDOF 0
ENDMDL
