MODEL 1
REMARK minimizedAffinity 0.423201293
REMARK minimizedRMSD -1
REMARK  0 active torsions:
REMARK  status: ('A' for Active; 'I' for Inactive)
ROOT
ATOM      1  C4' PXY d   1       4.444  -1.489   2.939  0.00  0.00     0.077 C 
ATOM      2  C1' PXY d   1       5.999   4.057   3.432  0.00  0.00     0.077 C 
ATOM      3  C1  PXY d   1       5.602   2.599   3.310  0.00  0.00    -0.082 A 
ATOM      4  C2  PXY d   1       4.861   2.206   2.286  0.00  0.00     0.003 A 
ATOM      5  C3  PXY d   1       4.466   0.898   2.177  0.00  0.00     0.003 A 
ATOM      6  C4  PXY d   1       4.877  -0.029   3.098  0.00  0.00    -0.082 A 
ATOM      7  C5  PXY d   1       5.641   0.362   4.139  0.00  0.00     0.003 A 
ATOM      8  C6  PXY d   1       5.998   1.703   4.254  0.00  0.00     0.003 A 
ENDROOT
TORSDOF 0
ENDMDL
