MODEL 1
REMARK minimizedAffinity 1.86264324
REMARK minimizedRMSD -1
REMARK  0 active torsions:
REMARK  status: ('A' for Active; 'I' for Inactive)
ROOT
ATOM      1  C4' PXY d   1       6.000   1.676   4.833  0.00  0.00     0.077 C 
ATOM      2  C1' PXY d   1       3.108  -3.314   5.221  0.00  0.00     0.077 C 
ATOM      3  C1  PXY d   1       3.877  -2.011   5.124  0.00  0.00    -0.082 A 
ATOM      4  C2  PXY d   1       3.219  -0.863   5.103  0.00  0.00     0.003 A 
ATOM      5  C3  PXY d   1       3.897   0.323   4.983  0.00  0.00     0.003 A 
ATOM      6  C4  PXY d   1       5.265   0.337   4.939  0.00  0.00    -0.082 A 
ATOM      7  C5  PXY d   1       5.944  -0.829   4.971  0.00  0.00     0.003 A 
ATOM      8  C6  PXY d   1       5.235  -2.024   5.051  0.00  0.00     0.003 A 
ENDROOT
TORSDOF 0
ENDMDL
