MODEL 1
REMARK minimizedAffinity 4.08378124
REMARK minimizedRMSD -1
REMARK  0 active torsions:
REMARK  status: ('A' for Active; 'I' for Inactive)
ROOT
ATOM      1  C4' PXY d   1       5.353   3.790   3.682  0.00  0.00     0.077 C 
ATOM      2  C1' PXY d   1       5.999  -1.795   5.027  0.00  0.00     0.077 C 
ATOM      3  C1  PXY d   1       5.833  -0.333   4.661  0.00  0.00    -0.082 A 
ATOM      4  C2  PXY d   1       6.000   0.596   5.589  0.00  0.00     0.003 A 
ATOM      5  C3  PXY d   1       5.821   1.921   5.283  0.00  0.00     0.003 A 
ATOM      6  C4  PXY d   1       5.521   2.302   4.003  0.00  0.00    -0.082 A 
ATOM      7  C5  PXY d   1       5.359   1.361   3.049  0.00  0.00     0.003 A 
ATOM      8  C6  PXY d   1       5.504   0.019   3.389  0.00  0.00     0.003 A 
ENDROOT
TORSDOF 0
ENDMDL
