MODEL 1
REMARK minimizedAffinity 3.88741422
REMARK minimizedRMSD -1
REMARK  0 active torsions:
REMARK  status: ('A' for Active; 'I' for Inactive)
ROOT
ATOM      1  C4' PXY d   1       5.258  -0.401   4.119  0.00  0.00     0.077 C 
ATOM      2  C1' PXY d   1       5.321   5.378   4.234  0.00  0.00     0.077 C 
ATOM      3  C1  PXY d   1       5.293   3.863   4.197  0.00  0.00    -0.082 A 
ATOM      4  C2  PXY d   1       5.988   3.174   5.088  0.00  0.00     0.003 A 
ATOM      5  C3  PXY d   1       5.999   1.804   5.050  0.00  0.00     0.003 A 
ATOM      6  C4  PXY d   1       5.249   1.130   4.124  0.00  0.00    -0.082 A 
ATOM      7  C5  PXY d   1       4.529   1.826   3.218  0.00  0.00     0.003 A 
ATOM      8  C6  PXY d   1       4.563   3.217   3.248  0.00  0.00     0.003 A 
ENDROOT
TORSDOF 0
ENDMDL
