MODEL 1
REMARK minimizedAffinity -1.85281348
REMARK minimizedRMSD -1
REMARK  0 active torsions:
REMARK  status: ('A' for Active; 'I' for Inactive)
ROOT
ATOM      1  C4' PXY d   1       6.000   1.129   5.418  0.00  0.00     0.077 C 
ATOM      2  C1' PXY d   1       2.265  -1.076   1.597  0.00  0.00     0.077 C 
ATOM      3  C1  PXY d   1       3.248  -0.488   2.590  0.00  0.00    -0.082 A 
ATOM      4  C2  PXY d   1       3.748  -1.254   3.547  0.00  0.00     0.003 A 
ATOM      5  C3  PXY d   1       4.613  -0.731   4.473  0.00  0.00     0.003 A 
ATOM      6  C4  PXY d   1       5.012   0.576   4.388  0.00  0.00    -0.082 A 
ATOM      7  C5  PXY d   1       4.515   1.361   3.408  0.00  0.00     0.003 A 
ATOM      8  C6  PXY d   1       3.606   0.822   2.503  0.00  0.00     0.003 A 
ENDROOT
TORSDOF 0
ENDMDL
