MODEL 1
REMARK minimizedAffinity 0.430518031
REMARK minimizedRMSD -1
REMARK  0 active torsions:
REMARK  status: ('A' for Active; 'I' for Inactive)
ROOT
ATOM      1  C4' PXY d   1      -2.722  -0.667   1.247  0.00  0.00     0.077 C 
ATOM      2  C1' PXY d   1      -3.691   4.893  -0.005  0.00  0.00     0.077 C 
ATOM      3  C1  PXY d   1      -3.448   3.432   0.318  0.00  0.00    -0.082 A 
ATOM      4  C2  PXY d   1      -2.669   3.107   1.337  0.00  0.00     0.003 A 
ATOM      5  C3  PXY d   1      -2.413   1.791   1.623  0.00  0.00     0.003 A 
ATOM      6  C4  PXY d   1      -3.003   0.796   0.891  0.00  0.00    -0.082 A 
ATOM      7  C5  PXY d   1      -3.808   1.118  -0.144  0.00  0.00     0.003 A 
ATOM      8  C6  PXY d   1      -4.022   2.461  -0.443  0.00  0.00     0.003 A 
ENDROOT
TORSDOF 0
ENDMDL
