MODEL 1
REMARK minimizedAffinity 8.98760033
REMARK minimizedRMSD -1
REMARK  0 active torsions:
REMARK  status: ('A' for Active; 'I' for Inactive)
ROOT
ATOM      1  C4' PXY d   1      -2.781  -0.338   1.142  0.00  0.00     0.077 C 
ATOM      2  C1' PXY d   1      -3.336   5.241  -0.265  0.00  0.00     0.077 C 
ATOM      3  C1  PXY d   1      -3.201   3.775   0.097  0.00  0.00    -0.082 A 
ATOM      4  C2  PXY d   1      -2.557   3.430   1.200  0.00  0.00     0.003 A 
ATOM      5  C3  PXY d   1      -2.398   2.108   1.526  0.00  0.00     0.003 A 
ATOM      6  C4  PXY d   1      -2.950   1.130   0.742  0.00  0.00    -0.082 A 
ATOM      7  C5  PXY d   1      -3.618   1.474  -0.380  0.00  0.00     0.003 A 
ATOM      8  C6  PXY d   1      -3.733   2.820  -0.714  0.00  0.00     0.003 A 
ENDROOT
TORSDOF 0
ENDMDL
