MODEL 1
REMARK minimizedAffinity 12.1265669
REMARK minimizedRMSD -1
REMARK  0 active torsions:
REMARK  status: ('A' for Active; 'I' for Inactive)
ROOT
ATOM      1  C4' PXY d   1       6.000   0.769   5.204  0.00  0.00     0.077 C 
ATOM      2  C1' PXY d   1       3.141   2.741   0.582  0.00  0.00     0.077 C 
ATOM      3  C1  PXY d   1       3.887   2.212   1.792  0.00  0.00    -0.082 A 
ATOM      4  C2  PXY d   1       4.181   3.030   2.788  0.00  0.00     0.003 A 
ATOM      5  C3  PXY d   1       4.883   2.576   3.875  0.00  0.00     0.003 A 
ATOM      6  C4  PXY d   1       5.240   1.257   3.967  0.00  0.00    -0.082 A 
ATOM      7  C5  PXY d   1       4.934   0.413   2.959  0.00  0.00     0.003 A 
ATOM      8  C6  PXY d   1       4.258   0.904   1.846  0.00  0.00     0.003 A 
ENDROOT
TORSDOF 0
ENDMDL
