MODEL 1
REMARK minimizedAffinity -1.55932999
REMARK minimizedRMSD -1
REMARK  0 active torsions:
REMARK  status: ('A' for Active; 'I' for Inactive)
ROOT
ATOM      1  C4' PXY d   1       5.999   0.365   5.931  0.00  0.00     0.077 C 
ATOM      2  C1' PXY d   1       2.590  -0.859   1.426  0.00  0.00     0.077 C 
ATOM      3  C1  PXY d   1       3.475  -0.542   2.616  0.00  0.00    -0.082 A 
ATOM      4  C2  PXY d   1       4.453   0.340   2.487  0.00  0.00     0.003 A 
ATOM      5  C3  PXY d   1       5.282   0.615   3.544  0.00  0.00     0.003 A 
ATOM      6  C4  PXY d   1       5.075   0.021   4.760  0.00  0.00    -0.082 A 
ATOM      7  C5  PXY d   1       4.073  -0.872   4.902  0.00  0.00     0.003 A 
ATOM      8  C6  PXY d   1       3.268  -1.168   3.806  0.00  0.00     0.003 A 
ENDROOT
TORSDOF 0
ENDMDL
