MODEL 1
REMARK minimizedAffinity 2.56357741
REMARK minimizedRMSD -1
REMARK  0 active torsions:
REMARK  status: ('A' for Active; 'I' for Inactive)
ROOT
ATOM      1  C4' PXY d   1      -2.623   6.000   0.309  0.00  0.00     0.077 C 
ATOM      2  C1' PXY d   1      -3.305   0.260   0.220  0.00  0.00     0.077 C 
ATOM      3  C1  PXY d   1      -3.139   1.767   0.242  0.00  0.00    -0.082 A 
ATOM      4  C2  PXY d   1      -1.998   2.305  -0.155  0.00  0.00     0.003 A 
ATOM      5  C3  PXY d   1      -1.819   3.664  -0.111  0.00  0.00     0.003 A 
ATOM      6  C4  PXY d   1      -2.839   4.484   0.294  0.00  0.00    -0.082 A 
ATOM      7  C5  PXY d   1      -4.010   3.943   0.691  0.00  0.00     0.003 A 
ATOM      8  C6  PXY d   1      -4.157   2.559   0.677  0.00  0.00     0.003 A 
ENDROOT
TORSDOF 0
ENDMDL
