MODEL 1
REMARK minimizedAffinity 2.98366237
REMARK minimizedRMSD -1
REMARK  0 active torsions:
REMARK  status: ('A' for Active; 'I' for Inactive)
ROOT
ATOM      1  C4' PXY d   1       5.999   0.418   5.745  0.00  0.00     0.077 C 
ATOM      2  C1' PXY d   1       3.008   2.752   1.384  0.00  0.00     0.077 C 
ATOM      3  C1  PXY d   1       3.782   2.132   2.530  0.00  0.00    -0.082 A 
ATOM      4  C2  PXY d   1       4.763   2.813   3.101  0.00  0.00     0.003 A 
ATOM      5  C3  PXY d   1       5.494   2.255   4.118  0.00  0.00     0.003 A 
ATOM      6  C4  PXY d   1       5.184   1.008   4.591  0.00  0.00    -0.082 A 
ATOM      7  C5  PXY d   1       4.177   0.312   4.022  0.00  0.00     0.003 A 
ATOM      8  C6  PXY d   1       3.474   0.879   2.963  0.00  0.00     0.003 A 
ENDROOT
TORSDOF 0
ENDMDL
