MODEL 1
REMARK minimizedAffinity 1.06672049
REMARK minimizedRMSD -1
REMARK  0 active torsions:
REMARK  status: ('A' for Active; 'I' for Inactive)
ROOT
ATOM      1  C4' PXY d   1      -3.781  -1.024   3.438  0.00  0.00     0.077 C 
ATOM      2  C1' PXY d   1      -2.710   2.795  -0.768  0.00  0.00     0.077 C 
ATOM      3  C1  PXY d   1      -3.000   1.787   0.327  0.00  0.00    -0.082 A 
ATOM      4  C2  PXY d   1      -2.787   2.115   1.591  0.00  0.00     0.003 A 
ATOM      5  C3  PXY d   1      -3.013   1.205   2.592  0.00  0.00     0.003 A 
ATOM      6  C4  PXY d   1      -3.512  -0.036   2.300  0.00  0.00    -0.082 A 
ATOM      7  C5  PXY d   1      -3.742  -0.375   1.014  0.00  0.00     0.003 A 
ATOM      8  C6  PXY d   1      -3.467   0.549   0.009  0.00  0.00     0.003 A 
ENDROOT
TORSDOF 0
ENDMDL
