MODEL 1
REMARK minimizedAffinity -2.4929235
REMARK minimizedRMSD -1
REMARK  0 active torsions:
REMARK  status: ('A' for Active; 'I' for Inactive)
ROOT
ATOM      1  C4' PXY d   1       6.000   0.732   5.745  0.00  0.00     0.077 C 
ATOM      2  C1' PXY d   1       2.587  -1.367   1.579  0.00  0.00     0.077 C 
ATOM      3  C1  PXY d   1       3.489  -0.810   2.663  0.00  0.00    -0.082 A 
ATOM      4  C2  PXY d   1       3.633  -1.473   3.798  0.00  0.00     0.003 A 
ATOM      5  C3  PXY d   1       4.419  -0.968   4.802  0.00  0.00     0.003 A 
ATOM      6  C4  PXY d   1       5.107   0.202   4.620  0.00  0.00    -0.082 A 
ATOM      7  C5  PXY d   1       4.973   0.880   3.460  0.00  0.00     0.003 A 
ATOM      8  C6  PXY d   1       4.138   0.370   2.470  0.00  0.00     0.003 A 
ENDROOT
TORSDOF 0
ENDMDL
