MODEL 1
REMARK minimizedAffinity -0.154761165
REMARK minimizedRMSD -1
REMARK  0 active torsions:
REMARK  status: ('A' for Active; 'I' for Inactive)
ROOT
ATOM      1  C4' PXY d   1       0.790  -1.451  -3.004  0.00  0.00     0.077 C 
ATOM      2  C1' PXY d   1       0.367  -4.849   1.653  0.00  0.00     0.077 C 
ATOM      3  C1  PXY d   1       0.491  -3.957   0.434  0.00  0.00    -0.082 A 
ATOM      4  C2  PXY d   1      -0.564  -3.283   0.007  0.00  0.00     0.003 A 
ATOM      5  C3  PXY d   1      -0.478  -2.496  -1.113  0.00  0.00     0.003 A 
ATOM      6  C4  PXY d   1       0.714  -2.357  -1.772  0.00  0.00    -0.082 A 
ATOM      7  C5  PXY d   1       1.798  -3.033  -1.336  0.00  0.00     0.003 A 
ATOM      8  C6  PXY d   1       1.679  -3.858  -0.221  0.00  0.00     0.003 A 
ENDROOT
TORSDOF 0
ENDMDL
