MODEL 1
REMARK minimizedAffinity 0.0325711817
REMARK minimizedRMSD -1
REMARK  0 active torsions:
REMARK  status: ('A' for Active; 'I' for Inactive)
ROOT
ATOM      1  C4' PXY d   1      -3.352  -0.816   1.255  0.00  0.00     0.077 C 
ATOM      2  C1' PXY d   1      -3.192   4.767  -0.232  0.00  0.00     0.077 C 
ATOM      3  C1  PXY d   1      -3.243   3.301   0.149  0.00  0.00    -0.082 A 
ATOM      4  C2  PXY d   1      -2.833   2.922   1.349  0.00  0.00     0.003 A 
ATOM      5  C3  PXY d   1      -2.842   1.597   1.698  0.00  0.00     0.003 A 
ATOM      6  C4  PXY d   1      -3.327   0.655   0.831  0.00  0.00    -0.082 A 
ATOM      7  C5  PXY d   1      -3.757   1.034  -0.391  0.00  0.00     0.003 A 
ATOM      8  C6  PXY d   1      -3.701   2.380  -0.742  0.00  0.00     0.003 A 
ENDROOT
TORSDOF 0
ENDMDL
