MODEL 1
REMARK minimizedAffinity -0.217209563
REMARK minimizedRMSD -1
REMARK  0 active torsions:
REMARK  status: ('A' for Active; 'I' for Inactive)
ROOT
ATOM      1  C   UNL d   1       3.705  -0.551  -1.539  0.00  0.00     0.020 A 
ATOM      2  C1  UNL d   1       3.352  -1.733  -0.888  0.00  0.00     0.020 A 
ATOM      3  C2  UNL d   1       2.367  -1.717   0.102  0.00  0.00     0.034 A 
ATOM      4  C3  UNL d   1       1.732  -0.517   0.444  0.00  0.00     0.017 A 
ATOM      5  C4  UNL d   1       2.087   0.668  -0.210  0.00  0.00     0.017 A 
ATOM      6  C5  UNL d   1       3.074   0.646  -1.201  0.00  0.00     0.034 A 
ATOM      7 Cl   UNL d   1       1.348   2.187   0.157  0.00  0.00    -0.070 Cl
ATOM      8 Cl1  UNL d   1       0.523  -0.571   1.677  0.00  0.00    -0.070 Cl
ENDROOT
TORSDOF 0
ENDMDL
