MODEL 1
REMARK minimizedAffinity 2.88604999
REMARK minimizedRMSD -1
REMARK  0 active torsions:
REMARK  status: ('A' for Active; 'I' for Inactive)
ROOT
ATOM      1  C   UNL d   1      -4.472  -5.430   4.052  0.00  0.00     0.020 A 
ATOM      2  C1  UNL d   1      -4.456  -4.057   4.290  0.00  0.00     0.020 A 
ATOM      3  C2  UNL d   1      -3.836  -3.198   3.379  0.00  0.00     0.034 A 
ATOM      4  C3  UNL d   1      -3.231  -3.712   2.226  0.00  0.00     0.017 A 
ATOM      5  C4  UNL d   1      -3.248  -5.091   1.989  0.00  0.00     0.017 A 
ATOM      6  C5  UNL d   1      -3.870  -5.946   2.904  0.00  0.00     0.034 A 
ATOM      7 Cl   UNL d   1      -2.523  -5.800   0.589  0.00  0.00    -0.070 Cl
ATOM      8 Cl1  UNL d   1      -2.484  -2.592   1.143  0.00  0.00    -0.070 Cl
ENDROOT
TORSDOF 0
ENDMDL
