MODEL 1
REMARK minimizedAffinity 8.5271244
REMARK minimizedRMSD -1
REMARK  0 active torsions:
REMARK  status: ('A' for Active; 'I' for Inactive)
ROOT
ATOM      1  C   UNL d   1       1.438  -1.225   1.188  0.00  0.00     0.020 A 
ATOM      2  C1  UNL d   1       2.399  -0.215   1.183  0.00  0.00     0.020 A 
ATOM      3  C2  UNL d   1       3.141   0.037   0.027  0.00  0.00     0.034 A 
ATOM      4  C3  UNL d   1       2.923  -0.722  -1.129  0.00  0.00     0.017 A 
ATOM      5  C4  UNL d   1       1.958  -1.735  -1.123  0.00  0.00     0.017 A 
ATOM      6  C5  UNL d   1       1.218  -1.984   0.037  0.00  0.00     0.034 A 
ATOM      7 Cl   UNL d   1       1.632  -2.713  -2.510  0.00  0.00    -0.070 Cl
ATOM      8 Cl1  UNL d   1       3.876  -0.355  -2.522  0.00  0.00    -0.070 Cl
ENDROOT
TORSDOF 0
ENDMDL
