MODEL 1
REMARK minimizedAffinity 7.09217691
REMARK minimizedRMSD -1
REMARK  0 active torsions:
REMARK  status: ('A' for Active; 'I' for Inactive)
ROOT
ATOM      1  C   UNL d   1      -3.893   1.133  -0.700  0.00  0.00     0.020 A 
ATOM      2  C1  UNL d   1      -3.967  -0.035  -1.458  0.00  0.00     0.020 A 
ATOM      3  C2  UNL d   1      -3.627  -1.262  -0.884  0.00  0.00     0.034 A 
ATOM      4  C3  UNL d   1      -3.212  -1.324   0.451  0.00  0.00     0.017 A 
ATOM      5  C4  UNL d   1      -3.139  -0.151   1.211  0.00  0.00     0.017 A 
ATOM      6  C5  UNL d   1      -3.480   1.075   0.631  0.00  0.00     0.034 A 
ATOM      7 Cl   UNL d   1      -2.636  -0.148   2.864  0.00  0.00    -0.070 Cl
ATOM      8 Cl1  UNL d   1      -2.808  -2.875   1.096  0.00  0.00    -0.070 Cl
ENDROOT
TORSDOF 0
ENDMDL
