MODEL 1
REMARK minimizedAffinity 5.70464468
REMARK minimizedRMSD -1
REMARK  0 active torsions:
REMARK  status: ('A' for Active; 'I' for Inactive)
ROOT
ATOM      1  C   UNL d   1      -3.973   0.219  -0.668  0.00  0.00     0.020 A 
ATOM      2  C1  UNL d   1      -2.908  -0.154  -1.488  0.00  0.00     0.020 A 
ATOM      3  C2  UNL d   1      -2.405   0.745  -2.431  0.00  0.00     0.034 A 
ATOM      4  C3  UNL d   1      -2.966   2.021  -2.557  0.00  0.00     0.017 A 
ATOM      5  C4  UNL d   1      -4.035   2.394  -1.734  0.00  0.00     0.017 A 
ATOM      6  C5  UNL d   1      -4.535   1.490  -0.791  0.00  0.00     0.034 A 
ATOM      7 Cl   UNL d   1      -4.779   3.951  -1.831  0.00  0.00    -0.070 Cl
ATOM      8 Cl1  UNL d   1      -2.293   3.081  -3.744  0.00  0.00    -0.070 Cl
ENDROOT
TORSDOF 0
ENDMDL
