MODEL 1
REMARK minimizedAffinity 0.360754997
REMARK minimizedRMSD -1
REMARK  0 active torsions:
REMARK  status: ('A' for Active; 'I' for Inactive)
ROOT
ATOM      1  C   UNL d   1       1.253  -1.192  -0.010  0.00  0.00     0.020 A 
ATOM      2  C1  UNL d   1       2.472  -0.944  -0.641  0.00  0.00     0.020 A 
ATOM      3  C2  UNL d   1       3.651  -0.911   0.107  0.00  0.00     0.034 A 
ATOM      4  C3  UNL d   1       3.614  -1.126   1.489  0.00  0.00     0.017 A 
ATOM      5  C4  UNL d   1       2.390  -1.375   2.121  0.00  0.00     0.017 A 
ATOM      6  C5  UNL d   1       1.213  -1.407   1.368  0.00  0.00     0.034 A 
ATOM      7 Cl   UNL d   1       2.265  -1.650   3.823  0.00  0.00    -0.070 Cl
ATOM      8 Cl1  UNL d   1       5.110  -1.071   2.351  0.00  0.00    -0.070 Cl
ENDROOT
TORSDOF 0
ENDMDL
