MODEL 1
REMARK minimizedAffinity 9.51885796
REMARK minimizedRMSD -1
REMARK  0 active torsions:
REMARK  status: ('A' for Active; 'I' for Inactive)
ROOT
ATOM      1  C   UNL d   1       1.481   0.782   0.526  0.00  0.00     0.020 A 
ATOM      2  C1  UNL d   1       1.754  -0.501   0.055  0.00  0.00     0.020 A 
ATOM      3  C2  UNL d   1       2.852  -0.720  -0.780  0.00  0.00     0.034 A 
ATOM      4  C3  UNL d   1       3.681   0.347  -1.145  0.00  0.00     0.017 A 
ATOM      5  C4  UNL d   1       3.407   1.635  -0.671  0.00  0.00     0.017 A 
ATOM      6  C5  UNL d   1       2.306   1.848   0.164  0.00  0.00     0.034 A 
ATOM      7 Cl   UNL d   1       4.384   3.000  -1.079  0.00  0.00    -0.070 Cl
ATOM      8 Cl1  UNL d   1       5.022   0.004  -2.180  0.00  0.00    -0.070 Cl
ENDROOT
TORSDOF 0
ENDMDL
