MODEL 1
REMARK minimizedAffinity 2.24872828
REMARK minimizedRMSD -1
REMARK  0 active torsions:
REMARK  status: ('A' for Active; 'I' for Inactive)
ROOT
ATOM      1  C   UNL d   1      -4.021  -5.759  -3.089  0.00  0.00     0.020 A 
ATOM      2  C1  UNL d   1      -5.388  -5.997  -2.959  0.00  0.00     0.020 A 
ATOM      3  C2  UNL d   1      -5.979  -6.000  -1.693  0.00  0.00     0.034 A 
ATOM      4  C3  UNL d   1      -5.202  -5.765  -0.553  0.00  0.00     0.017 A 
ATOM      5  C4  UNL d   1      -3.829  -5.527  -0.685  0.00  0.00     0.017 A 
ATOM      6  C5  UNL d   1      -3.243  -5.525  -1.955  0.00  0.00     0.034 A 
ATOM      7 Cl   UNL d   1      -2.805  -5.229   0.675  0.00  0.00    -0.070 Cl
ATOM      8 Cl1  UNL d   1      -5.998  -5.783   0.980  0.00  0.00    -0.070 Cl
ENDROOT
TORSDOF 0
ENDMDL
