MODEL 1
REMARK minimizedAffinity 3.20532084
REMARK minimizedRMSD -1
REMARK  0 active torsions:
REMARK  status: ('A' for Active; 'I' for Inactive)
ROOT
ATOM      1  C   UNL d   1      -3.165  -4.675   2.890  0.00  0.00     0.020 A 
ATOM      2  C1  UNL d   1      -4.406  -5.244   2.603  0.00  0.00     0.020 A 
ATOM      3  C2  UNL d   1      -4.791  -5.448   1.277  0.00  0.00     0.034 A 
ATOM      4  C3  UNL d   1      -3.935  -5.083   0.231  0.00  0.00     0.017 A 
ATOM      5  C4  UNL d   1      -2.690  -4.512   0.520  0.00  0.00     0.017 A 
ATOM      6  C5  UNL d   1      -2.309  -4.310   1.850  0.00  0.00     0.034 A 
ATOM      7 Cl   UNL d   1      -1.580  -4.036  -0.717  0.00  0.00    -0.070 Cl
ATOM      8 Cl1  UNL d   1      -4.476  -5.364  -1.385  0.00  0.00    -0.070 Cl
ENDROOT
TORSDOF 0
ENDMDL
