MODEL 1
REMARK minimizedAffinity -2.88325977
REMARK minimizedRMSD -1
REMARK  0 active torsions:
REMARK  status: ('A' for Active; 'I' for Inactive)
ROOT
ATOM      1  C   UNL d   1      -4.981  -5.981   1.313  0.00  0.00     0.020 A 
ATOM      2  C1  UNL d   1      -3.630  -5.979   1.656  0.00  0.00     0.020 A 
ATOM      3  C2  UNL d   1      -2.655  -5.983   0.656  0.00  0.00     0.034 A 
ATOM      4  C3  UNL d   1      -3.031  -5.990  -0.692  0.00  0.00     0.017 A 
ATOM      5  C4  UNL d   1      -4.387  -5.992  -1.036  0.00  0.00     0.017 A 
ATOM      6  C5  UNL d   1      -5.359  -5.987  -0.030  0.00  0.00     0.034 A 
ATOM      7 Cl   UNL d   1      -4.927  -6.000  -2.678  0.00  0.00    -0.070 Cl
ATOM      8 Cl1  UNL d   1      -1.772  -5.995  -1.876  0.00  0.00    -0.070 Cl
ENDROOT
TORSDOF 0
ENDMDL
