MODEL 1
REMARK minimizedAffinity 8.05629539
REMARK minimizedRMSD -1
REMARK  0 active torsions:
REMARK  status: ('A' for Active; 'I' for Inactive)
ROOT
ATOM      1  C   UNL d   1       5.582   3.090  -0.325  0.00  0.00     0.020 A 
ATOM      2  C1  UNL d   1       4.453   3.420  -1.074  0.00  0.00     0.020 A 
ATOM      3  C2  UNL d   1       3.342   2.574  -1.071  0.00  0.00     0.034 A 
ATOM      4  C3  UNL d   1       3.358   1.394  -0.318  0.00  0.00     0.017 A 
ATOM      5  C4  UNL d   1       4.492   1.064   0.433  0.00  0.00     0.017 A 
ATOM      6  C5  UNL d   1       5.601   1.914   0.427  0.00  0.00     0.034 A 
ATOM      7 Cl   UNL d   1       4.585  -0.375   1.386  0.00  0.00    -0.070 Cl
ATOM      8 Cl1  UNL d   1       1.949   0.395  -0.361  0.00  0.00    -0.070 Cl
ENDROOT
TORSDOF 0
ENDMDL
