MODEL 1
REMARK minimizedAffinity 7.66287231
REMARK minimizedRMSD -1
REMARK  0 active torsions:
REMARK  status: ('A' for Active; 'I' for Inactive)
ROOT
ATOM      1  C   UNL d   1       1.122   0.236  -0.707  0.00  0.00     0.020 A 
ATOM      2  C1  UNL d   1      -0.018   0.429   0.072  0.00  0.00     0.020 A 
ATOM      3  C2  UNL d   1      -0.778  -0.668   0.482  0.00  0.00     0.034 A 
ATOM      4  C3  UNL d   1      -0.400  -1.964   0.113  0.00  0.00     0.017 A 
ATOM      5  C4  UNL d   1       0.744  -2.157  -0.670  0.00  0.00     0.017 A 
ATOM      6  C5  UNL d   1       1.502  -1.055  -1.077  0.00  0.00     0.034 A 
ATOM      7 Cl   UNL d   1       1.274  -3.726  -1.165  0.00  0.00    -0.070 Cl
ATOM      8 Cl1  UNL d   1      -1.386  -3.274   0.655  0.00  0.00    -0.070 Cl
ENDROOT
TORSDOF 0
ENDMDL
