MODEL 1
REMARK minimizedAffinity 1.26433229
REMARK minimizedRMSD -1
REMARK  0 active torsions:
REMARK  status: ('A' for Active; 'I' for Inactive)
ROOT
ATOM      1  C   UNL d   1       1.477  -5.081  -5.435  0.00  0.00     0.020 A 
ATOM      2  C1  UNL d   1       0.374  -5.721  -6.000  0.00  0.00     0.020 A 
ATOM      3  C2  UNL d   1      -0.750  -5.995  -5.218  0.00  0.00     0.034 A 
ATOM      4  C3  UNL d   1      -0.775  -5.628  -3.868  0.00  0.00     0.017 A 
ATOM      5  C4  UNL d   1       0.332  -4.985  -3.302  0.00  0.00     0.017 A 
ATOM      6  C5  UNL d   1       1.455  -4.714  -4.089  0.00  0.00     0.034 A 
ATOM      7 Cl   UNL d   1       0.375  -4.503  -1.643  0.00  0.00    -0.070 Cl
ATOM      8 Cl1  UNL d   1      -2.199  -5.997  -2.961  0.00  0.00    -0.070 Cl
ENDROOT
TORSDOF 0
ENDMDL
