MODEL 1
REMARK minimizedAffinity -1.80622661
REMARK minimizedRMSD -1
REMARK  0 active torsions:
REMARK  status: ('A' for Active; 'I' for Inactive)
ROOT
ATOM      1  C   UNL d   1       2.676  -5.990  -5.158  0.00  0.00     0.020 A 
ATOM      2  C1  UNL d   1       1.564  -5.997  -5.999  0.00  0.00     0.020 A 
ATOM      3  C2  UNL d   1       0.278  -6.000  -5.456  0.00  0.00     0.034 A 
ATOM      4  C3  UNL d   1       0.100  -5.996  -4.068  0.00  0.00     0.017 A 
ATOM      5  C4  UNL d   1       1.217  -5.989  -3.224  0.00  0.00     0.017 A 
ATOM      6  C5  UNL d   1       2.503  -5.987  -3.774  0.00  0.00     0.034 A 
ATOM      7 Cl   UNL d   1       1.077  -5.984  -1.502  0.00  0.00    -0.070 Cl
ATOM      8 Cl1  UNL d   1      -1.519  -5.999  -3.465  0.00  0.00    -0.070 Cl
ENDROOT
TORSDOF 0
ENDMDL
