MODEL 1
REMARK minimizedAffinity 4.24746561
REMARK minimizedRMSD -1
REMARK  0 active torsions:
REMARK  status: ('A' for Active; 'I' for Inactive)
ROOT
ATOM      1  C   UNL d   1       0.116   0.850  -2.538  0.00  0.00     0.020 A 
ATOM      2  C1  UNL d   1       1.385   0.416  -2.920  0.00  0.00     0.020 A 
ATOM      3  C2  UNL d   1       2.285  -0.043  -1.956  0.00  0.00     0.034 A 
ATOM      4  C3  UNL d   1       1.918  -0.070  -0.606  0.00  0.00     0.017 A 
ATOM      5  C4  UNL d   1       0.644   0.366  -0.224  0.00  0.00     0.017 A 
ATOM      6  C5  UNL d   1      -0.253   0.825  -1.193  0.00  0.00     0.034 A 
ATOM      7 Cl   UNL d   1       0.119   0.362   1.423  0.00  0.00    -0.070 Cl
ATOM      8 Cl1  UNL d   1       3.081  -0.651   0.532  0.00  0.00    -0.070 Cl
ENDROOT
TORSDOF 0
ENDMDL
