MODEL 1
REMARK minimizedAffinity 4.01099348
REMARK minimizedRMSD -1
REMARK  0 active torsions:
REMARK  status: ('A' for Active; 'I' for Inactive)
ROOT
ATOM      1  C   UNL d   1      -2.101  -1.442   0.938  0.00  0.00     0.020 A 
ATOM      2  C1  UNL d   1      -2.458  -1.606  -0.400  0.00  0.00     0.020 A 
ATOM      3  C2  UNL d   1      -2.503  -0.501  -1.251  0.00  0.00     0.034 A 
ATOM      4  C3  UNL d   1      -2.191   0.775  -0.766  0.00  0.00     0.017 A 
ATOM      5  C4  UNL d   1      -1.833   0.939   0.577  0.00  0.00     0.017 A 
ATOM      6  C5  UNL d   1      -1.790  -0.172   1.425  0.00  0.00     0.034 A 
ATOM      7 Cl   UNL d   1      -1.435   2.481   1.248  0.00  0.00    -0.070 Cl
ATOM      8 Cl1  UNL d   1      -2.267   2.097  -1.876  0.00  0.00    -0.070 Cl
ENDROOT
TORSDOF 0
ENDMDL
