MODEL 1
REMARK minimizedAffinity -5.47842407
REMARK minimizedRMSD -1
REMARK  0 active torsions:
REMARK  status: ('A' for Active; 'I' for Inactive)
ROOT
ATOM      1  C1  DEN d   1       0.654  -0.338   0.373  0.00  0.00     0.130 A 
ATOM      2  C2  DEN d   1       0.566   0.601  -0.741  0.00  0.00    -0.031 A 
ATOM      3  C3  DEN d   1      -0.744   0.409  -1.397  0.00  0.00     0.027 A 
ATOM      4  C4  DEN d   1      -2.633  -1.240  -0.795  0.00  0.00     0.027 A 
ATOM      5  C5  DEN d   1      -3.013  -2.247   0.065  0.00  0.00    -0.003 A 
ATOM      6  C6  DEN d   1      -2.190  -2.707   1.058  0.00  0.00     0.001 A 
ATOM      7  C7  DEN d   1      -0.962  -2.129   1.245  0.00  0.00     0.017 A 
ATOM      8  C8  DEN d   1      -0.569  -1.119   0.378  0.00  0.00    -0.094 A 
ATOM      9  C9  DEN d   1      -1.420  -0.659  -0.613  0.00  0.00    -0.072 A 
ENDROOT
TORSDOF 0
ENDMDL
