MODEL 1
REMARK minimizedAffinity -4.87181854
REMARK minimizedRMSD -1
REMARK  0 active torsions:
REMARK  status: ('A' for Active; 'I' for Inactive)
ROOT
ATOM      1  C1  DEN d   1      -1.033   0.663  -1.613  0.00  0.00     0.130 A 
ATOM      2  C2  DEN d   1      -2.334   0.002  -1.580  0.00  0.00    -0.031 A 
ATOM      3  C3  DEN d   1      -2.257  -1.111  -0.612  0.00  0.00     0.027 A 
ATOM      4  C4  DEN d   1      -0.260  -1.866   0.835  0.00  0.00     0.027 A 
ATOM      5  C5  DEN d   1       1.060  -1.619   1.144  0.00  0.00    -0.003 A 
ATOM      6  C6  DEN d   1       1.778  -0.625   0.535  0.00  0.00     0.001 A 
ATOM      7  C7  DEN d   1       1.168   0.190  -0.381  0.00  0.00     0.017 A 
ATOM      8  C8  DEN d   1      -0.160  -0.057  -0.703  0.00  0.00    -0.094 A 
ATOM      9  C9  DEN d   1      -0.873  -1.060  -0.068  0.00  0.00    -0.072 A 
ENDROOT
TORSDOF 0
ENDMDL
