MODEL 1
REMARK minimizedAffinity -4.80498266
REMARK minimizedRMSD -1
REMARK  0 active torsions:
REMARK  status: ('A' for Active; 'I' for Inactive)
ROOT
ATOM      1  C1  DEN d   1      -2.384  -2.373   0.212  0.00  0.00     0.130 A 
ATOM      2  C2  DEN d   1      -1.637  -3.050   1.268  0.00  0.00    -0.031 A 
ATOM      3  C3  DEN d   1      -0.388  -2.296   1.499  0.00  0.00     0.027 A 
ATOM      4  C4  DEN d   1       0.454  -0.155   0.333  0.00  0.00     0.027 A 
ATOM      5  C5  DEN d   1       0.170   0.781  -0.637  0.00  0.00    -0.003 A 
ATOM      6  C6  DEN d   1      -0.960   0.712  -1.409  0.00  0.00     0.001 A 
ATOM      7  C7  DEN d   1      -1.870  -0.289  -1.194  0.00  0.00     0.017 A 
ATOM      8  C8  DEN d   1      -1.587  -1.240  -0.222  0.00  0.00    -0.094 A 
ATOM      9  C9  DEN d   1      -0.445  -1.147   0.556  0.00  0.00    -0.072 A 
ENDROOT
TORSDOF 0
ENDMDL
