MODEL 1
REMARK minimizedAffinity -3.07836008
REMARK minimizedRMSD -1
REMARK  0 active torsions:
REMARK  status: ('A' for Active; 'I' for Inactive)
ROOT
ATOM      1  C1  DEN d   1       1.214   1.022  -0.049  0.00  0.00     0.130 A 
ATOM      2  C2  DEN d   1       1.872   0.120   0.892  0.00  0.00    -0.031 A 
ATOM      3  C3  DEN d   1       1.021  -1.077   1.049  0.00  0.00     0.027 A 
ATOM      4  C4  DEN d   1      -1.237  -1.620  -0.073  0.00  0.00     0.027 A 
ATOM      5  C5  DEN d   1      -2.201  -1.154  -0.939  0.00  0.00    -0.003 A 
ATOM      6  C6  DEN d   1      -2.111   0.075  -1.539  0.00  0.00     0.001 A 
ATOM      7  C7  DEN d   1      -1.012   0.861  -1.314  0.00  0.00     0.017 A 
ATOM      8  C8  DEN d   1      -0.040   0.401  -0.436  0.00  0.00    -0.094 A 
ATOM      9  C9  DEN d   1      -0.143  -0.849   0.151  0.00  0.00    -0.072 A 
ENDROOT
TORSDOF 0
ENDMDL
