MODEL 1
REMARK minimizedAffinity -0.192110017
REMARK minimizedRMSD -1
REMARK  0 active torsions:
REMARK  status: ('A' for Active; 'I' for Inactive)
ROOT
ATOM      1  C1  DEN d   1      -2.532  -2.100  -0.397  0.00  0.00     0.130 A 
ATOM      2  C2  DEN d   1      -2.383  -2.955   0.778  0.00  0.00    -0.031 A 
ATOM      3  C3  DEN d   1      -1.122  -2.588   1.453  0.00  0.00     0.027 A 
ATOM      4  C4  DEN d   1       0.604  -0.786   0.799  0.00  0.00     0.027 A 
ATOM      5  C5  DEN d   1       0.917   0.185  -0.126  0.00  0.00    -0.003 A 
ATOM      6  C6  DEN d   1       0.127   0.437  -1.216  0.00  0.00     0.001 A 
ATOM      7  C7  DEN d   1      -1.040  -0.260  -1.384  0.00  0.00     0.017 A 
ATOM      8  C8  DEN d   1      -1.359  -1.246  -0.459  0.00  0.00    -0.094 A 
ATOM      9  C9  DEN d   1      -0.554  -1.477   0.643  0.00  0.00    -0.072 A 
ENDROOT
TORSDOF 0
ENDMDL
