MODEL 1
REMARK minimizedAffinity 1.49201071
REMARK minimizedRMSD -1
REMARK  0 active torsions:
REMARK  status: ('A' for Active; 'I' for Inactive)
ROOT
ATOM      1  C1  DEN d   1       1.275   3.315   0.228  0.00  0.00     0.130 A 
ATOM      2  C2  DEN d   1       2.142   3.306   1.402  0.00  0.00    -0.031 A 
ATOM      3  C3  DEN d   1       2.169   1.931   1.941  0.00  0.00     0.027 A 
ATOM      4  C4  DEN d   1       0.961  -0.175   1.071  0.00  0.00     0.027 A 
ATOM      5  C5  DEN d   1       0.103  -0.660   0.108  0.00  0.00    -0.003 A 
ATOM      6  C6  DEN d   1      -0.446   0.145  -0.853  0.00  0.00     0.001 A 
ATOM      7  C7  DEN d   1      -0.108   1.472  -0.901  0.00  0.00     0.017 A 
ATOM      8  C8  DEN d   1       0.750   1.970   0.070  0.00  0.00    -0.094 A 
ATOM      9  C9  DEN d   1       1.305   1.137   1.026  0.00  0.00    -0.072 A 
ENDROOT
TORSDOF 0
ENDMDL
