MODEL 1
REMARK minimizedAffinity -2.18673825
REMARK minimizedRMSD -1
REMARK  0 active torsions:
REMARK  status: ('A' for Active; 'I' for Inactive)
ROOT
ATOM      1  C1  DEN d   1      -0.185   0.918   0.963  0.00  0.00     0.130 A 
ATOM      2  C2  DEN d   1       0.125  -0.190   0.064  0.00  0.00    -0.031 A 
ATOM      3  C3  DEN d   1       1.497   0.007  -0.446  0.00  0.00     0.027 A 
ATOM      4  C4  DEN d   1       3.164   1.906   0.071  0.00  0.00     0.027 A 
ATOM      5  C5  DEN d   1       3.347   3.080   0.769  0.00  0.00    -0.003 A 
ATOM      6  C6  DEN d   1       2.362   3.628   1.547  0.00  0.00     0.001 A 
ATOM      7  C7  DEN d   1       1.163   2.979   1.682  0.00  0.00     0.017 A 
ATOM      8  C8  DEN d   1       0.968   1.799   0.976  0.00  0.00    -0.094 A 
ATOM      9  C9  DEN d   1       1.981   1.255   0.204  0.00  0.00    -0.072 A 
ENDROOT
TORSDOF 0
ENDMDL
