MODEL 1
REMARK minimizedAffinity -3.2392664
REMARK minimizedRMSD -1
REMARK  0 active torsions:
REMARK  status: ('A' for Active; 'I' for Inactive)
ROOT
ATOM      1  C1  DEN d   1       1.440  -0.011  -0.300  0.00  0.00     0.130 A 
ATOM      2  C2  DEN d   1       0.017  -0.190  -0.577  0.00  0.00    -0.031 A 
ATOM      3  C3  DEN d   1      -0.712   0.945   0.023  0.00  0.00     0.027 A 
ATOM      4  C4  DEN d   1       0.220   2.955   1.344  0.00  0.00     0.027 A 
ATOM      5  C5  DEN d   1       1.364   3.537   1.844  0.00  0.00    -0.003 A 
ATOM      6  C6  DEN d   1       2.600   2.964   1.695  0.00  0.00     0.001 A 
ATOM      7  C7  DEN d   1       2.726   1.796   0.990  0.00  0.00     0.017 A 
ATOM      8  C8  DEN d   1       1.576   1.200   0.489  0.00  0.00    -0.094 A 
ATOM      9  C9  DEN d   1       0.338   1.801   0.640  0.00  0.00    -0.072 A 
ENDROOT
TORSDOF 0
ENDMDL
