MODEL 1
REMARK minimizedAffinity -0.429219872
REMARK minimizedRMSD -1
REMARK  0 active torsions:
REMARK  status: ('A' for Active; 'I' for Inactive)
ROOT
ATOM      1  C1  DEN d   1       1.534   2.042  -0.435  0.00  0.00     0.130 A 
ATOM      2  C2  DEN d   1       2.369   1.140   0.354  0.00  0.00    -0.031 A 
ATOM      3  C3  DEN d   1       1.665  -0.153   0.466  0.00  0.00     0.027 A 
ATOM      4  C4  DEN d   1      -0.622  -0.845  -0.507  0.00  0.00     0.027 A 
ATOM      5  C5  DEN d   1      -1.706  -0.416  -1.239  0.00  0.00    -0.003 A 
ATOM      6  C6  DEN d   1      -1.802   0.862  -1.722  0.00  0.00     0.001 A 
ATOM      7  C7  DEN d   1      -0.773   1.744  -1.517  0.00  0.00     0.017 A 
ATOM      8  C8  DEN d   1       0.320   1.321  -0.773  0.00  0.00    -0.094 A 
ATOM      9  C9  DEN d   1       0.403   0.021  -0.304  0.00  0.00    -0.072 A 
ENDROOT
TORSDOF 0
ENDMDL
