MODEL 1
REMARK minimizedAffinity 7.03233624
REMARK minimizedRMSD -1
REMARK  0 active torsions:
REMARK  status: ('A' for Active; 'I' for Inactive)
ROOT
ATOM      1  C1  DEN d   1      -2.893  -3.094   1.185  0.00  0.00     0.130 A 
ATOM      2  C2  DEN d   1      -1.707  -3.731   1.751  0.00  0.00    -0.031 A 
ATOM      3  C3  DEN d   1      -0.520  -3.004   1.258  0.00  0.00     0.027 A 
ATOM      4  C4  DEN d   1      -0.403  -0.963  -0.314  0.00  0.00     0.027 A 
ATOM      5  C5  DEN d   1      -1.148  -0.078  -1.061  0.00  0.00    -0.003 A 
ATOM      6  C6  DEN d   1      -2.513  -0.156  -1.139  0.00  0.00     0.001 A 
ATOM      7  C7  DEN d   1      -3.180  -1.113  -0.421  0.00  0.00     0.017 A 
ATOM      8  C8  DEN d   1      -2.435  -2.014   0.329  0.00  0.00    -0.094 A 
ATOM      9  C9  DEN d   1      -1.057  -1.911   0.404  0.00  0.00    -0.072 A 
ENDROOT
TORSDOF 0
ENDMDL
