MODEL 1
REMARK minimizedAffinity -3.25584292
REMARK minimizedRMSD -1
REMARK  0 active torsions:
REMARK  status: ('A' for Active; 'I' for Inactive)
ROOT
ATOM      1  C1  DEN d   1       0.651  -0.548   0.950  0.00  0.00     0.130 A 
ATOM      2  C2  DEN d   1       0.583   0.593   0.042  0.00  0.00    -0.031 A 
ATOM      3  C3  DEN d   1      -0.584   0.404  -0.843  0.00  0.00     0.027 A 
ATOM      4  C4  DEN d   1      -2.286  -1.533  -0.891  0.00  0.00     0.027 A 
ATOM      5  C5  DEN d   1      -2.634  -2.737  -0.318  0.00  0.00    -0.003 A 
ATOM      6  C6  DEN d   1      -1.898  -3.307   0.686  0.00  0.00     0.001 A 
ATOM      7  C7  DEN d   1      -0.801  -2.651   1.180  0.00  0.00     0.017 A 
ATOM      8  C8  DEN d   1      -0.440  -1.441   0.602  0.00  0.00    -0.094 A 
ATOM      9  C9  DEN d   1      -1.204  -0.875  -0.404  0.00  0.00    -0.072 A 
ENDROOT
TORSDOF 0
ENDMDL
