MODEL 1
REMARK minimizedAffinity 13.6968231
REMARK minimizedRMSD -1
REMARK  1 active torsions:
REMARK  status: ('A' for Active; 'I' for Inactive)
REMARK    1  A    between atoms: C1_2  and  C2_3 
ROOT
ATOM      1  C2  UNL d   1       3.923   0.928  -0.255  0.00  0.00    -0.081 A 
ATOM      2  C3  UNL d   1       4.392  -0.305   0.213  0.00  0.00     0.006 A 
ATOM      3  C4  UNL d   1       3.718  -1.487  -0.107  0.00  0.00     0.002 A 
ATOM      4  C5  UNL d   1       2.570  -1.455  -0.906  0.00  0.00    -0.080 A 
ATOM      5  C6  UNL d   1       1.855  -2.719  -1.282  0.00  0.00     0.076 C 
ATOM      6  C7  UNL d   1       2.091  -0.221  -1.359  0.00  0.00     0.002 A 
ATOM      7  C8  UNL d   1       2.764   0.960  -1.039  0.00  0.00     0.006 A 
ENDROOT
BRANCH   1   8
ATOM      8  C1  UNL d   1       4.683   2.197   0.034  0.00  0.00     0.054 C 
ATOM      9  C   UNL d   1       5.999   2.240  -0.731  0.00  0.00     0.018 C 
ENDBRANCH   1   8
TORSDOF 1
ENDMDL
