MODEL 1
REMARK minimizedAffinity 14.0200348
REMARK minimizedRMSD -1
REMARK  1 active torsions:
REMARK  status: ('A' for Active; 'I' for Inactive)
REMARK    1  A    between atoms: C1_2  and  C2_3 
ROOT
ATOM      1  C2  UNL d   1      -1.463   2.848  -4.362  0.00  0.00    -0.081 A 
ATOM      2  C3  UNL d   1      -2.268   2.611  -5.483  0.00  0.00     0.006 A 
ATOM      3  C4  UNL d   1      -3.079   3.624  -6.000  0.00  0.00     0.002 A 
ATOM      4  C5  UNL d   1      -3.092   4.893  -5.410  0.00  0.00    -0.080 A 
ATOM      5  C6  UNL d   1      -3.935   5.998  -5.973  0.00  0.00     0.076 C 
ATOM      6  C7  UNL d   1      -2.301   5.124  -4.279  0.00  0.00     0.002 A 
ATOM      7  C8  UNL d   1      -1.491   4.111  -3.762  0.00  0.00     0.006 A 
ENDROOT
BRANCH   1   8
ATOM      8  C1  UNL d   1      -0.540   1.776  -3.842  0.00  0.00     0.054 C 
ATOM      9  C   UNL d   1       0.870   1.947  -4.389  0.00  0.00     0.018 C 
ENDBRANCH   1   8
TORSDOF 1
ENDMDL
