MODEL 1
REMARK minimizedAffinity 13.9364996
REMARK minimizedRMSD -1
REMARK  1 active torsions:
REMARK  status: ('A' for Active; 'I' for Inactive)
REMARK    1  A    between atoms: C1_2  and  C2_3 
ROOT
ATOM      1  C2  UNL d   1       3.273  -1.005  -0.588  0.00  0.00    -0.081 A 
ATOM      2  C3  UNL d   1       3.088  -2.339  -0.205  0.00  0.00     0.006 A 
ATOM      3  C4  UNL d   1       2.195  -3.158  -0.902  0.00  0.00     0.002 A 
ATOM      4  C5  UNL d   1       1.480  -2.659  -1.996  0.00  0.00    -0.080 A 
ATOM      5  C6  UNL d   1       0.542  -3.536  -2.771  0.00  0.00     0.076 C 
ATOM      6  C7  UNL d   1       1.652  -1.321  -2.367  0.00  0.00     0.002 A 
ATOM      7  C8  UNL d   1       2.544  -0.502  -1.671  0.00  0.00     0.006 A 
ENDROOT
BRANCH   1   8
ATOM      8  C1  UNL d   1       4.282  -0.138   0.121  0.00  0.00     0.054 C 
ATOM      9  C   UNL d   1       3.961   1.339  -0.052  0.00  0.00     0.018 C 
ENDBRANCH   1   8
TORSDOF 1
ENDMDL
