MODEL 1
REMARK minimizedAffinity 5.84407902
REMARK minimizedRMSD -1
REMARK  1 active torsions:
REMARK  status: ('A' for Active; 'I' for Inactive)
REMARK    1  A    between atoms: C1_2  and  C2_3 
ROOT
ATOM      1  C2  UNL d   1       3.784   0.335  -0.133  0.00  0.00    -0.081 A 
ATOM      2  C3  UNL d   1       2.654  -0.102  -0.835  0.00  0.00     0.006 A 
ATOM      3  C4  UNL d   1       2.278  -1.447  -0.805  0.00  0.00     0.002 A 
ATOM      4  C5  UNL d   1       3.020  -2.375  -0.067  0.00  0.00    -0.080 A 
ATOM      5  C6  UNL d   1       2.610  -3.817  -0.002  0.00  0.00     0.076 C 
ATOM      6  C7  UNL d   1       4.159  -1.942   0.620  0.00  0.00     0.002 A 
ATOM      7  C8  UNL d   1       4.536  -0.598   0.590  0.00  0.00     0.006 A 
ENDROOT
BRANCH   1   8
ATOM      8  C1  UNL d   1       4.155   1.796  -0.111  0.00  0.00     0.054 C 
ATOM      9  C   UNL d   1       3.799   2.437   1.222  0.00  0.00     0.018 C 
ENDBRANCH   1   8
TORSDOF 1
ENDMDL
