MODEL 1
REMARK minimizedAffinity 19.7265129
REMARK minimizedRMSD -1
REMARK  1 active torsions:
REMARK  status: ('A' for Active; 'I' for Inactive)
REMARK    1  A    between atoms: C1_2  and  C2_3 
ROOT
ATOM      1  C2  UNL d   1      -1.890   0.940   2.818  0.00  0.00    -0.081 A 
ATOM      2  C3  UNL d   1      -1.622   1.950   1.885  0.00  0.00     0.006 A 
ATOM      3  C4  UNL d   1      -0.308   2.234   1.507  0.00  0.00     0.002 A 
ATOM      4  C5  UNL d   1       0.759   1.508   2.048  0.00  0.00    -0.080 A 
ATOM      5  C6  UNL d   1       2.173   1.782   1.628  0.00  0.00     0.076 C 
ATOM      6  C7  UNL d   1       0.493   0.511   2.992  0.00  0.00     0.002 A 
ATOM      7  C8  UNL d   1      -0.821   0.227   3.372  0.00  0.00     0.006 A 
ENDROOT
BRANCH   1   8
ATOM      8  C1  UNL d   1      -3.310   0.588   3.179  0.00  0.00     0.054 C 
ATOM      9  C   UNL d   1      -3.436  -0.880   3.560  0.00  0.00     0.018 C 
ENDBRANCH   1   8
TORSDOF 1
ENDMDL
