MODEL 1
REMARK minimizedAffinity 17.2624512
REMARK minimizedRMSD -1
REMARK  1 active torsions:
REMARK  status: ('A' for Active; 'I' for Inactive)
REMARK    1  A    between atoms: C1_2  and  C2_3 
ROOT
ATOM      1  C2  UNL d   1       3.169  -1.739  -0.880  0.00  0.00    -0.081 A 
ATOM      2  C3  UNL d   1       2.438  -2.004  -2.045  0.00  0.00     0.006 A 
ATOM      3  C4  UNL d   1       1.894  -0.957  -2.793  0.00  0.00     0.002 A 
ATOM      4  C5  UNL d   1       2.078   0.371  -2.394  0.00  0.00    -0.080 A 
ATOM      5  C6  UNL d   1       1.524   1.506  -3.204  0.00  0.00     0.076 C 
ATOM      6  C7  UNL d   1       2.793   0.635  -1.221  0.00  0.00     0.002 A 
ATOM      7  C8  UNL d   1       3.337  -0.411  -0.472  0.00  0.00     0.006 A 
ENDROOT
BRANCH   1   8
ATOM      8  C1  UNL d   1       3.813  -2.861  -0.107  0.00  0.00     0.054 C 
ATOM      9  C   UNL d   1       2.824  -3.987   0.159  0.00  0.00     0.018 C 
ENDBRANCH   1   8
TORSDOF 1
ENDMDL
