MODEL 1
REMARK minimizedAffinity 16.5420303
REMARK minimizedRMSD -1
REMARK  1 active torsions:
REMARK  status: ('A' for Active; 'I' for Inactive)
REMARK    1  A    between atoms: C1_2  and  C2_3 
ROOT
ATOM      1  C2  UNL d   1       2.597  -0.603  -0.479  0.00  0.00    -0.081 A 
ATOM      2  C3  UNL d   1       2.807  -1.947  -0.148  0.00  0.00     0.006 A 
ATOM      3  C4  UNL d   1       2.334  -2.964  -0.980  0.00  0.00     0.002 A 
ATOM      4  C5  UNL d   1       1.651  -2.654  -2.161  0.00  0.00    -0.080 A 
ATOM      5  C6  UNL d   1       1.165  -3.736  -3.079  0.00  0.00     0.076 C 
ATOM      6  C7  UNL d   1       1.427  -1.312  -2.484  0.00  0.00     0.002 A 
ATOM      7  C8  UNL d   1       1.899  -0.294  -1.652  0.00  0.00     0.006 A 
ENDROOT
BRANCH   1   8
ATOM      8  C1  UNL d   1       3.163   0.497   0.383  0.00  0.00     0.054 C 
ATOM      9  C   UNL d   1       4.174   1.337  -0.383  0.00  0.00     0.018 C 
ENDBRANCH   1   8
TORSDOF 1
ENDMDL
