MODEL 1
REMARK minimizedAffinity 5.82525921
REMARK minimizedRMSD -1
REMARK  1 active torsions:
REMARK  status: ('A' for Active; 'I' for Inactive)
REMARK    1  A    between atoms: C1_2  and  C2_3 
ROOT
ATOM      1  C2  UNL d   1       3.925  -0.120  -0.074  0.00  0.00    -0.081 A 
ATOM      2  C3  UNL d   1       2.801  -0.686  -0.687  0.00  0.00     0.006 A 
ATOM      3  C4  UNL d   1       2.611  -2.070  -0.680  0.00  0.00     0.002 A 
ATOM      4  C5  UNL d   1       3.538  -2.910  -0.053  0.00  0.00    -0.080 A 
ATOM      5  C6  UNL d   1       3.330  -4.395  -0.012  0.00  0.00     0.076 C 
ATOM      6  C7  UNL d   1       4.670  -2.346   0.544  0.00  0.00     0.002 A 
ATOM      7  C8  UNL d   1       4.861  -0.963   0.537  0.00  0.00     0.006 A 
ENDROOT
BRANCH   1   8
ATOM      8  C1  UNL d   1       4.100   1.376  -0.024  0.00  0.00     0.054 C 
ATOM      9  C   UNL d   1       3.811   1.921   1.368  0.00  0.00     0.018 C 
ENDBRANCH   1   8
TORSDOF 1
ENDMDL
