MODEL 1
REMARK minimizedAffinity 16.6959686
REMARK minimizedRMSD -1
REMARK  1 active torsions:
REMARK  status: ('A' for Active; 'I' for Inactive)
REMARK    1  A    between atoms: C1_2  and  C2_3 
ROOT
ATOM      1  C2  UNL d   1      -4.013  -1.906   2.463  0.00  0.00    -0.081 A 
ATOM      2  C3  UNL d   1      -3.025  -2.899   2.461  0.00  0.00     0.006 A 
ATOM      3  C4  UNL d   1      -3.232  -4.103   1.783  0.00  0.00     0.002 A 
ATOM      4  C5  UNL d   1      -4.426  -4.332   1.091  0.00  0.00    -0.080 A 
ATOM      5  C6  UNL d   1      -4.648  -5.608   0.335  0.00  0.00     0.076 C 
ATOM      6  C7  UNL d   1      -5.420  -3.347   1.107  0.00  0.00     0.002 A 
ATOM      7  C8  UNL d   1      -5.214  -2.144   1.785  0.00  0.00     0.006 A 
ENDROOT
BRANCH   1   8
ATOM      8  C1  UNL d   1      -3.767  -0.581   3.138  0.00  0.00     0.054 C 
ATOM      9  C   UNL d   1      -2.708   0.227   2.401  0.00  0.00     0.018 C 
ENDBRANCH   1   8
TORSDOF 1
ENDMDL
