MODEL 1
REMARK minimizedAffinity 16.4515018
REMARK minimizedRMSD -1
REMARK  1 active torsions:
REMARK  status: ('A' for Active; 'I' for Inactive)
REMARK    1  A    between atoms: C1_2  and  C2_3 
ROOT
ATOM      1  C2  UNL d   1      -5.033  -1.582   2.747  0.00  0.00    -0.081 A 
ATOM      2  C3  UNL d   1      -4.225  -1.502   3.888  0.00  0.00     0.006 A 
ATOM      3  C4  UNL d   1      -3.378  -0.408   4.081  0.00  0.00     0.002 A 
ATOM      4  C5  UNL d   1      -3.331   0.627   3.141  0.00  0.00    -0.080 A 
ATOM      5  C6  UNL d   1      -2.448   1.822   3.351  0.00  0.00     0.076 C 
ATOM      6  C7  UNL d   1      -4.125   0.539   1.993  0.00  0.00     0.002 A 
ATOM      7  C8  UNL d   1      -4.971  -0.555   1.799  0.00  0.00     0.006 A 
ENDROOT
BRANCH   1   8
ATOM      8  C1  UNL d   1      -5.994  -2.729   2.568  0.00  0.00     0.054 C 
ATOM      9  C   UNL d   1      -5.998  -3.229   1.130  0.00  0.00     0.018 C 
ENDBRANCH   1   8
TORSDOF 1
ENDMDL
