MODEL 1
REMARK minimizedAffinity 14.5800333
REMARK minimizedRMSD -1
REMARK  1 active torsions:
REMARK  status: ('A' for Active; 'I' for Inactive)
REMARK    1  A    between atoms: C1_2  and  C2_3 
ROOT
ATOM      1  C2  UNL d   1      -1.012   1.200   4.419  0.00  0.00    -0.081 A 
ATOM      2  C3  UNL d   1      -2.367   1.509   4.244  0.00  0.00     0.006 A 
ATOM      3  C4  UNL d   1      -2.999   1.255   3.024  0.00  0.00     0.002 A 
ATOM      4  C5  UNL d   1      -2.290   0.681   1.963  0.00  0.00    -0.080 A 
ATOM      5  C6  UNL d   1      -2.964   0.375   0.659  0.00  0.00     0.076 C 
ATOM      6  C7  UNL d   1      -0.932   0.389   2.133  0.00  0.00     0.002 A 
ATOM      7  C8  UNL d   1      -0.299   0.643   3.352  0.00  0.00     0.006 A 
ENDROOT
BRANCH   1   8
ATOM      8  C1  UNL d   1      -0.344   1.413   5.754  0.00  0.00     0.054 C 
ATOM      9  C   UNL d   1       0.743   0.377   6.000  0.00  0.00     0.018 C 
ENDBRANCH   1   8
TORSDOF 1
ENDMDL
