MODEL 1
REMARK minimizedAffinity 10.3619804
REMARK minimizedRMSD -1
REMARK  1 active torsions:
REMARK  status: ('A' for Active; 'I' for Inactive)
REMARK    1  A    between atoms: C1_2  and  C2_3 
ROOT
ATOM      1  C2  UNL d   1      -1.746   0.671   2.611  0.00  0.00    -0.081 A 
ATOM      2  C3  UNL d   1      -0.786  -0.340   2.747  0.00  0.00     0.006 A 
ATOM      3  C4  UNL d   1       0.383  -0.113   3.477  0.00  0.00     0.002 A 
ATOM      4  C5  UNL d   1       0.609   1.125   4.089  0.00  0.00    -0.080 A 
ATOM      5  C6  UNL d   1       1.846   1.372   4.900  0.00  0.00     0.076 C 
ATOM      6  C7  UNL d   1      -0.342   2.140   3.938  0.00  0.00     0.002 A 
ATOM      7  C8  UNL d   1      -1.511   1.914   3.209  0.00  0.00     0.006 A 
ENDROOT
BRANCH   1   8
ATOM      8  C1  UNL d   1      -3.037   0.408   1.880  0.00  0.00     0.054 C 
ATOM      9  C   UNL d   1      -4.209   0.305   2.846  0.00  0.00     0.018 C 
ENDBRANCH   1   8
TORSDOF 1
ENDMDL
