MODEL 1
REMARK minimizedAffinity 2.6956284
REMARK minimizedRMSD -1
REMARK  1 active torsions:
REMARK  status: ('A' for Active; 'I' for Inactive)
REMARK    1  A    between atoms: C1_2  and  C2_3 
ROOT
ATOM      1  C2  UNL d   1      -1.372   1.597   2.728  0.00  0.00    -0.077 A 
ATOM      2  C3  UNL d   1      -0.347   1.099   1.911  0.00  0.00     0.002 A 
ATOM      3  C4  UNL d   1       0.991   1.323   2.240  0.00  0.00     0.002 A 
ATOM      4  C5  UNL d   1       1.316   2.043   3.388  0.00  0.00    -0.004 A 
ATOM      5  C6  UNL d   1       0.305   2.545   4.206  0.00  0.00     0.002 A 
ATOM      6  C7  UNL d   1      -1.033   2.322   3.878  0.00  0.00     0.002 A 
ENDROOT
BRANCH   1   7
ATOM      7  C1  UNL d   1      -2.815   1.314   2.401  0.00  0.00     0.055 C 
ATOM      8  C   UNL d   1      -3.507   0.582   3.541  0.00  0.00     0.019 C 
ENDBRANCH   1   7
TORSDOF 1
ENDMDL
