MODEL 1
REMARK minimizedAffinity 13.2141666
REMARK minimizedRMSD -1
REMARK  1 active torsions:
REMARK  status: ('A' for Active; 'I' for Inactive)
REMARK    1  A    between atoms: C1_2  and  C2_3 
ROOT
ATOM      1  C2  UNL d   1      -2.425   1.193   3.487  0.00  0.00    -0.077 A 
ATOM      2  C3  UNL d   1      -2.032   2.134   2.526  0.00  0.00     0.002 A 
ATOM      3  C4  UNL d   1      -0.682   2.296   2.207  0.00  0.00     0.002 A 
ATOM      4  C5  UNL d   1       0.284   1.517   2.840  0.00  0.00    -0.004 A 
ATOM      5  C6  UNL d   1      -0.097   0.580   3.800  0.00  0.00     0.002 A 
ATOM      6  C7  UNL d   1      -1.446   0.418   4.121  0.00  0.00     0.002 A 
ENDROOT
BRANCH   1   7
ATOM      7  C1  UNL d   1      -3.884   0.983   3.797  0.00  0.00     0.055 C 
ATOM      8  C   UNL d   1      -4.488   2.205   4.474  0.00  0.00     0.019 C 
ENDBRANCH   1   7
TORSDOF 1
ENDMDL
