MODEL 1
REMARK minimizedAffinity 3.60004258
REMARK minimizedRMSD -1
REMARK  1 active torsions:
REMARK  status: ('A' for Active; 'I' for Inactive)
REMARK    1  A    between atoms: C1_2  and  C2_3 
ROOT
ATOM      1  C2  UNL d   1      -1.882   5.248  -4.082  0.00  0.00    -0.077 A 
ATOM      2  C3  UNL d   1      -1.882   3.846  -4.098  0.00  0.00     0.002 A 
ATOM      3  C4  UNL d   1      -2.629   3.151  -5.051  0.00  0.00     0.002 A 
ATOM      4  C5  UNL d   1      -3.377   3.848  -5.997  0.00  0.00    -0.004 A 
ATOM      5  C6  UNL d   1      -3.385   5.243  -5.988  0.00  0.00     0.002 A 
ATOM      6  C7  UNL d   1      -2.640   5.939  -5.035  0.00  0.00     0.002 A 
ENDROOT
BRANCH   1   7
ATOM      7  C1  UNL d   1      -1.038   6.000  -3.086  0.00  0.00     0.055 C 
ATOM      8  C   UNL d   1       0.114   5.144  -2.579  0.00  0.00     0.019 C 
ENDBRANCH   1   7
TORSDOF 1
ENDMDL
