MODEL 1
REMARK minimizedAffinity 4.47324944
REMARK minimizedRMSD -1
REMARK  1 active torsions:
REMARK  status: ('A' for Active; 'I' for Inactive)
REMARK    1  A    between atoms: C1_2  and  C2_3 
ROOT
ATOM      1  C2  UNL d   1      -2.360   5.107  -4.411  0.00  0.00    -0.077 A 
ATOM      2  C3  UNL d   1      -2.167   3.719  -4.418  0.00  0.00     0.002 A 
ATOM      3  C4  UNL d   1      -2.973   2.898  -5.208  0.00  0.00     0.002 A 
ATOM      4  C5  UNL d   1      -3.975   3.455  -5.999  0.00  0.00    -0.004 A 
ATOM      5  C6  UNL d   1      -4.177   4.835  -5.997  0.00  0.00     0.002 A 
ATOM      6  C7  UNL d   1      -3.372   5.657  -5.208  0.00  0.00     0.002 A 
ENDROOT
BRANCH   1   7
ATOM      7  C1  UNL d   1      -1.459   6.000  -3.597  0.00  0.00     0.055 C 
ATOM      8  C   UNL d   1      -0.685   5.204  -2.557  0.00  0.00     0.019 C 
ENDBRANCH   1   7
TORSDOF 1
ENDMDL
