MODEL 1
REMARK minimizedAffinity 13.7715588
REMARK minimizedRMSD -1
REMARK  1 active torsions:
REMARK  status: ('A' for Active; 'I' for Inactive)
REMARK    1  A    between atoms: C1_2  and  C2_3 
ROOT
ATOM      1  C2  UNL d   1       0.741   1.458   3.516  0.00  0.00    -0.077 A 
ATOM      2  C3  UNL d   1       1.137   2.144   4.673  0.00  0.00     0.002 A 
ATOM      3  C4  UNL d   1       1.152   1.493   5.908  0.00  0.00     0.002 A 
ATOM      4  C5  UNL d   1       0.776   0.155   5.998  0.00  0.00    -0.004 A 
ATOM      5  C6  UNL d   1       0.379  -0.535   4.853  0.00  0.00     0.002 A 
ATOM      6  C7  UNL d   1       0.362   0.114   3.617  0.00  0.00     0.002 A 
ENDROOT
BRANCH   1   7
ATOM      7  C1  UNL d   1       0.772   2.144   2.175  0.00  0.00     0.055 C 
ATOM      8  C   UNL d   1       2.182   2.181   1.604  0.00  0.00     0.019 C 
ENDBRANCH   1   7
TORSDOF 1
ENDMDL
