MODEL 1
REMARK minimizedAffinity 10.3283501
REMARK minimizedRMSD -1
REMARK  1 active torsions:
REMARK  status: ('A' for Active; 'I' for Inactive)
REMARK    1  A    between atoms: C1_2  and  C2_3 
ROOT
ATOM      1  C2  UNL d   1      -3.022   3.430  -5.284  0.00  0.00    -0.077 A 
ATOM      2  C3  UNL d   1      -2.560   3.576  -3.968  0.00  0.00     0.002 A 
ATOM      3  C4  UNL d   1      -1.776   2.581  -3.381  0.00  0.00     0.002 A 
ATOM      4  C5  UNL d   1      -1.443   1.437  -4.103  0.00  0.00    -0.004 A 
ATOM      5  C6  UNL d   1      -1.898   1.282  -5.411  0.00  0.00     0.002 A 
ATOM      6  C7  UNL d   1      -2.684   2.274  -6.000  0.00  0.00     0.002 A 
ENDROOT
BRANCH   1   7
ATOM      7  C1  UNL d   1      -3.827   4.524  -5.936  0.00  0.00     0.055 C 
ATOM      8  C   UNL d   1      -5.314   4.200  -5.922  0.00  0.00     0.019 C 
ENDBRANCH   1   7
TORSDOF 1
ENDMDL
