MODEL 1
REMARK minimizedAffinity 12.6483803
REMARK minimizedRMSD -1
REMARK  1 active torsions:
REMARK  status: ('A' for Active; 'I' for Inactive)
REMARK    1  A    between atoms: C1_2  and  C2_3 
ROOT
ATOM      1  C2  UNL d   1      -3.585  -4.000  -4.295  0.00  0.00    -0.077 A 
ATOM      2  C3  UNL d   1      -4.351  -2.865  -4.594  0.00  0.00     0.002 A 
ATOM      3  C4  UNL d   1      -5.454  -2.960  -5.444  0.00  0.00     0.002 A 
ATOM      4  C5  UNL d   1      -5.803  -4.190  -6.000  0.00  0.00    -0.004 A 
ATOM      5  C6  UNL d   1      -5.046  -5.325  -5.710  0.00  0.00     0.002 A 
ATOM      6  C7  UNL d   1      -3.943  -5.230  -4.861  0.00  0.00     0.002 A 
ENDROOT
BRANCH   1   7
ATOM      7  C1  UNL d   1      -2.425  -3.908  -3.338  0.00  0.00     0.055 C 
ATOM      8  C   UNL d   1      -2.501  -4.989  -2.270  0.00  0.00     0.019 C 
ENDBRANCH   1   7
TORSDOF 1
ENDMDL
