MODEL 1
REMARK minimizedAffinity 19.2720776
REMARK minimizedRMSD -1
REMARK  1 active torsions:
REMARK  status: ('A' for Active; 'I' for Inactive)
REMARK    1  A    between atoms: C1_2  and  C2_3 
ROOT
ATOM      1  C2  UNL d   1       2.666   2.930  -0.430  0.00  0.00    -0.077 A 
ATOM      2  C3  UNL d   1       2.821   3.373  -1.752  0.00  0.00     0.002 A 
ATOM      3  C4  UNL d   1       2.250   4.578  -2.164  0.00  0.00     0.002 A 
ATOM      4  C5  UNL d   1       1.524   5.352  -1.261  0.00  0.00    -0.004 A 
ATOM      5  C6  UNL d   1       1.362   4.919   0.054  0.00  0.00     0.002 A 
ATOM      6  C7  UNL d   1       1.932   3.714   0.468  0.00  0.00     0.002 A 
ENDROOT
BRANCH   1   7
ATOM      7  C1  UNL d   1       3.324   1.655   0.029  0.00  0.00     0.055 C 
ATOM      8  C   UNL d   1       2.924   0.478  -0.849  0.00  0.00     0.019 C 
ENDBRANCH   1   7
TORSDOF 1
ENDMDL
