MODEL 1
REMARK minimizedAffinity 8.05751324
REMARK minimizedRMSD -1
REMARK  1 active torsions:
REMARK  status: ('A' for Active; 'I' for Inactive)
REMARK    1  A    between atoms: C1_2  and  C2_3 
ROOT
ATOM      1  C2  UNL d   1       1.468   0.915   0.770  0.00  0.00    -0.077 A 
ATOM      2  C3  UNL d   1       2.693   1.473   0.381  0.00  0.00     0.002 A 
ATOM      3  C4  UNL d   1       3.199   1.245  -0.900  0.00  0.00     0.002 A 
ATOM      4  C5  UNL d   1       2.483   0.463  -1.804  0.00  0.00    -0.004 A 
ATOM      5  C6  UNL d   1       1.264  -0.099  -1.426  0.00  0.00     0.002 A 
ATOM      6  C7  UNL d   1       0.758   0.127  -0.146  0.00  0.00     0.002 A 
ENDROOT
BRANCH   1   7
ATOM      7  C1  UNL d   1       0.897   1.200   2.135  0.00  0.00     0.055 C 
ATOM      8  C   UNL d   1      -0.550   1.663   2.044  0.00  0.00     0.019 C 
ENDBRANCH   1   7
TORSDOF 1
ENDMDL
