MODEL 1
REMARK minimizedAffinity 12.6264229
REMARK minimizedRMSD -1
REMARK  1 active torsions:
REMARK  status: ('A' for Active; 'I' for Inactive)
REMARK    1  A    between atoms: C1_2  and  C2_3 
ROOT
ATOM      1  C2  UNL d   1      -0.245   4.788  -2.741  0.00  0.00    -0.077 A 
ATOM      2  C3  UNL d   1      -0.269   5.736  -1.709  0.00  0.00     0.002 A 
ATOM      3  C4  UNL d   1       0.825   5.877  -0.853  0.00  0.00     0.002 A 
ATOM      4  C5  UNL d   1       1.953   5.077  -1.024  0.00  0.00    -0.004 A 
ATOM      5  C6  UNL d   1       1.986   4.129  -2.046  0.00  0.00     0.002 A 
ATOM      6  C7  UNL d   1       0.892   3.986  -2.902  0.00  0.00     0.002 A 
ENDROOT
BRANCH   1   7
ATOM      7  C1  UNL d   1      -1.404   4.668  -3.696  0.00  0.00     0.055 C 
ATOM      8  C   UNL d   1      -1.598   3.230  -4.153  0.00  0.00     0.019 C 
ENDBRANCH   1   7
TORSDOF 1
ENDMDL
