MODEL 1
REMARK minimizedAffinity 20.0795403
REMARK minimizedRMSD -1
REMARK  1 active torsions:
REMARK  status: ('A' for Active; 'I' for Inactive)
REMARK    1  A    between atoms: C1_2  and  C2_3 
ROOT
ATOM      1  C2  UNL d   1      -3.701   1.032   3.625  0.00  0.00    -0.077 A 
ATOM      2  C3  UNL d   1      -4.892   1.750   3.450  0.00  0.00     0.002 A 
ATOM      3  C4  UNL d   1      -5.522   2.351   4.543  0.00  0.00     0.002 A 
ATOM      4  C5  UNL d   1      -4.965   2.242   5.815  0.00  0.00    -0.004 A 
ATOM      5  C6  UNL d   1      -3.782   1.527   6.000  0.00  0.00     0.002 A 
ATOM      6  C7  UNL d   1      -3.153   0.926   4.909  0.00  0.00     0.002 A 
ENDROOT
BRANCH   1   7
ATOM      7  C1  UNL d   1      -2.995   0.425   2.441  0.00  0.00     0.055 C 
ATOM      8  C   UNL d   1      -1.593   0.994   2.281  0.00  0.00     0.019 C 
ENDBRANCH   1   7
TORSDOF 1
ENDMDL
