MODEL 1
REMARK minimizedAffinity 10.3628778
REMARK minimizedRMSD -1
REMARK  1 active torsions:
REMARK  status: ('A' for Active; 'I' for Inactive)
REMARK    1  A    between atoms: C1_2  and  C2_3 
ROOT
ATOM      1  C2  UNL d   1      -3.576  -0.819   4.822  0.00  0.00    -0.077 A 
ATOM      2  C3  UNL d   1      -3.772  -0.314   3.529  0.00  0.00     0.002 A 
ATOM      3  C4  UNL d   1      -3.884   1.062   3.318  0.00  0.00     0.002 A 
ATOM      4  C5  UNL d   1      -3.797   1.943   4.394  0.00  0.00    -0.004 A 
ATOM      5  C6  UNL d   1      -3.604   1.450   5.684  0.00  0.00     0.002 A 
ATOM      6  C7  UNL d   1      -3.493   0.075   5.897  0.00  0.00     0.002 A 
ENDROOT
BRANCH   1   7
ATOM      7  C1  UNL d   1      -3.405  -2.299   5.046  0.00  0.00     0.055 C 
ATOM      8  C   UNL d   1      -4.726  -2.958   5.417  0.00  0.00     0.019 C 
ENDBRANCH   1   7
TORSDOF 1
ENDMDL
