MODEL 1
REMARK minimizedAffinity 0.475759536
REMARK minimizedRMSD -1
REMARK  0 active torsions:
REMARK  status: ('A' for Active; 'I' for Inactive)
ROOT
ATOM      1  C   UNL d   1       5.515   4.839  -3.906  0.00  0.00     0.023 A 
ATOM      2  C1  UNL d   1       4.634   3.767  -3.757  0.00  0.00     0.003 A 
ATOM      3  C2  UNL d   1       3.374   3.809  -4.357  0.00  0.00     0.048 A 
ATOM      4  C3  UNL d   1       3.001   4.925  -5.105  0.00  0.00     0.023 A 
ATOM      5  C4  UNL d   1       3.880   5.999  -5.258  0.00  0.00     0.048 A 
ATOM      6  C5  UNL d   1       5.139   5.953  -4.656  0.00  0.00     0.003 A 
ATOM      7  I   UNL d   1       1.126   4.990  -6.000  0.00  0.00    -0.146 I 
ENDROOT
TORSDOF 0
ENDMDL
