MODEL 1
REMARK minimizedAffinity 3.33699703
REMARK minimizedRMSD -1
REMARK  0 active torsions:
REMARK  status: ('A' for Active; 'I' for Inactive)
ROOT
ATOM      1  C   UNL d   1      -1.058   5.939  -4.059  0.00  0.00     0.023 A 
ATOM      2  C1  UNL d   1       0.047   5.862  -3.212  0.00  0.00     0.003 A 
ATOM      3  C2  UNL d   1       1.337   5.844  -3.746  0.00  0.00     0.048 A 
ATOM      4  C3  UNL d   1       1.515   5.904  -5.127  0.00  0.00     0.023 A 
ATOM      5  C4  UNL d   1       0.411   5.982  -5.979  0.00  0.00     0.048 A 
ATOM      6  C5  UNL d   1      -0.877   5.999  -5.440  0.00  0.00     0.003 A 
ATOM      7  I   UNL d   1       3.434   5.878  -5.924  0.00  0.00    -0.146 I 
ENDROOT
TORSDOF 0
ENDMDL
