MODEL 1
REMARK minimizedAffinity 0.803561509
REMARK minimizedRMSD -1
REMARK  0 active torsions:
REMARK  status: ('A' for Active; 'I' for Inactive)
ROOT
ATOM      1  C   UNL d   1      -1.336   5.972  -3.870  0.00  0.00     0.023 A 
ATOM      2  C1  UNL d   1      -1.207   5.957  -5.259  0.00  0.00     0.003 A 
ATOM      3  C2  UNL d   1       0.061   5.963  -5.844  0.00  0.00     0.048 A 
ATOM      4  C3  UNL d   1       1.196   5.984  -5.034  0.00  0.00     0.023 A 
ATOM      5  C4  UNL d   1       1.071   5.998  -3.643  0.00  0.00     0.048 A 
ATOM      6  C5  UNL d   1      -0.199   5.993  -3.063  0.00  0.00     0.003 A 
ATOM      7  I   UNL d   1       3.084   5.993  -5.902  0.00  0.00    -0.146 I 
ENDROOT
TORSDOF 0
ENDMDL
