MODEL 1
REMARK minimizedAffinity -2.61860681
REMARK minimizedRMSD -1
REMARK  0 active torsions:
REMARK  status: ('A' for Active; 'I' for Inactive)
ROOT
ATOM      1  C   UNL d   1       5.787   4.386  -4.475  0.00  0.00     0.023 A 
ATOM      2  C1  UNL d   1       5.709   5.536  -5.261  0.00  0.00     0.003 A 
ATOM      3  C2  UNL d   1       4.467   6.000  -5.700  0.00  0.00     0.048 A 
ATOM      4  C3  UNL d   1       3.308   5.310  -5.348  0.00  0.00     0.023 A 
ATOM      5  C4  UNL d   1       3.381   4.159  -4.562  0.00  0.00     0.048 A 
ATOM      6  C5  UNL d   1       4.625   3.698  -4.126  0.00  0.00     0.003 A 
ATOM      7  I   UNL d   1       1.458   5.999  -6.000  0.00  0.00    -0.146 I 
ENDROOT
TORSDOF 0
ENDMDL
