MODEL 1
REMARK minimizedAffinity 5.4259243
REMARK minimizedRMSD -1
REMARK  0 active torsions:
REMARK  status: ('A' for Active; 'I' for Inactive)
ROOT
ATOM      1  C   UNL d   1      -2.402  -1.270  -3.258  0.00  0.00     0.023 A 
ATOM      2  C1  UNL d   1      -1.067  -0.869  -3.309  0.00  0.00     0.003 A 
ATOM      3  C2  UNL d   1      -0.456  -0.326  -2.177  0.00  0.00     0.048 A 
ATOM      4  C3  UNL d   1      -1.186  -0.187  -0.997  0.00  0.00     0.023 A 
ATOM      5  C4  UNL d   1      -2.522  -0.588  -0.941  0.00  0.00     0.048 A 
ATOM      6  C5  UNL d   1      -3.129  -1.130  -2.075  0.00  0.00     0.003 A 
ATOM      7  I   UNL d   1      -0.279   0.621   0.689  0.00  0.00    -0.146 I 
ENDROOT
TORSDOF 0
ENDMDL
