MODEL 1
REMARK minimizedAffinity -2.09734368
REMARK minimizedRMSD -1
REMARK  0 active torsions:
REMARK  status: ('A' for Active; 'I' for Inactive)
ROOT
ATOM      1  C   UNL d   1      -3.479   5.984  -2.559  0.00  0.00     0.023 A 
ATOM      2  C1  UNL d   1      -2.257   5.993  -1.886  0.00  0.00     0.003 A 
ATOM      3  C2  UNL d   1      -1.061   5.995  -2.608  0.00  0.00     0.048 A 
ATOM      4  C3  UNL d   1      -1.095   5.990  -4.002  0.00  0.00     0.023 A 
ATOM      5  C4  UNL d   1      -2.316   5.983  -4.679  0.00  0.00     0.048 A 
ATOM      6  C5  UNL d   1      -3.508   5.980  -3.953  0.00  0.00     0.003 A 
ATOM      7  I   UNL d   1       0.683   5.994  -5.078  0.00  0.00    -0.146 I 
ENDROOT
TORSDOF 0
ENDMDL
