MODEL 1
REMARK minimizedAffinity -0.714856029
REMARK minimizedRMSD -1
REMARK  0 active torsions:
REMARK  status: ('A' for Active; 'I' for Inactive)
ROOT
ATOM      1  C   UNL d   1      -0.600   5.944  -4.269  0.00  0.00     0.023 A 
ATOM      2  C1  UNL d   1      -0.225   5.889  -5.612  0.00  0.00     0.003 A 
ATOM      3  C2  UNL d   1       1.127   5.889  -5.961  0.00  0.00     0.048 A 
ATOM      4  C3  UNL d   1       2.099   5.945  -4.962  0.00  0.00     0.023 A 
ATOM      5  C4  UNL d   1       1.729   5.999  -3.618  0.00  0.00     0.048 A 
ATOM      6  C5  UNL d   1       0.376   5.999  -3.274  0.00  0.00     0.003 A 
ATOM      7  I   UNL d   1       4.112   5.945  -5.480  0.00  0.00    -0.146 I 
ENDROOT
TORSDOF 0
ENDMDL
