MODEL 1
REMARK minimizedAffinity 6.19963026
REMARK minimizedRMSD -1
REMARK  0 active torsions:
REMARK  status: ('A' for Active; 'I' for Inactive)
ROOT
ATOM      1  C   UNL d   1       3.079   5.990  -5.513  0.00  0.00     0.023 A 
ATOM      2  C1  UNL d   1       2.358   4.855  -5.139  0.00  0.00     0.003 A 
ATOM      3  C2  UNL d   1       3.028   3.729  -4.657  0.00  0.00     0.048 A 
ATOM      4  C3  UNL d   1       4.418   3.744  -4.550  0.00  0.00     0.023 A 
ATOM      5  C4  UNL d   1       5.143   4.876  -4.922  0.00  0.00     0.048 A 
ATOM      6  C5  UNL d   1       4.470   6.000  -5.405  0.00  0.00     0.003 A 
ATOM      7  I   UNL d   1       5.416   2.068  -3.832  0.00  0.00    -0.146 I 
ENDROOT
TORSDOF 0
ENDMDL
