MODEL 1
REMARK minimizedAffinity 2.90905976
REMARK minimizedRMSD -1
REMARK  0 active torsions:
REMARK  status: ('A' for Active; 'I' for Inactive)
ROOT
ATOM      1  C   UNL d   1      -0.053  -5.230   2.371  0.00  0.00     0.023 A 
ATOM      2  C1  UNL d   1      -0.601  -4.031   1.914  0.00  0.00     0.003 A 
ATOM      3  C2  UNL d   1      -1.455  -3.294   2.736  0.00  0.00     0.048 A 
ATOM      4  C3  UNL d   1      -1.757  -3.761   4.014  0.00  0.00     0.023 A 
ATOM      5  C4  UNL d   1      -1.211  -4.959   4.477  0.00  0.00     0.048 A 
ATOM      6  C5  UNL d   1      -0.358  -5.693   3.651  0.00  0.00     0.003 A 
ATOM      7  I   UNL d   1      -3.029  -2.665   5.240  0.00  0.00    -0.146 I 
ENDROOT
TORSDOF 0
ENDMDL
