MODEL 1
REMARK minimizedAffinity -2.7625432
REMARK minimizedRMSD -1
REMARK  0 active torsions:
REMARK  status: ('A' for Active; 'I' for Inactive)
ROOT
ATOM      1  C   UNL d   1      -3.008   5.996  -2.369  0.00  0.00     0.023 A 
ATOM      2  C1  UNL d   1      -1.787   5.998  -1.695  0.00  0.00     0.003 A 
ATOM      3  C2  UNL d   1      -0.590   5.998  -2.415  0.00  0.00     0.048 A 
ATOM      4  C3  UNL d   1      -0.622   5.998  -3.809  0.00  0.00     0.023 A 
ATOM      5  C4  UNL d   1      -1.841   5.997  -4.488  0.00  0.00     0.048 A 
ATOM      6  C5  UNL d   1      -3.035   5.995  -3.764  0.00  0.00     0.003 A 
ATOM      7  I   UNL d   1       1.158   5.998  -4.882  0.00  0.00    -0.146 I 
ENDROOT
TORSDOF 0
ENDMDL
