MODEL 1
REMARK minimizedAffinity -0.581896901
REMARK minimizedRMSD -1
REMARK  0 active torsions:
REMARK  status: ('A' for Active; 'I' for Inactive)
ROOT
ATOM      1  C   UNL d   1      -2.680   5.347  -1.993  0.00  0.00     0.023 A 
ATOM      2  C1  UNL d   1      -3.301   5.630  -3.210  0.00  0.00     0.003 A 
ATOM      3  C2  UNL d   1      -2.533   5.818  -4.361  0.00  0.00     0.048 A 
ATOM      4  C3  UNL d   1      -1.144   5.720  -4.288  0.00  0.00     0.023 A 
ATOM      5  C4  UNL d   1      -0.518   5.436  -3.073  0.00  0.00     0.048 A 
ATOM      6  C5  UNL d   1      -1.290   5.250  -1.925  0.00  0.00     0.003 A 
ATOM      7  I   UNL d   1       0.002   5.998  -6.000  0.00  0.00    -0.146 I 
ENDROOT
TORSDOF 0
ENDMDL
