MODEL 1
REMARK minimizedAffinity -1.72754121
REMARK minimizedRMSD -1
REMARK  0 active torsions:
REMARK  status: ('A' for Active; 'I' for Inactive)
ROOT
ATOM      1  C   UNL d   1      -2.176   5.999  -1.813  0.00  0.00     0.023 A 
ATOM      2  C1  UNL d   1      -2.840   6.000  -3.040  0.00  0.00     0.003 A 
ATOM      3  C2  UNL d   1      -2.113   5.914  -4.228  0.00  0.00     0.048 A 
ATOM      4  C3  UNL d   1      -0.722   5.826  -4.183  0.00  0.00     0.023 A 
ATOM      5  C4  UNL d   1      -0.053   5.825  -2.958  0.00  0.00     0.048 A 
ATOM      6  C5  UNL d   1      -0.785   5.912  -1.772  0.00  0.00     0.003 A 
ATOM      7  I   UNL d   1       0.363   5.698  -5.951  0.00  0.00    -0.146 I 
ENDROOT
TORSDOF 0
ENDMDL
