MODEL 1
REMARK minimizedAffinity -0.257442743
REMARK minimizedRMSD -1
REMARK  0 active torsions:
REMARK  status: ('A' for Active; 'I' for Inactive)
ROOT
ATOM      1  C   UNL d   1      -2.386   5.999  -2.602  0.00  0.00     0.023 A 
ATOM      2  C1  UNL d   1      -2.654   5.998  -3.970  0.00  0.00     0.003 A 
ATOM      3  C2  UNL d   1      -1.603   5.999  -4.890  0.00  0.00     0.048 A 
ATOM      4  C3  UNL d   1      -0.285   5.999  -4.433  0.00  0.00     0.023 A 
ATOM      5  C4  UNL d   1      -0.012   5.998  -3.064  0.00  0.00     0.048 A 
ATOM      6  C5  UNL d   1      -1.066   5.999  -2.149  0.00  0.00     0.003 A 
ATOM      7  I   UNL d   1       1.281   5.999  -5.799  0.00  0.00    -0.146 I 
ENDROOT
TORSDOF 0
ENDMDL
