MODEL 1
REMARK minimizedAffinity 5.72197866
REMARK minimizedRMSD -1
REMARK  0 active torsions:
REMARK  status: ('A' for Active; 'I' for Inactive)
ROOT
ATOM      1  C   UNL d   1       3.720   5.938  -6.000  0.00  0.00     0.023 A 
ATOM      2  C1  UNL d   1       5.070   6.000  -5.656  0.00  0.00     0.003 A 
ATOM      3  C2  UNL d   1       5.665   4.943  -4.963  0.00  0.00     0.048 A 
ATOM      4  C3  UNL d   1       4.903   3.827  -4.619  0.00  0.00     0.023 A 
ATOM      5  C4  UNL d   1       3.552   3.760  -4.962  0.00  0.00     0.048 A 
ATOM      6  C5  UNL d   1       2.962   4.819  -5.653  0.00  0.00     0.003 A 
ATOM      7  I   UNL d   1       5.786   2.253  -3.588  0.00  0.00    -0.146 I 
ENDROOT
TORSDOF 0
ENDMDL
