MODEL 1
REMARK minimizedAffinity 1.77855754
REMARK minimizedRMSD -1
REMARK  0 active torsions:
REMARK  status: ('A' for Active; 'I' for Inactive)
ROOT
ATOM      1  C   UNL d   1      -1.194   6.000  -4.194  0.00  0.00     0.023 A 
ATOM      2  C1  UNL d   1      -0.908   5.999  -5.559  0.00  0.00     0.003 A 
ATOM      3  C2  UNL d   1       0.418   5.991  -5.996  0.00  0.00     0.048 A 
ATOM      4  C3  UNL d   1       1.454   5.982  -5.063  0.00  0.00     0.023 A 
ATOM      5  C4  UNL d   1       1.173   5.982  -3.696  0.00  0.00     0.048 A 
ATOM      6  C5  UNL d   1      -0.155   5.991  -3.263  0.00  0.00     0.003 A 
ATOM      7  I   UNL d   1       3.428   5.969  -5.711  0.00  0.00    -0.146 I 
ENDROOT
TORSDOF 0
ENDMDL
