MODEL 1
REMARK minimizedAffinity -0.765033484
REMARK minimizedRMSD -1
REMARK  0 active torsions:
REMARK  status: ('A' for Active; 'I' for Inactive)
ROOT
ATOM      1  C   UNL d   1       6.000   4.319  -5.033  0.00  0.00     0.023 A 
ATOM      2  C1  UNL d   1       4.905   3.632  -4.508  0.00  0.00     0.003 A 
ATOM      3  C2  UNL d   1       3.611   4.112  -4.721  0.00  0.00     0.048 A 
ATOM      4  C3  UNL d   1       3.419   5.278  -5.462  0.00  0.00     0.023 A 
ATOM      5  C4  UNL d   1       4.511   5.967  -5.990  0.00  0.00     0.048 A 
ATOM      6  C5  UNL d   1       5.803   5.484  -5.773  0.00  0.00     0.003 A 
ATOM      7  I   UNL d   1       1.494   5.993  -5.781  0.00  0.00    -0.146 I 
ENDROOT
TORSDOF 0
ENDMDL
