MODEL 1
REMARK minimizedAffinity 0.260492802
REMARK minimizedRMSD -1
REMARK  0 active torsions:
REMARK  status: ('A' for Active; 'I' for Inactive)
ROOT
ATOM      1  C   UNL d   1       3.290   3.342   1.500  0.00  0.00    -0.002 A 
ATOM      2  C1  UNL d   1       4.579   3.373   2.015  0.00  0.00     0.010 A 
ATOM      3  C2  UNL d   1       4.854   4.062   3.198  0.00  0.00     0.041 A 
ATOM      4  C3  UNL d   1       3.803   4.726   3.861  0.00  0.00    -0.075 A 
ATOM      5  S   UNL d   1       3.905   5.632   5.324  0.00  0.00     0.015 SA
ATOM      6  C4  UNL d   1       2.241   6.000   5.299  0.00  0.00     0.022 A 
ATOM      7  C5  UNL d   1       1.608   5.453   4.209  0.00  0.00     0.026 A 
ATOM      8  C6  UNL d   1       2.497   4.709   3.362  0.00  0.00    -0.082 A 
ATOM      9  C7  UNL d   1       2.250   4.002   2.160  0.00  0.00     0.045 A 
ENDROOT
TORSDOF 0
ENDMDL
