MODEL 1
REMARK minimizedAffinity 5.86299133
REMARK minimizedRMSD -1
REMARK  0 active torsions:
REMARK  status: ('A' for Active; 'I' for Inactive)
ROOT
ATOM      1  C   UNL d   1       3.132   3.000   2.387  0.00  0.00    -0.002 A 
ATOM      2  C1  UNL d   1       1.860   3.390   1.993  0.00  0.00     0.010 A 
ATOM      3  C2  UNL d   1       1.135   4.316   2.746  0.00  0.00     0.041 A 
ATOM      4  C3  UNL d   1       1.717   4.850   3.912  0.00  0.00    -0.075 A 
ATOM      5  S   UNL d   1       1.017   5.999   4.990  0.00  0.00     0.015 SA
ATOM      6  C4  UNL d   1       2.391   6.000   6.000  0.00  0.00     0.022 A 
ATOM      7  C5  UNL d   1       3.369   5.150   5.541  0.00  0.00     0.026 A 
ATOM      8  C6  UNL d   1       2.997   4.473   4.330  0.00  0.00    -0.082 A 
ATOM      9  C7  UNL d   1       3.706   3.532   3.545  0.00  0.00     0.045 A 
ENDROOT
TORSDOF 0
ENDMDL
