MODEL 1
REMARK minimizedAffinity 16.8244305
REMARK minimizedRMSD -1
REMARK  0 active torsions:
REMARK  status: ('A' for Active; 'I' for Inactive)
ROOT
ATOM      1  C   UNL d   1       2.931   5.730   5.468  0.00  0.00    -0.002 A 
ATOM      2  C1  UNL d   1       1.669   6.000   4.958  0.00  0.00     0.010 A 
ATOM      3  C2  UNL d   1       1.257   5.437   3.749  0.00  0.00     0.041 A 
ATOM      4  C3  UNL d   1       2.142   4.589   3.055  0.00  0.00    -0.075 A 
ATOM      5  S   UNL d   1       1.852   3.786   1.557  0.00  0.00     0.015 SA
ATOM      6  C4  UNL d   1       3.397   3.066   1.559  0.00  0.00     0.022 A 
ATOM      7  C5  UNL d   1       4.129   3.418   2.668  0.00  0.00     0.026 A 
ATOM      8  C6  UNL d   1       3.417   4.301   3.549  0.00  0.00    -0.082 A 
ATOM      9  C7  UNL d   1       3.806   4.888   4.777  0.00  0.00     0.045 A 
ENDROOT
TORSDOF 0
ENDMDL
