MODEL 1
REMARK minimizedAffinity 8.44620895
REMARK minimizedRMSD -1
REMARK  0 active torsions:
REMARK  status: ('A' for Active; 'I' for Inactive)
ROOT
ATOM      1  C   UNL d   1       1.127   6.000   5.545  0.00  0.00    -0.002 A 
ATOM      2  C1  UNL d   1       2.438   5.951   6.000  0.00  0.00     0.010 A 
ATOM      3  C2  UNL d   1       3.384   5.151   5.356  0.00  0.00     0.041 A 
ATOM      4  C3  UNL d   1       2.987   4.394   4.236  0.00  0.00    -0.075 A 
ATOM      5  S   UNL d   1       3.974   3.344   3.289  0.00  0.00     0.015 SA
ATOM      6  C4  UNL d   1       2.680   2.937   2.257  0.00  0.00     0.022 A 
ATOM      7  C5  UNL d   1       1.516   3.577   2.613  0.00  0.00     0.026 A 
ATOM      8  C6  UNL d   1       1.674   4.428   3.758  0.00  0.00    -0.082 A 
ATOM      9  C7  UNL d   1       0.738   5.248   4.433  0.00  0.00     0.045 A 
ENDROOT
TORSDOF 0
ENDMDL
