MODEL 1
REMARK minimizedAffinity 10.8557949
REMARK minimizedRMSD -1
REMARK  0 active torsions:
REMARK  status: ('A' for Active; 'I' for Inactive)
ROOT
ATOM      1  C   UNL d   1       2.188   5.998   5.617  0.00  0.00    -0.002 A 
ATOM      2  C1  UNL d   1       1.101   5.283   5.135  0.00  0.00     0.010 A 
ATOM      3  C2  UNL d   1       1.207   4.534   3.962  0.00  0.00     0.041 A 
ATOM      4  C3  UNL d   1       2.438   4.513   3.276  0.00  0.00    -0.075 A 
ATOM      5  S   UNL d   1       2.803   3.664   1.820  0.00  0.00     0.015 SA
ATOM      6  C4  UNL d   1       4.410   4.230   1.805  0.00  0.00     0.022 A 
ATOM      7  C5  UNL d   1       4.679   5.048   2.877  0.00  0.00     0.026 A 
ATOM      8  C6  UNL d   1       3.547   5.224   3.743  0.00  0.00    -0.082 A 
ATOM      9  C7  UNL d   1       3.407   5.975   4.934  0.00  0.00     0.045 A 
ENDROOT
TORSDOF 0
ENDMDL
