MODEL 1
REMARK minimizedAffinity -3.37252855
REMARK minimizedRMSD -1
REMARK  1 active torsions:
REMARK  status: ('A' for Active; 'I' for Inactive)
REMARK    1  A    between atoms: C1_2  and  C2_3 
ROOT
ATOM      1  C2  UNL d   1       0.333   0.026   0.036  0.00  0.00    -0.077 A 
ATOM      2  C3  UNL d   1       1.170   0.284   1.131  0.00  0.00     0.002 A 
ATOM      3  C4  UNL d   1       2.219  -0.584   1.439  0.00  0.00     0.002 A 
ATOM      4  C5  UNL d   1       2.443  -1.713   0.654  0.00  0.00    -0.004 A 
ATOM      5  C6  UNL d   1       1.616  -1.980  -0.436  0.00  0.00     0.002 A 
ATOM      6  C7  UNL d   1       0.566  -1.114  -0.744  0.00  0.00     0.002 A 
ENDROOT
BRANCH   1   7
ATOM      7  C1  UNL d   1      -0.768   0.988  -0.327  0.00  0.00     0.055 C 
ATOM      8  C   UNL d   1      -2.132   0.441   0.066  0.00  0.00     0.019 C 
ENDBRANCH   1   7
TORSDOF 1
ENDMDL
