MODEL 1
REMARK minimizedAffinity -5.64899397
REMARK minimizedRMSD -1
REMARK  1 active torsions:
REMARK  status: ('A' for Active; 'I' for Inactive)
REMARK    1  A    between atoms: C1_2  and  C2_3 
ROOT
ATOM      1  C2  UNL d   1       0.651   0.055   0.021  0.00  0.00    -0.077 A 
ATOM      2  C3  UNL d   1       1.574   1.054   0.360  0.00  0.00     0.002 A 
ATOM      3  C4  UNL d   1       2.887   0.718   0.696  0.00  0.00     0.002 A 
ATOM      4  C5  UNL d   1       3.289  -0.616   0.692  0.00  0.00    -0.004 A 
ATOM      5  C6  UNL d   1       2.377  -1.617   0.357  0.00  0.00     0.002 A 
ATOM      6  C7  UNL d   1       1.064  -1.283   0.022  0.00  0.00     0.002 A 
ENDROOT
BRANCH   1   7
ATOM      7  C1  UNL d   1      -0.752   0.420  -0.390  0.00  0.00     0.055 C 
ATOM      8  C   UNL d   1      -1.577   0.879   0.804  0.00  0.00     0.019 C 
ENDBRANCH   1   7
TORSDOF 1
ENDMDL
