MODEL 1
REMARK minimizedAffinity -2.46946359
REMARK minimizedRMSD -1
REMARK  1 active torsions:
REMARK  status: ('A' for Active; 'I' for Inactive)
REMARK    1  A    between atoms: C1_2  and  C2_3 
ROOT
ATOM      1  C2  UNL d   1       0.172  -0.327   0.468  0.00  0.00    -0.077 A 
ATOM      2  C3  UNL d   1       0.764  -0.324   1.739  0.00  0.00     0.002 A 
ATOM      3  C4  UNL d   1       2.023  -0.896   1.933  0.00  0.00     0.002 A 
ATOM      4  C5  UNL d   1       2.702  -1.470   0.861  0.00  0.00    -0.004 A 
ATOM      5  C6  UNL d   1       2.121  -1.480  -0.407  0.00  0.00     0.002 A 
ATOM      6  C7  UNL d   1       0.862  -0.910  -0.603  0.00  0.00     0.002 A 
ENDROOT
BRANCH   1   7
ATOM      7  C1  UNL d   1      -1.164   0.333   0.246  0.00  0.00     0.055 C 
ATOM      8  C   UNL d   1      -1.943   0.457   1.547  0.00  0.00     0.019 C 
ENDBRANCH   1   7
TORSDOF 1
ENDMDL
