MODEL 1
REMARK minimizedAffinity -5.88721418
REMARK minimizedRMSD -1
REMARK  1 active torsions:
REMARK  status: ('A' for Active; 'I' for Inactive)
REMARK    1  A    between atoms: C1_2  and  C2_3 
ROOT
ATOM      1  C2  UNL d   1       0.496   0.830   0.197  0.00  0.00    -0.077 A 
ATOM      2  C3  UNL d   1       1.725   1.431   0.503  0.00  0.00     0.002 A 
ATOM      3  C4  UNL d   1       2.838   0.645   0.809  0.00  0.00     0.002 A 
ATOM      4  C5  UNL d   1       2.734  -0.744   0.808  0.00  0.00    -0.004 A 
ATOM      5  C6  UNL d   1       1.515  -1.351   0.507  0.00  0.00     0.002 A 
ATOM      6  C7  UNL d   1       0.401  -0.567   0.202  0.00  0.00     0.002 A 
ENDROOT
BRANCH   1   7
ATOM      7  C1  UNL d   1      -0.693   1.674  -0.182  0.00  0.00     0.055 C 
ATOM      8  C   UNL d   1      -1.979   1.118   0.411  0.00  0.00     0.019 C 
ENDBRANCH   1   7
TORSDOF 1
ENDMDL
