MODEL 1
REMARK minimizedAffinity -5.81138945
REMARK minimizedRMSD -1
REMARK  1 active torsions:
REMARK  status: ('A' for Active; 'I' for Inactive)
REMARK    1  A    between atoms: C1_2  and  C2_3 
ROOT
ATOM      1  C2  UNL d   1       1.328   0.451   0.043  0.00  0.00    -0.077 A 
ATOM      2  C3  UNL d   1       2.602   1.001   0.249  0.00  0.00     0.002 A 
ATOM      3  C4  UNL d   1       3.706   0.170   0.447  0.00  0.00     0.002 A 
ATOM      4  C5  UNL d   1       3.549  -1.215   0.437  0.00  0.00    -0.004 A 
ATOM      5  C6  UNL d   1       2.286  -1.771   0.235  0.00  0.00     0.002 A 
ATOM      6  C7  UNL d   1       1.181  -0.942   0.038  0.00  0.00     0.002 A 
ENDROOT
BRANCH   1   7
ATOM      7  C1  UNL d   1       0.145   1.345  -0.220  0.00  0.00     0.055 C 
ATOM      8  C   UNL d   1      -1.053   0.546  -0.713  0.00  0.00     0.019 C 
ENDBRANCH   1   7
TORSDOF 1
ENDMDL
