MODEL 1
REMARK minimizedAffinity 7.7764802
REMARK minimizedRMSD -1
REMARK  0 active torsions:
REMARK  status: ('A' for Active; 'I' for Inactive)
ROOT
ATOM      1  C1  DEN d   1       2.248  -1.677   3.219  0.00  0.00     0.130 A 
ATOM      2  C2  DEN d   1       1.799  -2.233   4.493  0.00  0.00    -0.031 A 
ATOM      3  C3  DEN d   1       0.339  -2.036   4.588  0.00  0.00     0.027 A 
ATOM      4  C4  DEN d   1      -1.264  -0.936   2.893  0.00  0.00     0.027 A 
ATOM      5  C5  DEN d   1      -1.345  -0.306   1.671  0.00  0.00    -0.003 A 
ATOM      6  C6  DEN d   1      -0.239  -0.060   0.901  0.00  0.00     0.001 A 
ATOM      7  C7  DEN d   1       0.992  -0.488   1.325  0.00  0.00     0.017 A 
ATOM      8  C8  DEN d   1       1.083  -1.117   2.559  0.00  0.00    -0.094 A 
ATOM      9  C9  DEN d   1      -0.049  -1.367   3.317  0.00  0.00    -0.072 A 
ENDROOT
TORSDOF 0
ENDMDL
