MODEL 1
REMARK minimizedAffinity -0.885274887
REMARK minimizedRMSD -1
REMARK  0 active torsions:
REMARK  status: ('A' for Active; 'I' for Inactive)
ROOT
ATOM      1  C1  DEN d   1       2.975  -5.520  -4.610  0.00  0.00     0.130 A 
ATOM      2  C2  DEN d   1       2.535  -5.643  -5.997  0.00  0.00    -0.031 A 
ATOM      3  C3  DEN d   1       1.073  -5.854  -5.995  0.00  0.00     0.027 A 
ATOM      4  C4  DEN d   1      -0.543  -5.997  -3.990  0.00  0.00     0.027 A 
ATOM      5  C5  DEN d   1      -0.632  -5.962  -2.616  0.00  0.00    -0.003 A 
ATOM      6  C6  DEN d   1       0.469  -5.813  -1.816  0.00  0.00     0.001 A 
ATOM      7  C7  DEN d   1       1.704  -5.647  -2.385  0.00  0.00     0.017 A 
ATOM      8  C8  DEN d   1       1.804  -5.689  -3.770  0.00  0.00    -0.094 A 
ATOM      9  C9  DEN d   1       0.677  -5.828  -4.562  0.00  0.00    -0.072 A 
ENDROOT
TORSDOF 0
ENDMDL
