MODEL 1
REMARK minimizedAffinity -3.83669424
REMARK minimizedRMSD -1
REMARK  0 active torsions:
REMARK  status: ('A' for Active; 'I' for Inactive)
ROOT
ATOM      1  C1  DEN d   1      -1.963  -0.062   1.710  0.00  0.00     0.130 A 
ATOM      2  C2  DEN d   1      -1.013   0.877   1.121  0.00  0.00    -0.031 A 
ATOM      3  C3  DEN d   1       0.345   0.480   1.545  0.00  0.00     0.027 A 
ATOM      4  C4  DEN d   1       1.064  -1.492   3.044  0.00  0.00     0.027 A 
ATOM      5  C5  DEN d   1       0.611  -2.559   3.789  0.00  0.00    -0.003 A 
ATOM      6  C6  DEN d   1      -0.721  -2.846   3.919  0.00  0.00     0.001 A 
ATOM      7  C7  DEN d   1      -1.648  -2.083   3.258  0.00  0.00     0.017 A 
ATOM      8  C8  DEN d   1      -1.200  -1.001   2.512  0.00  0.00    -0.094 A 
ATOM      9  C9  DEN d   1       0.152  -0.735   2.382  0.00  0.00    -0.072 A 
ENDROOT
TORSDOF 0
ENDMDL
