MODEL 1
REMARK minimizedAffinity 5.60293961
REMARK minimizedRMSD -1
REMARK  0 active torsions:
REMARK  status: ('A' for Active; 'I' for Inactive)
ROOT
ATOM      1  C1  DEN d   1       1.278  -5.588  -5.999  0.00  0.00     0.130 A 
ATOM      2  C2  DEN d   1       2.669  -5.141  -5.993  0.00  0.00    -0.031 A 
ATOM      3  C3  DEN d   1       3.078  -4.942  -4.588  0.00  0.00     0.027 A 
ATOM      4  C4  DEN d   1       1.702  -5.285  -2.433  0.00  0.00     0.027 A 
ATOM      5  C5  DEN d   1       0.470  -5.645  -1.933  0.00  0.00    -0.003 A 
ATOM      6  C6  DEN d   1      -0.580  -5.976  -2.748  0.00  0.00     0.001 A 
ATOM      7  C7  DEN d   1      -0.405  -5.997  -4.106  0.00  0.00     0.017 A 
ATOM      8  C8  DEN d   1       0.832  -5.628  -4.618  0.00  0.00    -0.094 A 
ATOM      9  C9  DEN d   1       1.885  -5.309  -3.778  0.00  0.00    -0.072 A 
ENDROOT
TORSDOF 0
ENDMDL
