MODEL 1
REMARK minimizedAffinity -3.62982082
REMARK minimizedRMSD -1
REMARK  0 active torsions:
REMARK  status: ('A' for Active; 'I' for Inactive)
ROOT
ATOM      1  C1  DEN d   1       1.788  -1.326   3.433  0.00  0.00     0.130 A 
ATOM      2  C2  DEN d   1       1.365  -1.450   4.825  0.00  0.00    -0.031 A 
ATOM      3  C3  DEN d   1      -0.090  -1.205   4.884  0.00  0.00     0.027 A 
ATOM      4  C4  DEN d   1      -1.722  -0.652   2.964  0.00  0.00     0.027 A 
ATOM      5  C5  DEN d   1      -1.826  -0.430   1.609  0.00  0.00    -0.003 A 
ATOM      6  C6  DEN d   1      -0.737  -0.457   0.778  0.00  0.00     0.001 A 
ATOM      7  C7  DEN d   1       0.498  -0.756   1.289  0.00  0.00     0.017 A 
ATOM      8  C8  DEN d   1       0.613  -0.974   2.656  0.00  0.00    -0.094 A 
ATOM      9  C9  DEN d   1      -0.502  -0.955   3.476  0.00  0.00    -0.072 A 
ENDROOT
TORSDOF 0
ENDMDL
