MODEL 1
REMARK minimizedAffinity 8.70821857
REMARK minimizedRMSD -1
REMARK  0 active torsions:
REMARK  status: ('A' for Active; 'I' for Inactive)
ROOT
ATOM      1  C1  DEN d   1       0.165   0.029   3.268  0.00  0.00     0.130 A 
ATOM      2  C2  DEN d   1       0.494  -0.230   1.869  0.00  0.00    -0.031 A 
ATOM      3  C3  DEN d   1       1.671  -1.121   1.834  0.00  0.00     0.027 A 
ATOM      4  C4  DEN d   1       3.007  -2.122   3.801  0.00  0.00     0.027 A 
ATOM      5  C5  DEN d   1       3.112  -2.179   5.173  0.00  0.00    -0.003 A 
ATOM      6  C6  DEN d   1       2.271  -1.482   5.999  0.00  0.00     0.001 A 
ATOM      7  C7  DEN d   1       1.257  -0.733   5.461  0.00  0.00     0.017 A 
ATOM      8  C8  DEN d   1       1.149  -0.666   4.078  0.00  0.00    -0.094 A 
ATOM      9  C9  DEN d   1       2.002  -1.387   3.260  0.00  0.00    -0.072 A 
ENDROOT
TORSDOF 0
ENDMDL
