MODEL 1
REMARK minimizedAffinity 3.38677597
REMARK minimizedRMSD -1
REMARK  0 active torsions:
REMARK  status: ('A' for Active; 'I' for Inactive)
ROOT
ATOM      1  C1  DEN d   1       2.515  -1.024   4.971  0.00  0.00     0.130 A 
ATOM      2  C2  DEN d   1       2.715  -2.043   5.997  0.00  0.00    -0.031 A 
ATOM      3  C3  DEN d   1       1.591  -2.998   5.918  0.00  0.00     0.027 A 
ATOM      4  C4  DEN d   1      -0.426  -2.999   4.311  0.00  0.00     0.027 A 
ATOM      5  C5  DEN d   1      -1.036  -2.329   3.274  0.00  0.00    -0.003 A 
ATOM      6  C6  DEN d   1      -0.527  -1.167   2.757  0.00  0.00     0.001 A 
ATOM      7  C7  DEN d   1       0.650  -0.665   3.245  0.00  0.00     0.017 A 
ATOM      8  C8  DEN d   1       1.267  -1.331   4.296  0.00  0.00    -0.094 A 
ATOM      9  C9  DEN d   1       0.743  -2.511   4.797  0.00  0.00    -0.072 A 
ENDROOT
TORSDOF 0
ENDMDL
