MODEL 1
REMARK minimizedAffinity 12.5975523
REMARK minimizedRMSD -1
REMARK  0 active torsions:
REMARK  status: ('A' for Active; 'I' for Inactive)
ROOT
ATOM      1  C   UNL d   1      -1.869  -0.478   0.991  0.00  0.00    -0.002 A 
ATOM      2  C1  UNL d   1      -1.460   0.136  -0.184  0.00  0.00     0.010 A 
ATOM      3  C2  UNL d   1      -0.563   1.205  -0.151  0.00  0.00     0.041 A 
ATOM      4  C3  UNL d   1      -0.078   1.650   1.094  0.00  0.00    -0.075 A 
ATOM      5  S   UNL d   1       1.029   2.941   1.378  0.00  0.00     0.015 SA
ATOM      6  C4  UNL d   1       0.985   2.707   3.066  0.00  0.00     0.022 A 
ATOM      7  C5  UNL d   1       0.152   1.674   3.422  0.00  0.00     0.026 A 
ATOM      8  C6  UNL d   1      -0.474   1.047   2.291  0.00  0.00    -0.082 A 
ATOM      9  C7  UNL d   1      -1.385  -0.035   2.225  0.00  0.00     0.045 A 
ENDROOT
TORSDOF 0
ENDMDL
