MODEL 1
REMARK minimizedAffinity 23.735117
REMARK minimizedRMSD -1
REMARK  0 active torsions:
REMARK  status: ('A' for Active; 'I' for Inactive)
ROOT
ATOM      1  C   UNL d   1      -2.177   0.200   1.000  0.00  0.00    -0.002 A 
ATOM      2  C1  UNL d   1      -1.728  -0.770   1.886  0.00  0.00     0.010 A 
ATOM      3  C2  UNL d   1      -0.693  -0.490   2.780  0.00  0.00     0.041 A 
ATOM      4  C3  UNL d   1      -0.112   0.793   2.771  0.00  0.00    -0.075 A 
ATOM      5  S   UNL d   1       1.167   1.363   3.776  0.00  0.00     0.015 SA
ATOM      6  C4  UNL d   1       1.148   2.907   3.054  0.00  0.00     0.022 A 
ATOM      7  C5  UNL d   1       0.195   3.003   2.068  0.00  0.00     0.026 A 
ATOM      8  C6  UNL d   1      -0.548   1.787   1.889  0.00  0.00    -0.082 A 
ATOM      9  C7  UNL d   1      -1.598   1.472   0.993  0.00  0.00     0.045 A 
ENDROOT
TORSDOF 0
ENDMDL
