MODEL 1
REMARK minimizedAffinity 6.13703537
REMARK minimizedRMSD -1
REMARK  0 active torsions:
REMARK  status: ('A' for Active; 'I' for Inactive)
ROOT
ATOM      1  C   UNL d   1      -1.416  -4.492  -5.997  0.00  0.00    -0.002 A 
ATOM      2  C1  UNL d   1      -1.927  -5.782  -5.999  0.00  0.00     0.010 A 
ATOM      3  C2  UNL d   1      -3.307  -5.999  -5.999  0.00  0.00     0.041 A 
ATOM      4  C3  UNL d   1      -4.171  -4.887  -5.999  0.00  0.00    -0.075 A 
ATOM      5  S   UNL d   1      -5.895  -4.910  -5.999  0.00  0.00     0.015 SA
ATOM      6  C4  UNL d   1      -5.993  -3.209  -5.997  0.00  0.00     0.022 A 
ATOM      7  C5  UNL d   1      -4.751  -2.621  -5.996  0.00  0.00     0.026 A 
ATOM      8  C6  UNL d   1      -3.680  -3.578  -5.997  0.00  0.00    -0.082 A 
ATOM      9  C7  UNL d   1      -2.277  -3.391  -5.996  0.00  0.00     0.045 A 
ENDROOT
TORSDOF 0
ENDMDL
