MODEL 1
REMARK minimizedAffinity 19.7921276
REMARK minimizedRMSD -1
REMARK  0 active torsions:
REMARK  status: ('A' for Active; 'I' for Inactive)
ROOT
ATOM      1  C   UNL d   1       3.758   3.447  -4.815  0.00  0.00    -0.002 A 
ATOM      2  C1  UNL d   1       3.799   2.684  -5.973  0.00  0.00     0.010 A 
ATOM      3  C2  UNL d   1       3.249   1.401  -5.998  0.00  0.00     0.041 A 
ATOM      4  C3  UNL d   1       2.650   0.894  -4.828  0.00  0.00    -0.075 A 
ATOM      5  S   UNL d   1       1.911  -0.651  -4.624  0.00  0.00     0.015 SA
ATOM      6  C4  UNL d   1       1.523  -0.333  -2.995  0.00  0.00     0.022 A 
ATOM      7  C5  UNL d   1       1.940   0.916  -2.600  0.00  0.00     0.026 A 
ATOM      8  C6  UNL d   1       2.596   1.644  -3.650  0.00  0.00    -0.082 A 
ATOM      9  C7  UNL d   1       3.163   2.941  -3.657  0.00  0.00     0.045 A 
ENDROOT
TORSDOF 0
ENDMDL
