MODEL 1
REMARK minimizedAffinity 6.7484045
REMARK minimizedRMSD -1
REMARK  0 active torsions:
REMARK  status: ('A' for Active; 'I' for Inactive)
ROOT
ATOM      1  C   UNL d   1      -4.248  -5.962   1.383  0.00  0.00    -0.002 A 
ATOM      2  C1  UNL d   1      -3.780  -5.996   0.077  0.00  0.00     0.010 A 
ATOM      3  C2  UNL d   1      -4.029  -4.934  -0.795  0.00  0.00     0.041 A 
ATOM      4  C3  UNL d   1      -4.762  -3.826  -0.327  0.00  0.00    -0.075 A 
ATOM      5  S   UNL d   1      -5.187  -2.411  -1.215  0.00  0.00     0.015 SA
ATOM      6  C4  UNL d   1      -5.999  -1.727   0.118  0.00  0.00     0.022 A 
ATOM      7  C5  UNL d   1      -5.957  -2.546   1.222  0.00  0.00     0.026 A 
ATOM      8  C6  UNL d   1      -5.243  -3.768   0.984  0.00  0.00    -0.082 A 
ATOM      9  C7  UNL d   1      -4.975  -4.861   1.843  0.00  0.00     0.045 A 
ENDROOT
TORSDOF 0
ENDMDL
