MODEL 1
REMARK minimizedAffinity 13.5589533
REMARK minimizedRMSD -1
REMARK  0 active torsions:
REMARK  status: ('A' for Active; 'I' for Inactive)
ROOT
ATOM      1  C   UNL d   1      -2.995   0.329   1.569  0.00  0.00    -0.002 A 
ATOM      2  C1  UNL d   1      -2.211  -0.782   1.842  0.00  0.00     0.010 A 
ATOM      3  C2  UNL d   1      -0.922  -0.633   2.359  0.00  0.00     0.041 A 
ATOM      4  C3  UNL d   1      -0.431   0.665   2.600  0.00  0.00    -0.075 A 
ATOM      5  S   UNL d   1       1.116   1.091   3.230  0.00  0.00     0.015 SA
ATOM      6  C4  UNL d   1       0.772   2.758   3.153  0.00  0.00     0.022 A 
ATOM      7  C5  UNL d   1      -0.488   3.002   2.660  0.00  0.00     0.026 A 
ATOM      8  C6  UNL d   1      -1.203   1.800   2.334  0.00  0.00    -0.082 A 
ATOM      9  C7  UNL d   1      -2.505   1.615   1.810  0.00  0.00     0.045 A 
ENDROOT
TORSDOF 0
ENDMDL
