MODEL 1
REMARK minimizedAffinity 18.4263
REMARK minimizedRMSD -1
REMARK  0 active torsions:
REMARK  status: ('A' for Active; 'I' for Inactive)
ROOT
ATOM      1  C   UNL d   1      -3.422   0.761   1.148  0.00  0.00    -0.002 A 
ATOM      2  C1  UNL d   1      -2.591  -0.344   1.261  0.00  0.00     0.010 A 
ATOM      3  C2  UNL d   1      -1.314  -0.219   1.811  0.00  0.00     0.041 A 
ATOM      4  C3  UNL d   1      -0.883   1.047   2.252  0.00  0.00    -0.075 A 
ATOM      5  S   UNL d   1       0.640   1.439   2.960  0.00  0.00     0.015 SA
ATOM      6  C4  UNL d   1       0.222   3.082   3.131  0.00  0.00     0.022 A 
ATOM      7  C5  UNL d   1      -1.044   3.344   2.664  0.00  0.00     0.026 A 
ATOM      8  C6  UNL d   1      -1.702   2.175   2.151  0.00  0.00    -0.082 A 
ATOM      9  C7  UNL d   1      -2.991   2.016   1.588  0.00  0.00     0.045 A 
ENDROOT
TORSDOF 0
ENDMDL
