MODEL 1
REMARK minimizedAffinity 16.8329506
REMARK minimizedRMSD -1
REMARK  0 active torsions:
REMARK  status: ('A' for Active; 'I' for Inactive)
ROOT
ATOM      1  C   UNL d   1       3.319   5.642  -3.944  0.00  0.00    -0.002 A 
ATOM      2  C1  UNL d   1       4.068   4.607  -4.486  0.00  0.00     0.010 A 
ATOM      3  C2  UNL d   1       3.958   3.310  -3.981  0.00  0.00     0.041 A 
ATOM      4  C3  UNL d   1       3.073   3.068  -2.912  0.00  0.00    -0.075 A 
ATOM      5  S   UNL d   1       2.773   1.560  -2.132  0.00  0.00     0.015 SA
ATOM      6  C4  UNL d   1       1.643   2.254  -1.061  0.00  0.00     0.022 A 
ATOM      7  C5  UNL d   1       1.487   3.602  -1.279  0.00  0.00     0.026 A 
ATOM      8  C6  UNL d   1       2.308   4.094  -2.349  0.00  0.00    -0.082 A 
ATOM      9  C7  UNL d   1       2.442   5.398  -2.883  0.00  0.00     0.045 A 
ENDROOT
TORSDOF 0
ENDMDL
