MODEL 1
REMARK minimizedAffinity 3.5701077
REMARK minimizedRMSD -1
REMARK  0 active torsions:
REMARK  status: ('A' for Active; 'I' for Inactive)
ROOT
ATOM      1  C   UNL d   1      -3.152  -3.527  -0.367  0.00  0.00    -0.002 A 
ATOM      2  C1  UNL d   1      -4.482  -3.130  -0.382  0.00  0.00     0.010 A 
ATOM      3  C2  UNL d   1      -4.843  -1.841   0.015  0.00  0.00     0.041 A 
ATOM      4  C3  UNL d   1      -3.835  -0.948   0.430  0.00  0.00    -0.075 A 
ATOM      5  S   UNL d   1      -4.043   0.680   0.958  0.00  0.00     0.015 SA
ATOM      6  C4  UNL d   1      -2.371   0.887   1.216  0.00  0.00     0.022 A 
ATOM      7  C5  UNL d   1      -1.657  -0.248   0.912  0.00  0.00     0.026 A 
ATOM      8  C6  UNL d   1      -2.489  -1.324   0.453  0.00  0.00    -0.082 A 
ATOM      9  C7  UNL d   1      -2.155  -2.638   0.046  0.00  0.00     0.045 A 
ENDROOT
TORSDOF 0
ENDMDL
