MODEL 1
REMARK minimizedAffinity 17.7461643
REMARK minimizedRMSD -1
REMARK  0 active torsions:
REMARK  status: ('A' for Active; 'I' for Inactive)
ROOT
ATOM      1  C   UNL d   1       5.978  -1.060   2.321  0.00  0.00    -0.002 A 
ATOM      2  C1  UNL d   1       6.000  -0.075   1.344  0.00  0.00     0.010 A 
ATOM      3  C2  UNL d   1       4.846   0.652   1.043  0.00  0.00     0.041 A 
ATOM      4  C3  UNL d   1       3.660   0.371   1.749  0.00  0.00    -0.075 A 
ATOM      5  S   UNL d   1       2.127   1.134   1.550  0.00  0.00     0.015 SA
ATOM      6  C4  UNL d   1       1.407   0.171   2.759  0.00  0.00     0.022 A 
ATOM      7  C5  UNL d   1       2.301  -0.717   3.310  0.00  0.00     0.026 A 
ATOM      8  C6  UNL d   1       3.614  -0.616   2.737  0.00  0.00    -0.082 A 
ATOM      9  C7  UNL d   1       4.799  -1.336   3.019  0.00  0.00     0.045 A 
ENDROOT
TORSDOF 0
ENDMDL
