MODEL 1
REMARK minimizedAffinity 7.71511698
REMARK minimizedRMSD -1
REMARK  0 active torsions:
REMARK  status: ('A' for Active; 'I' for Inactive)
ROOT
ATOM      1  C   UNL d   1      -4.384   0.629   2.727  0.00  0.00    -0.002 A 
ATOM      2  C1  UNL d   1      -4.215   1.039   1.412  0.00  0.00     0.010 A 
ATOM      3  C2  UNL d   1      -2.938   1.132   0.856  0.00  0.00     0.041 A 
ATOM      4  C3  UNL d   1      -1.823   0.801   1.650  0.00  0.00    -0.075 A 
ATOM      5  S   UNL d   1      -0.164   0.840   1.182  0.00  0.00     0.015 SA
ATOM      6  C4  UNL d   1       0.359   0.312   2.716  0.00  0.00     0.022 A 
ATOM      7  C5  UNL d   1      -0.693   0.107   3.577  0.00  0.00     0.026 A 
ATOM      8  C6  UNL d   1      -1.968   0.385   2.977  0.00  0.00    -0.082 A 
ATOM      9  C7  UNL d   1      -3.276   0.302   3.512  0.00  0.00     0.045 A 
ENDROOT
TORSDOF 0
ENDMDL
