MODEL 1
REMARK minimizedAffinity -5.14365721
REMARK minimizedRMSD -1
REMARK  0 active torsions:
REMARK  status: ('A' for Active; 'I' for Inactive)
ROOT
ATOM      1  N1  IND d   1       0.448  -0.619   0.197  0.00  0.00    -0.196 N 
ATOM      2  C2  IND d   1       0.444   0.394  -0.720  0.00  0.00     0.054 A 
ATOM      3  C3  IND d   1      -0.802   0.578  -1.212  0.00  0.00    -0.031 A 
ATOM      4  C4  IND d   1      -3.001  -0.602  -0.579  0.00  0.00     0.051 A 
ATOM      5  C5  IND d   1      -3.495  -1.622   0.184  0.00  0.00    -0.031 A 
ATOM      6  C6  IND d   1      -2.684  -2.374   1.009  0.00  0.00     0.015 A 
ATOM      7  C7  IND d   1      -1.344  -2.125   1.111  0.00  0.00    -0.016 A 
ATOM      8  C8  IND d   1      -0.838  -1.094   0.332  0.00  0.00    -0.047 A 
ATOM      9  C9  IND d   1      -1.649  -0.355  -0.539  0.00  0.00    -0.096 A 
ATOM     10  HN1 IND d   1       1.138  -0.911   0.618  0.00  0.00     0.298 HD
ENDROOT
TORSDOF 0
ENDMDL
