MODEL 1
REMARK minimizedAffinity -4.33559227
REMARK minimizedRMSD -1
REMARK  0 active torsions:
REMARK  status: ('A' for Active; 'I' for Inactive)
ROOT
ATOM      1  N1  IND d   1       0.344  -0.966   1.299  0.00  0.00    -0.196 N 
ATOM      2  C2  IND d   1       1.394  -0.293   0.740  0.00  0.00     0.054 A 
ATOM      3  C3  IND d   1       1.015   0.291  -0.420  0.00  0.00    -0.031 A 
ATOM      4  C4  IND d   1      -1.304   0.356  -1.536  0.00  0.00     0.051 A 
ATOM      5  C5  IND d   1      -2.570  -0.145  -1.419  0.00  0.00    -0.031 A 
ATOM      6  C6  IND d   1      -2.938  -0.959  -0.368  0.00  0.00     0.015 A 
ATOM      7  C7  IND d   1      -2.052  -1.295   0.617  0.00  0.00    -0.016 A 
ATOM      8  C8  IND d   1      -0.763  -0.794   0.498  0.00  0.00    -0.047 A 
ATOM      9  C9  IND d   1      -0.373  -0.003  -0.590  0.00  0.00    -0.096 A 
ATOM     10  HN1 IND d   1       0.371  -1.420   2.028  0.00  0.00     0.298 HD
ENDROOT
TORSDOF 0
ENDMDL
