MODEL 1
REMARK minimizedAffinity -6.11585331
REMARK minimizedRMSD -1
REMARK  0 active torsions:
REMARK  status: ('A' for Active; 'I' for Inactive)
ROOT
ATOM      1  N1  IND d   1       0.594  -0.569   0.347  0.00  0.00    -0.196 N 
ATOM      2  C2  IND d   1       0.646   0.309  -0.700  0.00  0.00     0.054 A 
ATOM      3  C3  IND d   1      -0.552   0.367  -1.325  0.00  0.00    -0.031 A 
ATOM      4  C4  IND d   1      -2.762  -0.815  -0.739  0.00  0.00     0.051 A 
ATOM      5  C5  IND d   1      -3.295  -1.744   0.111  0.00  0.00    -0.031 A 
ATOM      6  C6  IND d   1      -2.544  -2.339   1.104  0.00  0.00     0.015 A 
ATOM      7  C7  IND d   1      -1.230  -2.017   1.293  0.00  0.00    -0.016 A 
ATOM      8  C8  IND d   1      -0.684  -1.079   0.428  0.00  0.00    -0.047 A 
ATOM      9  C9  IND d   1      -1.429  -0.504  -0.609  0.00  0.00    -0.096 A 
ATOM     10  HN1 IND d   1       1.248  -0.770   0.867  0.00  0.00     0.298 HD
ENDROOT
TORSDOF 0
ENDMDL
