MODEL 1
REMARK minimizedAffinity -2.3309195
REMARK minimizedRMSD -1
REMARK  0 active torsions:
REMARK  status: ('A' for Active; 'I' for Inactive)
ROOT
ATOM      1  N1  IND d   1      -2.723  -1.073   1.135  0.00  0.00    -0.196 N 
ATOM      2  C2  IND d   1      -3.505  -0.955   0.020  0.00  0.00     0.054 A 
ATOM      3  C3  IND d   1      -2.784  -0.457  -1.009  0.00  0.00    -0.031 A 
ATOM      4  C4  IND d   1      -0.283   0.142  -1.116  0.00  0.00     0.051 A 
ATOM      5  C5  IND d   1       0.836   0.238  -0.336  0.00  0.00    -0.031 A 
ATOM      6  C6  IND d   1       0.826  -0.107   1.000  0.00  0.00     0.015 A 
ATOM      7  C7  IND d   1      -0.306  -0.574   1.606  0.00  0.00    -0.016 A 
ATOM      8  C8  IND d   1      -1.445  -0.667   0.820  0.00  0.00    -0.047 A 
ATOM      9  C9  IND d   1      -1.452  -0.278  -0.526  0.00  0.00    -0.096 A 
ATOM     10  HN1 IND d   1      -2.986  -1.353   1.905  0.00  0.00     0.298 HD
ENDROOT
TORSDOF 0
ENDMDL
