MODEL 1
REMARK minimizedAffinity -6.33102226
REMARK minimizedRMSD -1
REMARK  0 active torsions:
REMARK  status: ('A' for Active; 'I' for Inactive)
ROOT
ATOM      1  N1  IND d   1       0.484  -0.157   0.319  0.00  0.00    -0.196 N 
ATOM      2  C2  IND d   1       0.623   0.735  -0.707  0.00  0.00     0.054 A 
ATOM      3  C3  IND d   1      -0.506   0.778  -1.449  0.00  0.00    -0.031 A 
ATOM      4  C4  IND d   1      -2.739  -0.455  -1.103  0.00  0.00     0.051 A 
ATOM      5  C5  IND d   1      -3.335  -1.405  -0.322  0.00  0.00    -0.031 A 
ATOM      6  C6  IND d   1      -2.677  -1.997   0.736  0.00  0.00     0.015 A 
ATOM      7  C7  IND d   1      -1.395  -1.653   1.060  0.00  0.00    -0.016 A 
ATOM      8  C8  IND d   1      -0.784  -0.693   0.265  0.00  0.00    -0.047 A 
ATOM      9  C9  IND d   1      -1.433  -0.119  -0.836  0.00  0.00    -0.096 A 
ATOM     10  HN1 IND d   1       1.087  -0.352   0.900  0.00  0.00     0.298 HD
ENDROOT
TORSDOF 0
ENDMDL
