MODEL 1
REMARK minimizedAffinity -5.20412111
REMARK minimizedRMSD -1
REMARK  0 active torsions:
REMARK  status: ('A' for Active; 'I' for Inactive)
ROOT
ATOM      1  N1  IND d   1      -1.033  -1.982   1.496  0.00  0.00    -0.196 N 
ATOM      2  C2  IND d   1      -2.227  -2.644   1.423  0.00  0.00     0.054 A 
ATOM      3  C3  IND d   1      -2.946  -2.203   0.366  0.00  0.00    -0.031 A 
ATOM      4  C4  IND d   1      -2.314  -0.475  -1.435  0.00  0.00     0.051 A 
ATOM      5  C5  IND d   1      -1.342   0.424  -1.771  0.00  0.00    -0.031 A 
ATOM      6  C6  IND d   1      -0.192   0.568  -1.022  0.00  0.00     0.015 A 
ATOM      7  C7  IND d   1       0.034  -0.193   0.090  0.00  0.00    -0.016 A 
ATOM      8  C8  IND d   1      -0.955  -1.102   0.438  0.00  0.00    -0.047 A 
ATOM      9  C9  IND d   1      -2.143  -1.223  -0.294  0.00  0.00    -0.096 A 
ATOM     10  HN1 IND d   1      -0.433  -2.095   2.100  0.00  0.00     0.298 HD
ENDROOT
TORSDOF 0
ENDMDL
