MODEL 1
REMARK minimizedAffinity -5.1410656
REMARK minimizedRMSD -1
REMARK  0 active torsions:
REMARK  status: ('A' for Active; 'I' for Inactive)
ROOT
ATOM      1  N1  IND d   1       0.770  -0.654   0.768  0.00  0.00    -0.196 N 
ATOM      2  C2  IND d   1       1.230   0.254  -0.145  0.00  0.00     0.054 A 
ATOM      3  C3  IND d   1       0.248   0.587  -1.013  0.00  0.00    -0.031 A 
ATOM      4  C4  IND d   1      -2.216  -0.158  -1.060  0.00  0.00     0.051 A 
ATOM      5  C5  IND d   1      -3.096  -1.008  -0.451  0.00  0.00    -0.031 A 
ATOM      6  C6  IND d   1      -2.726  -1.797   0.619  0.00  0.00     0.015 A 
ATOM      7  C7  IND d   1      -1.459  -1.757   1.129  0.00  0.00    -0.016 A 
ATOM      8  C8  IND d   1      -0.560  -0.901   0.508  0.00  0.00    -0.047 A 
ATOM      9  C9  IND d   1      -0.919  -0.129  -0.604  0.00  0.00    -0.096 A 
ATOM     10  HN1 IND d   1       1.234  -1.011   1.397  0.00  0.00     0.298 HD
ENDROOT
TORSDOF 0
ENDMDL
