MODEL 1
REMARK minimizedAffinity -3.68936658
REMARK minimizedRMSD -1
REMARK  0 active torsions:
REMARK  status: ('A' for Active; 'I' for Inactive)
ROOT
ATOM      1  N1  IND d   1       1.404   3.627   0.976  0.00  0.00    -0.196 N 
ATOM      2  C2  IND d   1       2.668   3.383   1.437  0.00  0.00     0.054 A 
ATOM      3  C3  IND d   1       3.011   2.095   1.210  0.00  0.00    -0.031 A 
ATOM      4  C4  IND d   1       1.694   0.240   0.005  0.00  0.00     0.051 A 
ATOM      5  C5  IND d   1       0.478  -0.025  -0.558  0.00  0.00    -0.031 A 
ATOM      6  C6  IND d   1      -0.511   0.933  -0.643  0.00  0.00     0.015 A 
ATOM      7  C7  IND d   1      -0.315   2.202  -0.176  0.00  0.00    -0.016 A 
ATOM      8  C8  IND d   1       0.916   2.473   0.403  0.00  0.00    -0.047 A 
ATOM      9  C9  IND d   1       1.908   1.493   0.531  0.00  0.00    -0.096 A 
ATOM     10  HN1 IND d   1       0.985   4.375   1.034  0.00  0.00     0.298 HD
ENDROOT
TORSDOF 0
ENDMDL
