MODEL 1
REMARK minimizedAffinity -2.97405267
REMARK minimizedRMSD -1
REMARK  0 active torsions:
REMARK  status: ('A' for Active; 'I' for Inactive)
ROOT
ATOM      1  N1  IND d   1      -2.564  -0.877   0.836  0.00  0.00    -0.196 N 
ATOM      2  C2  IND d   1      -3.394  -0.658  -0.228  0.00  0.00     0.054 A 
ATOM      3  C3  IND d   1      -2.700  -0.144  -1.268  0.00  0.00    -0.031 A 
ATOM      4  C4  IND d   1      -0.177   0.326  -1.478  0.00  0.00     0.051 A 
ATOM      5  C5  IND d   1       0.983   0.321  -0.756  0.00  0.00    -0.031 A 
ATOM      6  C6  IND d   1       1.021  -0.095   0.560  0.00  0.00     0.015 A 
ATOM      7  C7  IND d   1      -0.102  -0.533   1.201  0.00  0.00    -0.016 A 
ATOM      8  C8  IND d   1      -1.284  -0.523   0.473  0.00  0.00    -0.047 A 
ATOM      9  C9  IND d   1      -1.337  -0.062  -0.848  0.00  0.00    -0.096 A 
ATOM     10  HN1 IND d   1      -2.803  -1.184   1.603  0.00  0.00     0.298 HD
ENDROOT
TORSDOF 0
ENDMDL
