MODEL 1
REMARK minimizedAffinity -5.2588768
REMARK minimizedRMSD -1
REMARK  0 active torsions:
REMARK  status: ('A' for Active; 'I' for Inactive)
ROOT
ATOM      1  N1  IND d   1       0.784  -0.707   0.506  0.00  0.00    -0.196 N 
ATOM      2  C2  IND d   1       0.851   0.210  -0.507  0.00  0.00     0.054 A 
ATOM      3  C3  IND d   1      -0.320   0.250  -1.182  0.00  0.00    -0.031 A 
ATOM      4  C4  IND d   1      -2.511  -1.026  -0.734  0.00  0.00     0.051 A 
ATOM      5  C5  IND d   1      -3.046  -2.002   0.059  0.00  0.00    -0.031 A 
ATOM      6  C6  IND d   1      -2.319  -2.606   1.063  0.00  0.00     0.015 A 
ATOM      7  C7  IND d   1      -1.026  -2.247   1.321  0.00  0.00    -0.016 A 
ATOM      8  C8  IND d   1      -0.476  -1.262   0.513  0.00  0.00    -0.047 A 
ATOM      9  C9  IND d   1      -1.197  -0.675  -0.536  0.00  0.00    -0.096 A 
ATOM     10  HN1 IND d   1       1.423  -0.903   1.047  0.00  0.00     0.298 HD
ENDROOT
TORSDOF 0
ENDMDL
