MODEL 1
REMARK minimizedAffinity -5.96019459
REMARK minimizedRMSD -1
REMARK  0 active torsions:
REMARK  status: ('A' for Active; 'I' for Inactive)
ROOT
ATOM      1  N1  IND d   1       0.679  -0.946   0.582  0.00  0.00    -0.196 N 
ATOM      2  C2  IND d   1       0.947  -0.016  -0.383  0.00  0.00     0.054 A 
ATOM      3  C3  IND d   1      -0.186   0.319  -1.041  0.00  0.00    -0.031 A 
ATOM      4  C4  IND d   1      -2.605  -0.460  -0.633  0.00  0.00     0.051 A 
ATOM      5  C5  IND d   1      -3.344  -1.332   0.116  0.00  0.00    -0.031 A 
ATOM      6  C6  IND d   1      -2.769  -2.135   1.080  0.00  0.00     0.015 A 
ATOM      7  C7  IND d   1      -1.428  -2.086   1.340  0.00  0.00    -0.016 A 
ATOM      8  C8  IND d   1      -0.674  -1.206   0.577  0.00  0.00    -0.047 A 
ATOM      9  C9  IND d   1      -1.246  -0.421  -0.432  0.00  0.00    -0.096 A 
ATOM     10  HN1 IND d   1       1.258  -1.307   1.105  0.00  0.00     0.298 HD
ENDROOT
TORSDOF 0
ENDMDL
