MODEL 1
REMARK minimizedAffinity -4.77021217
REMARK minimizedRMSD -1
REMARK  0 active torsions:
REMARK  status: ('A' for Active; 'I' for Inactive)
ROOT
ATOM      1  N1  IND d   1       0.661  -0.404   0.641  0.00  0.00    -0.196 N 
ATOM      2  C2  IND d   1       0.806   0.431  -0.432  0.00  0.00     0.054 A 
ATOM      3  C3  IND d   1      -0.298   0.392  -1.211  0.00  0.00    -0.031 A 
ATOM      4  C4  IND d   1      -2.501  -0.893  -0.863  0.00  0.00     0.051 A 
ATOM      5  C5  IND d   1      -3.093  -1.816  -0.046  0.00  0.00    -0.031 A 
ATOM      6  C6  IND d   1      -2.452  -2.322   1.065  0.00  0.00     0.015 A 
ATOM      7  C7  IND d   1      -1.194  -1.916   1.410  0.00  0.00    -0.016 A 
ATOM      8  C8  IND d   1      -0.587  -0.985   0.578  0.00  0.00    -0.047 A 
ATOM      9  C9  IND d   1      -1.216  -0.498  -0.575  0.00  0.00    -0.096 A 
ATOM     10  HN1 IND d   1       1.249  -0.543   1.252  0.00  0.00     0.298 HD
ENDROOT
TORSDOF 0
ENDMDL
