MODEL 1
REMARK minimizedAffinity -2.5716188
REMARK minimizedRMSD -1
REMARK  0 active torsions:
REMARK  status: ('A' for Active; 'I' for Inactive)
ROOT
ATOM      1  N1  IND d   1       1.098  -0.929   0.999  0.00  0.00    -0.196 N 
ATOM      2  C2  IND d   1       1.249   0.264   0.348  0.00  0.00     0.054 A 
ATOM      3  C3  IND d   1       0.070   0.665  -0.177  0.00  0.00    -0.031 A 
ATOM      4  C4  IND d   1      -2.255  -0.428  -0.004  0.00  0.00     0.051 A 
ATOM      5  C5  IND d   1      -2.887  -1.548   0.459  0.00  0.00    -0.031 A 
ATOM      6  C6  IND d   1      -2.209  -2.538   1.141  0.00  0.00     0.015 A 
ATOM      7  C7  IND d   1      -0.871  -2.439   1.397  0.00  0.00    -0.016 A 
ATOM      8  C8  IND d   1      -0.225  -1.306   0.923  0.00  0.00    -0.047 A 
ATOM      9  C9  IND d   1      -0.898  -0.318   0.193  0.00  0.00    -0.096 A 
ATOM     10  HN1 IND d   1       1.725  -1.370   1.389  0.00  0.00     0.298 HD
ENDROOT
TORSDOF 0
ENDMDL
