MODEL 1
REMARK minimizedAffinity -4.46756935
REMARK minimizedRMSD -1
REMARK  0 active torsions:
REMARK  status: ('A' for Active; 'I' for Inactive)
ROOT
ATOM      1  N1  IND d   1       0.570  -0.616   0.731  0.00  0.00    -0.196 N 
ATOM      2  C2  IND d   1       0.880   0.091  -0.397  0.00  0.00     0.054 A 
ATOM      3  C3  IND d   1      -0.199   0.183  -1.206  0.00  0.00    -0.031 A 
ATOM      4  C4  IND d   1      -2.602  -0.662  -0.831  0.00  0.00     0.051 A 
ATOM      5  C5  IND d   1      -3.362  -1.396   0.035  0.00  0.00    -0.031 A 
ATOM      6  C6  IND d   1      -2.841  -1.916   1.202  0.00  0.00     0.015 A 
ATOM      7  C7  IND d   1      -1.537  -1.711   1.554  0.00  0.00    -0.016 A 
ATOM      8  C8  IND d   1      -0.760  -0.971   0.673  0.00  0.00    -0.047 A 
ATOM      9  C9  IND d   1      -1.272  -0.477  -0.533  0.00  0.00    -0.096 A 
ATOM     10  HN1 IND d   1       1.114  -0.807   1.369  0.00  0.00     0.298 HD
ENDROOT
TORSDOF 0
ENDMDL
