MODEL 1
REMARK minimizedAffinity -3.71427703
REMARK minimizedRMSD -1
REMARK  0 active torsions:
REMARK  status: ('A' for Active; 'I' for Inactive)
ROOT
ATOM      1  N1  IND d   1       0.350  -0.379   0.635  0.00  0.00    -0.196 N 
ATOM      2  C2  IND d   1       0.464   0.534  -0.376  0.00  0.00     0.054 A 
ATOM      3  C3  IND d   1      -0.675   0.576  -1.102  0.00  0.00    -0.031 A 
ATOM      4  C4  IND d   1      -2.888  -0.692  -0.749  0.00  0.00     0.051 A 
ATOM      5  C5  IND d   1      -3.461  -1.664   0.022  0.00  0.00    -0.031 A 
ATOM      6  C6  IND d   1      -2.781  -2.268   1.059  0.00  0.00     0.015 A 
ATOM      7  C7  IND d   1      -1.499  -1.912   1.373  0.00  0.00    -0.016 A 
ATOM      8  C8  IND d   1      -0.911  -0.931   0.588  0.00  0.00    -0.047 A 
ATOM      9  C9  IND d   1      -1.582  -0.344  -0.493  0.00  0.00    -0.096 A 
ATOM     10  HN1 IND d   1       0.963  -0.577   1.205  0.00  0.00     0.298 HD
ENDROOT
TORSDOF 0
ENDMDL
