MODEL 1
REMARK minimizedAffinity -5.34996271
REMARK minimizedRMSD -1
REMARK  0 active torsions:
REMARK  status: ('A' for Active; 'I' for Inactive)
ROOT
ATOM      1  N1  IND d   1       0.746  -0.984   0.359  0.00  0.00    -0.196 N 
ATOM      2  C2  IND d   1       1.008  -0.057  -0.611  0.00  0.00     0.054 A 
ATOM      3  C3  IND d   1      -0.131   0.290  -1.250  0.00  0.00    -0.031 A 
ATOM      4  C4  IND d   1      -2.552  -0.462  -0.801  0.00  0.00     0.051 A 
ATOM      5  C5  IND d   1      -3.288  -1.327  -0.041  0.00  0.00    -0.031 A 
ATOM      6  C6  IND d   1      -2.705  -2.136   0.913  0.00  0.00     0.015 A 
ATOM      7  C7  IND d   1      -1.360  -2.102   1.151  0.00  0.00    -0.016 A 
ATOM      8  C8  IND d   1      -0.609  -1.230   0.375  0.00  0.00    -0.047 A 
ATOM      9  C9  IND d   1      -1.189  -0.438  -0.624  0.00  0.00    -0.096 A 
ATOM     10  HN1 IND d   1       1.330  -1.353   0.872  0.00  0.00     0.298 HD
ENDROOT
TORSDOF 0
ENDMDL
