MODEL 1
REMARK minimizedAffinity -2.7830627
REMARK minimizedRMSD -1
REMARK  0 active torsions:
REMARK  status: ('A' for Active; 'I' for Inactive)
ROOT
ATOM      1  N1  IND d   1       0.735  -0.781   0.878  0.00  0.00    -0.196 N 
ATOM      2  C2  IND d   1       1.199   0.260   0.123  0.00  0.00     0.054 A 
ATOM      3  C3  IND d   1       0.281   0.612  -0.805  0.00  0.00    -0.031 A 
ATOM      4  C4  IND d   1      -2.089  -0.315  -1.197  0.00  0.00     0.051 A 
ATOM      5  C5  IND d   1      -2.944  -1.296  -0.780  0.00  0.00    -0.031 A 
ATOM      6  C6  IND d   1      -2.611  -2.171   0.233  0.00  0.00     0.015 A 
ATOM      7  C7  IND d   1      -1.409  -2.091   0.878  0.00  0.00    -0.016 A 
ATOM      8  C8  IND d   1      -0.536  -1.100   0.453  0.00  0.00    -0.047 A 
ATOM      9  C9  IND d   1      -0.851  -0.236  -0.604  0.00  0.00    -0.096 A 
ATOM     10  HN1 IND d   1       1.165  -1.170   1.513  0.00  0.00     0.298 HD
ENDROOT
TORSDOF 0
ENDMDL
