MODEL 1
REMARK minimizedAffinity -3.56938481
REMARK minimizedRMSD -1
REMARK  0 active torsions:
REMARK  status: ('A' for Active; 'I' for Inactive)
ROOT
ATOM      1  N1  IND d   1       1.086  -0.812   1.002  0.00  0.00    -0.196 N 
ATOM      2  C2  IND d   1       1.250   0.055  -0.041  0.00  0.00     0.054 A 
ATOM      3  C3  IND d   1       0.111   0.141  -0.765  0.00  0.00    -0.031 A 
ATOM      4  C4  IND d   1      -2.172  -0.976  -0.360  0.00  0.00     0.051 A 
ATOM      5  C5  IND d   1      -2.800  -1.883   0.448  0.00  0.00    -0.031 A 
ATOM      6  C6  IND d   1      -2.152  -2.490   1.504  0.00  0.00     0.015 A 
ATOM      7  C7  IND d   1      -0.849  -2.202   1.801  0.00  0.00    -0.016 A 
ATOM      8  C8  IND d   1      -0.207  -1.287   0.979  0.00  0.00    -0.047 A 
ATOM      9  C9  IND d   1      -0.847  -0.700  -0.121  0.00  0.00    -0.096 A 
ATOM     10  HN1 IND d   1       1.689  -1.025   1.577  0.00  0.00     0.298 HD
ENDROOT
TORSDOF 0
ENDMDL
