MODEL 1
REMARK minimizedAffinity -2.86449099
REMARK minimizedRMSD -1
REMARK  0 active torsions:
REMARK  status: ('A' for Active; 'I' for Inactive)
ROOT
ATOM      1  C   UNL d   1      -1.910  -5.985  -5.610  0.00  0.00     0.172 C 
ATOM      2  N   UNL d   1      -2.789  -4.957  -5.104  0.00  0.00    -0.070 N 
ATOM      3  C1  UNL d   1      -2.581  -3.607  -5.206  0.00  0.00    -0.004 A 
ATOM      4  C2  UNL d   1      -3.643  -2.970  -4.602  0.00  0.00    -0.047 A 
ATOM      5  C3  UNL d   1      -4.519  -3.971  -4.119  0.00  0.00    -0.047 A 
ATOM      6  C4  UNL d   1      -3.966  -5.191  -4.444  0.00  0.00    -0.004 A 
ENDROOT
TORSDOF 0
ENDMDL
