MODEL 1
REMARK minimizedAffinity -2.69840741
REMARK minimizedRMSD -1
REMARK  0 active torsions:
REMARK  status: ('A' for Active; 'I' for Inactive)
ROOT
ATOM      1  C   UNL d   1      -1.311  -5.943  -5.624  0.00  0.00     0.172 C 
ATOM      2  N   UNL d   1      -2.593  -5.367  -5.294  0.00  0.00    -0.070 N 
ATOM      3  C1  UNL d   1      -3.601  -6.000  -4.616  0.00  0.00    -0.004 A 
ATOM      4  C2  UNL d   1      -4.653  -5.116  -4.504  0.00  0.00    -0.047 A 
ATOM      5  C3  UNL d   1      -4.264  -3.912  -5.137  0.00  0.00    -0.047 A 
ATOM      6  C4  UNL d   1      -2.985  -4.095  -5.617  0.00  0.00    -0.004 A 
ENDROOT
TORSDOF 0
ENDMDL
