MODEL 1
REMARK minimizedAffinity -2.69840717
REMARK minimizedRMSD -1
REMARK  0 active torsions:
REMARK  status: ('A' for Active; 'I' for Inactive)
ROOT
ATOM      1  C   UNL d   1      -2.707  -5.918  -4.927  0.00  0.00     0.172 C 
ATOM      2  N   UNL d   1      -3.862  -5.076  -4.722  0.00  0.00    -0.070 N 
ATOM      3  C1  UNL d   1      -4.018  -4.167  -3.710  0.00  0.00    -0.004 A 
ATOM      4  C2  UNL d   1      -5.250  -3.570  -3.865  0.00  0.00    -0.047 A 
ATOM      5  C3  UNL d   1      -5.857  -4.141  -5.009  0.00  0.00    -0.047 A 
ATOM      6  C4  UNL d   1      -4.976  -5.071  -5.520  0.00  0.00    -0.004 A 
ENDROOT
TORSDOF 0
ENDMDL
