MODEL 1
REMARK minimizedAffinity -2.98923588
REMARK minimizedRMSD -1
REMARK  0 active torsions:
REMARK  status: ('A' for Active; 'I' for Inactive)
ROOT
ATOM      1  C   UNL d   1      -3.731  -5.448  -4.470  0.00  0.00     0.172 C 
ATOM      2  N   UNL d   1      -4.366  -4.154  -4.391  0.00  0.00    -0.070 N 
ATOM      3  C1  UNL d   1      -5.711  -3.930  -4.264  0.00  0.00    -0.004 A 
ATOM      4  C2  UNL d   1      -5.910  -2.567  -4.223  0.00  0.00    -0.047 A 
ATOM      5  C3  UNL d   1      -4.642  -1.950  -4.331  0.00  0.00    -0.047 A 
ATOM      6  C4  UNL d   1      -3.703  -2.955  -4.434  0.00  0.00    -0.004 A 
ENDROOT
TORSDOF 0
ENDMDL
