MODEL 1
REMARK minimizedAffinity -2.43011904
REMARK minimizedRMSD -1
REMARK  0 active torsions:
REMARK  status: ('A' for Active; 'I' for Inactive)
ROOT
ATOM      1  C   UNL d   1      -3.938  -5.975  -4.541  0.00  0.00     0.172 C 
ATOM      2  N   UNL d   1      -4.682  -4.765  -4.802  0.00  0.00    -0.070 N 
ATOM      3  C1  UNL d   1      -4.736  -4.104  -6.000  0.00  0.00    -0.004 A 
ATOM      4  C2  UNL d   1      -5.548  -3.003  -5.838  0.00  0.00    -0.047 A 
ATOM      5  C3  UNL d   1      -5.997  -3.001  -4.496  0.00  0.00    -0.047 A 
ATOM      6  C4  UNL d   1      -5.446  -4.103  -3.877  0.00  0.00    -0.004 A 
ENDROOT
TORSDOF 0
ENDMDL
