MODEL 1
REMARK minimizedAffinity -2.35224271
REMARK minimizedRMSD -1
REMARK  0 active torsions:
REMARK  status: ('A' for Active; 'I' for Inactive)
ROOT
ATOM      1  C   UNL d   1      -1.878  -4.929  -5.672  0.00  0.00     0.172 C 
ATOM      2  N   UNL d   1      -3.019  -5.202  -4.831  0.00  0.00    -0.070 N 
ATOM      3  C1  UNL d   1      -3.017  -5.996  -3.715  0.00  0.00    -0.004 A 
ATOM      4  C2  UNL d   1      -4.294  -6.000  -3.197  0.00  0.00    -0.047 A 
ATOM      5  C3  UNL d   1      -5.092  -5.180  -4.030  0.00  0.00    -0.047 A 
ATOM      6  C4  UNL d   1      -4.277  -4.699  -5.034  0.00  0.00    -0.004 A 
ENDROOT
TORSDOF 0
ENDMDL
