MODEL 1
REMARK minimizedAffinity -2.69302845
REMARK minimizedRMSD -1
REMARK  0 active torsions:
REMARK  status: ('A' for Active; 'I' for Inactive)
ROOT
ATOM      1  C   UNL d   1      -1.497  -5.530  -6.000  0.00  0.00     0.172 C 
ATOM      2  N   UNL d   1      -2.632  -4.821  -5.457  0.00  0.00    -0.070 N 
ATOM      3  C1  UNL d   1      -3.786  -5.395  -4.996  0.00  0.00    -0.004 A 
ATOM      4  C2  UNL d   1      -4.617  -4.385  -4.564  0.00  0.00    -0.047 A 
ATOM      5  C3  UNL d   1      -3.940  -3.160  -4.773  0.00  0.00    -0.047 A 
ATOM      6  C4  UNL d   1      -2.713  -3.459  -5.327  0.00  0.00    -0.004 A 
ENDROOT
TORSDOF 0
ENDMDL
