MODEL 1
REMARK minimizedAffinity -2.60279989
REMARK minimizedRMSD -1
REMARK  0 active torsions:
REMARK  status: ('A' for Active; 'I' for Inactive)
ROOT
ATOM      1  C   UNL d   1      -3.987  -5.880  -4.864  0.00  0.00     0.172 C 
ATOM      2  N   UNL d   1      -4.345  -4.482  -4.827  0.00  0.00    -0.070 N 
ATOM      3  C1  UNL d   1      -3.468  -3.435  -4.728  0.00  0.00    -0.004 A 
ATOM      4  C2  UNL d   1      -4.202  -2.269  -4.725  0.00  0.00    -0.047 A 
ATOM      5  C3  UNL d   1      -5.568  -2.627  -4.826  0.00  0.00    -0.047 A 
ATOM      6  C4  UNL d   1      -5.627  -4.003  -4.887  0.00  0.00    -0.004 A 
ENDROOT
TORSDOF 0
ENDMDL
