MODEL 1
REMARK minimizedAffinity -2.40729189
REMARK minimizedRMSD -1
REMARK  0 active torsions:
REMARK  status: ('A' for Active; 'I' for Inactive)
ROOT
ATOM      1  C   UNL d   1      -2.800  -5.999  -5.148  0.00  0.00     0.172 C 
ATOM      2  N   UNL d   1      -3.773  -4.947  -5.326  0.00  0.00    -0.070 N 
ATOM      3  C1  UNL d   1      -4.959  -5.062  -6.000  0.00  0.00    -0.004 A 
ATOM      4  C2  UNL d   1      -5.597  -3.841  -5.943  0.00  0.00    -0.047 A 
ATOM      5  C3  UNL d   1      -4.765  -2.962  -5.210  0.00  0.00    -0.047 A 
ATOM      6  C4  UNL d   1      -3.642  -3.673  -4.840  0.00  0.00    -0.004 A 
ENDROOT
TORSDOF 0
ENDMDL
