MODEL 1
REMARK minimizedAffinity -2.85295081
REMARK minimizedRMSD -1
REMARK  0 active torsions:
REMARK  status: ('A' for Active; 'I' for Inactive)
ROOT
ATOM      1  C   UNL d   1      -5.914  -5.477  -6.000  0.00  0.00     0.172 C 
ATOM      2  N   UNL d   1      -5.100  -4.318  -5.720  0.00  0.00    -0.070 N 
ATOM      3  C1  UNL d   1      -3.740  -4.316  -5.565  0.00  0.00    -0.004 A 
ATOM      4  C2  UNL d   1      -3.345  -3.020  -5.311  0.00  0.00    -0.047 A 
ATOM      5  C3  UNL d   1      -4.509  -2.215  -5.311  0.00  0.00    -0.047 A 
ATOM      6  C4  UNL d   1      -5.581  -3.044  -5.567  0.00  0.00    -0.004 A 
ENDROOT
TORSDOF 0
ENDMDL
