MODEL 1
REMARK minimizedAffinity -2.96831679
REMARK minimizedRMSD -1
REMARK  0 active torsions:
REMARK  status: ('A' for Active; 'I' for Inactive)
ROOT
ATOM      1  C   UNL d   1      -5.979  -2.041  -5.772  0.00  0.00     0.172 C 
ATOM      2  N   UNL d   1      -4.942  -3.000  -5.470  0.00  0.00    -0.070 N 
ATOM      3  C1  UNL d   1      -5.064  -4.065  -4.618  0.00  0.00    -0.004 A 
ATOM      4  C2  UNL d   1      -3.859  -4.734  -4.603  0.00  0.00    -0.047 A 
ATOM      5  C3  UNL d   1      -2.982  -4.046  -5.476  0.00  0.00    -0.047 A 
ATOM      6  C4  UNL d   1      -3.679  -2.977  -5.999  0.00  0.00    -0.004 A 
ENDROOT
TORSDOF 0
ENDMDL
