MODEL 1
REMARK minimizedAffinity -2.67174578
REMARK minimizedRMSD -1
REMARK  0 active torsions:
REMARK  status: ('A' for Active; 'I' for Inactive)
ROOT
ATOM      1  C   UNL d   1      -5.993  -1.859  -5.629  0.00  0.00     0.172 C 
ATOM      2  N   UNL d   1      -5.286  -3.047  -5.211  0.00  0.00    -0.070 N 
ATOM      3  C1  UNL d   1      -4.276  -3.660  -5.903  0.00  0.00    -0.004 A 
ATOM      4  C2  UNL d   1      -3.868  -4.756  -5.173  0.00  0.00    -0.047 A 
ATOM      5  C3  UNL d   1      -4.662  -4.804  -4.003  0.00  0.00    -0.047 A 
ATOM      6  C4  UNL d   1      -5.531  -3.734  -4.051  0.00  0.00    -0.004 A 
ENDROOT
TORSDOF 0
ENDMDL
