MODEL 1
REMARK minimizedAffinity -2.36826491
REMARK minimizedRMSD -1
REMARK  0 active torsions:
REMARK  status: ('A' for Active; 'I' for Inactive)
ROOT
ATOM      1  C   UNL d   1      -1.085  -5.675  -5.336  0.00  0.00     0.172 C 
ATOM      2  N   UNL d   1      -2.456  -5.249  -5.490  0.00  0.00    -0.070 N 
ATOM      3  C1  UNL d   1      -2.866  -4.046  -5.999  0.00  0.00    -0.004 A 
ATOM      4  C2  UNL d   1      -4.244  -4.026  -5.978  0.00  0.00    -0.047 A 
ATOM      5  C3  UNL d   1      -4.677  -5.260  -5.437  0.00  0.00    -0.047 A 
ATOM      6  C4  UNL d   1      -3.550  -5.998  -5.144  0.00  0.00    -0.004 A 
ENDROOT
TORSDOF 0
ENDMDL
