MODEL 1
REMARK minimizedAffinity -1.29225099
REMARK minimizedRMSD -1
REMARK  0 active torsions:
REMARK  status: ('A' for Active; 'I' for Inactive)
ROOT
ATOM      1  C   UNL d   1      -3.787  -2.475  -5.424  0.00  0.00     0.172 C 
ATOM      2  N   UNL d   1      -3.210  -3.791  -5.565  0.00  0.00    -0.070 N 
ATOM      3  C1  UNL d   1      -1.911  -4.126  -5.291  0.00  0.00    -0.004 A 
ATOM      4  C2  UNL d   1      -1.757  -5.470  -5.552  0.00  0.00    -0.047 A 
ATOM      5  C3  UNL d   1      -3.007  -5.960  -6.000  0.00  0.00    -0.047 A 
ATOM      6  C4  UNL d   1      -3.888  -4.899  -5.998  0.00  0.00    -0.004 A 
ENDROOT
TORSDOF 0
ENDMDL
