MODEL 1
REMARK minimizedAffinity 0.995935917
REMARK minimizedRMSD -1
REMARK  0 active torsions:
REMARK  status: ('A' for Active; 'I' for Inactive)
ROOT
ATOM      1  C   UNL d   1      -3.763  -3.349  -4.363  0.00  0.00     0.172 C 
ATOM      2  N   UNL d   1      -2.840  -4.371  -4.797  0.00  0.00    -0.070 N 
ATOM      3  C1  UNL d   1      -1.679  -4.721  -4.161  0.00  0.00    -0.004 A 
ATOM      4  C2  UNL d   1      -1.088  -5.732  -4.888  0.00  0.00    -0.047 A 
ATOM      5  C3  UNL d   1      -1.922  -5.998  -6.000  0.00  0.00    -0.047 A 
ATOM      6  C4  UNL d   1      -3.000  -5.141  -5.919  0.00  0.00    -0.004 A 
ENDROOT
TORSDOF 0
ENDMDL
