MODEL 1
REMARK minimizedAffinity -2.69174814
REMARK minimizedRMSD -1
REMARK  0 active torsions:
REMARK  status: ('A' for Active; 'I' for Inactive)
ROOT
ATOM      1  C   UNL d   1      -5.347  -5.823  -5.769  0.00  0.00     0.172 C 
ATOM      2  N   UNL d   1      -4.236  -4.910  -5.639  0.00  0.00    -0.070 N 
ATOM      3  C1  UNL d   1      -4.304  -3.633  -5.149  0.00  0.00    -0.004 A 
ATOM      4  C2  UNL d   1      -3.036  -3.096  -5.189  0.00  0.00    -0.047 A 
ATOM      5  C3  UNL d   1      -2.175  -4.084  -5.724  0.00  0.00    -0.047 A 
ATOM      6  C4  UNL d   1      -2.944  -5.197  -5.993  0.00  0.00    -0.004 A 
ENDROOT
TORSDOF 0
ENDMDL
