MODEL 1
REMARK minimizedAffinity -2.84265399
REMARK minimizedRMSD -1
REMARK  0 active torsions:
REMARK  status: ('A' for Active; 'I' for Inactive)
ROOT
ATOM      1  C   UNL d   1      -1.828  -5.806  -6.000  0.00  0.00     0.172 C 
ATOM      2  N   UNL d   1      -2.948  -5.067  -5.467  0.00  0.00    -0.070 N 
ATOM      3  C1  UNL d   1      -2.970  -3.720  -5.218  0.00  0.00    -0.004 A 
ATOM      4  C2  UNL d   1      -4.214  -3.404  -4.716  0.00  0.00    -0.047 A 
ATOM      5  C3  UNL d   1      -4.965  -4.602  -4.661  0.00  0.00    -0.047 A 
ATOM      6  C4  UNL d   1      -4.157  -5.616  -5.132  0.00  0.00    -0.004 A 
ENDROOT
TORSDOF 0
ENDMDL
