MODEL 1
REMARK minimizedAffinity -2.41942811
REMARK minimizedRMSD -1
REMARK  0 active torsions:
REMARK  status: ('A' for Active; 'I' for Inactive)
ROOT
ATOM      1  C   UNL d   1      -5.714  -3.002  -3.746  0.00  0.00     0.172 C 
ATOM      2  N   UNL d   1      -4.706  -3.725  -4.484  0.00  0.00    -0.070 N 
ATOM      3  C1  UNL d   1      -4.928  -4.497  -5.593  0.00  0.00    -0.004 A 
ATOM      4  C2  UNL d   1      -3.715  -5.012  -5.998  0.00  0.00    -0.047 A 
ATOM      5  C3  UNL d   1      -2.731  -4.535  -5.100  0.00  0.00    -0.047 A 
ATOM      6  C4  UNL d   1      -3.372  -3.741  -4.173  0.00  0.00    -0.004 A 
ENDROOT
TORSDOF 0
ENDMDL
