MODEL 1
REMARK minimizedAffinity 3.25910306
REMARK minimizedRMSD -1
REMARK  0 active torsions:
REMARK  status: ('A' for Active; 'I' for Inactive)
ROOT
ATOM      1  C2' OXE d   1      -5.023  -0.737  -1.955  0.00  0.00     0.078 C 
ATOM      2  C1' OXE d   1      -2.311  -1.447  -1.824  0.00  0.00     0.078 C 
ATOM      3  C1  OXE d   1      -2.931  -0.813  -0.605  0.00  0.00    -0.078 A 
ATOM      4  C2  OXE d   1      -4.247  -0.426  -0.693  0.00  0.00    -0.078 A 
ATOM      5  C3  OXE d   1      -4.884   0.113   0.421  0.00  0.00     0.003 A 
ATOM      6  C4  OXE d   1      -4.156   0.406   1.580  0.00  0.00    -0.002 A 
ATOM      7  C5  OXE d   1      -2.805   0.057   1.678  0.00  0.00    -0.002 A 
ATOM      8  C6  OXE d   1      -2.190  -0.591   0.612  0.00  0.00     0.003 A 
ENDROOT
TORSDOF 0
ENDMDL
