MODEL 1
REMARK minimizedAffinity 17.152935
REMARK minimizedRMSD -1
REMARK  0 active torsions:
REMARK  status: ('A' for Active; 'I' for Inactive)
ROOT
ATOM      1  C2' OXE d   1      -4.208  -0.010   0.969  0.00  0.00     0.078 C 
ATOM      2  C1' OXE d   1      -5.999  -1.027  -0.939  0.00  0.00     0.078 C 
ATOM      3  C1  OXE d   1      -5.411   0.341  -1.184  0.00  0.00    -0.078 A 
ATOM      4  C2  OXE d   1      -4.572   0.850  -0.222  0.00  0.00    -0.078 A 
ATOM      5  C3  OXE d   1      -3.960   2.084  -0.424  0.00  0.00     0.003 A 
ATOM      6  C4  OXE d   1      -4.310   2.877  -1.523  0.00  0.00    -0.002 A 
ATOM      7  C5  OXE d   1      -5.193   2.394  -2.495  0.00  0.00    -0.002 A 
ATOM      8  C6  OXE d   1      -5.719   1.114  -2.362  0.00  0.00     0.003 A 
ENDROOT
TORSDOF 0
ENDMDL
