MODEL 1
REMARK minimizedAffinity 15.4981947
REMARK minimizedRMSD -1
REMARK  0 active torsions:
REMARK  status: ('A' for Active; 'I' for Inactive)
ROOT
ATOM      1  C2' OXE d   1      -4.436   0.487   1.238  0.00  0.00     0.078 C 
ATOM      2  C1' OXE d   1      -5.383  -0.596  -1.172  0.00  0.00     0.078 C 
ATOM      3  C1  OXE d   1      -3.890  -0.484  -0.990  0.00  0.00    -0.078 A 
ATOM      4  C2  OXE d   1      -3.437   0.090   0.173  0.00  0.00    -0.078 A 
ATOM      5  C3  OXE d   1      -2.068   0.168   0.415  0.00  0.00     0.003 A 
ATOM      6  C4  OXE d   1      -1.151  -0.191  -0.580  0.00  0.00    -0.002 A 
ATOM      7  C5  OXE d   1      -1.593  -0.742  -1.788  0.00  0.00    -0.002 A 
ATOM      8  C6  OXE d   1      -2.955  -0.934  -1.991  0.00  0.00     0.003 A 
ENDROOT
TORSDOF 0
ENDMDL
