MODEL 1
REMARK minimizedAffinity 7.3492837
REMARK minimizedRMSD -1
REMARK  0 active torsions:
REMARK  status: ('A' for Active; 'I' for Inactive)
ROOT
ATOM      1  C2' OXE d   1       3.588   0.371  -1.513  0.00  0.00     0.078 C 
ATOM      2  C1' OXE d   1       5.979   1.832  -1.350  0.00  0.00     0.078 C 
ATOM      3  C1  OXE d   1       5.377   1.322  -0.065  0.00  0.00    -0.078 A 
ATOM      4  C2  OXE d   1       4.183   0.648  -0.149  0.00  0.00    -0.078 A 
ATOM      5  C3  OXE d   1       3.612   0.109   1.000  0.00  0.00     0.003 A 
ATOM      6  C4  OXE d   1       4.164   0.379   2.259  0.00  0.00    -0.002 A 
ATOM      7  C5  OXE d   1       5.359   1.098   2.371  0.00  0.00    -0.002 A 
ATOM      8  C6  OXE d   1       6.000   1.539   1.218  0.00  0.00     0.003 A 
ENDROOT
TORSDOF 0
ENDMDL
