MODEL 1
REMARK minimizedAffinity 7.70017242
REMARK minimizedRMSD -1
REMARK  0 active torsions:
REMARK  status: ('A' for Active; 'I' for Inactive)
ROOT
ATOM      1  C2' OXE d   1      -3.968   0.735   1.002  0.00  0.00     0.078 C 
ATOM      2  C1' OXE d   1      -5.050  -0.500  -1.276  0.00  0.00     0.078 C 
ATOM      3  C1  OXE d   1      -3.548  -0.484  -1.130  0.00  0.00    -0.078 A 
ATOM      4  C2  OXE d   1      -3.026   0.163  -0.036  0.00  0.00    -0.078 A 
ATOM      5  C3  OXE d   1      -1.650   0.160   0.175  0.00  0.00     0.003 A 
ATOM      6  C4  OXE d   1      -0.786  -0.362  -0.795  0.00  0.00    -0.002 A 
ATOM      7  C5  OXE d   1      -1.295  -0.991  -1.936  0.00  0.00    -0.002 A 
ATOM      8  C6  OXE d   1      -2.672  -1.098  -2.097  0.00  0.00     0.003 A 
ENDROOT
TORSDOF 0
ENDMDL
