MODEL 1
REMARK minimizedAffinity 18.9884586
REMARK minimizedRMSD -1
REMARK  0 active torsions:
REMARK  status: ('A' for Active; 'I' for Inactive)
ROOT
ATOM      1  C2' OXE d   1       0.005   1.065   2.270  0.00  0.00     0.078 C 
ATOM      2  C1' OXE d   1       0.337   2.470   4.677  0.00  0.00     0.078 C 
ATOM      3  C1  OXE d   1       0.220   0.968   4.750  0.00  0.00    -0.078 A 
ATOM      4  C2  OXE d   1       0.010   0.293   3.572  0.00  0.00    -0.078 A 
ATOM      5  C3  OXE d   1      -0.050  -1.098   3.576  0.00  0.00     0.003 A 
ATOM      6  C4  OXE d   1      -0.054  -1.803   4.785  0.00  0.00    -0.002 A 
ATOM      7  C5  OXE d   1       0.118  -1.131   6.000  0.00  0.00    -0.002 A 
ATOM      8  C6  OXE d   1       0.299   0.247   5.996  0.00  0.00     0.003 A 
ENDROOT
TORSDOF 0
ENDMDL
