MODEL 1
REMARK minimizedAffinity 12.6334381
REMARK minimizedRMSD -1
REMARK  0 active torsions:
REMARK  status: ('A' for Active; 'I' for Inactive)
ROOT
ATOM      1  C2' OXE d   1       5.247   1.875  -1.508  0.00  0.00     0.078 C 
ATOM      2  C1' OXE d   1       3.073   0.193  -0.941  0.00  0.00     0.078 C 
ATOM      3  C1  OXE d   1       4.029   0.508   0.181  0.00  0.00    -0.078 A 
ATOM      4  C2  OXE d   1       5.116   1.295  -0.117  0.00  0.00    -0.078 A 
ATOM      5  C3  OXE d   1       6.000   1.661   0.895  0.00  0.00     0.003 A 
ATOM      6  C4  OXE d   1       5.877   1.112   2.177  0.00  0.00    -0.002 A 
ATOM      7  C5  OXE d   1       4.799   0.277   2.491  0.00  0.00    -0.002 A 
ATOM      8  C6  OXE d   1       3.845   0.001   1.518  0.00  0.00     0.003 A 
ENDROOT
TORSDOF 0
ENDMDL
