MODEL 1
REMARK minimizedAffinity -4.08555698
REMARK minimizedRMSD -1
REMARK  0 active torsions:
REMARK  status: ('A' for Active; 'I' for Inactive)
ROOT
ATOM      1  C2' OXE d   1       1.239  -2.906   2.160  0.00  0.00     0.078 C 
ATOM      2  C1' OXE d   1      -1.367  -1.867   2.080  0.00  0.00     0.078 C 
ATOM      3  C1  OXE d   1      -0.319  -1.205   1.220  0.00  0.00    -0.078 A 
ATOM      4  C2  OXE d   1       0.963  -1.691   1.301  0.00  0.00    -0.078 A 
ATOM      5  C3  OXE d   1       1.957  -1.152   0.488  0.00  0.00     0.003 A 
ATOM      6  C4  OXE d   1       1.696  -0.022  -0.296  0.00  0.00    -0.002 A 
ATOM      7  C5  OXE d   1       0.405   0.513  -0.362  0.00  0.00    -0.002 A 
ATOM      8  C6  OXE d   1      -0.621  -0.091   0.355  0.00  0.00     0.003 A 
ENDROOT
TORSDOF 0
ENDMDL
