MODEL 1
REMARK minimizedAffinity -2.08044696
REMARK minimizedRMSD -1
REMARK  0 active torsions:
REMARK  status: ('A' for Active; 'I' for Inactive)
ROOT
ATOM      1  C2' OXE d   1      -2.612   0.774   0.714  0.00  0.00     0.078 C 
ATOM      2  C1' OXE d   1      -1.629  -1.838   0.412  0.00  0.00     0.078 C 
ATOM      3  C1  OXE d   1      -0.661  -0.696   0.229  0.00  0.00    -0.078 A 
ATOM      4  C2  OXE d   1      -1.161   0.580   0.333  0.00  0.00    -0.078 A 
ATOM      5  C3  OXE d   1      -0.300   1.668   0.227  0.00  0.00     0.003 A 
ATOM      6  C4  OXE d   1       1.040   1.480  -0.136  0.00  0.00    -0.002 A 
ATOM      7  C5  OXE d   1       1.560   0.190  -0.285  0.00  0.00    -0.002 A 
ATOM      8  C6  OXE d   1       0.735  -0.907  -0.065  0.00  0.00     0.003 A 
ENDROOT
TORSDOF 0
ENDMDL
