MODEL 1
REMARK minimizedAffinity -5.14880371
REMARK minimizedRMSD -1
REMARK  0 active torsions:
REMARK  status: ('A' for Active; 'I' for Inactive)
ROOT
ATOM      1  C2' OXE d   1      -1.139  -2.112   1.116  0.00  0.00     0.078 C 
ATOM      2  C1' OXE d   1       1.613  -1.950   0.588  0.00  0.00     0.078 C 
ATOM      3  C1  OXE d   1       0.825  -0.665   0.611  0.00  0.00    -0.078 A 
ATOM      4  C2  OXE d   1      -0.530  -0.758   0.824  0.00  0.00    -0.078 A 
ATOM      5  C3  OXE d   1      -1.295   0.402   0.910  0.00  0.00     0.003 A 
ATOM      6  C4  OXE d   1      -0.725   1.650   0.629  0.00  0.00    -0.002 A 
ATOM      7  C5  OXE d   1       0.645   1.763   0.371  0.00  0.00    -0.002 A 
ATOM      8  C6  OXE d   1       1.440   0.622   0.400  0.00  0.00     0.003 A 
ENDROOT
TORSDOF 0
ENDMDL
