MODEL 1
REMARK minimizedAffinity -4.07756042
REMARK minimizedRMSD -1
REMARK  0 active torsions:
REMARK  status: ('A' for Active; 'I' for Inactive)
ROOT
ATOM      1  C2' OXE d   1      -2.474  -1.906   2.323  0.00  0.00     0.078 C 
ATOM      2  C1' OXE d   1      -2.291   0.779   1.525  0.00  0.00     0.078 C 
ATOM      3  C1  OXE d   1      -1.216  -0.169   1.056  0.00  0.00    -0.078 A 
ATOM      4  C2  OXE d   1      -1.288  -1.471   1.490  0.00  0.00    -0.078 A 
ATOM      5  C3  OXE d   1      -0.352  -2.400   1.043  0.00  0.00     0.003 A 
ATOM      6  C4  OXE d   1       0.748  -1.987   0.281  0.00  0.00    -0.002 A 
ATOM      7  C5  OXE d   1       0.862  -0.657  -0.138  0.00  0.00    -0.002 A 
ATOM      8  C6  OXE d   1      -0.132   0.253   0.204  0.00  0.00     0.003 A 
ENDROOT
TORSDOF 0
ENDMDL
