MODEL 1
REMARK minimizedAffinity -1.93199182
REMARK minimizedRMSD -1
REMARK  0 active torsions:
REMARK  status: ('A' for Active; 'I' for Inactive)
ROOT
ATOM      1  C2' OXE d   1       0.813  -2.719   2.592  0.00  0.00     0.078 C 
ATOM      2  C1' OXE d   1      -1.789  -2.602   1.544  0.00  0.00     0.078 C 
ATOM      3  C1  OXE d   1      -0.754  -1.673   0.961  0.00  0.00    -0.078 A 
ATOM      4  C2  OXE d   1       0.505  -1.704   1.512  0.00  0.00    -0.078 A 
ATOM      5  C3  OXE d   1       1.512  -0.907   0.975  0.00  0.00     0.003 A 
ATOM      6  C4  OXE d   1       1.216   0.036  -0.017  0.00  0.00    -0.002 A 
ATOM      7  C5  OXE d   1      -0.069   0.112  -0.564  0.00  0.00    -0.002 A 
ATOM      8  C6  OXE d   1      -1.053  -0.763  -0.117  0.00  0.00     0.003 A 
ENDROOT
TORSDOF 0
ENDMDL
