MODEL 1
REMARK minimizedAffinity -2.92241549
REMARK minimizedRMSD -1
REMARK  0 active torsions:
REMARK  status: ('A' for Active; 'I' for Inactive)
ROOT
ATOM      1  C2' OXE d   1      -2.105  -2.213   0.805  0.00  0.00     0.078 C 
ATOM      2  C1' OXE d   1      -3.295   0.276   1.326  0.00  0.00     0.078 C 
ATOM      3  C1  OXE d   1      -1.995   0.264   0.561  0.00  0.00    -0.078 A 
ATOM      4  C2  OXE d   1      -1.396  -0.955   0.352  0.00  0.00    -0.078 A 
ATOM      5  C3  OXE d   1      -0.223  -1.027  -0.395  0.00  0.00     0.003 A 
ATOM      6  C4  OXE d   1       0.431   0.142  -0.802  0.00  0.00    -0.002 A 
ATOM      7  C5  OXE d   1      -0.142   1.396  -0.564  0.00  0.00    -0.002 A 
ATOM      8  C6  OXE d   1      -1.373   1.472   0.078  0.00  0.00     0.003 A 
ENDROOT
TORSDOF 0
ENDMDL
