MODEL 1
REMARK minimizedAffinity 2.22506738
REMARK minimizedRMSD -1
REMARK  0 active torsions:
REMARK  status: ('A' for Active; 'I' for Inactive)
ROOT
ATOM      1  C2' OXE d   1      -0.234  -0.825  -2.847  0.00  0.00     0.078 C 
ATOM      2  C1' OXE d   1       0.578   1.861  -2.783  0.00  0.00     0.078 C 
ATOM      3  C1  OXE d   1       0.108   1.238  -1.493  0.00  0.00    -0.078 A 
ATOM      4  C2  OXE d   1      -0.332  -0.063  -1.542  0.00  0.00    -0.078 A 
ATOM      5  C3  OXE d   1      -0.724  -0.703  -0.370  0.00  0.00     0.003 A 
ATOM      6  C4  OXE d   1      -0.821   0.012   0.830  0.00  0.00    -0.002 A 
ATOM      7  C5  OXE d   1      -0.415   1.349   0.894  0.00  0.00    -0.002 A 
ATOM      8  C6  OXE d   1       0.091   1.963  -0.246  0.00  0.00     0.003 A 
ENDROOT
TORSDOF 0
ENDMDL
