MODEL 1
REMARK minimizedAffinity -2.35711932
REMARK minimizedRMSD -1
REMARK  0 active torsions:
REMARK  status: ('A' for Active; 'I' for Inactive)
ROOT
ATOM      1  C2' OXE d   1      -1.022   1.219   1.284  0.00  0.00     0.078 C 
ATOM      2  C1' OXE d   1      -2.065  -0.812   2.918  0.00  0.00     0.078 C 
ATOM      3  C1  OXE d   1      -0.888  -1.152   2.039  0.00  0.00    -0.078 A 
ATOM      4  C2  OXE d   1      -0.414  -0.165   1.208  0.00  0.00    -0.078 A 
ATOM      5  C3  OXE d   1       0.704  -0.410   0.416  0.00  0.00     0.003 A 
ATOM      6  C4  OXE d   1       1.254  -1.695   0.343  0.00  0.00    -0.002 A 
ATOM      7  C5  OXE d   1       0.761  -2.725   1.152  0.00  0.00    -0.002 A 
ATOM      8  C6  OXE d   1      -0.280  -2.459   2.034  0.00  0.00     0.003 A 
ENDROOT
TORSDOF 0
ENDMDL
