MODEL 1
REMARK minimizedAffinity -4.28342628
REMARK minimizedRMSD -1
REMARK  0 active torsions:
REMARK  status: ('A' for Active; 'I' for Inactive)
ROOT
ATOM      1  C2' OXE d   1       0.147   1.033  -0.501  0.00  0.00     0.078 C 
ATOM      2  C1' OXE d   1       1.197  -1.567  -0.353  0.00  0.00     0.078 C 
ATOM      3  C1  OXE d   1      -0.061  -1.271   0.425  0.00  0.00    -0.078 A 
ATOM      4  C2  OXE d   1      -0.541   0.016   0.384  0.00  0.00    -0.078 A 
ATOM      5  C3  OXE d   1      -1.729   0.330   1.040  0.00  0.00     0.003 A 
ATOM      6  C4  OXE d   1      -2.354  -0.614   1.864  0.00  0.00    -0.002 A 
ATOM      7  C5  OXE d   1      -1.858  -1.919   1.951  0.00  0.00    -0.002 A 
ATOM      8  C6  OXE d   1      -0.740  -2.275   1.206  0.00  0.00     0.003 A 
ENDROOT
TORSDOF 0
ENDMDL
