MODEL 1
REMARK minimizedAffinity -4.48060083
REMARK minimizedRMSD -1
REMARK  0 active torsions:
REMARK  status: ('A' for Active; 'I' for Inactive)
ROOT
ATOM      1  C2' OXE d   1       1.913  -2.225  -0.823  0.00  0.00     0.078 C 
ATOM      2  C1' OXE d   1      -0.124  -2.589   1.075  0.00  0.00     0.078 C 
ATOM      3  C1  OXE d   1       0.068  -1.206   0.505  0.00  0.00    -0.078 A 
ATOM      4  C2  OXE d   1       1.097  -1.027  -0.388  0.00  0.00    -0.078 A 
ATOM      5  C3  OXE d   1       1.284   0.217  -0.985  0.00  0.00     0.003 A 
ATOM      6  C4  OXE d   1       0.531   1.322  -0.570  0.00  0.00    -0.002 A 
ATOM      7  C5  OXE d   1      -0.496   1.170   0.367  0.00  0.00    -0.002 A 
ATOM      8  C6  OXE d   1      -0.768  -0.093   0.882  0.00  0.00     0.003 A 
ENDROOT
TORSDOF 0
ENDMDL
