MODEL 1
REMARK minimizedAffinity -3.35768223
REMARK minimizedRMSD -1
REMARK  0 active torsions:
REMARK  status: ('A' for Active; 'I' for Inactive)
ROOT
ATOM      1  C2' OXE d   1       2.751   2.705  -1.472  0.00  0.00     0.078 C 
ATOM      2  C1' OXE d   1       1.236   1.918  -3.700  0.00  0.00     0.078 C 
ATOM      3  C1  OXE d   1       0.828   1.387  -2.349  0.00  0.00    -0.078 A 
ATOM      4  C2  OXE d   1       1.603   1.739  -1.270  0.00  0.00    -0.078 A 
ATOM      5  C3  OXE d   1       1.238   1.321   0.006  0.00  0.00     0.003 A 
ATOM      6  C4  OXE d   1       0.181   0.420   0.183  0.00  0.00    -0.002 A 
ATOM      7  C5  OXE d   1      -0.597   0.017  -0.908  0.00  0.00    -0.002 A 
ATOM      8  C6  OXE d   1      -0.314   0.523  -2.172  0.00  0.00     0.003 A 
ENDROOT
TORSDOF 0
ENDMDL
