MODEL 1
REMARK minimizedAffinity -6.3275547
REMARK minimizedRMSD -1
REMARK  0 active torsions:
REMARK  status: ('A' for Active; 'I' for Inactive)
ROOT
ATOM      1  C2' OXE d   1       1.111  -1.687   0.032  0.00  0.00     0.078 C 
ATOM      2  C1' OXE d   1       0.398   0.934  -0.677  0.00  0.00     0.078 C 
ATOM      3  C1  OXE d   1      -0.517   0.185   0.259  0.00  0.00    -0.078 A 
ATOM      4  C2  OXE d   1      -0.185  -1.113   0.564  0.00  0.00    -0.078 A 
ATOM      5  C3  OXE d   1      -0.966  -1.831   1.465  0.00  0.00     0.003 A 
ATOM      6  C4  OXE d   1      -2.168  -1.297   1.944  0.00  0.00    -0.002 A 
ATOM      7  C5  OXE d   1      -2.545   0.009   1.614  0.00  0.00    -0.002 A 
ATOM      8  C6  OXE d   1      -1.711   0.777   0.809  0.00  0.00     0.003 A 
ENDROOT
TORSDOF 0
ENDMDL
