MODEL 1
REMARK minimizedAffinity -3.58370256
REMARK minimizedRMSD -1
REMARK  0 active torsions:
REMARK  status: ('A' for Active; 'I' for Inactive)
ROOT
ATOM      1  C2' OXE d   1      -2.671   0.193   0.355  0.00  0.00     0.078 C 
ATOM      2  C1' OXE d   1      -0.040   0.631  -0.521  0.00  0.00     0.078 C 
ATOM      3  C1  OXE d   1      -0.342  -0.672   0.177  0.00  0.00    -0.078 A 
ATOM      4  C2  OXE d   1      -1.621  -0.858   0.643  0.00  0.00    -0.078 A 
ATOM      5  C3  OXE d   1      -1.967  -2.064   1.246  0.00  0.00     0.003 A 
ATOM      6  C4  OXE d   1      -0.988  -3.027   1.518  0.00  0.00    -0.002 A 
ATOM      7  C5  OXE d   1       0.330  -2.840   1.086  0.00  0.00    -0.002 A 
ATOM      8  C6  OXE d   1       0.659  -1.690   0.379  0.00  0.00     0.003 A 
ENDROOT
TORSDOF 0
ENDMDL
