MODEL 1
REMARK minimizedAffinity -4.01160955
REMARK minimizedRMSD -1
REMARK  0 active torsions:
REMARK  status: ('A' for Active; 'I' for Inactive)
ROOT
ATOM      1  C2' OXE d   1       0.376   0.736  -0.536  0.00  0.00     0.078 C 
ATOM      2  C1' OXE d   1       1.156  -1.908  -0.006  0.00  0.00     0.078 C 
ATOM      3  C1  OXE d   1      -0.049  -1.370   0.725  0.00  0.00    -0.078 A 
ATOM      4  C2  OXE d   1      -0.395  -0.060   0.494  0.00  0.00    -0.078 A 
ATOM      5  C3  OXE d   1      -1.531   0.469   1.101  0.00  0.00     0.003 A 
ATOM      6  C4  OXE d   1      -2.232  -0.272   2.060  0.00  0.00    -0.002 A 
ATOM      7  C5  OXE d   1      -1.872  -1.594   2.339  0.00  0.00    -0.002 A 
ATOM      8  C6  OXE d   1      -0.811  -2.171   1.650  0.00  0.00     0.003 A 
ENDROOT
TORSDOF 0
ENDMDL
