MODEL 1
REMARK minimizedAffinity -6.10679626
REMARK minimizedRMSD -1
REMARK  0 active torsions:
REMARK  status: ('A' for Active; 'I' for Inactive)
ROOT
ATOM      1  C2' OXE d   1      -2.378   0.427   0.864  0.00  0.00     0.078 C 
ATOM      2  C1' OXE d   1       0.156   1.408   0.157  0.00  0.00     0.078 C 
ATOM      3  C1  OXE d   1       0.045  -0.049   0.528  0.00  0.00    -0.078 A 
ATOM      4  C2  OXE d   1      -1.190  -0.510   0.918  0.00  0.00    -0.078 A 
ATOM      5  C3  OXE d   1      -1.360  -1.859   1.218  0.00  0.00     0.003 A 
ATOM      6  C4  OXE d   1      -0.254  -2.716   1.275  0.00  0.00    -0.002 A 
ATOM      7  C5  OXE d   1       1.019  -2.258   0.920  0.00  0.00    -0.002 A 
ATOM      8  C6  OXE d   1       1.178  -0.941   0.505  0.00  0.00     0.003 A 
ENDROOT
TORSDOF 0
ENDMDL
