MODEL 1
REMARK minimizedAffinity -5.39025402
REMARK minimizedRMSD -1
REMARK  0 active torsions:
REMARK  status: ('A' for Active; 'I' for Inactive)
ROOT
ATOM      1  C2' OXE d   1      -0.957  -2.844   0.956  0.00  0.00     0.078 C 
ATOM      2  C1' OXE d   1       1.594  -2.068   0.079  0.00  0.00     0.078 C 
ATOM      3  C1  OXE d   1       0.549  -0.993   0.240  0.00  0.00    -0.078 A 
ATOM      4  C2  OXE d   1      -0.710  -1.388   0.624  0.00  0.00    -0.078 A 
ATOM      5  C3  OXE d   1      -1.697  -0.430   0.840  0.00  0.00     0.003 A 
ATOM      6  C4  OXE d   1      -1.463   0.913   0.521  0.00  0.00    -0.002 A 
ATOM      7  C5  OXE d   1      -0.200   1.331   0.090  0.00  0.00    -0.002 A 
ATOM      8  C6  OXE d   1       0.827   0.399  -0.015  0.00  0.00     0.003 A 
ENDROOT
TORSDOF 0
ENDMDL
