MODEL 1
REMARK minimizedAffinity -5.27204704
REMARK minimizedRMSD -1
REMARK  0 active torsions:
REMARK  status: ('A' for Active; 'I' for Inactive)
ROOT
ATOM      1  C2' OXE d   1       2.082  -1.485   0.387  0.00  0.00     0.078 C 
ATOM      2  C1' OXE d   1       0.531   0.743  -0.328  0.00  0.00     0.078 C 
ATOM      3  C1  OXE d   1      -0.191  -0.493   0.146  0.00  0.00    -0.078 A 
ATOM      4  C2  OXE d   1       0.573  -1.595   0.449  0.00  0.00    -0.078 A 
ATOM      5  C3  OXE d   1      -0.038  -2.743   0.943  0.00  0.00     0.003 A 
ATOM      6  C4  OXE d   1      -1.434  -2.840   0.988  0.00  0.00    -0.002 A 
ATOM      7  C5  OXE d   1      -2.233  -1.744   0.646  0.00  0.00    -0.002 A 
ATOM      8  C6  OXE d   1      -1.627  -0.552   0.264  0.00  0.00     0.003 A 
ENDROOT
TORSDOF 0
ENDMDL
