MODEL 1
REMARK minimizedAffinity -4.76879215
REMARK minimizedRMSD -1
REMARK  0 active torsions:
REMARK  status: ('A' for Active; 'I' for Inactive)
ROOT
ATOM      1  C2' OXE d   1       0.447   0.788   0.020  0.00  0.00     0.078 C 
ATOM      2  C1' OXE d   1      -2.035   0.904   1.326  0.00  0.00     0.078 C 
ATOM      3  C1  OXE d   1      -1.526  -0.451   0.902  0.00  0.00    -0.078 A 
ATOM      4  C2  OXE d   1      -0.333  -0.494   0.222  0.00  0.00    -0.078 A 
ATOM      5  C3  OXE d   1       0.209  -1.723  -0.143  0.00  0.00     0.003 A 
ATOM      6  C4  OXE d   1      -0.523  -2.902   0.039  0.00  0.00    -0.002 A 
ATOM      7  C5  OXE d   1      -1.759  -2.877   0.694  0.00  0.00    -0.002 A 
ATOM      8  C6  OXE d   1      -2.254  -1.667   1.169  0.00  0.00     0.003 A 
ENDROOT
TORSDOF 0
ENDMDL
