MODEL 1
REMARK minimizedAffinity -5.16758537
REMARK minimizedRMSD -1
REMARK  0 active torsions:
REMARK  status: ('A' for Active; 'I' for Inactive)
ROOT
ATOM      1  C2' OXE d   1       0.005   1.255  -0.069  0.00  0.00     0.078 C 
ATOM      2  C1' OXE d   1       1.162  -1.273   0.321  0.00  0.00     0.078 C 
ATOM      3  C1  OXE d   1      -0.298  -1.107   0.661  0.00  0.00    -0.078 A 
ATOM      4  C2  OXE d   1      -0.844   0.145   0.511  0.00  0.00    -0.078 A 
ATOM      5  C3  OXE d   1      -2.200   0.340   0.759  0.00  0.00     0.003 A 
ATOM      6  C4  OXE d   1      -2.976  -0.689   1.306  0.00  0.00    -0.002 A 
ATOM      7  C5  OXE d   1      -2.429  -1.962   1.504  0.00  0.00    -0.002 A 
ATOM      8  C6  OXE d   1      -1.106  -2.198   1.147  0.00  0.00     0.003 A 
ENDROOT
TORSDOF 0
ENDMDL
