MODEL 1
REMARK minimizedAffinity -1.97427583
REMARK minimizedRMSD -1
REMARK  1 active torsions:
REMARK  status: ('A' for Active; 'I' for Inactive)
REMARK    1  A    between atoms: C1_2  and  C2_3 
ROOT
ATOM      1  C2  UNL d   1       0.087   0.809  -0.594  0.00  0.00    -0.077 A 
ATOM      2  C3  UNL d   1       0.289   0.027  -1.740  0.00  0.00     0.002 A 
ATOM      3  C4  UNL d   1       0.148  -1.360  -1.682  0.00  0.00     0.002 A 
ATOM      4  C5  UNL d   1      -0.199  -1.978  -0.483  0.00  0.00    -0.004 A 
ATOM      5  C6  UNL d   1      -0.400  -1.210   0.663  0.00  0.00     0.002 A 
ATOM      6  C7  UNL d   1      -0.258   0.177   0.608  0.00  0.00     0.002 A 
ENDROOT
BRANCH   1   7
ATOM      7  C1  UNL d   1       0.191   2.310  -0.665  0.00  0.00     0.055 C 
ATOM      8  C   UNL d   1       1.306   2.831   0.229  0.00  0.00     0.019 C 
ENDBRANCH   1   7
TORSDOF 1
ENDMDL
