MODEL 1
REMARK minimizedAffinity -3.1696763
REMARK minimizedRMSD -1
REMARK  1 active torsions:
REMARK  status: ('A' for Active; 'I' for Inactive)
REMARK    1  A    between atoms: C1_2  and  C2_3 
ROOT
ATOM      1  C2  UNL d   1      -0.028  -1.577  -0.615  0.00  0.00    -0.077 A 
ATOM      2  C3  UNL d   1       0.083  -2.664   0.264  0.00  0.00     0.002 A 
ATOM      3  C4  UNL d   1      -0.209  -2.508   1.620  0.00  0.00     0.002 A 
ATOM      4  C5  UNL d   1      -0.619  -1.269   2.109  0.00  0.00    -0.004 A 
ATOM      5  C6  UNL d   1      -0.730  -0.181   1.243  0.00  0.00     0.002 A 
ATOM      6  C7  UNL d   1      -0.437  -0.335  -0.113  0.00  0.00     0.002 A 
ENDROOT
BRANCH   1   7
ATOM      7  C1  UNL d   1       0.240  -1.755  -2.086  0.00  0.00     0.055 C 
ATOM      8  C   UNL d   1      -0.155  -3.148  -2.556  0.00  0.00     0.019 C 
ENDBRANCH   1   7
TORSDOF 1
ENDMDL
