MODEL 1
REMARK minimizedAffinity -1.31076443
REMARK minimizedRMSD -1
REMARK  1 active torsions:
REMARK  status: ('A' for Active; 'I' for Inactive)
REMARK    1  A    between atoms: C1_2  and  C2_3 
ROOT
ATOM      1  C2  UNL d   1      -0.275  -0.051   0.004  0.00  0.00    -0.077 A 
ATOM      2  C3  UNL d   1      -0.435  -1.153  -0.849  0.00  0.00     0.002 A 
ATOM      3  C4  UNL d   1      -0.727  -2.414  -0.325  0.00  0.00     0.002 A 
ATOM      4  C5  UNL d   1      -0.866  -2.584   1.051  0.00  0.00    -0.004 A 
ATOM      5  C6  UNL d   1      -0.706  -1.495   1.907  0.00  0.00     0.002 A 
ATOM      6  C7  UNL d   1      -0.413  -0.234   1.385  0.00  0.00     0.002 A 
ENDROOT
BRANCH   1   7
ATOM      7  C1  UNL d   1      -0.008   1.319  -0.562  0.00  0.00     0.055 C 
ATOM      8  C   UNL d   1       0.052   2.370   0.537  0.00  0.00     0.019 C 
ENDBRANCH   1   7
TORSDOF 1
ENDMDL
