MODEL 1
REMARK minimizedAffinity -5.00184441
REMARK minimizedRMSD -1
REMARK  1 active torsions:
REMARK  status: ('A' for Active; 'I' for Inactive)
REMARK    1  A    between atoms: C1_2  and  C2_3 
ROOT
ATOM      1  C2  UNL d   1      -0.204  -0.703  -0.713  0.00  0.00    -0.077 A 
ATOM      2  C3  UNL d   1       0.084  -1.504  -1.828  0.00  0.00     0.002 A 
ATOM      3  C4  UNL d   1       0.012  -2.895  -1.735  0.00  0.00     0.002 A 
ATOM      4  C5  UNL d   1      -0.351  -3.497  -0.532  0.00  0.00    -0.004 A 
ATOM      5  C6  UNL d   1      -0.637  -2.710   0.582  0.00  0.00     0.002 A 
ATOM      6  C7  UNL d   1      -0.564  -1.319   0.492  0.00  0.00     0.002 A 
ENDROOT
BRANCH   1   7
ATOM      7  C1  UNL d   1      -0.175   0.799  -0.824  0.00  0.00     0.055 C 
ATOM      8  C   UNL d   1       0.744   1.414   0.221  0.00  0.00     0.019 C 
ENDBRANCH   1   7
TORSDOF 1
ENDMDL
