MODEL 1
REMARK minimizedAffinity -4.34075212
REMARK minimizedRMSD -1
REMARK  1 active torsions:
REMARK  status: ('A' for Active; 'I' for Inactive)
REMARK    1  A    between atoms: C1_2  and  C2_3 
ROOT
ATOM      1  C2  UNL d   1       0.239   0.274  -0.189  0.00  0.00    -0.077 A 
ATOM      2  C3  UNL d   1       0.799  -0.729  -0.992  0.00  0.00     0.002 A 
ATOM      3  C4  UNL d   1       0.598  -2.076  -0.683  0.00  0.00     0.002 A 
ATOM      4  C5  UNL d   1      -0.167  -2.432   0.426  0.00  0.00    -0.004 A 
ATOM      5  C6  UNL d   1      -0.727  -1.441   1.232  0.00  0.00     0.002 A 
ATOM      6  C7  UNL d   1      -0.526  -0.095   0.925  0.00  0.00     0.002 A 
ENDROOT
BRANCH   1   7
ATOM      7  C1  UNL d   1       0.414   1.726  -0.548  0.00  0.00     0.055 C 
ATOM      8  C   UNL d   1       1.454   2.395   0.339  0.00  0.00     0.019 C 
ENDBRANCH   1   7
TORSDOF 1
ENDMDL
