MODEL 1
REMARK minimizedAffinity -4.93614197
REMARK minimizedRMSD -1
REMARK  1 active torsions:
REMARK  status: ('A' for Active; 'I' for Inactive)
REMARK    1  A    between atoms: C1_2  and  C2_3 
ROOT
ATOM      1  C2  UNL d   1       0.659   1.145   0.274  0.00  0.00    -0.077 A 
ATOM      2  C3  UNL d   1       0.241   0.676  -0.980  0.00  0.00     0.002 A 
ATOM      3  C4  UNL d   1       0.019  -0.687  -1.186  0.00  0.00     0.002 A 
ATOM      4  C5  UNL d   1       0.207  -1.591  -0.142  0.00  0.00    -0.004 A 
ATOM      5  C6  UNL d   1       0.624  -1.135   1.108  0.00  0.00     0.002 A 
ATOM      6  C7  UNL d   1       0.848   0.227   1.315  0.00  0.00     0.002 A 
ENDROOT
BRANCH   1   7
ATOM      7  C1  UNL d   1       0.852   2.619   0.511  0.00  0.00     0.055 C 
ATOM      8  C   UNL d   1       2.323   3.004   0.442  0.00  0.00     0.019 C 
ENDBRANCH   1   7
TORSDOF 1
ENDMDL
