MODEL 1
REMARK minimizedAffinity -4.09266281
REMARK minimizedRMSD -1
REMARK  1 active torsions:
REMARK  status: ('A' for Active; 'I' for Inactive)
REMARK    1  A    between atoms: C1_2  and  C2_3 
ROOT
ATOM      1  C2  UNL d   1       0.058  -0.332   0.451  0.00  0.00    -0.077 A 
ATOM      2  C3  UNL d   1       0.767  -1.232  -0.358  0.00  0.00     0.002 A 
ATOM      3  C4  UNL d   1       0.436  -2.588  -0.364  0.00  0.00     0.002 A 
ATOM      4  C5  UNL d   1      -0.607  -3.056   0.432  0.00  0.00    -0.004 A 
ATOM      5  C6  UNL d   1      -1.317  -2.169   1.241  0.00  0.00     0.002 A 
ATOM      6  C7  UNL d   1      -0.987  -0.814   1.250  0.00  0.00     0.002 A 
ENDROOT
BRANCH   1   7
ATOM      7  C1  UNL d   1       0.382   1.139   0.422  0.00  0.00     0.055 C 
ATOM      8  C   UNL d   1       0.240   1.709  -0.982  0.00  0.00     0.019 C 
ENDBRANCH   1   7
TORSDOF 1
ENDMDL
