MODEL 1
REMARK minimizedAffinity -3.15839601
REMARK minimizedRMSD -1
REMARK  1 active torsions:
REMARK  status: ('A' for Active; 'I' for Inactive)
REMARK    1  A    between atoms: C1_2  and  C2_3 
ROOT
ATOM      1  C2  UNL d   1      -0.027   2.010   0.273  0.00  0.00    -0.077 A 
ATOM      2  C3  UNL d   1      -0.262   1.074   1.290  0.00  0.00     0.002 A 
ATOM      3  C4  UNL d   1      -0.368  -0.285   0.988  0.00  0.00     0.002 A 
ATOM      4  C5  UNL d   1      -0.235  -0.721  -0.328  0.00  0.00    -0.004 A 
ATOM      5  C6  UNL d   1      -0.003   0.202  -1.347  0.00  0.00     0.002 A 
ATOM      6  C7  UNL d   1       0.101   1.561  -1.048  0.00  0.00     0.002 A 
ENDROOT
BRANCH   1   7
ATOM      7  C1  UNL d   1       0.136   3.470   0.602  0.00  0.00     0.055 C 
ATOM      8  C   UNL d   1       1.605   3.858   0.690  0.00  0.00     0.019 C 
ENDBRANCH   1   7
TORSDOF 1
ENDMDL
