MODEL 1
REMARK minimizedAffinity -4.6157217
REMARK minimizedRMSD -1
REMARK  1 active torsions:
REMARK  status: ('A' for Active; 'I' for Inactive)
REMARK    1  A    between atoms: C1_2  and  C2_3 
ROOT
ATOM      1  C2  UNL d   1       0.443   1.795  -0.090  0.00  0.00    -0.077 A 
ATOM      2  C3  UNL d   1       0.804   0.922   0.946  0.00  0.00     0.002 A 
ATOM      3  C4  UNL d   1       0.585  -0.451   0.822  0.00  0.00     0.002 A 
ATOM      4  C5  UNL d   1       0.007  -0.964  -0.337  0.00  0.00    -0.004 A 
ATOM      5  C6  UNL d   1      -0.358  -0.104  -1.373  0.00  0.00     0.002 A 
ATOM      6  C7  UNL d   1      -0.140   1.269  -1.250  0.00  0.00     0.002 A 
ENDROOT
BRANCH   1   7
ATOM      7  C1  UNL d   1       0.724   3.270   0.021  0.00  0.00     0.055 C 
ATOM      8  C   UNL d   1       2.219   3.552   0.001  0.00  0.00     0.019 C 
ENDBRANCH   1   7
TORSDOF 1
ENDMDL
