MODEL 1
REMARK minimizedAffinity -0.948980451
REMARK minimizedRMSD -1
REMARK  0 active torsions:
REMARK  status: ('A' for Active; 'I' for Inactive)
ROOT
ATOM      1  C   UNL d   1       0.897   2.318   0.015  0.00  0.00     0.077 C 
ATOM      2  C1  UNL d   1       0.948   0.820   0.050  0.00  0.00    -0.074 A 
ATOM      3  C2  UNL d   1      -0.194   0.056  -0.212  0.00  0.00    -0.005 A 
ATOM      4  C3  UNL d   1      -0.129  -1.337  -0.185  0.00  0.00     0.006 A 
ATOM      5  C4  UNL d   1       1.075  -1.979   0.105  0.00  0.00    -0.005 A 
ATOM      6  C5  UNL d   1       2.227  -1.232   0.369  0.00  0.00    -0.074 A 
ATOM      7  C6  UNL d   1       3.532  -1.906   0.673  0.00  0.00     0.077 C 
ATOM      8  C7  UNL d   1       2.156   0.167   0.333  0.00  0.00    -0.001 A 
ENDROOT
TORSDOF 0
ENDMDL
