MODEL 1
REMARK minimizedAffinity -3.85736275
REMARK minimizedRMSD -1
REMARK  0 active torsions:
REMARK  status: ('A' for Active; 'I' for Inactive)
ROOT
ATOM      1  C   UNL d   1       2.284  -2.732  -0.454  0.00  0.00     0.077 C 
ATOM      2  C1  UNL d   1       1.206  -1.857   0.114  0.00  0.00    -0.074 A 
ATOM      3  C2  UNL d   1       0.418  -2.290   1.185  0.00  0.00    -0.005 A 
ATOM      4  C3  UNL d   1      -0.575  -1.461   1.708  0.00  0.00     0.006 A 
ATOM      5  C4  UNL d   1      -0.789  -0.193   1.166  0.00  0.00    -0.005 A 
ATOM      6  C5  UNL d   1      -0.011   0.257   0.095  0.00  0.00    -0.074 A 
ATOM      7  C6  UNL d   1      -0.222   1.621  -0.493  0.00  0.00     0.077 C 
ATOM      8  C7  UNL d   1       0.989  -0.579  -0.420  0.00  0.00    -0.001 A 
ENDROOT
TORSDOF 0
ENDMDL
