MODEL 1
REMARK minimizedAffinity -4.050704
REMARK minimizedRMSD -1
REMARK  0 active torsions:
REMARK  status: ('A' for Active; 'I' for Inactive)
ROOT
ATOM      1  C   UNL d   1       2.691  -1.144   1.131  0.00  0.00     0.077 C 
ATOM      2  C1  UNL d   1       1.777  -0.068   0.626  0.00  0.00    -0.074 A 
ATOM      3  C2  UNL d   1       2.042   1.281   0.885  0.00  0.00    -0.005 A 
ATOM      4  C3  UNL d   1       1.187   2.271   0.400  0.00  0.00     0.006 A 
ATOM      5  C4  UNL d   1       0.061   1.923  -0.347  0.00  0.00    -0.005 A 
ATOM      6  C5  UNL d   1      -0.220   0.580  -0.617  0.00  0.00    -0.074 A 
ATOM      7  C6  UNL d   1      -1.420   0.190  -1.426  0.00  0.00     0.077 C 
ATOM      8  C7  UNL d   1       0.648  -0.409  -0.132  0.00  0.00    -0.001 A 
ENDROOT
TORSDOF 0
ENDMDL
