MODEL 1
REMARK minimizedAffinity -0.794335723
REMARK minimizedRMSD -1
REMARK  0 active torsions:
REMARK  status: ('A' for Active; 'I' for Inactive)
ROOT
ATOM      1  C   UNL d   1       3.306  -2.447  -1.447  0.00  0.00     0.077 C 
ATOM      2  C1  UNL d   1       2.610  -1.695  -0.351  0.00  0.00    -0.074 A 
ATOM      3  C2  UNL d   1       3.095  -1.725   0.960  0.00  0.00    -0.005 A 
ATOM      4  C3  UNL d   1       2.443  -1.013   1.967  0.00  0.00     0.006 A 
ATOM      5  C4  UNL d   1       1.302  -0.265   1.673  0.00  0.00    -0.005 A 
ATOM      6  C5  UNL d   1       0.804  -0.223   0.368  0.00  0.00    -0.074 A 
ATOM      7  C6  UNL d   1      -0.416   0.584   0.033  0.00  0.00     0.077 C 
ATOM      8  C7  UNL d   1       1.468  -0.935  -0.640  0.00  0.00    -0.001 A 
ENDROOT
TORSDOF 0
ENDMDL
