MODEL 1
REMARK minimizedAffinity 2.94324398
REMARK minimizedRMSD -1
REMARK  0 active torsions:
REMARK  status: ('A' for Active; 'I' for Inactive)
ROOT
ATOM      1  C   UNL d   1      -1.458  -2.459  -4.471  0.00  0.00     0.077 C 
ATOM      2  C1  UNL d   1      -1.403  -1.251  -3.584  0.00  0.00    -0.074 A 
ATOM      3  C2  UNL d   1      -1.977  -0.040  -3.983  0.00  0.00    -0.005 A 
ATOM      4  C3  UNL d   1      -1.926   1.073  -3.143  0.00  0.00     0.006 A 
ATOM      5  C4  UNL d   1      -1.300   0.986  -1.899  0.00  0.00    -0.005 A 
ATOM      6  C5  UNL d   1      -0.721  -0.217  -1.483  0.00  0.00    -0.074 A 
ATOM      7  C6  UNL d   1      -0.053  -0.330  -0.145  0.00  0.00     0.077 C 
ATOM      8  C7  UNL d   1      -0.783  -1.332  -2.329  0.00  0.00    -0.001 A 
ENDROOT
TORSDOF 0
ENDMDL
