MODEL 1
REMARK minimizedAffinity -1.19602573
REMARK minimizedRMSD -1
REMARK  0 active torsions:
REMARK  status: ('A' for Active; 'I' for Inactive)
ROOT
ATOM      1  C   UNL d   1      -2.288   2.180  -4.428  0.00  0.00     0.077 C 
ATOM      2  C1  UNL d   1      -1.825   0.986  -3.646  0.00  0.00    -0.074 A 
ATOM      3  C2  UNL d   1      -1.705  -0.268  -4.253  0.00  0.00    -0.005 A 
ATOM      4  C3  UNL d   1      -1.264  -1.367  -3.515  0.00  0.00     0.006 A 
ATOM      5  C4  UNL d   1      -0.938  -1.222  -2.166  0.00  0.00    -0.005 A 
ATOM      6  C5  UNL d   1      -1.051   0.025  -1.543  0.00  0.00    -0.074 A 
ATOM      7  C6  UNL d   1      -0.695   0.199  -0.096  0.00  0.00     0.077 C 
ATOM      8  C7  UNL d   1      -1.488   1.125  -2.292  0.00  0.00    -0.001 A 
ENDROOT
TORSDOF 0
ENDMDL
