MODEL 1
REMARK minimizedAffinity 3.92633343
REMARK minimizedRMSD -1
REMARK  0 active torsions:
REMARK  status: ('A' for Active; 'I' for Inactive)
ROOT
ATOM      1  C   UNL d   1       2.969  -2.367  -1.983  0.00  0.00     0.077 C 
ATOM      2  C1  UNL d   1       2.001  -1.509  -1.224  0.00  0.00    -0.074 A 
ATOM      3  C2  UNL d   1       0.626  -1.586  -1.469  0.00  0.00    -0.005 A 
ATOM      4  C3  UNL d   1      -0.263  -0.789  -0.749  0.00  0.00     0.006 A 
ATOM      5  C4  UNL d   1       0.213   0.093   0.222  0.00  0.00    -0.005 A 
ATOM      6  C5  UNL d   1       1.584   0.184   0.481  0.00  0.00    -0.074 A 
ATOM      7  C6  UNL d   1       2.111   1.119   1.529  0.00  0.00     0.077 C 
ATOM      8  C7  UNL d   1       2.471  -0.626  -0.242  0.00  0.00    -0.001 A 
ENDROOT
TORSDOF 0
ENDMDL
