MODEL 1
REMARK minimizedAffinity 13.9266005
REMARK minimizedRMSD -1
REMARK  0 active torsions:
REMARK  status: ('A' for Active; 'I' for Inactive)
ROOT
ATOM      1  C   UNL d   1       2.826   4.311   0.612  0.00  0.00     0.124 A 
ATOM      2  C1  UNL d   1       4.176   4.337   0.291  0.00  0.00     0.062 A 
ATOM      3  C2  UNL d   1       4.691   3.442  -0.642  0.00  0.00     0.162 A 
ATOM      4  C3  UNL d   1       3.856   2.512  -1.261  0.00  0.00    -0.034 A 
ATOM      5  C4  UNL d   1       2.500   2.491  -0.932  0.00  0.00     0.162 A 
ATOM      6  C5  UNL d   1       1.989   3.388   0.000  0.00  0.00     0.062 A 
ATOM      7  F   UNL d   1       0.685   3.361   0.309  0.00  0.00    -0.097 F 
ATOM      8  F1  UNL d   1       1.668   1.611  -1.509  0.00  0.00    -0.096 F 
ATOM      9  I   UNL d   1       4.623   1.172  -2.656  0.00  0.00    -0.060 I 
ATOM     10  F2  UNL d   1       6.000   3.490  -0.933  0.00  0.00    -0.096 F 
ATOM     11  F3  UNL d   1       4.987   5.227   0.881  0.00  0.00    -0.097 F 
ATOM     12  F4  UNL d   1       2.333   5.173   1.510  0.00  0.00    -0.092 F 
ENDROOT
TORSDOF 0
ENDMDL
