MODEL 1
REMARK minimizedAffinity 3.33120823
REMARK minimizedRMSD -1
REMARK  0 active torsions:
REMARK  status: ('A' for Active; 'I' for Inactive)
ROOT
ATOM      1  C   UNL d   1       1.072   2.974  -1.093  0.00  0.00     0.124 A 
ATOM      2  C1  UNL d   1       2.112   2.089  -0.844  0.00  0.00     0.062 A 
ATOM      3  C2  UNL d   1       1.864   0.883  -0.194  0.00  0.00     0.162 A 
ATOM      4  C3  UNL d   1       0.570   0.554   0.210  0.00  0.00    -0.034 A 
ATOM      5  C4  UNL d   1      -0.470   1.450  -0.043  0.00  0.00     0.162 A 
ATOM      6  C5  UNL d   1      -0.218   2.654  -0.693  0.00  0.00     0.062 A 
ATOM      7  F   UNL d   1      -1.224   3.508  -0.933  0.00  0.00    -0.097 F 
ATOM      8  F1  UNL d   1      -1.726   1.165   0.332  0.00  0.00    -0.096 F 
ATOM      9  I   UNL d   1       0.196  -1.248   1.182  0.00  0.00    -0.060 I 
ATOM     10  F2  UNL d   1       2.888   0.047   0.034  0.00  0.00    -0.096 F 
ATOM     11  F3  UNL d   1       3.359   2.397  -1.229  0.00  0.00    -0.097 F 
ATOM     12  F4  UNL d   1       1.313   4.134  -1.718  0.00  0.00    -0.092 F 
ENDROOT
TORSDOF 0
ENDMDL
