MODEL 1
REMARK minimizedAffinity 12.9517698
REMARK minimizedRMSD -1
REMARK  0 active torsions:
REMARK  status: ('A' for Active; 'I' for Inactive)
ROOT
ATOM      1  C   UNL d   1      -3.158  -3.827   3.061  0.00  0.00     0.124 A 
ATOM      2  C1  UNL d   1      -2.950  -3.216   1.833  0.00  0.00     0.062 A 
ATOM      3  C2  UNL d   1      -3.760  -3.535   0.746  0.00  0.00     0.162 A 
ATOM      4  C3  UNL d   1      -4.787  -4.468   0.884  0.00  0.00    -0.034 A 
ATOM      5  C4  UNL d   1      -4.989  -5.080   2.123  0.00  0.00     0.162 A 
ATOM      6  C5  UNL d   1      -4.177  -4.758   3.205  0.00  0.00     0.062 A 
ATOM      7  F   UNL d   1      -4.380  -5.349   4.392  0.00  0.00    -0.097 F 
ATOM      8  F1  UNL d   1      -5.968  -5.982   2.290  0.00  0.00    -0.096 F 
ATOM      9  I   UNL d   1      -6.000  -4.947  -0.738  0.00  0.00    -0.060 I 
ATOM     10  F2  UNL d   1      -3.536  -2.929  -0.429  0.00  0.00    -0.096 F 
ATOM     11  F3  UNL d   1      -1.965  -2.317   1.691  0.00  0.00    -0.097 F 
ATOM     12  F4  UNL d   1      -2.376  -3.520   4.105  0.00  0.00    -0.092 F 
ENDROOT
TORSDOF 0
ENDMDL
