MODEL 1
REMARK minimizedAffinity 6.61520338
REMARK minimizedRMSD -1
REMARK  0 active torsions:
REMARK  status: ('A' for Active; 'I' for Inactive)
ROOT
ATOM      1  C   UNL d   1       1.481  -0.232   0.370  0.00  0.00     0.124 A 
ATOM      2  C1  UNL d   1       2.534   0.459  -0.214  0.00  0.00     0.062 A 
ATOM      3  C2  UNL d   1       2.311   1.690  -0.824  0.00  0.00     0.162 A 
ATOM      4  C3  UNL d   1       1.029   2.239  -0.853  0.00  0.00    -0.034 A 
ATOM      5  C4  UNL d   1      -0.025   1.538  -0.265  0.00  0.00     0.162 A 
ATOM      6  C5  UNL d   1       0.203   0.308   0.344  0.00  0.00     0.062 A 
ATOM      7  F   UNL d   1      -0.816  -0.358   0.907  0.00  0.00    -0.097 F 
ATOM      8  F1  UNL d   1      -1.270   2.037  -0.274  0.00  0.00    -0.096 F 
ATOM      9  I   UNL d   1       0.691   4.079  -1.764  0.00  0.00    -0.060 I 
ATOM     10  F2  UNL d   1       3.347   2.335  -1.380  0.00  0.00    -0.096 F 
ATOM     11  F3  UNL d   1       3.770  -0.061  -0.191  0.00  0.00    -0.097 F 
ATOM     12  F4  UNL d   1       1.698  -1.416   0.956  0.00  0.00    -0.092 F 
ENDROOT
TORSDOF 0
ENDMDL
