MODEL 1
REMARK minimizedAffinity 9.8777523
REMARK minimizedRMSD -1
REMARK  0 active torsions:
REMARK  status: ('A' for Active; 'I' for Inactive)
ROOT
ATOM      1  C   UNL d   1      -0.624   0.764   0.589  0.00  0.00     0.124 A 
ATOM      2  C1  UNL d   1      -0.289   1.901  -0.133  0.00  0.00     0.062 A 
ATOM      3  C2  UNL d   1       1.004   2.066  -0.620  0.00  0.00     0.162 A 
ATOM      4  C3  UNL d   1       1.973   1.089  -0.388  0.00  0.00    -0.034 A 
ATOM      5  C4  UNL d   1       1.629  -0.051   0.339  0.00  0.00     0.162 A 
ATOM      6  C5  UNL d   1       0.335  -0.211   0.824  0.00  0.00     0.062 A 
ATOM      7  F   UNL d   1       0.014  -1.310   1.522  0.00  0.00    -0.097 F 
ATOM      8  F1  UNL d   1       2.536  -1.009   0.581  0.00  0.00    -0.096 F 
ATOM      9  I   UNL d   1       3.908   1.331  -1.115  0.00  0.00    -0.060 I 
ATOM     10  F2  UNL d   1       1.299   3.175  -1.315  0.00  0.00    -0.096 F 
ATOM     11  F3  UNL d   1      -1.214   2.845  -0.361  0.00  0.00    -0.097 F 
ATOM     12  F4  UNL d   1      -1.869   0.609   1.057  0.00  0.00    -0.092 F 
ENDROOT
TORSDOF 0
ENDMDL
