MODEL 1
REMARK minimizedAffinity 20.4172173
REMARK minimizedRMSD -1
REMARK  0 active torsions:
REMARK  status: ('A' for Active; 'I' for Inactive)
ROOT
ATOM      1  C   UNL d   1       2.724   1.832  -1.377  0.00  0.00     0.124 A 
ATOM      2  C1  UNL d   1       3.030   0.567  -0.895  0.00  0.00     0.062 A 
ATOM      3  C2  UNL d   1       2.221  -0.030   0.068  0.00  0.00     0.162 A 
ATOM      4  C3  UNL d   1       1.097   0.638   0.555  0.00  0.00    -0.034 A 
ATOM      5  C4  UNL d   1       0.796   1.910   0.066  0.00  0.00     0.162 A 
ATOM      6  C5  UNL d   1       1.608   2.502  -0.897  0.00  0.00     0.062 A 
ATOM      7  F   UNL d   1       1.311   3.724  -1.361  0.00  0.00    -0.097 F 
ATOM      8  F1  UNL d   1      -0.277   2.580   0.512  0.00  0.00    -0.096 F 
ATOM      9  I   UNL d   1      -0.115  -0.251   1.994  0.00  0.00    -0.060 I 
ATOM     10  F2  UNL d   1       2.540  -1.253   0.516  0.00  0.00    -0.096 F 
ATOM     11  F3  UNL d   1       4.108  -0.083  -1.357  0.00  0.00    -0.097 F 
ATOM     12  F4  UNL d   1       3.504   2.404  -2.303  0.00  0.00    -0.092 F 
ENDROOT
TORSDOF 0
ENDMDL
