MODEL 1
REMARK minimizedAffinity 9.94094372
REMARK minimizedRMSD -1
REMARK  0 active torsions:
REMARK  status: ('A' for Active; 'I' for Inactive)
ROOT
ATOM      1  C   UNL d   1      -1.433  -3.330   0.697  0.00  0.00     0.124 A 
ATOM      2  C1  UNL d   1      -0.295  -3.879   0.123  0.00  0.00     0.062 A 
ATOM      3  C2  UNL d   1      -0.395  -4.642  -1.037  0.00  0.00     0.162 A 
ATOM      4  C3  UNL d   1      -1.638  -4.860  -1.632  0.00  0.00    -0.034 A 
ATOM      5  C4  UNL d   1      -2.778  -4.305  -1.047  0.00  0.00     0.162 A 
ATOM      6  C5  UNL d   1      -2.673  -3.544   0.112  0.00  0.00     0.062 A 
ATOM      7  F   UNL d   1      -3.773  -3.014   0.666  0.00  0.00    -0.097 F 
ATOM      8  F1  UNL d   1      -3.989  -4.495  -1.592  0.00  0.00    -0.096 F 
ATOM      9  I   UNL d   1      -1.792  -5.999  -3.366  0.00  0.00    -0.060 I 
ATOM     10  F2  UNL d   1       0.721  -5.160  -1.571  0.00  0.00    -0.096 F 
ATOM     11  F3  UNL d   1       0.904  -3.676   0.687  0.00  0.00    -0.097 F 
ATOM     12  F4  UNL d   1      -1.334  -2.598   1.814  0.00  0.00    -0.092 F 
ENDROOT
TORSDOF 0
ENDMDL
