MODEL 1
REMARK minimizedAffinity 20.6871777
REMARK minimizedRMSD -1
REMARK  0 active torsions:
REMARK  status: ('A' for Active; 'I' for Inactive)
ROOT
ATOM      1  C   UNL d   1      -5.101  -5.226  -2.321  0.00  0.00     0.124 A 
ATOM      2  C1  UNL d   1      -5.124  -5.224  -0.934  0.00  0.00     0.062 A 
ATOM      3  C2  UNL d   1      -4.238  -4.422  -0.220  0.00  0.00     0.162 A 
ATOM      4  C3  UNL d   1      -3.323  -3.613  -0.893  0.00  0.00    -0.034 A 
ATOM      5  C4  UNL d   1      -3.305  -3.620  -2.289  0.00  0.00     0.162 A 
ATOM      6  C5  UNL d   1      -4.192  -4.424  -2.997  0.00  0.00     0.062 A 
ATOM      7  F   UNL d   1      -4.169  -4.424  -4.338  0.00  0.00    -0.097 F 
ATOM      8  F1  UNL d   1      -2.438  -2.854  -2.967  0.00  0.00    -0.096 F 
ATOM      9  I   UNL d   1      -1.997  -2.411   0.171  0.00  0.00    -0.060 I 
ATOM     10  F2  UNL d   1      -4.282  -4.441   1.121  0.00  0.00    -0.096 F 
ATOM     11  F3  UNL d   1      -6.000  -5.999  -0.278  0.00  0.00    -0.097 F 
ATOM     12  F4  UNL d   1      -5.953  -5.999  -3.006  0.00  0.00    -0.092 F 
ENDROOT
TORSDOF 0
ENDMDL
