MODEL 1
REMARK minimizedAffinity 21.7047634
REMARK minimizedRMSD -1
REMARK  0 active torsions:
REMARK  status: ('A' for Active; 'I' for Inactive)
ROOT
ATOM      1  C   UNL d   1      -2.213   3.069  -2.442  0.00  0.00     0.124 A 
ATOM      2  C1  UNL d   1      -1.000   3.322  -1.817  0.00  0.00     0.062 A 
ATOM      3  C2  UNL d   1       0.098   3.739  -2.563  0.00  0.00     0.162 A 
ATOM      4  C3  UNL d   1      -0.012   3.907  -3.944  0.00  0.00    -0.034 A 
ATOM      5  C4  UNL d   1      -1.235   3.650  -4.565  0.00  0.00     0.162 A 
ATOM      6  C5  UNL d   1      -2.330   3.234  -3.815  0.00  0.00     0.062 A 
ATOM      7  F   UNL d   1      -3.501   2.990  -4.421  0.00  0.00    -0.097 F 
ATOM      8  F1  UNL d   1      -1.375   3.802  -5.891  0.00  0.00    -0.096 F 
ATOM      9  I   UNL d   1       1.628   4.531  -5.063  0.00  0.00    -0.060 I 
ATOM     10  F2  UNL d   1       1.258   3.976  -1.933  0.00  0.00    -0.096 F 
ATOM     11  F3  UNL d   1      -0.885   3.163  -0.491  0.00  0.00    -0.097 F 
ATOM     12  F4  UNL d   1      -3.268   2.667  -1.722  0.00  0.00    -0.092 F 
ENDROOT
TORSDOF 0
ENDMDL
