MODEL 1
REMARK minimizedAffinity 26.3338814
REMARK minimizedRMSD -1
REMARK  0 active torsions:
REMARK  status: ('A' for Active; 'I' for Inactive)
ROOT
ATOM      1  C   UNL d   1      -2.192   3.005  -2.127  0.00  0.00     0.124 A 
ATOM      2  C1  UNL d   1      -2.097   2.907  -3.508  0.00  0.00     0.062 A 
ATOM      3  C2  UNL d   1      -0.924   3.281  -4.157  0.00  0.00     0.162 A 
ATOM      4  C3  UNL d   1       0.164   3.756  -3.426  0.00  0.00    -0.034 A 
ATOM      5  C4  UNL d   1       0.061   3.853  -2.037  0.00  0.00     0.162 A 
ATOM      6  C5  UNL d   1      -1.114   3.477  -1.393  0.00  0.00     0.062 A 
ATOM      7  F   UNL d   1      -1.204   3.573  -0.058  0.00  0.00    -0.097 F 
ATOM      8  F1  UNL d   1       1.088   4.305  -1.303  0.00  0.00    -0.096 F 
ATOM      9  I   UNL d   1       1.920   4.316  -4.393  0.00  0.00    -0.060 I 
ATOM     10  F2  UNL d   1      -0.861   3.176  -5.493  0.00  0.00    -0.096 F 
ATOM     11  F3  UNL d   1      -3.138   2.452  -4.220  0.00  0.00    -0.097 F 
ATOM     12  F4  UNL d   1      -3.323   2.645  -1.505  0.00  0.00    -0.092 F 
ENDROOT
TORSDOF 0
ENDMDL
