MODEL 1
REMARK minimizedAffinity 6.73183823
REMARK minimizedRMSD -1
REMARK  0 active torsions:
REMARK  status: ('A' for Active; 'I' for Inactive)
ROOT
ATOM      1  C   UNL d   1      -0.011  -0.273   0.502  0.00  0.00     0.124 A 
ATOM      2  C1  UNL d   1      -0.229   0.944  -0.128  0.00  0.00     0.062 A 
ATOM      3  C2  UNL d   1       0.845   1.686  -0.609  0.00  0.00     0.162 A 
ATOM      4  C3  UNL d   1       2.149   1.213  -0.462  0.00  0.00    -0.034 A 
ATOM      5  C4  UNL d   1       2.361  -0.012   0.175  0.00  0.00     0.162 A 
ATOM      6  C5  UNL d   1       1.284  -0.750   0.653  0.00  0.00     0.062 A 
ATOM      7  F   UNL d   1       1.497  -1.925   1.262  0.00  0.00    -0.097 F 
ATOM      8  F1  UNL d   1       3.602  -0.496   0.333  0.00  0.00    -0.096 F 
ATOM      9  I   UNL d   1       3.759   2.320  -1.179  0.00  0.00    -0.060 I 
ATOM     10  F2  UNL d   1       0.605   2.859  -1.214  0.00  0.00    -0.096 F 
ATOM     11  F3  UNL d   1      -1.479   1.407  -0.275  0.00  0.00    -0.097 F 
ATOM     12  F4  UNL d   1      -1.047  -0.985   0.965  0.00  0.00    -0.092 F 
ENDROOT
TORSDOF 0
ENDMDL
