MODEL 1
REMARK minimizedAffinity 18.007822
REMARK minimizedRMSD -1
REMARK  0 active torsions:
REMARK  status: ('A' for Active; 'I' for Inactive)
ROOT
ATOM      1  C   UNL d   1       0.670  -3.001  -3.904  0.00  0.00     0.124 A 
ATOM      2  C1  UNL d   1       1.618  -2.644  -4.853  0.00  0.00     0.062 A 
ATOM      3  C2  UNL d   1       2.762  -3.419  -5.025  0.00  0.00     0.162 A 
ATOM      4  C3  UNL d   1       2.963  -4.559  -4.246  0.00  0.00    -0.034 A 
ATOM      5  C4  UNL d   1       2.005  -4.910  -3.294  0.00  0.00     0.162 A 
ATOM      6  C5  UNL d   1       0.864  -4.133  -3.126  0.00  0.00     0.062 A 
ATOM      7  F   UNL d   1      -0.051  -4.479  -2.209  0.00  0.00    -0.097 F 
ATOM      8  F1  UNL d   1       2.167  -6.000  -2.528  0.00  0.00    -0.096 F 
ATOM      9  I   UNL d   1       4.672  -5.720  -4.500  0.00  0.00    -0.060 I 
ATOM     10  F2  UNL d   1       3.662  -3.051  -5.949  0.00  0.00    -0.096 F 
ATOM     11  F3  UNL d   1       1.433  -1.550  -5.606  0.00  0.00    -0.097 F 
ATOM     12  F4  UNL d   1      -0.429  -2.253  -3.741  0.00  0.00    -0.092 F 
ENDROOT
TORSDOF 0
ENDMDL
