MODEL 1
REMARK minimizedAffinity -1.06606424
REMARK minimizedRMSD -1
REMARK  0 active torsions:
REMARK  status: ('A' for Active; 'I' for Inactive)
ROOT
ATOM      1  C   UNL d   1       0.234  -1.240   2.102  0.00  0.00     0.124 A 
ATOM      2  C1  UNL d   1      -0.704  -1.925   2.863  0.00  0.00     0.062 A 
ATOM      3  C2  UNL d   1      -1.766  -2.577   2.243  0.00  0.00     0.162 A 
ATOM      4  C3  UNL d   1      -1.897  -2.548   0.855  0.00  0.00    -0.034 A 
ATOM      5  C4  UNL d   1      -0.950  -1.857   0.097  0.00  0.00     0.162 A 
ATOM      6  C5  UNL d   1       0.110  -1.207   0.720  0.00  0.00     0.062 A 
ATOM      7  F   UNL d   1       1.015  -0.545  -0.016  0.00  0.00    -0.097 F 
ATOM      8  F1  UNL d   1      -1.045  -1.809  -1.240  0.00  0.00    -0.096 F 
ATOM      9  I   UNL d   1      -3.484  -3.522  -0.075  0.00  0.00    -0.060 I 
ATOM     10  F2  UNL d   1      -2.657  -3.231   3.003  0.00  0.00    -0.096 F 
ATOM     11  F3  UNL d   1      -0.587  -1.958   4.198  0.00  0.00    -0.097 F 
ATOM     12  F4  UNL d   1       1.254  -0.613   2.701  0.00  0.00    -0.092 F 
ENDROOT
TORSDOF 0
ENDMDL
