MODEL 1
REMARK minimizedAffinity 6.72022581
REMARK minimizedRMSD -1
REMARK  0 active torsions:
REMARK  status: ('A' for Active; 'I' for Inactive)
ROOT
ATOM      1  C   UNL d   1       0.081   0.035  -2.236  0.00  0.00     0.124 A 
ATOM      2  C1  UNL d   1       0.611  -1.216  -1.952  0.00  0.00     0.062 A 
ATOM      3  C2  UNL d   1       0.585  -1.708  -0.650  0.00  0.00     0.162 A 
ATOM      4  C3  UNL d   1       0.026  -0.949   0.378  0.00  0.00    -0.034 A 
ATOM      5  C4  UNL d   1      -0.504   0.308   0.085  0.00  0.00     0.162 A 
ATOM      6  C5  UNL d   1      -0.476   0.796  -1.218  0.00  0.00     0.062 A 
ATOM      7  F   UNL d   1      -0.989   2.004  -1.491  0.00  0.00    -0.097 F 
ATOM      8  F1  UNL d   1      -1.049   1.064   1.049  0.00  0.00    -0.096 F 
ATOM      9  I   UNL d   1      -0.014  -1.681   2.326  0.00  0.00    -0.060 I 
ATOM     10  F2  UNL d   1       1.105  -2.920  -0.405  0.00  0.00    -0.096 F 
ATOM     11  F3  UNL d   1       1.150  -1.953  -2.934  0.00  0.00    -0.097 F 
ATOM     12  F4  UNL d   1       0.108   0.506  -3.489  0.00  0.00    -0.092 F 
ENDROOT
TORSDOF 0
ENDMDL
