MODEL 1
REMARK minimizedAffinity 13.6900482
REMARK minimizedRMSD -1
REMARK  0 active torsions:
REMARK  status: ('A' for Active; 'I' for Inactive)
ROOT
ATOM      1  C   UNL d   1       2.746   3.722  -0.151  0.00  0.00     0.124 A 
ATOM      2  C1  UNL d   1       1.911   4.740  -0.591  0.00  0.00     0.062 A 
ATOM      3  C2  UNL d   1       0.898   4.469  -1.506  0.00  0.00     0.162 A 
ATOM      4  C3  UNL d   1       0.714   3.173  -1.988  0.00  0.00    -0.034 A 
ATOM      5  C4  UNL d   1       1.558   2.154  -1.542  0.00  0.00     0.162 A 
ATOM      6  C5  UNL d   1       2.569   2.430  -0.627  0.00  0.00     0.062 A 
ATOM      7  F   UNL d   1       3.374   1.446  -0.204  0.00  0.00    -0.097 F 
ATOM      8  F1  UNL d   1       1.408   0.897  -1.985  0.00  0.00    -0.096 F 
ATOM      9  I   UNL d   1      -0.799   2.763  -3.357  0.00  0.00    -0.060 I 
ATOM     10  F2  UNL d   1       0.107   5.472  -1.913  0.00  0.00    -0.096 F 
ATOM     11  F3  UNL d   1       2.081   5.989  -0.133  0.00  0.00    -0.097 F 
ATOM     12  F4  UNL d   1       3.720   3.986   0.729  0.00  0.00    -0.092 F 
ENDROOT
TORSDOF 0
ENDMDL
