MODEL 1
REMARK minimizedAffinity 4.63021994
REMARK minimizedRMSD -1
REMARK  0 active torsions:
REMARK  status: ('A' for Active; 'I' for Inactive)
ROOT
ATOM      1  C   UNL d   1       1.529  -2.528   0.298  0.00  0.00     0.124 A 
ATOM      2  C1  UNL d   1       2.193  -1.308   0.289  0.00  0.00     0.062 A 
ATOM      3  C2  UNL d   1       1.474  -0.121   0.182  0.00  0.00     0.162 A 
ATOM      4  C3  UNL d   1       0.083  -0.147   0.084  0.00  0.00    -0.034 A 
ATOM      5  C4  UNL d   1      -0.577  -1.377   0.093  0.00  0.00     0.162 A 
ATOM      6  C5  UNL d   1       0.145  -2.561   0.200  0.00  0.00     0.062 A 
ATOM      7  F   UNL d   1      -0.497  -3.738   0.208  0.00  0.00    -0.097 F 
ATOM      8  F1  UNL d   1      -1.914  -1.438   0.000  0.00  0.00    -0.096 F 
ATOM      9  I   UNL d   1      -0.995   1.626  -0.076  0.00  0.00    -0.060 I 
ATOM     10  F2  UNL d   1       2.141   1.042   0.176  0.00  0.00    -0.096 F 
ATOM     11  F3  UNL d   1       3.530  -1.274   0.383  0.00  0.00    -0.097 F 
ATOM     12  F4  UNL d   1       2.223  -3.668   0.400  0.00  0.00    -0.092 F 
ENDROOT
TORSDOF 0
ENDMDL
