MODEL 1
REMARK minimizedAffinity 23.3723793
REMARK minimizedRMSD -1
REMARK  0 active torsions:
REMARK  status: ('A' for Active; 'I' for Inactive)
ROOT
ATOM      1  C   UNL d   1       4.699   0.363   0.825  0.00  0.00     0.124 A 
ATOM      2  C1  UNL d   1       3.708  -0.354   0.167  0.00  0.00     0.062 A 
ATOM      3  C2  UNL d   1       2.671   0.314  -0.476  0.00  0.00     0.162 A 
ATOM      4  C3  UNL d   1       2.619   1.708  -0.467  0.00  0.00    -0.034 A 
ATOM      5  C4  UNL d   1       3.618   2.422   0.197  0.00  0.00     0.162 A 
ATOM      6  C5  UNL d   1       4.652   1.750   0.839  0.00  0.00     0.062 A 
ATOM      7  F   UNL d   1       5.608   2.444   1.474  0.00  0.00    -0.097 F 
ATOM      8  F1  UNL d   1       3.598   3.763   0.226  0.00  0.00    -0.096 F 
ATOM      9  I   UNL d   1       1.069   2.711  -1.428  0.00  0.00    -0.060 I 
ATOM     10  F2  UNL d   1       1.728  -0.404  -1.104  0.00  0.00    -0.096 F 
ATOM     11  F3  UNL d   1       3.750  -1.694   0.153  0.00  0.00    -0.097 F 
ATOM     12  F4  UNL d   1       5.695  -0.283   1.444  0.00  0.00    -0.092 F 
ENDROOT
TORSDOF 0
ENDMDL
