MODEL 1
REMARK minimizedAffinity 15.8465242
REMARK minimizedRMSD -1
REMARK  1 active torsions:
REMARK  status: ('A' for Active; 'I' for Inactive)
REMARK    1  A    between atoms: C1_2  and  C2_3 
ROOT
ATOM      1  C2  UNL d   1       2.715   0.653   2.846  0.00  0.00    -0.073 A 
ATOM      2  C3  UNL d   1       3.466   0.648   4.027  0.00  0.00    -0.002 A 
ATOM      3  C4  UNL d   1       4.435   1.627   4.250  0.00  0.00     0.004 A 
ATOM      4  C5  UNL d   1       4.658   2.623   3.300  0.00  0.00    -0.004 A 
ATOM      5  C6  UNL d   1       3.909   2.652   2.119  0.00  0.00    -0.075 A 
ATOM      6  C7  UNL d   1       4.138   3.716   1.086  0.00  0.00     0.076 C 
ATOM      7  C8  UNL d   1       2.939   1.664   1.901  0.00  0.00     0.001 A 
ENDROOT
BRANCH   1   8
ATOM      8  C1  UNL d   1       1.663  -0.399   2.604  0.00  0.00     0.053 C 
ATOM      9  C   UNL d   1       0.256   0.166   2.716  0.00  0.00     0.018 C 
ENDBRANCH   1   8
TORSDOF 1
ENDMDL
