MODEL 1
REMARK minimizedAffinity 17.8391533
REMARK minimizedRMSD -1
REMARK  1 active torsions:
REMARK  status: ('A' for Active; 'I' for Inactive)
REMARK    1  A    between atoms: C1_2  and  C2_3 
ROOT
ATOM      1  C2  UNL d   1       1.299   3.377   0.680  0.00  0.00    -0.073 A 
ATOM      2  C3  UNL d   1       2.694   3.498   0.672  0.00  0.00    -0.002 A 
ATOM      3  C4  UNL d   1       3.498   2.410   1.012  0.00  0.00     0.004 A 
ATOM      4  C5  UNL d   1       2.918   1.189   1.357  0.00  0.00    -0.004 A 
ATOM      5  C6  UNL d   1       1.526   1.045   1.359  0.00  0.00    -0.075 A 
ATOM      6  C7  UNL d   1       0.887  -0.261   1.730  0.00  0.00     0.076 C 
ATOM      7  C8  UNL d   1       0.726   2.143   1.019  0.00  0.00     0.001 A 
ENDROOT
BRANCH   1   8
ATOM      8  C1  UNL d   1       0.427   4.548   0.307  0.00  0.00     0.053 C 
ATOM      9  C   UNL d   1      -0.808   4.643   1.189  0.00  0.00     0.018 C 
ENDBRANCH   1   8
TORSDOF 1
ENDMDL
