MODEL 1
REMARK minimizedAffinity 16.6687393
REMARK minimizedRMSD -1
REMARK  1 active torsions:
REMARK  status: ('A' for Active; 'I' for Inactive)
REMARK    1  A    between atoms: C1_2  and  C2_3 
ROOT
ATOM      1  C2  UNL d   1       0.358  -2.841  -5.965  0.00  0.00    -0.073 A 
ATOM      2  C3  UNL d   1       1.360  -3.818  -6.000  0.00  0.00    -0.002 A 
ATOM      3  C4  UNL d   1       1.025  -5.172  -5.985  0.00  0.00     0.004 A 
ATOM      4  C5  UNL d   1      -0.313  -5.564  -5.943  0.00  0.00    -0.004 A 
ATOM      5  C6  UNL d   1      -1.329  -4.603  -5.920  0.00  0.00    -0.075 A 
ATOM      6  C7  UNL d   1      -2.773  -5.009  -5.873  0.00  0.00     0.076 C 
ATOM      7  C8  UNL d   1      -0.985  -3.245  -5.932  0.00  0.00     0.001 A 
ENDROOT
BRANCH   1   8
ATOM      8  C1  UNL d   1       0.714  -1.377  -5.987  0.00  0.00     0.053 C 
ATOM      9  C   UNL d   1       1.106  -0.866  -4.610  0.00  0.00     0.018 C 
ENDBRANCH   1   8
TORSDOF 1
ENDMDL
