MODEL 1
REMARK minimizedAffinity 9.8713665
REMARK minimizedRMSD -1
REMARK  1 active torsions:
REMARK  status: ('A' for Active; 'I' for Inactive)
REMARK    1  A    between atoms: C1_2  and  C2_3 
ROOT
ATOM      1  C2  UNL d   1      -1.063  -1.052   1.832  0.00  0.00    -0.073 A 
ATOM      2  C3  UNL d   1      -0.411   0.159   1.572  0.00  0.00    -0.002 A 
ATOM      3  C4  UNL d   1       0.813   0.445   2.179  0.00  0.00     0.004 A 
ATOM      4  C5  UNL d   1       1.399  -0.477   3.046  0.00  0.00    -0.004 A 
ATOM      5  C6  UNL d   1       0.769  -1.698   3.309  0.00  0.00    -0.075 A 
ATOM      6  C7  UNL d   1       1.385  -2.700   4.240  0.00  0.00     0.076 C 
ATOM      7  C8  UNL d   1      -0.461  -1.977   2.698  0.00  0.00     0.001 A 
ENDROOT
BRANCH   1   8
ATOM      8  C1  UNL d   1      -2.381  -1.368   1.174  0.00  0.00     0.053 C 
ATOM      9  C   UNL d   1      -3.447  -0.335   1.507  0.00  0.00     0.018 C 
ENDBRANCH   1   8
TORSDOF 1
ENDMDL
