MODEL 1
REMARK minimizedAffinity 5.64746141
REMARK minimizedRMSD -1
REMARK  1 active torsions:
REMARK  status: ('A' for Active; 'I' for Inactive)
REMARK    1  A    between atoms: C1_2  and  C2_3 
ROOT
ATOM      1  C2  UNL d   1       0.364   0.643   3.586  0.00  0.00    -0.073 A 
ATOM      2  C3  UNL d   1      -0.039   0.042   2.388  0.00  0.00    -0.002 A 
ATOM      3  C4  UNL d   1       0.229  -1.307   2.152  0.00  0.00     0.004 A 
ATOM      4  C5  UNL d   1       0.895  -2.069   3.112  0.00  0.00    -0.004 A 
ATOM      5  C6  UNL d   1       1.295  -1.489   4.320  0.00  0.00    -0.075 A 
ATOM      6  C7  UNL d   1       2.015  -2.294   5.361  0.00  0.00     0.076 C 
ATOM      7  C8  UNL d   1       1.025  -0.133   4.548  0.00  0.00     0.001 A 
ENDROOT
BRANCH   1   8
ATOM      8  C1  UNL d   1       0.072   2.098   3.848  0.00  0.00     0.053 C 
ATOM      9  C   UNL d   1      -0.072   2.392   5.333  0.00  0.00     0.018 C 
ENDBRANCH   1   8
TORSDOF 1
ENDMDL
