MODEL 1
REMARK minimizedAffinity 6.42026615
REMARK minimizedRMSD -1
REMARK  1 active torsions:
REMARK  status: ('A' for Active; 'I' for Inactive)
REMARK    1  A    between atoms: C1_2  and  C2_3 
ROOT
ATOM      1  C2  UNL d   1       1.080  -1.917   3.967  0.00  0.00    -0.073 A 
ATOM      2  C3  UNL d   1       1.836  -0.746   3.840  0.00  0.00    -0.002 A 
ATOM      3  C4  UNL d   1       1.299   0.374   3.204  0.00  0.00     0.004 A 
ATOM      4  C5  UNL d   1      -0.000   0.337   2.696  0.00  0.00    -0.004 A 
ATOM      5  C6  UNL d   1      -0.775  -0.820   2.824  0.00  0.00    -0.075 A 
ATOM      6  C7  UNL d   1      -2.173  -0.876   2.282  0.00  0.00     0.076 C 
ATOM      7  C8  UNL d   1      -0.228  -1.942   3.461  0.00  0.00     0.001 A 
ENDROOT
BRANCH   1   8
ATOM      8  C1  UNL d   1       1.654  -3.127   4.658  0.00  0.00     0.053 C 
ATOM      9  C   UNL d   1       2.644  -2.746   5.747  0.00  0.00     0.018 C 
ENDBRANCH   1   8
TORSDOF 1
ENDMDL
