MODEL 1
REMARK minimizedAffinity 3.06466579
REMARK minimizedRMSD -1
REMARK  1 active torsions:
REMARK  status: ('A' for Active; 'I' for Inactive)
REMARK    1  A    between atoms: C3_4  and  O_7 
ROOT
ATOM      1  C   UNL d   1       3.033   2.143   3.373  0.00  0.00    -0.033 A 
ATOM      2  C1  UNL d   1       3.102   1.311   4.493  0.00  0.00     0.039 A 
ATOM      3  C2  UNL d   1       2.502   0.051   4.466  0.00  0.00    -0.080 A 
ATOM      4  C3  UNL d   1       1.837  -0.366   3.316  0.00  0.00     0.150 A 
ATOM      5  C4  UNL d   1       1.767   0.457   2.196  0.00  0.00    -0.007 A 
ATOM      6  C5  UNL d   1       2.366   1.715   2.225  0.00  0.00     0.039 A 
ENDROOT
BRANCH   4   7
ATOM      7  O   UNL d   1       1.231  -1.585   3.245  0.00  0.00    -0.526 OA
ATOM      8  H5  UNL d   1       1.336  -2.031   4.102  0.00  0.00     0.418 HD
ENDBRANCH   4   7
TORSDOF 1
ENDMDL
