MODEL 1
REMARK minimizedAffinity -4.62129307
REMARK minimizedRMSD -1
REMARK  1 active torsions:
REMARK  status: ('A' for Active; 'I' for Inactive)
REMARK    1  A    between atoms: C3_4  and  O_7 
ROOT
ATOM      1  C   UNL d   1      -0.748  -0.113   0.545  0.00  0.00    -0.033 A 
ATOM      2  C1  UNL d   1      -0.098  -1.298   0.897  0.00  0.00     0.039 A 
ATOM      3  C2  UNL d   1       1.294  -1.328   1.006  0.00  0.00    -0.080 A 
ATOM      4  C3  UNL d   1       2.023  -0.167   0.761  0.00  0.00     0.150 A 
ATOM      5  C4  UNL d   1       1.382   1.017   0.413  0.00  0.00    -0.007 A 
ATOM      6  C5  UNL d   1      -0.008   1.045   0.304  0.00  0.00     0.039 A 
ENDROOT
BRANCH   4   7
ATOM      7  O   UNL d   1       3.383  -0.149   0.851  0.00  0.00    -0.526 OA
ATOM      8  H5  UNL d   1       3.689  -1.044   1.071  0.00  0.00     0.418 HD
ENDBRANCH   4   7
TORSDOF 1
ENDMDL
