MODEL 1
REMARK minimizedAffinity -4.94902515
REMARK minimizedRMSD -1
REMARK  1 active torsions:
REMARK  status: ('A' for Active; 'I' for Inactive)
REMARK    1  A    between atoms: C3_4  and  O_7 
ROOT
ATOM      1  C   UNL d   1      -0.278   0.601  -0.201  0.00  0.00    -0.033 A 
ATOM      2  C1  UNL d   1       0.233  -0.687  -0.026  0.00  0.00     0.039 A 
ATOM      3  C2  UNL d   1       1.603  -0.876   0.165  0.00  0.00    -0.080 A 
ATOM      4  C3  UNL d   1       2.450   0.229   0.179  0.00  0.00     0.150 A 
ATOM      5  C4  UNL d   1       1.947   1.515   0.009  0.00  0.00    -0.007 A 
ATOM      6  C5  UNL d   1       0.579   1.702  -0.182  0.00  0.00     0.039 A 
ENDROOT
BRANCH   4   7
ATOM      7  O   UNL d   1       3.795   0.093   0.357  0.00  0.00    -0.526 OA
ATOM      8  H5  UNL d   1       4.001  -0.853   0.432  0.00  0.00     0.418 HD
ENDBRANCH   4   7
TORSDOF 1
ENDMDL
