MODEL 1
REMARK minimizedAffinity -3.45461774
REMARK minimizedRMSD -1
REMARK  1 active torsions:
REMARK  status: ('A' for Active; 'I' for Inactive)
REMARK    1  A    between atoms: C3_4  and  O_7 
ROOT
ATOM      1  C   UNL d   1       0.868   0.707  -0.128  0.00  0.00    -0.033 A 
ATOM      2  C1  UNL d   1      -0.374   0.579   0.499  0.00  0.00     0.039 A 
ATOM      3  C2  UNL d   1      -1.497   0.208  -0.243  0.00  0.00    -0.080 A 
ATOM      4  C3  UNL d   1      -1.365  -0.033  -1.608  0.00  0.00     0.150 A 
ATOM      5  C4  UNL d   1      -0.131   0.088  -2.237  0.00  0.00    -0.007 A 
ATOM      6  C5  UNL d   1       0.989   0.460  -1.495  0.00  0.00     0.039 A 
ENDROOT
BRANCH   4   7
ATOM      7  O   UNL d   1      -2.434  -0.393  -2.374  0.00  0.00    -0.526 OA
ATOM      8  H5  UNL d   1      -3.225  -0.409  -1.810  0.00  0.00     0.418 HD
ENDBRANCH   4   7
TORSDOF 1
ENDMDL
