MODEL 1
REMARK minimizedAffinity 10.1066828
REMARK minimizedRMSD -1
REMARK  1 active torsions:
REMARK  status: ('A' for Active; 'I' for Inactive)
REMARK    1  A    between atoms: C3_4  and  O_7 
ROOT
ATOM      1  C   UNL d   1      -4.086   5.394  -2.095  0.00  0.00    -0.033 A 
ATOM      2  C1  UNL d   1      -5.342   5.458  -1.488  0.00  0.00     0.039 A 
ATOM      3  C2  UNL d   1      -6.000   4.284  -1.116  0.00  0.00    -0.080 A 
ATOM      4  C3  UNL d   1      -5.393   3.055  -1.355  0.00  0.00     0.150 A 
ATOM      5  C4  UNL d   1      -4.140   2.983  -1.957  0.00  0.00    -0.007 A 
ATOM      6  C5  UNL d   1      -3.485   4.156  -2.328  0.00  0.00     0.039 A 
ENDROOT
BRANCH   4   7
ATOM      7  O   UNL d   1      -5.999   1.882  -1.014  0.00  0.00    -0.526 OA
ATOM      8  H5  UNL d   1      -6.870   2.085  -0.635  0.00  0.00     0.418 HD
ENDBRANCH   4   7
TORSDOF 1
ENDMDL
