MODEL 1
REMARK minimizedAffinity -2.98871636
REMARK minimizedRMSD -1
REMARK  1 active torsions:
REMARK  status: ('A' for Active; 'I' for Inactive)
REMARK    1  A    between atoms: C3_4  and  O_7 
ROOT
ATOM      1  C   UNL d   1      -1.469  -0.492  -0.468  0.00  0.00    -0.033 A 
ATOM      2  C1  UNL d   1      -1.132  -1.492   0.447  0.00  0.00     0.039 A 
ATOM      3  C2  UNL d   1       0.208  -1.802   0.682  0.00  0.00    -0.080 A 
ATOM      4  C3  UNL d   1       1.201  -1.106  -0.001  0.00  0.00     0.150 A 
ATOM      5  C4  UNL d   1       0.873  -0.106  -0.911  0.00  0.00    -0.007 A 
ATOM      6  C5  UNL d   1      -0.466   0.202  -1.146  0.00  0.00     0.039 A 
ENDROOT
BRANCH   4   7
ATOM      7  O   UNL d   1       2.523  -1.377   0.192  0.00  0.00    -0.526 OA
ATOM      8  H5  UNL d   1       2.598  -2.110   0.826  0.00  0.00     0.418 HD
ENDBRANCH   4   7
TORSDOF 1
ENDMDL
