MODEL 1
REMARK minimizedAffinity 0.726539314
REMARK minimizedRMSD -1
REMARK  2 active torsions:
REMARK  status: ('A' for Active; 'I' for Inactive)
REMARK    1  A    between atoms: C1_2  and  C2_3 
REMARK    2  A    between atoms: C2_3  and  C3_4 
ROOT
ATOM      1  C3  UNL d   1       3.133   4.596   4.857  0.00  0.00    -0.075 A 
ATOM      2  C4  UNL d   1       2.680   5.100   3.629  0.00  0.00     0.002 A 
ATOM      3  C5  UNL d   1       1.472   5.794   3.550  0.00  0.00     0.002 A 
ATOM      4  C6  UNL d   1       0.699   5.983   4.693  0.00  0.00    -0.004 A 
ATOM      5  C7  UNL d   1       1.131   5.472   5.915  0.00  0.00     0.002 A 
ATOM      6  C8  UNL d   1       2.341   4.782   5.997  0.00  0.00     0.002 A 
ENDROOT
BRANCH   1   7
ATOM      7  C2  UNL d   1       4.454   3.870   4.954  0.00  0.00     0.056 C 
BRANCH   7   8
ATOM      8  C1  UNL d   1       5.413   4.457   5.995  0.00  0.00     0.007 C 
ATOM      9  C   UNL d   1       5.441   5.980   5.994  0.00  0.00     0.009 C 
ENDBRANCH   7   8
ENDBRANCH   1   7
TORSDOF 2
ENDMDL
