MODEL 1
REMARK minimizedAffinity 7.38415527
REMARK minimizedRMSD -1
REMARK  2 active torsions:
REMARK  status: ('A' for Active; 'I' for Inactive)
REMARK    1  A    between atoms: C1_2  and  C2_3 
REMARK    2  A    between atoms: C2_3  and  C3_4 
ROOT
ATOM      1  C3  UNL d   1      -3.733   2.103   1.421  0.00  0.00    -0.075 A 
ATOM      2  C4  UNL d   1      -4.138   2.136   2.764  0.00  0.00     0.002 A 
ATOM      3  C5  UNL d   1      -4.366   3.354   3.405  0.00  0.00     0.002 A 
ATOM      4  C6  UNL d   1      -4.183   4.552   2.718  0.00  0.00    -0.004 A 
ATOM      5  C7  UNL d   1      -3.765   4.531   1.389  0.00  0.00     0.002 A 
ATOM      6  C8  UNL d   1      -3.540   3.315   0.743  0.00  0.00     0.002 A 
ENDROOT
BRANCH   1   7
ATOM      7  C2  UNL d   1      -3.513   0.788   0.712  0.00  0.00     0.056 C 
BRANCH   7   8
ATOM      8  C1  UNL d   1      -4.615   0.429  -0.291  0.00  0.00     0.007 C 
ATOM      9  C   UNL d   1      -5.998   0.346   0.341  0.00  0.00     0.009 C 
ENDBRANCH   7   8
ENDBRANCH   1   7
TORSDOF 2
ENDMDL
