MODEL 1
REMARK minimizedAffinity 4.15118074
REMARK minimizedRMSD -1
REMARK  2 active torsions:
REMARK  status: ('A' for Active; 'I' for Inactive)
REMARK    1  A    between atoms: C1_2  and  C2_3 
REMARK    2  A    between atoms: C2_3  and  C3_4 
ROOT
ATOM      1  C3  UNL d   1       1.538   5.973   3.555  0.00  0.00    -0.075 A 
ATOM      2  C4  UNL d   1       1.755   5.929   4.940  0.00  0.00     0.002 A 
ATOM      3  C5  UNL d   1       0.677   5.877   5.825  0.00  0.00     0.002 A 
ATOM      4  C6  UNL d   1      -0.628   5.881   5.338  0.00  0.00    -0.004 A 
ATOM      5  C7  UNL d   1      -0.855   5.941   3.964  0.00  0.00     0.002 A 
ATOM      6  C8  UNL d   1       0.221   5.988   3.077  0.00  0.00     0.002 A 
ENDROOT
BRANCH   1   7
ATOM      7  C2  UNL d   1       2.701   5.999   2.592  0.00  0.00     0.056 C 
BRANCH   7   8
ATOM      8  C1  UNL d   1       4.074   6.000   3.271  0.00  0.00     0.007 C 
ATOM      9  C   UNL d   1       5.233   5.999   2.283  0.00  0.00     0.009 C 
ENDBRANCH   7   8
ENDBRANCH   1   7
TORSDOF 2
ENDMDL
