MODEL 1
REMARK minimizedAffinity 7.8161149
REMARK minimizedRMSD -1
REMARK  2 active torsions:
REMARK  status: ('A' for Active; 'I' for Inactive)
REMARK    1  A    between atoms: C1_2  and  C2_3 
REMARK    2  A    between atoms: C2_3  and  C3_4 
ROOT
ATOM      1  C3  UNL d   1       2.279  -0.299  -0.648  0.00  0.00    -0.075 A 
ATOM      2  C4  UNL d   1       3.165   0.771  -0.455  0.00  0.00     0.002 A 
ATOM      3  C5  UNL d   1       2.714   2.088  -0.543  0.00  0.00     0.002 A 
ATOM      4  C6  UNL d   1       1.378   2.353  -0.834  0.00  0.00    -0.004 A 
ATOM      5  C7  UNL d   1       0.492   1.298  -1.044  0.00  0.00     0.002 A 
ATOM      6  C8  UNL d   1       0.940  -0.021  -0.953  0.00  0.00     0.002 A 
ENDROOT
BRANCH   1   7
ATOM      7  C2  UNL d   1       2.754  -1.727  -0.525  0.00  0.00     0.056 C 
BRANCH   7   8
ATOM      8  C1  UNL d   1       2.219  -2.658  -1.618  0.00  0.00     0.007 C 
ATOM      9  C   UNL d   1       1.470  -3.864  -1.066  0.00  0.00     0.009 C 
ENDBRANCH   7   8
ENDBRANCH   1   7
TORSDOF 2
ENDMDL
