MODEL 1
REMARK minimizedAffinity 2.1004405
REMARK minimizedRMSD -1
REMARK  2 active torsions:
REMARK  status: ('A' for Active; 'I' for Inactive)
REMARK    1  A    between atoms: C1_2  and  C2_3 
REMARK    2  A    between atoms: C2_3  and  C3_4 
ROOT
ATOM      1  C3  UNL d   1       0.693   3.830   2.252  0.00  0.00    -0.075 A 
ATOM      2  C4  UNL d   1       1.870   3.241   2.735  0.00  0.00     0.002 A 
ATOM      3  C5  UNL d   1       2.862   4.023   3.327  0.00  0.00     0.002 A 
ATOM      4  C6  UNL d   1       2.695   5.401   3.435  0.00  0.00    -0.004 A 
ATOM      5  C7  UNL d   1       1.537   5.999   2.943  0.00  0.00     0.002 A 
ATOM      6  C8  UNL d   1       0.541   5.219   2.354  0.00  0.00     0.002 A 
ENDROOT
BRANCH   1   7
ATOM      7  C2  UNL d   1      -0.397   2.985   1.636  0.00  0.00     0.056 C 
BRANCH   7   8
ATOM      8  C1  UNL d   1      -0.071   1.489   1.581  0.00  0.00     0.007 C 
ATOM      9  C   UNL d   1       0.302   1.007   0.185  0.00  0.00     0.009 C 
ENDBRANCH   7   8
ENDBRANCH   1   7
TORSDOF 2
ENDMDL
