MODEL 1
REMARK minimizedAffinity -5.27623463
REMARK minimizedRMSD -1
REMARK  2 active torsions:
REMARK  status: ('A' for Active; 'I' for Inactive)
REMARK    1  A    between atoms: C1_2  and  C2_3 
REMARK    2  A    between atoms: C2_3  and  C3_4 
ROOT
ATOM      1  C3  UNL d   1       2.203   4.921   4.515  0.00  0.00    -0.075 A 
ATOM      2  C4  UNL d   1       1.438   5.405   3.443  0.00  0.00     0.002 A 
ATOM      3  C5  UNL d   1       0.045   5.440   3.526  0.00  0.00     0.002 A 
ATOM      4  C6  UNL d   1      -0.599   4.984   4.674  0.00  0.00    -0.004 A 
ATOM      5  C7  UNL d   1       0.150   4.486   5.738  0.00  0.00     0.002 A 
ATOM      6  C8  UNL d   1       1.544   4.454   5.659  0.00  0.00     0.002 A 
ENDROOT
BRANCH   1   7
ATOM      7  C2  UNL d   1       3.711   4.908   4.443  0.00  0.00     0.056 C 
BRANCH   7   8
ATOM      8  C1  UNL d   1       4.315   3.510   4.278  0.00  0.00     0.007 C 
ATOM      9  C   UNL d   1       5.238   3.115   5.423  0.00  0.00     0.009 C 
ENDBRANCH   7   8
ENDBRANCH   1   7
TORSDOF 2
ENDMDL
