MODEL 1
REMARK minimizedAffinity -5.39066076
REMARK minimizedRMSD -1
REMARK  2 active torsions:
REMARK  status: ('A' for Active; 'I' for Inactive)
REMARK    1  A    between atoms: C1_2  and  C2_3 
REMARK    2  A    between atoms: C2_3  and  C3_4 
ROOT
ATOM      1  C3  UNL d   1       2.022   4.691   4.671  0.00  0.00    -0.075 A 
ATOM      2  C4  UNL d   1       1.230   4.705   5.828  0.00  0.00     0.002 A 
ATOM      3  C5  UNL d   1      -0.068   5.214   5.792  0.00  0.00     0.002 A 
ATOM      4  C6  UNL d   1      -0.587   5.724   4.604  0.00  0.00    -0.004 A 
ATOM      5  C7  UNL d   1       0.197   5.730   3.452  0.00  0.00     0.002 A 
ATOM      6  C8  UNL d   1       1.495   5.218   3.484  0.00  0.00     0.002 A 
ENDROOT
BRANCH   1   7
ATOM      7  C2  UNL d   1       3.418   4.115   4.697  0.00  0.00     0.056 C 
BRANCH   7   8
ATOM      8  C1  UNL d   1       3.462   2.585   4.629  0.00  0.00     0.007 C 
ATOM      9  C   UNL d   1       3.554   1.925   5.998  0.00  0.00     0.009 C 
ENDBRANCH   7   8
ENDBRANCH   1   7
TORSDOF 2
ENDMDL
