MODEL 1
REMARK minimizedAffinity 2.00836873
REMARK minimizedRMSD -1
REMARK  2 active torsions:
REMARK  status: ('A' for Active; 'I' for Inactive)
REMARK    1  A    between atoms: C1_2  and  C2_3 
REMARK    2  A    between atoms: C2_3  and  C3_4 
ROOT
ATOM      1  C3  UNL d   1       2.790  -0.550  -0.131  0.00  0.00    -0.075 A 
ATOM      2  C4  UNL d   1       2.149   0.690   0.005  0.00  0.00     0.002 A 
ATOM      3  C5  UNL d   1       2.819   1.873  -0.310  0.00  0.00     0.002 A 
ATOM      4  C6  UNL d   1       4.139   1.832  -0.754  0.00  0.00    -0.004 A 
ATOM      5  C7  UNL d   1       4.791   0.607  -0.877  0.00  0.00     0.002 A 
ATOM      6  C8  UNL d   1       4.122  -0.578  -0.567  0.00  0.00     0.002 A 
ENDROOT
BRANCH   1   7
ATOM      7  C2  UNL d   1       2.061  -1.835   0.180  0.00  0.00     0.056 C 
BRANCH   7   8
ATOM      8  C1  UNL d   1       1.684  -2.654  -1.059  0.00  0.00     0.007 C 
ATOM      9  C   UNL d   1       0.569  -2.022  -1.881  0.00  0.00     0.009 C 
ENDBRANCH   7   8
ENDBRANCH   1   7
TORSDOF 2
ENDMDL
