MODEL 1
REMARK minimizedAffinity 7.51239872
REMARK minimizedRMSD -1
REMARK  2 active torsions:
REMARK  status: ('A' for Active; 'I' for Inactive)
REMARK    1  A    between atoms: C1_2  and  C2_3 
REMARK    2  A    between atoms: C2_3  and  C3_4 
ROOT
ATOM      1  C3  UNL d   1       3.318   1.054  -0.321  0.00  0.00    -0.075 A 
ATOM      2  C4  UNL d   1       4.227   1.217   0.735  0.00  0.00     0.002 A 
ATOM      3  C5  UNL d   1       5.559   1.546   0.479  0.00  0.00     0.002 A 
ATOM      4  C6  UNL d   1       6.000   1.707  -0.833  0.00  0.00    -0.004 A 
ATOM      5  C7  UNL d   1       5.109   1.531  -1.890  0.00  0.00     0.002 A 
ATOM      6  C8  UNL d   1       3.776   1.206  -1.637  0.00  0.00     0.002 A 
ENDROOT
BRANCH   1   7
ATOM      7  C2  UNL d   1       1.869   0.727  -0.049  0.00  0.00     0.056 C 
BRANCH   7   8
ATOM      8  C1  UNL d   1       0.892   1.832  -0.465  0.00  0.00     0.007 C 
ATOM      9  C   UNL d   1      -0.308   1.310  -1.244  0.00  0.00     0.009 C 
ENDBRANCH   7   8
ENDBRANCH   1   7
TORSDOF 2
ENDMDL
