MODEL 1
REMARK minimizedAffinity 2.67539358
REMARK minimizedRMSD -1
REMARK  2 active torsions:
REMARK  status: ('A' for Active; 'I' for Inactive)
REMARK    1  A    between atoms: C1_2  and  C2_3 
REMARK    2  A    between atoms: C2_3  and  C3_4 
ROOT
ATOM      1  C3  UNL d   1       2.205  -1.337   0.371  0.00  0.00    -0.075 A 
ATOM      2  C4  UNL d   1       3.516  -1.093  -0.063  0.00  0.00     0.002 A 
ATOM      3  C5  UNL d   1       3.950   0.210  -0.310  0.00  0.00     0.002 A 
ATOM      4  C6  UNL d   1       3.078   1.282  -0.136  0.00  0.00    -0.004 A 
ATOM      5  C7  UNL d   1       1.768   1.050   0.278  0.00  0.00     0.002 A 
ATOM      6  C8  UNL d   1       1.333  -0.252   0.530  0.00  0.00     0.002 A 
ENDROOT
BRANCH   1   7
ATOM      7  C2  UNL d   1       1.739  -2.742   0.668  0.00  0.00     0.056 C 
BRANCH   7   8
ATOM      8  C1  UNL d   1       1.255  -3.513  -0.566  0.00  0.00     0.007 C 
ATOM      9  C   UNL d   1       0.143  -4.505  -0.256  0.00  0.00     0.009 C 
ENDBRANCH   7   8
ENDBRANCH   1   7
TORSDOF 2
ENDMDL
