MODEL 1
REMARK minimizedAffinity 4.37140703
REMARK minimizedRMSD -1
REMARK  2 active torsions:
REMARK  status: ('A' for Active; 'I' for Inactive)
REMARK    1  A    between atoms: C1_2  and  C2_3 
REMARK    2  A    between atoms: C2_3  and  C3_4 
ROOT
ATOM      1  C3  UNL d   1      -1.162  -1.224   0.955  0.00  0.00    -0.075 A 
ATOM      2  C4  UNL d   1      -0.463  -0.483   1.919  0.00  0.00     0.002 A 
ATOM      3  C5  UNL d   1       0.878  -0.152   1.722  0.00  0.00     0.002 A 
ATOM      4  C6  UNL d   1       1.538  -0.564   0.567  0.00  0.00    -0.004 A 
ATOM      5  C7  UNL d   1       0.858  -1.315  -0.389  0.00  0.00     0.002 A 
ATOM      6  C8  UNL d   1      -0.485  -1.644  -0.197  0.00  0.00     0.002 A 
ENDROOT
BRANCH   1   7
ATOM      7  C2  UNL d   1      -2.622  -1.560   1.148  0.00  0.00     0.056 C 
BRANCH   7   8
ATOM      8  C1  UNL d   1      -3.545  -0.338   1.177  0.00  0.00     0.007 C 
ATOM      9  C   UNL d   1      -4.552  -0.320   0.035  0.00  0.00     0.009 C 
ENDBRANCH   7   8
ENDBRANCH   1   7
TORSDOF 2
ENDMDL
