MODEL 1
REMARK minimizedAffinity 8.87506199
REMARK minimizedRMSD -1
REMARK  0 active torsions:
REMARK  status: ('A' for Active; 'I' for Inactive)
ROOT
ATOM      1  C   UNL d   1       0.296   0.335   1.567  0.00  0.00     0.172 C 
ATOM      2  N   UNL d   1       1.232   0.663   0.517  0.00  0.00    -0.070 N 
ATOM      3  C1  UNL d   1       1.073   1.656  -0.412  0.00  0.00    -0.004 A 
ATOM      4  C2  UNL d   1       2.179   1.647  -1.234  0.00  0.00    -0.047 A 
ATOM      5  C3  UNL d   1       3.032   0.611  -0.784  0.00  0.00    -0.047 A 
ATOM      6  C4  UNL d   1       2.421   0.018   0.301  0.00  0.00    -0.004 A 
ENDROOT
TORSDOF 0
ENDMDL
