MODEL 1
REMARK minimizedAffinity 0.142275155
REMARK minimizedRMSD -1
REMARK  0 active torsions:
REMARK  status: ('A' for Active; 'I' for Inactive)
ROOT
ATOM      1  C   UNL d   1       2.584   5.886  -5.422  0.00  0.00     0.172 C 
ATOM      2  N   UNL d   1       3.872   5.267  -5.213  0.00  0.00    -0.070 N 
ATOM      3  C1  UNL d   1       4.979   5.443  -6.000  0.00  0.00    -0.004 A 
ATOM      4  C2  UNL d   1       5.999   4.685  -5.468  0.00  0.00    -0.047 A 
ATOM      5  C3  UNL d   1       5.487   4.029  -4.323  0.00  0.00    -0.047 A 
ATOM      6  C4  UNL d   1       4.168   4.408  -4.189  0.00  0.00    -0.004 A 
ENDROOT
TORSDOF 0
ENDMDL
