MODEL 1
REMARK minimizedAffinity 7.58224154
REMARK minimizedRMSD -1
REMARK  0 active torsions:
REMARK  status: ('A' for Active; 'I' for Inactive)
ROOT
ATOM      1  C   UNL d   1       5.720   2.406   4.332  0.00  0.00     0.172 C 
ATOM      2  N   UNL d   1       5.522   3.775   4.749  0.00  0.00    -0.070 N 
ATOM      3  C1  UNL d   1       4.971   4.176   5.936  0.00  0.00    -0.004 A 
ATOM      4  C2  UNL d   1       4.960   5.554   5.952  0.00  0.00    -0.047 A 
ATOM      5  C3  UNL d   1       5.523   5.996   4.731  0.00  0.00    -0.047 A 
ATOM      6  C4  UNL d   1       5.862   4.874   4.005  0.00  0.00    -0.004 A 
ENDROOT
TORSDOF 0
ENDMDL
