MODEL 1
REMARK minimizedAffinity 6.45056105
REMARK minimizedRMSD -1
REMARK  0 active torsions:
REMARK  status: ('A' for Active; 'I' for Inactive)
ROOT
ATOM      1  C   UNL d   1       3.528  -0.087  -0.049  0.00  0.00     0.172 C 
ATOM      2  N   UNL d   1       2.291   0.468   0.448  0.00  0.00    -0.070 N 
ATOM      3  C1  UNL d   1       1.672   0.118   1.618  0.00  0.00    -0.004 A 
ATOM      4  C2  UNL d   1       0.524   0.872   1.730  0.00  0.00    -0.047 A 
ATOM      5  C3  UNL d   1       0.450   1.704   0.588  0.00  0.00    -0.047 A 
ATOM      6  C4  UNL d   1       1.557   1.433  -0.189  0.00  0.00    -0.004 A 
ENDROOT
TORSDOF 0
ENDMDL
