MODEL 1
REMARK minimizedAffinity 0.863567591
REMARK minimizedRMSD -1
REMARK  0 active torsions:
REMARK  status: ('A' for Active; 'I' for Inactive)
ROOT
ATOM      1  C   UNL d   1       0.071  -0.795   0.272  0.00  0.00     0.172 C 
ATOM      2  N   UNL d   1       0.592   0.551   0.215  0.00  0.00    -0.070 N 
ATOM      3  C1  UNL d   1       0.546   1.469   1.230  0.00  0.00    -0.004 A 
ATOM      4  C2  UNL d   1       1.146   2.625   0.781  0.00  0.00    -0.047 A 
ATOM      5  C3  UNL d   1       1.567   2.394  -0.550  0.00  0.00    -0.047 A 
ATOM      6  C4  UNL d   1       1.212   1.103  -0.875  0.00  0.00    -0.004 A 
ENDROOT
TORSDOF 0
ENDMDL
