MODEL 1
REMARK minimizedAffinity -0.664729476
REMARK minimizedRMSD -1
REMARK  0 active torsions:
REMARK  status: ('A' for Active; 'I' for Inactive)
ROOT
ATOM      1  C   UNL d   1       0.747  -0.074   0.395  0.00  0.00     0.172 C 
ATOM      2  N   UNL d   1      -0.267  -1.003   0.835  0.00  0.00    -0.070 N 
ATOM      3  C1  UNL d   1      -0.470  -2.261   0.333  0.00  0.00    -0.004 A 
ATOM      4  C2  UNL d   1      -1.527  -2.823   1.016  0.00  0.00    -0.047 A 
ATOM      5  C3  UNL d   1      -1.976  -1.870   1.961  0.00  0.00    -0.047 A 
ATOM      6  C4  UNL d   1      -1.179  -0.753   1.827  0.00  0.00    -0.004 A 
ENDROOT
TORSDOF 0
ENDMDL
