MODEL 1
REMARK minimizedAffinity 2.45827484
REMARK minimizedRMSD -1
REMARK  0 active torsions:
REMARK  status: ('A' for Active; 'I' for Inactive)
ROOT
ATOM      1  C   UNL d   1      -0.833   5.475  -3.873  0.00  0.00     0.172 C 
ATOM      2  N   UNL d   1      -1.509   4.467  -3.090  0.00  0.00    -0.070 N 
ATOM      3  C1  UNL d   1      -2.208   3.402  -3.593  0.00  0.00    -0.004 A 
ATOM      4  C2  UNL d   1      -2.698   2.679  -2.528  0.00  0.00    -0.047 A 
ATOM      5  C3  UNL d   1      -2.282   3.332  -1.344  0.00  0.00    -0.047 A 
ATOM      6  C4  UNL d   1      -1.547   4.437  -1.721  0.00  0.00    -0.004 A 
ENDROOT
TORSDOF 0
ENDMDL
