MODEL 1
REMARK minimizedAffinity -1.69104433
REMARK minimizedRMSD -1
REMARK  0 active torsions:
REMARK  status: ('A' for Active; 'I' for Inactive)
ROOT
ATOM      1  C   UNL d   1      -1.157  -0.382   1.039  0.00  0.00     0.172 C 
ATOM      2  N   UNL d   1      -0.156   0.554   0.583  0.00  0.00    -0.070 N 
ATOM      3  C1  UNL d   1       0.451   1.512   1.351  0.00  0.00    -0.004 A 
ATOM      4  C2  UNL d   1       1.340   2.194   0.549  0.00  0.00    -0.047 A 
ATOM      5  C3  UNL d   1       1.265   1.627  -0.745  0.00  0.00    -0.047 A 
ATOM      6  C4  UNL d   1       0.331   0.614  -0.696  0.00  0.00    -0.004 A 
ENDROOT
TORSDOF 0
ENDMDL
