MODEL 1
REMARK minimizedAffinity -0.32895261
REMARK minimizedRMSD -1
REMARK  0 active torsions:
REMARK  status: ('A' for Active; 'I' for Inactive)
ROOT
ATOM      1  C   UNL d   1      -5.498   5.980  -5.092  0.00  0.00     0.172 C 
ATOM      2  N   UNL d   1      -4.382   5.986  -4.176  0.00  0.00    -0.070 N 
ATOM      3  C1  UNL d   1      -3.059   5.987  -4.531  0.00  0.00    -0.004 A 
ATOM      4  C2  UNL d   1      -2.312   5.993  -3.372  0.00  0.00    -0.047 A 
ATOM      5  C3  UNL d   1      -3.217   5.996  -2.285  0.00  0.00    -0.047 A 
ATOM      6  C4  UNL d   1      -4.491   5.991  -2.811  0.00  0.00    -0.004 A 
ENDROOT
TORSDOF 0
ENDMDL
