MODEL 1
REMARK minimizedAffinity 2.86234236
REMARK minimizedRMSD -1
REMARK  0 active torsions:
REMARK  status: ('A' for Active; 'I' for Inactive)
ROOT
ATOM      1  C   UNL d   1       3.493   5.528  -5.796  0.00  0.00     0.172 C 
ATOM      2  N   UNL d   1       2.169   5.602  -5.223  0.00  0.00    -0.070 N 
ATOM      3  C1  UNL d   1       1.003   5.288  -5.868  0.00  0.00    -0.004 A 
ATOM      4  C2  UNL d   1      -0.035   5.489  -4.983  0.00  0.00    -0.047 A 
ATOM      5  C3  UNL d   1       0.528   5.939  -3.765  0.00  0.00    -0.047 A 
ATOM      6  C4  UNL d   1       1.894   6.000  -3.942  0.00  0.00    -0.004 A 
ENDROOT
TORSDOF 0
ENDMDL
