MODEL 1
REMARK minimizedAffinity 2.8292563
REMARK minimizedRMSD -1
REMARK  0 active torsions:
REMARK  status: ('A' for Active; 'I' for Inactive)
ROOT
ATOM      1  C   UNL d   1       0.274   0.656   1.522  0.00  0.00     0.172 C 
ATOM      2  N   UNL d   1       0.841   1.751   0.770  0.00  0.00    -0.070 N 
ATOM      3  C1  UNL d   1       1.732   1.634  -0.263  0.00  0.00    -0.004 A 
ATOM      4  C2  UNL d   1       2.027   2.903  -0.712  0.00  0.00    -0.047 A 
ATOM      5  C3  UNL d   1       1.288   3.815   0.079  0.00  0.00    -0.047 A 
ATOM      6  C4  UNL d   1       0.562   3.075   0.988  0.00  0.00    -0.004 A 
ENDROOT
TORSDOF 0
ENDMDL
