MODEL 1
REMARK minimizedAffinity 2.51225996
REMARK minimizedRMSD -1
REMARK  0 active torsions:
REMARK  status: ('A' for Active; 'I' for Inactive)
ROOT
ATOM      1  C   UNL d   1       3.402   5.966  -5.928  0.00  0.00     0.172 C 
ATOM      2  N   UNL d   1       2.110   5.964  -5.284  0.00  0.00    -0.070 N 
ATOM      3  C1  UNL d   1       0.899   5.936  -5.924  0.00  0.00    -0.004 A 
ATOM      4  C2  UNL d   1      -0.087   5.943  -4.962  0.00  0.00    -0.047 A 
ATOM      5  C3  UNL d   1       0.552   5.979  -3.700  0.00  0.00    -0.047 A 
ATOM      6  C4  UNL d   1       1.912   5.991  -3.929  0.00  0.00    -0.004 A 
ENDROOT
TORSDOF 0
ENDMDL
