MODEL 1
REMARK minimizedAffinity 2.61786962
REMARK minimizedRMSD -1
REMARK  0 active torsions:
REMARK  status: ('A' for Active; 'I' for Inactive)
ROOT
ATOM      1  C   UNL d   1       0.049  -0.151  -0.278  0.00  0.00     0.172 C 
ATOM      2  N   UNL d   1      -0.496  -0.209  -1.614  0.00  0.00    -0.070 N 
ATOM      3  C1  UNL d   1       0.232  -0.203  -2.774  0.00  0.00    -0.004 A 
ATOM      4  C2  UNL d   1      -0.653  -0.271  -3.828  0.00  0.00    -0.047 A 
ATOM      5  C3  UNL d   1      -1.958  -0.320  -3.283  0.00  0.00    -0.047 A 
ATOM      6  C4  UNL d   1      -1.832  -0.280  -1.910  0.00  0.00    -0.004 A 
ENDROOT
TORSDOF 0
ENDMDL
