MODEL 1
REMARK minimizedAffinity 2.16594791
REMARK minimizedRMSD -1
REMARK  0 active torsions:
REMARK  status: ('A' for Active; 'I' for Inactive)
ROOT
ATOM      1  C   UNL d   1       1.483   0.291  -0.236  0.00  0.00     0.172 C 
ATOM      2  N   UNL d   1       0.669   0.745   0.867  0.00  0.00    -0.070 N 
ATOM      3  C1  UNL d   1      -0.619   0.354   1.122  0.00  0.00    -0.004 A 
ATOM      4  C2  UNL d   1      -1.041   1.008   2.259  0.00  0.00    -0.047 A 
ATOM      5  C3  UNL d   1       0.030   1.822   2.702  0.00  0.00    -0.047 A 
ATOM      6  C4  UNL d   1       1.075   1.639   1.821  0.00  0.00    -0.004 A 
ENDROOT
TORSDOF 0
ENDMDL
