MODEL 1
REMARK minimizedAffinity 0.655529857
REMARK minimizedRMSD -1
REMARK  0 active torsions:
REMARK  status: ('A' for Active; 'I' for Inactive)
ROOT
ATOM      1  C   UNL d   1       0.845   1.511   3.595  0.00  0.00     0.172 C 
ATOM      2  N   UNL d   1       0.692   1.115   2.215  0.00  0.00    -0.070 N 
ATOM      3  C1  UNL d   1       1.540   1.444   1.191  0.00  0.00    -0.004 A 
ATOM      4  C2  UNL d   1       1.048   0.876   0.036  0.00  0.00    -0.047 A 
ATOM      5  C3  UNL d   1      -0.138   0.183   0.377  0.00  0.00    -0.047 A 
ATOM      6  C4  UNL d   1      -0.335   0.347   1.732  0.00  0.00    -0.004 A 
ENDROOT
TORSDOF 0
ENDMDL
