MODEL 1
REMARK minimizedAffinity -6.5561986
REMARK minimizedRMSD -1
REMARK  1 active torsions:
REMARK  status: ('A' for Active; 'I' for Inactive)
REMARK    1  A    between atoms: C1_2  and  C2_3 
ROOT
ATOM      1  C2  UNL d   1      -0.842   1.833   0.272  0.00  0.00    -0.073 A 
ATOM      2  C3  UNL d   1      -0.700   1.933   1.661  0.00  0.00    -0.002 A 
ATOM      3  C4  UNL d   1      -0.157   0.876   2.392  0.00  0.00     0.004 A 
ATOM      4  C5  UNL d   1       0.256  -0.287   1.743  0.00  0.00    -0.004 A 
ATOM      5  C6  UNL d   1       0.133  -0.402   0.355  0.00  0.00    -0.075 A 
ATOM      6  C7  UNL d   1       0.570  -1.648  -0.358  0.00  0.00     0.076 C 
ATOM      7  C8  UNL d   1      -0.416   0.663  -0.372  0.00  0.00     0.001 A 
ENDROOT
BRANCH   1   8
ATOM      8  C1  UNL d   1      -1.423   2.974  -0.522  0.00  0.00     0.053 C 
ATOM      9  C   UNL d   1      -1.667   4.203   0.340  0.00  0.00     0.018 C 
ENDBRANCH   1   8
TORSDOF 1
ENDMDL
