MODEL 1
REMARK minimizedAffinity -4.60689878
REMARK minimizedRMSD -1
REMARK  1 active torsions:
REMARK  status: ('A' for Active; 'I' for Inactive)
REMARK    1  A    between atoms: C1_2  and  C2_3 
ROOT
ATOM      1  C2  UNL d   1      -0.230   0.846   0.769  0.00  0.00    -0.073 A 
ATOM      2  C3  UNL d   1      -0.428   1.625   1.915  0.00  0.00    -0.002 A 
ATOM      3  C4  UNL d   1      -1.040   2.876   1.820  0.00  0.00     0.004 A 
ATOM      4  C5  UNL d   1      -1.465   3.357   0.582  0.00  0.00    -0.004 A 
ATOM      5  C6  UNL d   1      -1.287   2.588  -0.573  0.00  0.00    -0.075 A 
ATOM      6  C7  UNL d   1      -1.737   3.093  -1.912  0.00  0.00     0.076 C 
ATOM      7  C8  UNL d   1      -0.670   1.335  -0.470  0.00  0.00     0.001 A 
ENDROOT
BRANCH   1   8
ATOM      8  C1  UNL d   1       0.424  -0.508   0.867  0.00  0.00     0.053 C 
ATOM      9  C   UNL d   1       0.540  -1.185  -0.489  0.00  0.00     0.018 C 
ENDBRANCH   1   8
TORSDOF 1
ENDMDL
