MODEL 1
REMARK minimizedAffinity -6.36731386
REMARK minimizedRMSD -1
REMARK  1 active torsions:
REMARK  status: ('A' for Active; 'I' for Inactive)
REMARK    1  A    between atoms: C1_2  and  C2_3 
ROOT
ATOM      1  C2  UNL d   1      -0.483   2.550   0.219  0.00  0.00    -0.073 A 
ATOM      2  C3  UNL d   1      -0.201   2.568   1.590  0.00  0.00    -0.002 A 
ATOM      3  C4  UNL d   1       0.252   1.415   2.232  0.00  0.00     0.004 A 
ATOM      4  C5  UNL d   1       0.435   0.236   1.511  0.00  0.00    -0.004 A 
ATOM      5  C6  UNL d   1       0.170   0.200   0.138  0.00  0.00    -0.075 A 
ATOM      6  C7  UNL d   1       0.359  -1.062  -0.652  0.00  0.00     0.076 C 
ATOM      7  C8  UNL d   1      -0.287   1.361  -0.499  0.00  0.00     0.001 A 
ENDROOT
BRANCH   1   8
ATOM      8  C1  UNL d   1      -0.966   3.794  -0.480  0.00  0.00     0.053 C 
ATOM      9  C   UNL d   1      -0.033   4.215  -1.604  0.00  0.00     0.018 C 
ENDBRANCH   1   8
TORSDOF 1
ENDMDL
