MODEL 1
REMARK minimizedAffinity -2.35830426
REMARK minimizedRMSD -1
REMARK  1 active torsions:
REMARK  status: ('A' for Active; 'I' for Inactive)
REMARK    1  A    between atoms: C1_2  and  C2_3 
ROOT
ATOM      1  C2  UNL d   1      -1.289   1.874   0.551  0.00  0.00    -0.073 A 
ATOM      2  C3  UNL d   1      -0.451   2.967   0.792  0.00  0.00    -0.002 A 
ATOM      3  C4  UNL d   1       0.557   2.885   1.754  0.00  0.00     0.004 A 
ATOM      4  C5  UNL d   1       0.740   1.707   2.478  0.00  0.00    -0.004 A 
ATOM      5  C6  UNL d   1      -0.080   0.599   2.243  0.00  0.00    -0.075 A 
ATOM      6  C7  UNL d   1       0.103  -0.674   3.016  0.00  0.00     0.076 C 
ATOM      7  C8  UNL d   1      -1.091   0.691   1.278  0.00  0.00     0.001 A 
ENDROOT
BRANCH   1   8
ATOM      8  C1  UNL d   1      -2.374   1.956  -0.492  0.00  0.00     0.053 C 
ATOM      9  C   UNL d   1      -3.728   1.536   0.060  0.00  0.00     0.018 C 
ENDBRANCH   1   8
TORSDOF 1
ENDMDL
