MODEL 1
REMARK minimizedAffinity 5.54230928
REMARK minimizedRMSD -1
REMARK  1 active torsions:
REMARK  status: ('A' for Active; 'I' for Inactive)
REMARK    1  A    between atoms: C1_2  and  C2_3 
ROOT
ATOM      1  C2  UNL d   1       1.421  -3.066   0.716  0.00  0.00    -0.073 A 
ATOM      2  C3  UNL d   1       1.130  -1.704   0.855  0.00  0.00    -0.002 A 
ATOM      3  C4  UNL d   1       1.350  -1.058   2.072  0.00  0.00     0.004 A 
ATOM      4  C5  UNL d   1       1.869  -1.763   3.158  0.00  0.00    -0.004 A 
ATOM      5  C6  UNL d   1       2.177  -3.121   3.035  0.00  0.00    -0.075 A 
ATOM      6  C7  UNL d   1       2.734  -3.895   4.194  0.00  0.00     0.076 C 
ATOM      7  C8  UNL d   1       1.951  -3.764   1.810  0.00  0.00     0.001 A 
ENDROOT
BRANCH   1   8
ATOM      8  C1  UNL d   1       1.191  -3.767  -0.598  0.00  0.00     0.053 C 
ATOM      9  C   UNL d   1       1.893  -3.064  -1.750  0.00  0.00     0.018 C 
ENDBRANCH   1   8
TORSDOF 1
ENDMDL
