MODEL 1
REMARK minimizedAffinity 10.7747278
REMARK minimizedRMSD -1
REMARK  1 active torsions:
REMARK  status: ('A' for Active; 'I' for Inactive)
REMARK    1  A    between atoms: C1_2  and  C2_3 
ROOT
ATOM      1  C2  UNL d   1       0.797  -2.783   0.538  0.00  0.00    -0.073 A 
ATOM      2  C3  UNL d   1       0.928  -3.363   1.805  0.00  0.00    -0.002 A 
ATOM      3  C4  UNL d   1       1.236  -2.573   2.913  0.00  0.00     0.004 A 
ATOM      4  C5  UNL d   1       1.410  -1.197   2.767  0.00  0.00    -0.004 A 
ATOM      5  C6  UNL d   1       1.272  -0.597   1.511  0.00  0.00    -0.075 A 
ATOM      6  C7  UNL d   1       1.458   0.882   1.338  0.00  0.00     0.076 C 
ATOM      7  C8  UNL d   1       0.965  -1.398   0.403  0.00  0.00     0.001 A 
ENDROOT
BRANCH   1   8
ATOM      8  C1  UNL d   1       0.458  -3.631  -0.661  0.00  0.00     0.053 C 
ATOM      9  C   UNL d   1       0.969  -3.019  -1.955  0.00  0.00     0.018 C 
ENDBRANCH   1   8
TORSDOF 1
ENDMDL
