MODEL 1
REMARK minimizedAffinity 3.42645884
REMARK minimizedRMSD -1
REMARK  0 active torsions:
REMARK  status: ('A' for Active; 'I' for Inactive)
ROOT
ATOM      1  C   UNL d   1       5.994   5.194  -2.176  0.00  0.00     0.020 A 
ATOM      2  C1  UNL d   1       4.857   5.756  -1.598  0.00  0.00     0.020 A 
ATOM      3  C2  UNL d   1       3.723   5.996  -2.378  0.00  0.00     0.034 A 
ATOM      4  C3  UNL d   1       3.725   5.674  -3.740  0.00  0.00     0.017 A 
ATOM      5  C4  UNL d   1       4.867   5.109  -4.319  0.00  0.00     0.017 A 
ATOM      6  C5  UNL d   1       6.000   4.871  -3.534  0.00  0.00     0.034 A 
ATOM      7 Cl   UNL d   1       4.945   4.685  -5.993  0.00  0.00    -0.070 Cl
ATOM      8 Cl1  UNL d   1       2.288   5.997  -4.644  0.00  0.00    -0.070 Cl
ENDROOT
TORSDOF 0
ENDMDL
