MODEL 1
REMARK minimizedAffinity 2.51716208
REMARK minimizedRMSD -1
REMARK  0 active torsions:
REMARK  status: ('A' for Active; 'I' for Inactive)
ROOT
ATOM      1  C   UNL d   1       6.000   3.938  -4.880  0.00  0.00     0.020 A 
ATOM      2  C1  UNL d   1       4.915   4.070  -5.745  0.00  0.00     0.020 A 
ATOM      3  C2  UNL d   1       3.751   4.709  -5.313  0.00  0.00     0.034 A 
ATOM      4  C3  UNL d   1       3.669   5.218  -4.012  0.00  0.00     0.017 A 
ATOM      5  C4  UNL d   1       4.759   5.085  -3.144  0.00  0.00     0.017 A 
ATOM      6  C5  UNL d   1       5.922   4.445  -3.582  0.00  0.00     0.034 A 
ATOM      7 Cl   UNL d   1       4.733   5.688  -1.525  0.00  0.00    -0.070 Cl
ATOM      8 Cl1  UNL d   1       2.199   5.997  -3.545  0.00  0.00    -0.070 Cl
ENDROOT
TORSDOF 0
ENDMDL
