MODEL 1
REMARK minimizedAffinity 1.40077281
REMARK minimizedRMSD -1
REMARK  0 active torsions:
REMARK  status: ('A' for Active; 'I' for Inactive)
ROOT
ATOM      1  C   UNL d   1      -1.825  -2.266  -0.031  0.00  0.00     0.020 A 
ATOM      2  C1  UNL d   1      -2.880  -2.142  -0.934  0.00  0.00     0.020 A 
ATOM      3  C2  UNL d   1      -2.624  -2.092  -2.306  0.00  0.00     0.034 A 
ATOM      4  C3  UNL d   1      -1.309  -2.167  -2.779  0.00  0.00     0.017 A 
ATOM      5  C4  UNL d   1      -0.250  -2.292  -1.872  0.00  0.00     0.017 A 
ATOM      6  C5  UNL d   1      -0.513  -2.341  -0.500  0.00  0.00     0.034 A 
ATOM      7 Cl   UNL d   1       1.399  -2.390  -2.381  0.00  0.00    -0.070 Cl
ATOM      8 Cl1  UNL d   1      -1.065  -2.100  -4.488  0.00  0.00    -0.070 Cl
ENDROOT
TORSDOF 0
ENDMDL
