MODEL 1
REMARK minimizedAffinity 24.1818886
REMARK minimizedRMSD -1
REMARK  0 active torsions:
REMARK  status: ('A' for Active; 'I' for Inactive)
ROOT
ATOM      1  C   UNL d   1      -0.433  -2.105  -4.079  0.00  0.00     0.020 A 
ATOM      2  C1  UNL d   1      -1.808  -2.269  -3.911  0.00  0.00     0.020 A 
ATOM      3  C2  UNL d   1      -2.361  -2.256  -2.629  0.00  0.00     0.034 A 
ATOM      4  C3  UNL d   1      -1.540  -2.079  -1.510  0.00  0.00     0.017 A 
ATOM      5  C4  UNL d   1      -0.160  -1.914  -1.679  0.00  0.00     0.017 A 
ATOM      6  C5  UNL d   1       0.389  -1.928  -2.965  0.00  0.00     0.034 A 
ATOM      7 Cl   UNL d   1       0.917  -1.690  -0.346  0.00  0.00    -0.070 Cl
ATOM      8 Cl1  UNL d   1      -2.292  -2.072   0.046  0.00  0.00    -0.070 Cl
ENDROOT
TORSDOF 0
ENDMDL
