MODEL 1
REMARK minimizedAffinity 7.90459633
REMARK minimizedRMSD -1
REMARK  0 active torsions:
REMARK  status: ('A' for Active; 'I' for Inactive)
ROOT
ATOM      1  C   UNL d   1       5.954   4.850  -1.112  0.00  0.00     0.020 A 
ATOM      2  C1  UNL d   1       5.326   5.999  -1.590  0.00  0.00     0.020 A 
ATOM      3  C2  UNL d   1       4.742   6.000  -2.859  0.00  0.00     0.034 A 
ATOM      4  C3  UNL d   1       4.786   4.849  -3.654  0.00  0.00     0.017 A 
ATOM      5  C4  UNL d   1       5.417   3.696  -3.173  0.00  0.00     0.017 A 
ATOM      6  C5  UNL d   1       5.999   3.701  -1.902  0.00  0.00     0.034 A 
ATOM      7 Cl   UNL d   1       5.511   2.238  -4.096  0.00  0.00    -0.070 Cl
ATOM      8 Cl1  UNL d   1       4.044   4.921  -5.213  0.00  0.00    -0.070 Cl
ENDROOT
TORSDOF 0
ENDMDL
