MODEL 1
REMARK minimizedAffinity 8.80637932
REMARK minimizedRMSD -1
REMARK  0 active torsions:
REMARK  status: ('A' for Active; 'I' for Inactive)
ROOT
ATOM      1  C   UNL d   1       0.256  -2.122  -0.384  0.00  0.00     0.020 A 
ATOM      2  C1  UNL d   1      -1.011  -1.766  -0.844  0.00  0.00     0.020 A 
ATOM      3  C2  UNL d   1      -1.220  -1.530  -2.204  0.00  0.00     0.034 A 
ATOM      4  C3  UNL d   1      -0.159  -1.650  -3.110  0.00  0.00     0.017 A 
ATOM      5  C4  UNL d   1       1.112  -2.007  -2.648  0.00  0.00     0.017 A 
ATOM      6  C5  UNL d   1       1.316  -2.243  -1.285  0.00  0.00     0.034 A 
ATOM      7 Cl   UNL d   1       2.469  -2.175  -3.705  0.00  0.00    -0.070 Cl
ATOM      8 Cl1  UNL d   1      -0.489  -1.343  -4.778  0.00  0.00    -0.070 Cl
ENDROOT
TORSDOF 0
ENDMDL
