MODEL 1
REMARK minimizedAffinity 12.0030355
REMARK minimizedRMSD -1
REMARK  0 active torsions:
REMARK  status: ('A' for Active; 'I' for Inactive)
ROOT
ATOM      1  C   UNL d   1       0.959  -2.152  -2.993  0.00  0.00     0.020 A 
ATOM      2  C1  UNL d   1      -0.215  -1.406  -3.087  0.00  0.00     0.020 A 
ATOM      3  C2  UNL d   1      -1.093  -1.349  -2.002  0.00  0.00     0.034 A 
ATOM      4  C3  UNL d   1      -0.799  -2.038  -0.820  0.00  0.00     0.017 A 
ATOM      5  C4  UNL d   1       0.381  -2.786  -0.728  0.00  0.00     0.017 A 
ATOM      6  C5  UNL d   1       1.257  -2.840  -1.817  0.00  0.00     0.034 A 
ATOM      7 Cl   UNL d   1       0.812  -3.663   0.697  0.00  0.00    -0.070 Cl
ATOM      8 Cl1  UNL d   1      -1.930  -1.922   0.481  0.00  0.00    -0.070 Cl
ENDROOT
TORSDOF 0
ENDMDL
