MODEL 1
REMARK minimizedAffinity 19.1706448
REMARK minimizedRMSD -1
REMARK  0 active torsions:
REMARK  status: ('A' for Active; 'I' for Inactive)
ROOT
ATOM      1  C   UNL d   1      -1.089  -1.988  -0.747  0.00  0.00     0.020 A 
ATOM      2  C1  UNL d   1       0.166  -2.246  -0.197  0.00  0.00     0.020 A 
ATOM      3  C2  UNL d   1       1.295  -2.277  -1.019  0.00  0.00     0.034 A 
ATOM      4  C3  UNL d   1       1.171  -2.051  -2.394  0.00  0.00     0.017 A 
ATOM      5  C4  UNL d   1      -0.089  -1.793  -2.945  0.00  0.00     0.017 A 
ATOM      6  C5  UNL d   1      -1.216  -1.762  -2.118  0.00  0.00     0.034 A 
ATOM      7 Cl   UNL d   1      -0.322  -1.504  -4.633  0.00  0.00    -0.070 Cl
ATOM      8 Cl1  UNL d   1       2.609  -2.105  -3.350  0.00  0.00    -0.070 Cl
ENDROOT
TORSDOF 0
ENDMDL
