MODEL 1
REMARK minimizedAffinity 18.299633
REMARK minimizedRMSD -1
REMARK  0 active torsions:
REMARK  status: ('A' for Active; 'I' for Inactive)
ROOT
ATOM      1  C   UNL d   1      -0.487  -2.095  -3.427  0.00  0.00     0.020 A 
ATOM      2  C1  UNL d   1       0.571  -2.938  -3.090  0.00  0.00     0.020 A 
ATOM      3  C2  UNL d   1       0.891  -3.155  -1.748  0.00  0.00     0.034 A 
ATOM      4  C3  UNL d   1       0.152  -2.528  -0.738  0.00  0.00     0.017 A 
ATOM      5  C4  UNL d   1      -0.910  -1.682  -1.078  0.00  0.00     0.017 A 
ATOM      6  C5  UNL d   1      -1.226  -1.469  -2.423  0.00  0.00     0.034 A 
ATOM      7 Cl   UNL d   1      -1.868  -0.874   0.112  0.00  0.00    -0.070 Cl
ATOM      8 Cl1  UNL d   1       0.603  -2.842   0.900  0.00  0.00    -0.070 Cl
ENDROOT
TORSDOF 0
ENDMDL
