MODEL 1
REMARK minimizedAffinity 12.4785604
REMARK minimizedRMSD -1
REMARK  0 active torsions:
REMARK  status: ('A' for Active; 'I' for Inactive)
ROOT
ATOM      1  C   UNL d   1      -1.135  -1.457  -1.821  0.00  0.00     0.020 A 
ATOM      2  C1  UNL d   1      -1.099  -2.453  -2.797  0.00  0.00     0.020 A 
ATOM      3  C2  UNL d   1      -0.516  -3.689  -2.511  0.00  0.00     0.034 A 
ATOM      4  C3  UNL d   1       0.034  -3.933  -1.248  0.00  0.00     0.017 A 
ATOM      5  C4  UNL d   1      -0.002  -2.933  -0.269  0.00  0.00     0.017 A 
ATOM      6  C5  UNL d   1      -0.587  -1.697  -0.560  0.00  0.00     0.034 A 
ATOM      7 Cl   UNL d   1       0.656  -3.160   1.313  0.00  0.00    -0.070 Cl
ATOM      8 Cl1  UNL d   1       0.739  -5.485  -0.964  0.00  0.00    -0.070 Cl
ENDROOT
TORSDOF 0
ENDMDL
