MODEL 1
REMARK minimizedAffinity 12.6030149
REMARK minimizedRMSD -1
REMARK  0 active torsions:
REMARK  status: ('A' for Active; 'I' for Inactive)
ROOT
ATOM      1  C   UNL d   1      -1.075  -2.969  -2.727  0.00  0.00     0.020 A 
ATOM      2  C1  UNL d   1       0.091  -3.583  -2.272  0.00  0.00     0.020 A 
ATOM      3  C2  UNL d   1       0.924  -2.918  -1.370  0.00  0.00     0.034 A 
ATOM      4  C3  UNL d   1       0.593  -1.634  -0.921  0.00  0.00     0.017 A 
ATOM      5  C4  UNL d   1      -0.578  -1.018  -1.378  0.00  0.00     0.017 A 
ATOM      6  C5  UNL d   1      -1.409  -1.689  -2.281  0.00  0.00     0.034 A 
ATOM      7 Cl   UNL d   1      -1.053   0.563  -0.868  0.00  0.00    -0.070 Cl
ATOM      8 Cl1  UNL d   1       1.670  -0.871   0.194  0.00  0.00    -0.070 Cl
ENDROOT
TORSDOF 0
ENDMDL
