MODEL 1
REMARK minimizedAffinity 9.76794529
REMARK minimizedRMSD -1
REMARK  0 active torsions:
REMARK  status: ('A' for Active; 'I' for Inactive)
ROOT
ATOM      1  C   UNL d   1      -0.014   5.255   1.508  0.00  0.00     0.020 A 
ATOM      2  C1  UNL d   1      -0.698   5.978   0.531  0.00  0.00     0.020 A 
ATOM      3  C2  UNL d   1      -0.227   5.993  -0.784  0.00  0.00     0.034 A 
ATOM      4  C3  UNL d   1       0.931   5.284  -1.125  0.00  0.00     0.017 A 
ATOM      5  C4  UNL d   1       1.616   4.559  -0.144  0.00  0.00     0.017 A 
ATOM      6  C5  UNL d   1       1.140   4.547   1.171  0.00  0.00     0.034 A 
ATOM      7 Cl   UNL d   1       3.051   3.659  -0.489  0.00  0.00    -0.070 Cl
ATOM      8 Cl1  UNL d   1       1.455   5.347  -2.770  0.00  0.00    -0.070 Cl
ENDROOT
TORSDOF 0
ENDMDL
