MODEL 1
REMARK minimizedAffinity 7.18731165
REMARK minimizedRMSD -1
REMARK  0 active torsions:
REMARK  status: ('A' for Active; 'I' for Inactive)
ROOT
ATOM      1  C   UNL d   1      -0.396  -1.784   0.177  0.00  0.00     0.020 A 
ATOM      2  C1  UNL d   1      -1.727  -1.464  -0.084  0.00  0.00     0.020 A 
ATOM      3  C2  UNL d   1      -2.266  -1.699  -1.351  0.00  0.00     0.034 A 
ATOM      4  C3  UNL d   1      -1.473  -2.256  -2.361  0.00  0.00     0.017 A 
ATOM      5  C4  UNL d   1      -0.137  -2.577  -2.097  0.00  0.00     0.017 A 
ATOM      6  C5  UNL d   1       0.398  -2.339  -0.827  0.00  0.00     0.034 A 
ATOM      7 Cl   UNL d   1       0.904  -3.267  -3.292  0.00  0.00    -0.070 Cl
ATOM      8 Cl1  UNL d   1      -2.205  -2.521  -3.903  0.00  0.00    -0.070 Cl
ENDROOT
TORSDOF 0
ENDMDL
