MODEL 1
REMARK minimizedAffinity 13.8995609
REMARK minimizedRMSD -1
REMARK  0 active torsions:
REMARK  status: ('A' for Active; 'I' for Inactive)
ROOT
ATOM      1  C   UNL d   1       3.344  -3.009  -3.782  0.00  0.00     0.020 A 
ATOM      2  C1  UNL d   1       4.598  -2.877  -3.186  0.00  0.00     0.020 A 
ATOM      3  C2  UNL d   1       5.337  -1.706  -3.366  0.00  0.00     0.034 A 
ATOM      4  C3  UNL d   1       4.823  -0.662  -4.145  0.00  0.00     0.017 A 
ATOM      5  C4  UNL d   1       3.565  -0.796  -4.743  0.00  0.00     0.017 A 
ATOM      6  C5  UNL d   1       2.829  -1.971  -4.559  0.00  0.00     0.034 A 
ATOM      7 Cl   UNL d   1       2.865   0.448  -5.718  0.00  0.00    -0.070 Cl
ATOM      8 Cl1  UNL d   1       5.791   0.757  -4.325  0.00  0.00    -0.070 Cl
ENDROOT
TORSDOF 0
ENDMDL
