MODEL 1
REMARK minimizedAffinity 1.35599411
REMARK minimizedRMSD -1
REMARK  0 active torsions:
REMARK  status: ('A' for Active; 'I' for Inactive)
ROOT
ATOM      1  C   UNL d   1      -1.601  -2.790  -4.998  0.00  0.00     0.020 A 
ATOM      2  C1  UNL d   1      -0.476  -3.030  -5.786  0.00  0.00     0.020 A 
ATOM      3  C2  UNL d   1       0.800  -2.955  -5.223  0.00  0.00     0.034 A 
ATOM      4  C3  UNL d   1       0.954  -2.639  -3.868  0.00  0.00     0.017 A 
ATOM      5  C4  UNL d   1      -0.176  -2.398  -3.078  0.00  0.00     0.017 A 
ATOM      6  C5  UNL d   1      -1.451  -2.475  -3.647  0.00  0.00     0.034 A 
ATOM      7 Cl   UNL d   1      -0.065  -2.003  -1.399  0.00  0.00    -0.070 Cl
ATOM      8 Cl1  UNL d   1       2.561  -2.565  -3.238  0.00  0.00    -0.070 Cl
ENDROOT
TORSDOF 0
ENDMDL
