MODEL 1
REMARK minimizedAffinity 10.4135265
REMARK minimizedRMSD -1
REMARK  0 active torsions:
REMARK  status: ('A' for Active; 'I' for Inactive)
ROOT
ATOM      1  C   UNL d   1      -0.140  -2.295  -0.236  0.00  0.00     0.020 A 
ATOM      2  C1  UNL d   1      -1.313  -1.663  -0.648  0.00  0.00     0.020 A 
ATOM      3  C2  UNL d   1      -1.705  -1.725  -1.987  0.00  0.00     0.034 A 
ATOM      4  C3  UNL d   1      -0.924  -2.419  -2.918  0.00  0.00     0.017 A 
ATOM      5  C4  UNL d   1       0.253  -3.052  -2.503  0.00  0.00     0.017 A 
ATOM      6  C5  UNL d   1       0.641  -2.988  -1.162  0.00  0.00     0.034 A 
ATOM      7 Cl   UNL d   1       1.269  -3.928  -3.594  0.00  0.00    -0.070 Cl
ATOM      8 Cl1  UNL d   1      -1.470  -2.454  -4.557  0.00  0.00    -0.070 Cl
ENDROOT
TORSDOF 0
ENDMDL
