MODEL 1
REMARK minimizedAffinity 15.0093117
REMARK minimizedRMSD -1
REMARK  0 active torsions:
REMARK  status: ('A' for Active; 'I' for Inactive)
ROOT
ATOM      1  C   UNL d   1       4.859  -0.674  -6.000  0.00  0.00     0.020 A 
ATOM      2  C1  UNL d   1       5.116   0.232  -4.972  0.00  0.00     0.020 A 
ATOM      3  C2  UNL d   1       5.183  -0.212  -3.650  0.00  0.00     0.034 A 
ATOM      4  C3  UNL d   1       4.993  -1.567  -3.352  0.00  0.00     0.017 A 
ATOM      5  C4  UNL d   1       4.736  -2.476  -4.385  0.00  0.00     0.017 A 
ATOM      6  C5  UNL d   1       4.670  -2.025  -5.707  0.00  0.00     0.034 A 
ATOM      7 Cl   UNL d   1       4.491  -4.162  -4.096  0.00  0.00    -0.070 Cl
ATOM      8 Cl1  UNL d   1       5.090  -2.047  -1.695  0.00  0.00    -0.070 Cl
ENDROOT
TORSDOF 0
ENDMDL
