MODEL 1
REMARK minimizedAffinity 6.58659315
REMARK minimizedRMSD -1
REMARK  0 active torsions:
REMARK  status: ('A' for Active; 'I' for Inactive)
ROOT
ATOM      1  C   UNL d   1      -0.756  -3.006  -3.746  0.00  0.00     0.020 A 
ATOM      2  C1  UNL d   1      -0.870  -1.940  -2.855  0.00  0.00     0.020 A 
ATOM      3  C2  UNL d   1      -0.544  -2.116  -1.509  0.00  0.00     0.034 A 
ATOM      4  C3  UNL d   1      -0.101  -3.362  -1.050  0.00  0.00     0.017 A 
ATOM      5  C4  UNL d   1       0.014  -4.432  -1.945  0.00  0.00     0.017 A 
ATOM      6  C5  UNL d   1      -0.315  -4.249  -3.292  0.00  0.00     0.034 A 
ATOM      7 Cl   UNL d   1       0.553  -5.999  -1.453  0.00  0.00    -0.070 Cl
ATOM      8 Cl1  UNL d   1       0.286  -3.509   0.628  0.00  0.00    -0.070 Cl
ENDROOT
TORSDOF 0
ENDMDL
