MODEL 1
REMARK minimizedAffinity 8.33285236
REMARK minimizedRMSD -1
REMARK  0 active torsions:
REMARK  status: ('A' for Active; 'I' for Inactive)
ROOT
ATOM      1  C   UNL d   1       1.155  -0.601   0.037  0.00  0.00    -0.002 A 
ATOM      2  C1  UNL d   1       0.099  -1.376   0.494  0.00  0.00     0.010 A 
ATOM      3  C2  UNL d   1      -0.733  -2.044  -0.406  0.00  0.00     0.041 A 
ATOM      4  C3  UNL d   1      -0.483  -1.920  -1.787  0.00  0.00    -0.075 A 
ATOM      5  S   UNL d   1      -1.369  -2.648  -3.074  0.00  0.00     0.015 SA
ATOM      6  C4  UNL d   1      -0.366  -1.947  -4.261  0.00  0.00     0.022 A 
ATOM      7  C5  UNL d   1       0.626  -1.173  -3.706  0.00  0.00     0.026 A 
ATOM      8  C6  UNL d   1       0.575  -1.145  -2.271  0.00  0.00    -0.082 A 
ATOM      9  C7  UNL d   1       1.400  -0.480  -1.333  0.00  0.00     0.045 A 
ENDROOT
TORSDOF 0
ENDMDL
