MODEL 1
REMARK minimizedAffinity 2.47588205
REMARK minimizedRMSD -1
REMARK  0 active torsions:
REMARK  status: ('A' for Active; 'I' for Inactive)
ROOT
ATOM      1  C   UNL d   1       0.780  -0.284  -0.932  0.00  0.00    -0.002 A 
ATOM      2  C1  UNL d   1       2.047  -0.520  -0.418  0.00  0.00     0.010 A 
ATOM      3  C2  UNL d   1       2.311  -1.677   0.318  0.00  0.00     0.041 A 
ATOM      4  C3  UNL d   1       1.271  -2.603   0.529  0.00  0.00    -0.075 A 
ATOM      5  S   UNL d   1       1.362  -4.089   1.398  0.00  0.00     0.015 SA
ATOM      6  C4  UNL d   1      -0.279  -4.446   1.106  0.00  0.00     0.022 A 
ATOM      7  C5  UNL d   1      -0.896  -3.466   0.366  0.00  0.00     0.026 A 
ATOM      8  C6  UNL d   1      -0.013  -2.388   0.020  0.00  0.00    -0.082 A 
ATOM      9  C7  UNL d   1      -0.250  -1.205  -0.721  0.00  0.00     0.045 A 
ENDROOT
TORSDOF 0
ENDMDL
