MODEL 1
REMARK minimizedAffinity 15.1386232
REMARK minimizedRMSD -1
REMARK  0 active torsions:
REMARK  status: ('A' for Active; 'I' for Inactive)
ROOT
ATOM      1  C   UNL d   1      -1.646  -0.378   4.155  0.00  0.00    -0.002 A 
ATOM      2  C1  UNL d   1      -1.971   0.946   4.413  0.00  0.00     0.010 A 
ATOM      3  C2  UNL d   1      -3.214   1.458   4.036  0.00  0.00     0.041 A 
ATOM      4  C3  UNL d   1      -4.134   0.609   3.391  0.00  0.00    -0.075 A 
ATOM      5  S   UNL d   1      -5.716   1.017   2.839  0.00  0.00     0.015 SA
ATOM      6  C4  UNL d   1      -5.997  -0.557   2.249  0.00  0.00     0.022 A 
ATOM      7  C5  UNL d   1      -4.921  -1.387   2.459  0.00  0.00     0.026 A 
ATOM      8  C6  UNL d   1      -3.830  -0.729   3.121  0.00  0.00    -0.082 A 
ATOM      9  C7  UNL d   1      -2.561  -1.218   3.515  0.00  0.00     0.045 A 
ENDROOT
TORSDOF 0
ENDMDL
