MODEL 1
REMARK minimizedAffinity 0.468554854
REMARK minimizedRMSD -1
REMARK  0 active torsions:
REMARK  status: ('A' for Active; 'I' for Inactive)
ROOT
ATOM      1  C   UNL d   1       0.353  -4.010   1.303  0.00  0.00    -0.002 A 
ATOM      2  C1  UNL d   1      -0.922  -3.790   0.803  0.00  0.00     0.010 A 
ATOM      3  C2  UNL d   1      -1.164  -2.745  -0.091  0.00  0.00     0.041 A 
ATOM      4  C3  UNL d   1      -0.091  -1.918  -0.479  0.00  0.00    -0.075 A 
ATOM      5  S   UNL d   1      -0.151  -0.579  -1.563  0.00  0.00     0.015 SA
ATOM      6  C4  UNL d   1       1.516  -0.268  -1.388  0.00  0.00     0.022 A 
ATOM      7  C5  UNL d   1       2.118  -1.155  -0.528  0.00  0.00     0.026 A 
ATOM      8  C6  UNL d   1       1.202  -2.121   0.010  0.00  0.00    -0.082 A 
ATOM      9  C7  UNL d   1       1.415  -3.188   0.916  0.00  0.00     0.045 A 
ENDROOT
TORSDOF 0
ENDMDL
