MODEL 1
REMARK minimizedAffinity 1.34155869
REMARK minimizedRMSD -1
REMARK  0 active torsions:
REMARK  status: ('A' for Active; 'I' for Inactive)
ROOT
ATOM      1  C   UNL d   1       0.555  -0.389  -1.657  0.00  0.00    -0.002 A 
ATOM      2  C1  UNL d   1       1.856  -0.739  -1.323  0.00  0.00     0.010 A 
ATOM      3  C2  UNL d   1       2.105  -1.821  -0.476  0.00  0.00     0.041 A 
ATOM      4  C3  UNL d   1       1.015  -2.553   0.033  0.00  0.00    -0.075 A 
ATOM      5  S   UNL d   1       1.079  -3.916   1.087  0.00  0.00     0.015 SA
ATOM      6  C4  UNL d   1      -0.618  -4.066   1.118  0.00  0.00     0.022 A 
ATOM      7  C5  UNL d   1      -1.235  -3.108   0.349  0.00  0.00     0.026 A 
ATOM      8  C6  UNL d   1      -0.304  -2.220  -0.289  0.00  0.00    -0.082 A 
ATOM      9  C7  UNL d   1      -0.524  -1.118  -1.150  0.00  0.00     0.045 A 
ENDROOT
TORSDOF 0
ENDMDL
