MODEL 1
REMARK minimizedAffinity 5.61695051
REMARK minimizedRMSD -1
REMARK  0 active torsions:
REMARK  status: ('A' for Active; 'I' for Inactive)
ROOT
ATOM      1  C   UNL d   1       0.686   2.926  -3.215  0.00  0.00    -0.002 A 
ATOM      2  C1  UNL d   1       1.281   2.195  -4.233  0.00  0.00     0.010 A 
ATOM      3  C2  UNL d   1       1.571   0.840  -4.060  0.00  0.00     0.041 A 
ATOM      4  C3  UNL d   1       1.247   0.226  -2.834  0.00  0.00    -0.075 A 
ATOM      5  S   UNL d   1       1.507  -1.421  -2.397  0.00  0.00     0.015 SA
ATOM      6  C4  UNL d   1       0.833  -1.194  -0.848  0.00  0.00     0.022 A 
ATOM      7  C5  UNL d   1       0.415   0.101  -0.652  0.00  0.00     0.026 A 
ATOM      8  C6  UNL d   1       0.646   0.941  -1.794  0.00  0.00    -0.082 A 
ATOM      9  C7  UNL d   1       0.366   2.313  -2.000  0.00  0.00     0.045 A 
ENDROOT
TORSDOF 0
ENDMDL
