MODEL 1
REMARK minimizedAffinity 3.2076304
REMARK minimizedRMSD -1
REMARK  0 active torsions:
REMARK  status: ('A' for Active; 'I' for Inactive)
ROOT
ATOM      1  C   UNL d   1       6.000   1.366  -5.241  0.00  0.00    -0.002 A 
ATOM      2  C1  UNL d   1       4.883   1.021  -5.988  0.00  0.00     0.010 A 
ATOM      3  C2  UNL d   1       3.744   1.830  -5.980  0.00  0.00     0.041 A 
ATOM      4  C3  UNL d   1       3.748   3.003  -5.201  0.00  0.00    -0.075 A 
ATOM      5  S   UNL d   1       2.468   4.147  -5.037  0.00  0.00     0.015 SA
ATOM      6  C4  UNL d   1       3.374   5.121  -3.972  0.00  0.00     0.022 A 
ATOM      7  C5  UNL d   1       4.625   4.601  -3.735  0.00  0.00     0.026 A 
ATOM      8  C6  UNL d   1       4.861   3.373  -4.440  0.00  0.00    -0.082 A 
ATOM      9  C7  UNL d   1       6.000   2.532  -4.469  0.00  0.00     0.045 A 
ENDROOT
TORSDOF 0
ENDMDL
