MODEL 1
REMARK minimizedAffinity 3.0082891
REMARK minimizedRMSD -1
REMARK  0 active torsions:
REMARK  status: ('A' for Active; 'I' for Inactive)
ROOT
ATOM      1  C   UNL d   1      -4.247   1.536   5.298  0.00  0.00    -0.002 A 
ATOM      2  C1  UNL d   1      -5.299   2.108   5.999  0.00  0.00     0.010 A 
ATOM      3  C2  UNL d   1      -5.531   3.483   5.937  0.00  0.00     0.041 A 
ATOM      4  C3  UNL d   1      -4.680   4.282   5.149  0.00  0.00    -0.075 A 
ATOM      5  S   UNL d   1      -4.772   5.989   4.922  0.00  0.00     0.015 SA
ATOM      6  C4  UNL d   1      -3.417   6.000   3.888  0.00  0.00     0.022 A 
ATOM      7  C5  UNL d   1      -2.894   4.741   3.709  0.00  0.00     0.026 A 
ATOM      8  C6  UNL d   1      -3.614   3.730   4.433  0.00  0.00    -0.082 A 
ATOM      9  C7  UNL d   1      -3.405   2.332   4.517  0.00  0.00     0.045 A 
ENDROOT
TORSDOF 0
ENDMDL
