MODEL 1
REMARK minimizedAffinity -0.0102324411
REMARK minimizedRMSD -1
REMARK  1 active torsions:
REMARK  status: ('A' for Active; 'I' for Inactive)
REMARK    1  A    between atoms: C1_2  and  C2_3 
ROOT
ATOM      1  C2  UNL d   1       3.261  -1.847   2.237  0.00  0.00    -0.076 A 
ATOM      2  C3  UNL d   1       3.692  -0.677   1.588  0.00  0.00     0.004 A 
ATOM      3  C4  UNL d   1       2.809   0.091   0.832  0.00  0.00    -0.003 A 
ATOM      4  C5  UNL d   1       1.479  -0.299   0.713  0.00  0.00     0.000 A 
ATOM      5  C6  UNL d   1       1.030  -1.447   1.364  0.00  0.00     0.000 A 
ATOM      6  C7  UNL d   1       1.904  -2.223   2.144  0.00  0.00    -0.073 A 
ATOM      7  C8  UNL d   1       1.367  -3.455   2.820  0.00  0.00     0.078 C 
ENDROOT
BRANCH   1   8
ATOM      8  C1  UNL d   1       4.271  -2.654   3.022  0.00  0.00     0.053 C 
ATOM      9  C   UNL d   1       5.634  -2.694   2.349  0.00  0.00     0.018 C 
ENDBRANCH   1   8
TORSDOF 1
ENDMDL
