MODEL 1
REMARK minimizedAffinity -2.06165171
REMARK minimizedRMSD -1
REMARK  1 active torsions:
REMARK  status: ('A' for Active; 'I' for Inactive)
REMARK    1  A    between atoms: C1_2  and  C2_3 
ROOT
ATOM      1  C2  UNL d   1       2.488  -1.718   1.819  0.00  0.00    -0.076 A 
ATOM      2  C3  UNL d   1       3.541  -2.206   2.613  0.00  0.00     0.004 A 
ATOM      3  C4  UNL d   1       3.301  -3.108   3.648  0.00  0.00    -0.003 A 
ATOM      4  C5  UNL d   1       2.003  -3.537   3.906  0.00  0.00     0.000 A 
ATOM      5  C6  UNL d   1       0.949  -3.077   3.118  0.00  0.00     0.000 A 
ATOM      6  C7  UNL d   1       1.176  -2.180   2.060  0.00  0.00    -0.073 A 
ATOM      7  C8  UNL d   1       0.001  -1.712   1.246  0.00  0.00     0.078 C 
ENDROOT
BRANCH   1   8
ATOM      8  C1  UNL d   1       2.805  -0.721   0.728  0.00  0.00     0.053 C 
ATOM      9  C   UNL d   1       2.454   0.706   1.122  0.00  0.00     0.018 C 
ENDBRANCH   1   8
TORSDOF 1
ENDMDL
