MODEL 1
REMARK minimizedAffinity 0.553610444
REMARK minimizedRMSD -1
REMARK  1 active torsions:
REMARK  status: ('A' for Active; 'I' for Inactive)
REMARK    1  A    between atoms: C1_2  and  C2_3 
ROOT
ATOM      1  C2  UNL d   1       2.008  -1.375   1.356  0.00  0.00    -0.076 A 
ATOM      2  C3  UNL d   1       2.980  -1.780   2.287  0.00  0.00     0.004 A 
ATOM      3  C4  UNL d   1       2.723  -2.810   3.190  0.00  0.00    -0.003 A 
ATOM      4  C5  UNL d   1       1.490  -3.453   3.177  0.00  0.00     0.000 A 
ATOM      5  C6  UNL d   1       0.520  -3.075   2.248  0.00  0.00     0.000 A 
ATOM      6  C7  UNL d   1       0.769  -2.050   1.320  0.00  0.00    -0.073 A 
ATOM      7  C8  UNL d   1      -0.316  -1.680   0.346  0.00  0.00     0.078 C 
ENDROOT
BRANCH   1   8
ATOM      8  C1  UNL d   1       2.333  -0.234   0.419  0.00  0.00     0.053 C 
ATOM      9  C   UNL d   1       2.674   1.050   1.161  0.00  0.00     0.018 C 
ENDBRANCH   1   8
TORSDOF 1
ENDMDL
