MODEL 1
REMARK minimizedAffinity 4.09247541
REMARK minimizedRMSD -1
REMARK  1 active torsions:
REMARK  status: ('A' for Active; 'I' for Inactive)
REMARK    1  A    between atoms: C1_2  and  C2_3 
ROOT
ATOM      1  C2  UNL d   1       0.518  -2.051   0.735  0.00  0.00    -0.076 A 
ATOM      2  C3  UNL d   1       1.751  -1.376   0.691  0.00  0.00     0.004 A 
ATOM      3  C4  UNL d   1       2.529  -1.228   1.838  0.00  0.00    -0.003 A 
ATOM      4  C5  UNL d   1       2.087  -1.752   3.048  0.00  0.00     0.000 A 
ATOM      5  C6  UNL d   1       0.875  -2.440   3.106  0.00  0.00     0.000 A 
ATOM      6  C7  UNL d   1       0.086  -2.612   1.956  0.00  0.00    -0.073 A 
ATOM      7  C8  UNL d   1      -1.215  -3.357   2.078  0.00  0.00     0.078 C 
ENDROOT
BRANCH   1   8
ATOM      8  C1  UNL d   1      -0.295  -2.157  -0.535  0.00  0.00     0.053 C 
ATOM      9  C   UNL d   1       0.576  -2.278  -1.776  0.00  0.00     0.018 C 
ENDBRANCH   1   8
TORSDOF 1
ENDMDL
