MODEL 1
REMARK minimizedAffinity 1.49883842
REMARK minimizedRMSD -1
REMARK  1 active torsions:
REMARK  status: ('A' for Active; 'I' for Inactive)
REMARK    1  A    between atoms: C1_2  and  C2_3 
ROOT
ATOM      1  C2  UNL d   1       0.170  -0.348   1.063  0.00  0.00    -0.076 A 
ATOM      2  C3  UNL d   1       0.552   0.964   0.733  0.00  0.00     0.004 A 
ATOM      3  C4  UNL d   1       1.897   1.324   0.666  0.00  0.00    -0.003 A 
ATOM      4  C5  UNL d   1       2.882   0.378   0.928  0.00  0.00     0.000 A 
ATOM      5  C6  UNL d   1       2.521  -0.933   1.239  0.00  0.00     0.000 A 
ATOM      6  C7  UNL d   1       1.170  -1.316   1.295  0.00  0.00    -0.073 A 
ATOM      7  C8  UNL d   1       0.838  -2.741   1.641  0.00  0.00     0.078 C 
ENDROOT
BRANCH   1   8
ATOM      8  C1  UNL d   1      -1.304  -0.673   1.147  0.00  0.00     0.053 C 
ATOM      9  C   UNL d   1      -2.180   0.568   1.069  0.00  0.00     0.018 C 
ENDBRANCH   1   8
TORSDOF 1
ENDMDL
