MODEL 1
REMARK minimizedAffinity 0.436121225
REMARK minimizedRMSD -1
REMARK  1 active torsions:
REMARK  status: ('A' for Active; 'I' for Inactive)
REMARK    1  A    between atoms: C1_2  and  C2_3 
ROOT
ATOM      1  C2  UNL d   1       1.316  -1.972  -0.975  0.00  0.00    -0.076 A 
ATOM      2  C3  UNL d   1       0.355  -1.873  -1.996  0.00  0.00     0.004 A 
ATOM      3  C4  UNL d   1      -0.755  -1.040  -1.859  0.00  0.00    -0.003 A 
ATOM      4  C5  UNL d   1      -0.921  -0.292  -0.699  0.00  0.00     0.000 A 
ATOM      5  C6  UNL d   1       0.032  -0.365   0.317  0.00  0.00     0.000 A 
ATOM      6  C7  UNL d   1       1.164  -1.187   0.188  0.00  0.00    -0.073 A 
ATOM      7  C8  UNL d   1       2.157  -1.231   1.317  0.00  0.00     0.078 C 
ENDROOT
BRANCH   1   8
ATOM      8  C1  UNL d   1       2.484  -2.912  -1.169  0.00  0.00     0.053 C 
ATOM      9  C   UNL d   1       3.002  -2.911  -2.599  0.00  0.00     0.018 C 
ENDBRANCH   1   8
TORSDOF 1
ENDMDL
