MODEL 1
REMARK minimizedAffinity -0.336707562
REMARK minimizedRMSD -1
REMARK  0 active torsions:
REMARK  status: ('A' for Active; 'I' for Inactive)
ROOT
ATOM      1  C   UNL d   1      -1.957   0.899  -2.198  0.00  0.00    -0.002 A 
ATOM      2  C1  UNL d   1      -2.794   1.461  -1.244  0.00  0.00     0.010 A 
ATOM      3  C2  UNL d   1      -2.449   1.431   0.109  0.00  0.00     0.041 A 
ATOM      4  C3  UNL d   1      -1.238   0.823   0.491  0.00  0.00    -0.075 A 
ATOM      5  S   UNL d   1      -0.609   0.670   2.089  0.00  0.00     0.015 SA
ATOM      6  C4  UNL d   1       0.785  -0.145   1.543  0.00  0.00     0.022 A 
ATOM      7  C5  UNL d   1       0.787  -0.305   0.178  0.00  0.00     0.026 A 
ATOM      8  C6  UNL d   1      -0.378   0.251  -0.451  0.00  0.00    -0.082 A 
ATOM      9  C7  UNL d   1      -0.756   0.296  -1.815  0.00  0.00     0.045 A 
ENDROOT
TORSDOF 0
ENDMDL
