MODEL 1
REMARK minimizedAffinity -0.861646116
REMARK minimizedRMSD -1
REMARK  0 active torsions:
REMARK  status: ('A' for Active; 'I' for Inactive)
ROOT
ATOM      1  C   UNL d   1      -0.819   1.061  -0.151  0.00  0.00    -0.002 A 
ATOM      2  C1  UNL d   1       0.123   0.657   0.784  0.00  0.00     0.010 A 
ATOM      3  C2  UNL d   1       0.749  -0.586   0.671  0.00  0.00     0.041 A 
ATOM      4  C3  UNL d   1       0.409  -1.424  -0.409  0.00  0.00    -0.075 A 
ATOM      5  S   UNL d   1       1.046  -2.989  -0.751  0.00  0.00     0.015 SA
ATOM      6  C4  UNL d   1       0.083  -3.158  -2.147  0.00  0.00     0.022 A 
ATOM      7  C5  UNL d   1      -0.711  -2.057  -2.362  0.00  0.00     0.026 A 
ATOM      8  C6  UNL d   1      -0.536  -1.039  -1.364  0.00  0.00    -0.082 A 
ATOM      9  C7  UNL d   1      -1.153   0.227  -1.222  0.00  0.00     0.045 A 
ENDROOT
TORSDOF 0
ENDMDL
