MODEL 1
REMARK minimizedAffinity -2.34144545
REMARK minimizedRMSD -1
REMARK  0 active torsions:
REMARK  status: ('A' for Active; 'I' for Inactive)
ROOT
ATOM      1  C   UNL d   1      -2.123   2.427   1.218  0.00  0.00    -0.002 A 
ATOM      2  C1  UNL d   1      -1.645   2.751  -0.044  0.00  0.00     0.010 A 
ATOM      3  C2  UNL d   1      -0.729   1.920  -0.692  0.00  0.00     0.041 A 
ATOM      4  C3  UNL d   1      -0.299   0.744  -0.045  0.00  0.00    -0.075 A 
ATOM      5  S   UNL d   1       0.816  -0.425  -0.647  0.00  0.00     0.015 SA
ATOM      6  C4  UNL d   1       0.683  -1.383   0.757  0.00  0.00     0.022 A 
ATOM      7  C5  UNL d   1      -0.186  -0.839   1.673  0.00  0.00     0.026 A 
ATOM      8  C6  UNL d   1      -0.767   0.396   1.225  0.00  0.00    -0.082 A 
ATOM      9  C7  UNL d   1      -1.694   1.260   1.857  0.00  0.00     0.045 A 
ENDROOT
TORSDOF 0
ENDMDL
