MODEL 1
REMARK minimizedAffinity 1.61079836
REMARK minimizedRMSD -1
REMARK  0 active torsions:
REMARK  status: ('A' for Active; 'I' for Inactive)
ROOT
ATOM      1  C   UNL d   1      -1.474   2.425   0.047  0.00  0.00    -0.002 A 
ATOM      2  C1  UNL d   1      -0.767   2.653  -1.125  0.00  0.00     0.010 A 
ATOM      3  C2  UNL d   1       0.151   1.711  -1.594  0.00  0.00     0.041 A 
ATOM      4  C3  UNL d   1       0.346   0.524  -0.860  0.00  0.00    -0.075 A 
ATOM      5  S   UNL d   1       1.417  -0.771  -1.244  0.00  0.00     0.015 SA
ATOM      6  C4  UNL d   1       0.959  -1.657   0.138  0.00  0.00     0.022 A 
ATOM      7  C5  UNL d   1       0.014  -0.996   0.885  0.00  0.00     0.026 A 
ATOM      8  C6  UNL d   1      -0.356   0.272   0.322  0.00  0.00    -0.082 A 
ATOM      9  C7  UNL d   1      -1.278   1.247   0.772  0.00  0.00     0.045 A 
ENDROOT
TORSDOF 0
ENDMDL
