MODEL 1
REMARK minimizedAffinity 0.382873833
REMARK minimizedRMSD -1
REMARK  0 active torsions:
REMARK  status: ('A' for Active; 'I' for Inactive)
ROOT
ATOM      1  C   UNL d   1      -0.932   1.208   2.499  0.00  0.00    -0.002 A 
ATOM      2  C1  UNL d   1      -1.152  -0.162   2.488  0.00  0.00     0.010 A 
ATOM      3  C2  UNL d   1      -0.775  -0.933   1.387  0.00  0.00     0.041 A 
ATOM      4  C3  UNL d   1      -0.166  -0.298   0.287  0.00  0.00    -0.075 A 
ATOM      5  S   UNL d   1       0.380  -1.040  -1.171  0.00  0.00     0.015 SA
ATOM      6  C4  UNL d   1       0.919   0.445  -1.812  0.00  0.00     0.022 A 
ATOM      7  C5  UNL d   1       0.696   1.491  -0.949  0.00  0.00     0.026 A 
ATOM      8  C6  UNL d   1       0.067   1.080   0.275  0.00  0.00    -0.082 A 
ATOM      9  C7  UNL d   1      -0.327   1.835   1.406  0.00  0.00     0.045 A 
ENDROOT
TORSDOF 0
ENDMDL
