MODEL 1
REMARK minimizedAffinity -1.75547945
REMARK minimizedRMSD -1
REMARK  0 active torsions:
REMARK  status: ('A' for Active; 'I' for Inactive)
ROOT
ATOM      1  C   UNL d   1      -2.038   1.470   1.753  0.00  0.00    -0.002 A 
ATOM      2  C1  UNL d   1      -1.474   0.237   2.049  0.00  0.00     0.010 A 
ATOM      3  C2  UNL d   1      -0.426  -0.268   1.276  0.00  0.00     0.041 A 
ATOM      4  C3  UNL d   1       0.051   0.496   0.192  0.00  0.00    -0.075 A 
ATOM      5  S   UNL d   1       1.325   0.079  -0.892  0.00  0.00     0.015 SA
ATOM      6  C4  UNL d   1       1.151   1.528  -1.772  0.00  0.00     0.022 A 
ATOM      7  C5  UNL d   1       0.149   2.322  -1.265  0.00  0.00     0.026 A 
ATOM      8  C6  UNL d   1      -0.501   1.740  -0.124  0.00  0.00    -0.082 A 
ATOM      9  C7  UNL d   1      -1.563   2.224   0.677  0.00  0.00     0.045 A 
ENDROOT
TORSDOF 0
ENDMDL
