MODEL 1
REMARK minimizedAffinity -3.74045944
REMARK minimizedRMSD -1
REMARK  0 active torsions:
REMARK  status: ('A' for Active; 'I' for Inactive)
ROOT
ATOM      1  C   UNL d   1      -2.064   2.355   1.552  0.00  0.00    -0.002 A 
ATOM      2  C1  UNL d   1      -1.961   1.101   2.138  0.00  0.00     0.010 A 
ATOM      3  C2  UNL d   1      -1.123   0.128   1.590  0.00  0.00     0.041 A 
ATOM      4  C3  UNL d   1      -0.381   0.441   0.433  0.00  0.00    -0.075 A 
ATOM      5  S   UNL d   1       0.710  -0.592  -0.412  0.00  0.00     0.015 SA
ATOM      6  C4  UNL d   1       1.066   0.607  -1.569  0.00  0.00     0.022 A 
ATOM      7  C5  UNL d   1       0.378   1.773  -1.332  0.00  0.00     0.026 A 
ATOM      8  C6  UNL d   1      -0.467   1.697  -0.174  0.00  0.00    -0.082 A 
ATOM      9  C7  UNL d   1      -1.327   2.661   0.406  0.00  0.00     0.045 A 
ENDROOT
TORSDOF 0
ENDMDL
