MODEL 1
REMARK minimizedAffinity -3.04065681
REMARK minimizedRMSD -1
REMARK  0 active torsions:
REMARK  status: ('A' for Active; 'I' for Inactive)
ROOT
ATOM      1  C   UNL d   1       1.345   1.507  -1.658  0.00  0.00    -0.002 A 
ATOM      2  C1  UNL d   1       1.668   0.194  -1.346  0.00  0.00     0.010 A 
ATOM      3  C2  UNL d   1       0.992  -0.481  -0.328  0.00  0.00     0.041 A 
ATOM      4  C3  UNL d   1      -0.026   0.191   0.377  0.00  0.00    -0.075 A 
ATOM      5  S   UNL d   1      -0.989  -0.436   1.662  0.00  0.00     0.015 SA
ATOM      6  C4  UNL d   1      -1.853   1.024   1.826  0.00  0.00     0.022 A 
ATOM      7  C5  UNL d   1      -1.430   1.977   0.930  0.00  0.00     0.026 A 
ATOM      8  C6  UNL d   1      -0.370   1.513   0.080  0.00  0.00    -0.082 A 
ATOM      9  C7  UNL d   1       0.334   2.170  -0.957  0.00  0.00     0.045 A 
ENDROOT
TORSDOF 0
ENDMDL
