MODEL 1
REMARK minimizedAffinity 0.691939116
REMARK minimizedRMSD -1
REMARK  0 active torsions:
REMARK  status: ('A' for Active; 'I' for Inactive)
ROOT
ATOM      1  C   UNL d   1      -1.818   1.764   2.101  0.00  0.00    -0.002 A 
ATOM      2  C1  UNL d   1      -2.300   1.851   0.803  0.00  0.00     0.010 A 
ATOM      3  C2  UNL d   1      -1.738   1.081  -0.217  0.00  0.00     0.041 A 
ATOM      4  C3  UNL d   1      -0.674   0.211   0.094  0.00  0.00    -0.075 A 
ATOM      5  S   UNL d   1       0.170  -0.829  -0.992  0.00  0.00     0.015 SA
ATOM      6  C4  UNL d   1       1.189  -1.414   0.242  0.00  0.00     0.022 A 
ATOM      7  C5  UNL d   1       0.907  -0.840   1.459  0.00  0.00     0.026 A 
ATOM      8  C6  UNL d   1      -0.172   0.105   1.394  0.00  0.00    -0.082 A 
ATOM      9  C7  UNL d   1      -0.763   0.901   2.406  0.00  0.00     0.045 A 
ENDROOT
TORSDOF 0
ENDMDL
