MODEL 1
REMARK minimizedAffinity -1.13107133
REMARK minimizedRMSD -1
REMARK  0 active torsions:
REMARK  status: ('A' for Active; 'I' for Inactive)
ROOT
ATOM      1  C   UNL d   1      -1.114   1.362   2.343  0.00  0.00    -0.002 A 
ATOM      2  C1  UNL d   1      -2.085   1.671   1.401  0.00  0.00     0.010 A 
ATOM      3  C2  UNL d   1      -2.013   1.147   0.109  0.00  0.00     0.041 A 
ATOM      4  C3  UNL d   1      -0.940   0.297  -0.223  0.00  0.00    -0.075 A 
ATOM      5  S   UNL d   1      -0.646  -0.462  -1.743  0.00  0.00     0.015 SA
ATOM      6  C4  UNL d   1       0.774  -1.215  -1.177  0.00  0.00     0.022 A 
ATOM      7  C5  UNL d   1       1.033  -0.906   0.137  0.00  0.00     0.026 A 
ATOM      8  C6  UNL d   1       0.050  -0.029   0.709  0.00  0.00    -0.082 A 
ATOM      9  C7  UNL d   1      -0.051   0.519   2.010  0.00  0.00     0.045 A 
ENDROOT
TORSDOF 0
ENDMDL
