MODEL 1
REMARK minimizedAffinity -4.63498497
REMARK minimizedRMSD -1
REMARK  0 active torsions:
REMARK  status: ('A' for Active; 'I' for Inactive)
ROOT
ATOM      1  C   UNL d   1      -2.176   1.503   1.879  0.00  0.00    -0.002 A 
ATOM      2  C1  UNL d   1      -2.061   2.268   0.727  0.00  0.00     0.010 A 
ATOM      3  C2  UNL d   1      -1.156   1.911  -0.275  0.00  0.00     0.041 A 
ATOM      4  C3  UNL d   1      -0.362   0.761  -0.098  0.00  0.00    -0.075 A 
ATOM      5  S   UNL d   1       0.813   0.132  -1.191  0.00  0.00     0.015 SA
ATOM      6  C4  UNL d   1       1.190  -1.168  -0.155  0.00  0.00     0.022 A 
ATOM      7  C5  UNL d   1       0.446  -1.138   1.001  0.00  0.00     0.026 A 
ATOM      8  C6  UNL d   1      -0.461  -0.026   1.053  0.00  0.00    -0.082 A 
ATOM      9  C7  UNL d   1      -1.387   0.362   2.050  0.00  0.00     0.045 A 
ENDROOT
TORSDOF 0
ENDMDL
