MODEL 1
REMARK minimizedAffinity -3.47081423
REMARK minimizedRMSD -1
REMARK  0 active torsions:
REMARK  status: ('A' for Active; 'I' for Inactive)
ROOT
ATOM      1  C   UNL d   1      -1.413   2.765   0.082  0.00  0.00    -0.002 A 
ATOM      2  C1  UNL d   1      -1.636   2.510   1.428  0.00  0.00     0.010 A 
ATOM      3  C2  UNL d   1      -1.157   1.338   2.017  0.00  0.00     0.041 A 
ATOM      4  C3  UNL d   1      -0.442   0.420   1.225  0.00  0.00    -0.075 A 
ATOM      5  S   UNL d   1       0.240  -1.081   1.732  0.00  0.00     0.015 SA
ATOM      6  C4  UNL d   1       0.844  -1.418   0.174  0.00  0.00     0.022 A 
ATOM      7  C5  UNL d   1       0.542  -0.421  -0.723  0.00  0.00     0.026 A 
ATOM      8  C6  UNL d   1      -0.203   0.655  -0.132  0.00  0.00    -0.082 A 
ATOM      9  C7  UNL d   1      -0.702   1.852  -0.701  0.00  0.00     0.045 A 
ENDROOT
TORSDOF 0
ENDMDL
