MODEL 1
REMARK minimizedAffinity 16.4424953
REMARK minimizedRMSD -1
REMARK  0 active torsions:
REMARK  status: ('A' for Active; 'I' for Inactive)
ROOT
ATOM      1  O1  BZF d   1      -3.845  -1.761  -2.419  0.00  0.00    -0.204 OA
ATOM      2  C2  BZF d   1      -2.635  -1.751  -1.752  0.00  0.00     0.174 A 
ATOM      3  C3  BZF d   1      -2.335  -2.981  -1.288  0.00  0.00    -0.012 A 
ATOM      4  C3A BZF d   1      -3.380  -3.831  -1.770  0.00  0.00    -0.107 A 
ATOM      5  C4  BZF d   1      -3.631  -5.168  -1.653  0.00  0.00     0.055 A 
ATOM      6  C5  BZF d   1      -4.778  -5.673  -2.179  0.00  0.00    -0.016 A 
ATOM      7  C6  BZF d   1      -5.696  -4.870  -2.823  0.00  0.00     0.022 A 
ATOM      8  C7  BZF d   1      -5.488  -3.539  -2.968  0.00  0.00     0.029 A 
ATOM      9  C7A BZF d   1      -4.315  -3.031  -2.466  0.00  0.00     0.058 A 
ENDROOT
TORSDOF 0
ENDMDL
