MODEL 1
REMARK minimizedAffinity 15.8866816
REMARK minimizedRMSD -1
REMARK  0 active torsions:
REMARK  status: ('A' for Active; 'I' for Inactive)
ROOT
ATOM      1  O1  BZF d   1      -4.189   4.172   4.770  0.00  0.00    -0.204 OA
ATOM      2  C2  BZF d   1      -5.099   4.504   5.755  0.00  0.00     0.174 A 
ATOM      3  C3  BZF d   1      -5.943   3.480   5.993  0.00  0.00    -0.012 A 
ATOM      4  C3A BZF d   1      -5.477   2.409   5.166  0.00  0.00    -0.107 A 
ATOM      5  C4  BZF d   1      -5.894   1.123   4.971  0.00  0.00     0.055 A 
ATOM      6  C5  BZF d   1      -5.266   0.359   4.039  0.00  0.00    -0.016 A 
ATOM      7  C6  BZF d   1      -4.224   0.850   3.280  0.00  0.00     0.022 A 
ATOM      8  C7  BZF d   1      -3.772   2.118   3.441  0.00  0.00     0.029 A 
ATOM      9  C7A BZF d   1      -4.383   2.882   4.405  0.00  0.00     0.058 A 
ENDROOT
TORSDOF 0
ENDMDL
