MODEL 1
REMARK minimizedAffinity 6.53800154
REMARK minimizedRMSD -1
REMARK  0 active torsions:
REMARK  status: ('A' for Active; 'I' for Inactive)
ROOT
ATOM      1  O1  BZF d   1      -5.998  -0.068   4.316  0.00  0.00    -0.204 OA
ATOM      2  C2  BZF d   1      -5.419  -0.304   3.084  0.00  0.00     0.174 A 
ATOM      3  C3  BZF d   1      -4.749   0.784   2.654  0.00  0.00    -0.012 A 
ATOM      4  C3A BZF d   1      -4.842   1.730   3.724  0.00  0.00    -0.107 A 
ATOM      5  C4  BZF d   1      -4.362   2.996   3.902  0.00  0.00     0.055 A 
ATOM      6  C5  BZF d   1      -4.693   3.675   5.031  0.00  0.00    -0.016 A 
ATOM      7  C6  BZF d   1      -5.504   3.121   6.000  0.00  0.00     0.022 A 
ATOM      8  C7  BZF d   1      -6.000   1.867   5.870  0.00  0.00     0.029 A 
ATOM      9  C7A BZF d   1      -5.641   1.166   4.745  0.00  0.00     0.058 A 
ENDROOT
TORSDOF 0
ENDMDL
