MODEL 1
REMARK minimizedAffinity 7.86991453
REMARK minimizedRMSD -1
REMARK  0 active torsions:
REMARK  status: ('A' for Active; 'I' for Inactive)
ROOT
ATOM      1  O1  BZF d   1      -0.725  -4.949   2.458  0.00  0.00    -0.204 OA
ATOM      2  C2  BZF d   1      -1.437  -5.999   1.909  0.00  0.00     0.174 A 
ATOM      3  C3  BZF d   1      -2.300  -5.553   0.973  0.00  0.00    -0.012 A 
ATOM      4  C3A BZF d   1      -2.050  -4.148   0.870  0.00  0.00    -0.107 A 
ATOM      5  C4  BZF d   1      -2.581  -3.155   0.097  0.00  0.00     0.055 A 
ATOM      6  C5  BZF d   1      -2.168  -1.875   0.292  0.00  0.00    -0.016 A 
ATOM      7  C6  BZF d   1      -1.232  -1.552   1.252  0.00  0.00     0.022 A 
ATOM      8  C7  BZF d   1      -0.673  -2.504   2.039  0.00  0.00     0.029 A 
ATOM      9  C7A BZF d   1      -1.064  -3.802   1.822  0.00  0.00     0.058 A 
ENDROOT
TORSDOF 0
ENDMDL
