MODEL 1
REMARK minimizedAffinity 22.7972469
REMARK minimizedRMSD -1
REMARK  0 active torsions:
REMARK  status: ('A' for Active; 'I' for Inactive)
ROOT
ATOM      1  O1  BZF d   1      -0.752  -5.753  -3.759  0.00  0.00    -0.204 OA
ATOM      2  C2  BZF d   1       0.207  -4.992  -4.399  0.00  0.00     0.174 A 
ATOM      3  C3  BZF d   1      -0.128  -3.686  -4.379  0.00  0.00    -0.012 A 
ATOM      4  C3A BZF d   1      -1.328  -3.616  -3.603  0.00  0.00    -0.107 A 
ATOM      5  C4  BZF d   1      -2.135  -2.587  -3.213  0.00  0.00     0.055 A 
ATOM      6  C5  BZF d   1      -3.271  -2.864  -2.521  0.00  0.00    -0.016 A 
ATOM      7  C6  BZF d   1      -3.633  -4.158  -2.207  0.00  0.00     0.022 A 
ATOM      8  C7  BZF d   1      -2.861  -5.212  -2.568  0.00  0.00     0.029 A 
ATOM      9  C7A BZF d   1      -1.696  -4.932  -3.239  0.00  0.00     0.058 A 
ENDROOT
TORSDOF 0
ENDMDL
