MODEL 1
REMARK minimizedAffinity 20.2534924
REMARK minimizedRMSD -1
REMARK  0 active torsions:
REMARK  status: ('A' for Active; 'I' for Inactive)
ROOT
ATOM      1  O1  BZF d   1      -2.811   2.853   3.687  0.00  0.00    -0.204 OA
ATOM      2  C2  BZF d   1      -3.963   2.094   3.617  0.00  0.00     0.174 A 
ATOM      3  C3  BZF d   1      -3.666   0.779   3.559  0.00  0.00    -0.012 A 
ATOM      4  C3A BZF d   1      -2.243   0.709   3.689  0.00  0.00    -0.107 A 
ATOM      5  C4  BZF d   1      -1.353  -0.327   3.720  0.00  0.00     0.055 A 
ATOM      6  C5  BZF d   1      -0.024  -0.053   3.783  0.00  0.00    -0.016 A 
ATOM      7  C6  BZF d   1       0.451   1.242   3.812  0.00  0.00     0.022 A 
ATOM      8  C7  BZF d   1      -0.393   2.302   3.788  0.00  0.00     0.029 A 
ATOM      9  C7A BZF d   1      -1.739   2.028   3.757  0.00  0.00     0.058 A 
ENDROOT
TORSDOF 0
ENDMDL
