MODEL 1
REMARK minimizedAffinity 16.9981594
REMARK minimizedRMSD -1
REMARK  0 active torsions:
REMARK  status: ('A' for Active; 'I' for Inactive)
ROOT
ATOM      1  O1  BZF d   1      -1.122  -5.078   2.285  0.00  0.00    -0.204 OA
ATOM      2  C2  BZF d   1      -2.114  -5.998   2.004  0.00  0.00     0.174 A 
ATOM      3  C3  BZF d   1      -2.932  -5.539   1.035  0.00  0.00    -0.012 A 
ATOM      4  C3A BZF d   1      -2.365  -4.290   0.625  0.00  0.00    -0.107 A 
ATOM      5  C4  BZF d   1      -2.716  -3.364  -0.315  0.00  0.00     0.055 A 
ATOM      6  C5  BZF d   1      -1.993  -2.218  -0.414  0.00  0.00    -0.016 A 
ATOM      7  C6  BZF d   1      -0.918  -1.963   0.412  0.00  0.00     0.022 A 
ATOM      8  C7  BZF d   1      -0.529  -2.854   1.356  0.00  0.00     0.029 A 
ATOM      9  C7A BZF d   1      -1.237  -4.028   1.437  0.00  0.00     0.058 A 
ENDROOT
TORSDOF 0
ENDMDL
