MODEL 1
REMARK minimizedAffinity 24.5651741
REMARK minimizedRMSD -1
REMARK  0 active torsions:
REMARK  status: ('A' for Active; 'I' for Inactive)
ROOT
ATOM      1  O1  BZF d   1      -4.838  -2.990  -3.981  0.00  0.00    -0.204 OA
ATOM      2  C2  BZF d   1      -3.665  -2.298  -3.752  0.00  0.00     0.174 A 
ATOM      3  C3  BZF d   1      -2.958  -2.870  -2.756  0.00  0.00    -0.012 A 
ATOM      4  C3A BZF d   1      -3.695  -4.044  -2.398  0.00  0.00    -0.107 A 
ATOM      5  C4  BZF d   1      -3.493  -5.036  -1.481  0.00  0.00     0.055 A 
ATOM      6  C5  BZF d   1      -4.439  -6.000  -1.332  0.00  0.00    -0.016 A 
ATOM      7  C6  BZF d   1      -5.600  -6.000  -2.078  0.00  0.00     0.022 A 
ATOM      8  C7  BZF d   1      -5.842  -5.039  -3.003  0.00  0.00     0.029 A 
ATOM      9  C7A BZF d   1      -4.873  -4.082  -3.179  0.00  0.00     0.058 A 
ENDROOT
TORSDOF 0
ENDMDL
