MODEL 1
REMARK minimizedAffinity 13.3331404
REMARK minimizedRMSD -1
REMARK  0 active torsions:
REMARK  status: ('A' for Active; 'I' for Inactive)
ROOT
ATOM      1  O1  BZF d   1       2.171   3.319  -6.000  0.00  0.00    -0.204 OA
ATOM      2  C2  BZF d   1       1.877   4.527  -5.398  0.00  0.00     0.174 A 
ATOM      3  C3  BZF d   1       2.340   4.556  -4.132  0.00  0.00    -0.012 A 
ATOM      4  C3A BZF d   1       3.043   3.322  -3.960  0.00  0.00    -0.107 A 
ATOM      5  C4  BZF d   1       3.737   2.773  -2.919  0.00  0.00     0.055 A 
ATOM      6  C5  BZF d   1       4.242   1.518  -3.050  0.00  0.00    -0.016 A 
ATOM      7  C6  BZF d   1       4.067   0.782  -4.204  0.00  0.00     0.022 A 
ATOM      8  C7  BZF d   1       3.391   1.286  -5.265  0.00  0.00     0.029 A 
ATOM      9  C7A BZF d   1       2.908   2.566  -5.148  0.00  0.00     0.058 A 
ENDROOT
TORSDOF 0
ENDMDL
