MODEL 1
REMARK minimizedAffinity 4.96635485
REMARK minimizedRMSD -1
REMARK  0 active torsions:
REMARK  status: ('A' for Active; 'I' for Inactive)
ROOT
ATOM      1  O1  BZF d   1       2.134   0.408   2.234  0.00  0.00    -0.204 OA
ATOM      2  C2  BZF d   1       1.314   1.515   2.124  0.00  0.00     0.174 A 
ATOM      3  C3  BZF d   1       1.724   2.315   1.119  0.00  0.00    -0.012 A 
ATOM      4  C3A BZF d   1       2.816   1.622   0.507  0.00  0.00    -0.107 A 
ATOM      5  C4  BZF d   1       3.630   1.902  -0.553  0.00  0.00     0.055 A 
ATOM      6  C5  BZF d   1       4.649   1.052  -0.846  0.00  0.00    -0.016 A 
ATOM      7  C6  BZF d   1       4.886  -0.082  -0.098  0.00  0.00     0.022 A 
ATOM      8  C7  BZF d   1       4.103  -0.404   0.961  0.00  0.00     0.029 A 
ATOM      9  C7A BZF d   1       3.052   0.435   1.239  0.00  0.00     0.058 A 
ENDROOT
TORSDOF 0
ENDMDL
