MODEL 1
REMARK minimizedAffinity 13.4672928
REMARK minimizedRMSD -1
REMARK  0 active torsions:
REMARK  status: ('A' for Active; 'I' for Inactive)
ROOT
ATOM      1  O1  BZF d   1      -1.308  -2.224   0.588  0.00  0.00    -0.204 OA
ATOM      2  C2  BZF d   1      -1.962  -3.220   1.288  0.00  0.00     0.174 A 
ATOM      3  C3  BZF d   1      -1.790  -3.064   2.616  0.00  0.00    -0.012 A 
ATOM      4  C3A BZF d   1      -1.053  -1.846   2.760  0.00  0.00    -0.107 A 
ATOM      5  C4  BZF d   1      -0.591  -1.150   3.840  0.00  0.00     0.055 A 
ATOM      6  C5  BZF d   1       0.156  -0.033   3.635  0.00  0.00    -0.016 A 
ATOM      7  C6  BZF d   1       0.464   0.413   2.367  0.00  0.00     0.022 A 
ATOM      8  C7  BZF d   1       0.023  -0.241   1.264  0.00  0.00     0.029 A 
ATOM      9  C7A BZF d   1      -0.760  -1.352   1.468  0.00  0.00     0.058 A 
ENDROOT
TORSDOF 0
ENDMDL
