MODEL 1
REMARK minimizedAffinity 16.2396927
REMARK minimizedRMSD -1
REMARK  0 active torsions:
REMARK  status: ('A' for Active; 'I' for Inactive)
ROOT
ATOM      1  O1  BZF d   1       3.958   0.748  -1.831  0.00  0.00    -0.204 OA
ATOM      2  C2  BZF d   1       3.536   1.851  -2.548  0.00  0.00     0.174 A 
ATOM      3  C3  BZF d   1       2.539   2.489  -1.901  0.00  0.00    -0.012 A 
ATOM      4  C3A BZF d   1       2.386   1.790  -0.662  0.00  0.00    -0.107 A 
ATOM      5  C4  BZF d   1       1.565   1.958   0.416  0.00  0.00     0.055 A 
ATOM      6  C5  BZF d   1       1.618   1.059   1.433  0.00  0.00    -0.016 A 
ATOM      7  C6  BZF d   1       2.476  -0.021   1.404  0.00  0.00     0.022 A 
ATOM      8  C7  BZF d   1       3.313  -0.227   0.359  0.00  0.00     0.029 A 
ATOM      9  C7A BZF d   1       3.285   0.698  -0.656  0.00  0.00     0.058 A 
ENDROOT
TORSDOF 0
ENDMDL
