MODEL 1
REMARK minimizedAffinity 13.4090252
REMARK minimizedRMSD -1
REMARK  0 active torsions:
REMARK  status: ('A' for Active; 'I' for Inactive)
ROOT
ATOM      1  O1  BZF d   1      -4.529   4.937   5.822  0.00  0.00    -0.204 OA
ATOM      2  C2  BZF d   1      -5.454   5.959   5.729  0.00  0.00     0.174 A 
ATOM      3  C3  BZF d   1      -6.000   6.000   4.496  0.00  0.00    -0.012 A 
ATOM      4  C3A BZF d   1      -5.443   4.880   3.801  0.00  0.00    -0.107 A 
ATOM      5  C4  BZF d   1      -5.610   4.379   2.541  0.00  0.00     0.055 A 
ATOM      6  C5  BZF d   1      -4.863   3.314   2.150  0.00  0.00    -0.016 A 
ATOM      7  C6  BZF d   1      -3.938   2.728   2.989  0.00  0.00     0.022 A 
ATOM      8  C7  BZF d   1      -3.741   3.186   4.249  0.00  0.00     0.029 A 
ATOM      9  C7A BZF d   1      -4.518   4.242   4.659  0.00  0.00     0.058 A 
ENDROOT
TORSDOF 0
ENDMDL
