MODEL 1
REMARK minimizedAffinity 8.66716003
REMARK minimizedRMSD -1
REMARK  0 active torsions:
REMARK  status: ('A' for Active; 'I' for Inactive)
ROOT
ATOM      1  O1  BZF d   1      -4.776  -2.799  -3.613  0.00  0.00    -0.204 OA
ATOM      2  C2  BZF d   1      -6.000  -3.429  -3.495  0.00  0.00     0.174 A 
ATOM      3  C3  BZF d   1      -5.850  -4.676  -3.004  0.00  0.00    -0.012 A 
ATOM      4  C3A BZF d   1      -4.454  -4.802  -2.716  0.00  0.00    -0.107 A 
ATOM      5  C4  BZF d   1      -3.689  -5.806  -2.194  0.00  0.00     0.055 A 
ATOM      6  C5  BZF d   1      -2.344  -5.637  -2.111  0.00  0.00    -0.016 A 
ATOM      7  C6  BZF d   1      -1.729  -4.481  -2.545  0.00  0.00     0.022 A 
ATOM      8  C7  BZF d   1      -2.446  -3.455  -3.066  0.00  0.00     0.029 A 
ATOM      9  C7A BZF d   1      -3.810  -3.610  -3.120  0.00  0.00     0.058 A 
ENDROOT
TORSDOF 0
ENDMDL
