MODEL 1
REMARK minimizedAffinity 18.8776035
REMARK minimizedRMSD -1
REMARK  0 active torsions:
REMARK  status: ('A' for Active; 'I' for Inactive)
ROOT
ATOM      1  O1  BZF d   1      -2.365  -3.651  -3.282  0.00  0.00    -0.204 OA
ATOM      2  C2  BZF d   1      -1.555  -4.737  -3.010  0.00  0.00     0.174 A 
ATOM      3  C3  BZF d   1      -2.293  -5.801  -2.634  0.00  0.00    -0.012 A 
ATOM      4  C3A BZF d   1      -3.654  -5.380  -2.762  0.00  0.00    -0.107 A 
ATOM      5  C4  BZF d   1      -4.852  -6.000  -2.548  0.00  0.00     0.055 A 
ATOM      6  C5  BZF d   1      -6.000  -5.287  -2.695  0.00  0.00    -0.016 A 
ATOM      7  C6  BZF d   1      -5.986  -3.953  -3.049  0.00  0.00     0.022 A 
ATOM      8  C7  BZF d   1      -4.822  -3.297  -3.276  0.00  0.00     0.029 A 
ATOM      9  C7A BZF d   1      -3.662  -4.024  -3.160  0.00  0.00     0.058 A 
ENDROOT
TORSDOF 0
ENDMDL
