MODEL 1
REMARK minimizedAffinity 7.04298162
REMARK minimizedRMSD -1
REMARK  0 active torsions:
REMARK  status: ('A' for Active; 'I' for Inactive)
ROOT
ATOM      1  O1  BZF d   1      -5.050   3.951   0.235  0.00  0.00    -0.204 OA
ATOM      2  C2  BZF d   1      -5.494   5.047  -0.479  0.00  0.00     0.174 A 
ATOM      3  C3  BZF d   1      -5.981   5.993   0.350  0.00  0.00    -0.012 A 
ATOM      4  C3A BZF d   1      -5.748   5.493   1.670  0.00  0.00    -0.107 A 
ATOM      5  C4  BZF d   1      -5.997   5.986   2.919  0.00  0.00     0.055 A 
ATOM      6  C5  BZF d   1      -5.713   5.217   4.002  0.00  0.00    -0.016 A 
ATOM      7  C6  BZF d   1      -5.186   3.948   3.873  0.00  0.00     0.022 A 
ATOM      8  C7  BZF d   1      -4.917   3.418   2.656  0.00  0.00     0.029 A 
ATOM      9  C7A BZF d   1      -5.172   4.206   1.560  0.00  0.00     0.058 A 
ENDROOT
TORSDOF 0
ENDMDL
