MODEL 1
REMARK minimizedAffinity 10.7612553
REMARK minimizedRMSD -1
REMARK  0 active torsions:
REMARK  status: ('A' for Active; 'I' for Inactive)
ROOT
ATOM      1  O1  BZF d   1       1.374   3.227  -4.006  0.00  0.00    -0.204 OA
ATOM      2  C2  BZF d   1       1.186   4.304  -4.850  0.00  0.00     0.174 A 
ATOM      3  C3  BZF d   1       2.371   4.807  -5.256  0.00  0.00    -0.012 A 
ATOM      4  C3A BZF d   1       3.360   3.935  -4.699  0.00  0.00    -0.107 A 
ATOM      5  C4  BZF d   1       4.723   3.903  -4.760  0.00  0.00     0.055 A 
ATOM      6  C5  BZF d   1       5.394   2.963  -4.043  0.00  0.00    -0.016 A 
ATOM      7  C6  BZF d   1       4.734   2.045  -3.252  0.00  0.00     0.022 A 
ATOM      8  C7  BZF d   1       3.382   2.035  -3.164  0.00  0.00     0.029 A 
ATOM      9  C7A BZF d   1       2.700   2.962  -3.913  0.00  0.00     0.058 A 
ENDROOT
TORSDOF 0
ENDMDL
