MODEL 1
REMARK minimizedAffinity 9.22158051
REMARK minimizedRMSD -1
REMARK  0 active torsions:
REMARK  status: ('A' for Active; 'I' for Inactive)
ROOT
ATOM      1  O1  BZF d   1       2.583  -0.477   0.512  0.00  0.00    -0.204 OA
ATOM      2  C2  BZF d   1       3.256   0.082  -0.558  0.00  0.00     0.174 A 
ATOM      3  C3  BZF d   1       2.934   1.384  -0.698  0.00  0.00    -0.012 A 
ATOM      4  C3A BZF d   1       2.073   1.680   0.406  0.00  0.00    -0.107 A 
ATOM      5  C4  BZF d   1       1.437   2.814   0.823  0.00  0.00     0.055 A 
ATOM      6  C5  BZF d   1       0.610   2.750   1.899  0.00  0.00    -0.016 A 
ATOM      7  C6  BZF d   1       0.392   1.568   2.578  0.00  0.00     0.022 A 
ATOM      8  C7  BZF d   1       1.005   0.419   2.205  0.00  0.00     0.029 A 
ATOM      9  C7A BZF d   1       1.866   0.487   1.137  0.00  0.00     0.058 A 
ENDROOT
TORSDOF 0
ENDMDL
