MODEL 1
REMARK minimizedAffinity 1.49676883
REMARK minimizedRMSD -1
REMARK  0 active torsions:
REMARK  status: ('A' for Active; 'I' for Inactive)
ROOT
ATOM      1  O1  BZF d   1       2.338   5.122  -5.966  0.00  0.00    -0.204 OA
ATOM      2  C2  BZF d   1       1.547   4.042  -5.625  0.00  0.00     0.174 A 
ATOM      3  C3  BZF d   1       2.307   2.985  -5.271  0.00  0.00    -0.012 A 
ATOM      4  C3A BZF d   1       3.656   3.462  -5.310  0.00  0.00    -0.107 A 
ATOM      5  C4  BZF d   1       4.864   2.883  -5.044  0.00  0.00     0.055 A 
ATOM      6  C5  BZF d   1       5.999   3.601  -5.250  0.00  0.00    -0.016 A 
ATOM      7  C6  BZF d   1       5.964   4.895  -5.725  0.00  0.00     0.022 A 
ATOM      8  C7  BZF d   1       4.789   5.513  -5.998  0.00  0.00     0.029 A 
ATOM      9  C7A BZF d   1       3.638   4.802  -5.760  0.00  0.00     0.058 A 
ENDROOT
TORSDOF 0
ENDMDL
