MODEL 1
REMARK minimizedAffinity -1.8388027
REMARK minimizedRMSD -1
REMARK  1 active torsions:
REMARK  status: ('A' for Active; 'I' for Inactive)
REMARK    1  A    between atoms: C1_2  and  C2_3 
ROOT
ATOM      1  C2  UNL d   1       0.329  -1.473  -1.171  0.00  0.00    -0.073 A 
ATOM      2  C3  UNL d   1      -0.498  -1.472  -2.299  0.00  0.00    -0.002 A 
ATOM      3  C4  UNL d   1      -0.995  -2.671  -2.810  0.00  0.00     0.004 A 
ATOM      4  C5  UNL d   1      -0.676  -3.882  -2.196  0.00  0.00    -0.004 A 
ATOM      5  C6  UNL d   1       0.140  -3.903  -1.060  0.00  0.00    -0.075 A 
ATOM      6  C7  UNL d   1       0.494  -5.197  -0.389  0.00  0.00     0.076 C 
ATOM      7  C8  UNL d   1       0.637  -2.695  -0.554  0.00  0.00     0.001 A 
ENDROOT
BRANCH   1   8
ATOM      8  C1  UNL d   1       0.863  -0.180  -0.611  0.00  0.00     0.053 C 
ATOM      9  C   UNL d   1       0.485   0.009   0.849  0.00  0.00     0.018 C 
ENDBRANCH   1   8
TORSDOF 1
ENDMDL
