MODEL 1
REMARK minimizedAffinity -5.26214075
REMARK minimizedRMSD -1
REMARK  1 active torsions:
REMARK  status: ('A' for Active; 'I' for Inactive)
REMARK    1  A    between atoms: C1_2  and  C2_3 
ROOT
ATOM      1  C2  UNL d   1      -0.336   2.193   0.231  0.00  0.00    -0.073 A 
ATOM      2  C3  UNL d   1      -0.111   2.144   1.611  0.00  0.00    -0.002 A 
ATOM      3  C4  UNL d   1       0.311   0.959   2.215  0.00  0.00     0.004 A 
ATOM      4  C5  UNL d   1       0.519  -0.186   1.445  0.00  0.00    -0.004 A 
ATOM      5  C6  UNL d   1       0.311  -0.153   0.062  0.00  0.00    -0.075 A 
ATOM      6  C7  UNL d   1       0.527  -1.376  -0.779  0.00  0.00     0.076 C 
ATOM      7  C8  UNL d   1      -0.116   1.040  -0.536  0.00  0.00     0.001 A 
ENDROOT
BRANCH   1   8
ATOM      8  C1  UNL d   1      -0.785   3.473  -0.426  0.00  0.00     0.053 C 
ATOM      9  C   UNL d   1      -0.974   3.307  -1.926  0.00  0.00     0.018 C 
ENDBRANCH   1   8
TORSDOF 1
ENDMDL
