MODEL 1
REMARK minimizedAffinity -3.26549506
REMARK minimizedRMSD -1
REMARK  1 active torsions:
REMARK  status: ('A' for Active; 'I' for Inactive)
REMARK    1  A    between atoms: C1_2  and  C2_3 
ROOT
ATOM      1  C2  UNL d   1       0.587  -0.565  -0.736  0.00  0.00    -0.073 A 
ATOM      2  C3  UNL d   1       0.400   0.212  -1.884  0.00  0.00    -0.002 A 
ATOM      3  C4  UNL d   1       0.129   1.576  -1.776  0.00  0.00     0.004 A 
ATOM      4  C5  UNL d   1       0.049   2.179  -0.521  0.00  0.00    -0.004 A 
ATOM      5  C6  UNL d   1       0.244   1.421   0.639  0.00  0.00    -0.075 A 
ATOM      6  C7  UNL d   1       0.159   2.054   1.997  0.00  0.00     0.076 C 
ATOM      7  C8  UNL d   1       0.513   0.051   0.522  0.00  0.00     0.001 A 
ENDROOT
BRANCH   1   8
ATOM      8  C1  UNL d   1       0.886  -2.038  -0.848  0.00  0.00     0.053 C 
ATOM      9  C   UNL d   1      -0.247  -2.801  -1.516  0.00  0.00     0.018 C 
ENDBRANCH   1   8
TORSDOF 1
ENDMDL
