MODEL 1
REMARK minimizedAffinity -2.49499726
REMARK minimizedRMSD -1
REMARK  1 active torsions:
REMARK  status: ('A' for Active; 'I' for Inactive)
REMARK    1  A    between atoms: C1_2  and  C2_3 
ROOT
ATOM      1  C2  UNL d   1      -0.305  -0.865   0.551  0.00  0.00    -0.073 A 
ATOM      2  C3  UNL d   1       0.733  -0.219  -0.130  0.00  0.00    -0.002 A 
ATOM      3  C4  UNL d   1       1.319  -0.812  -1.249  0.00  0.00     0.004 A 
ATOM      4  C5  UNL d   1       0.868  -2.052  -1.703  0.00  0.00    -0.004 A 
ATOM      5  C6  UNL d   1      -0.176  -2.708  -1.043  0.00  0.00    -0.075 A 
ATOM      6  C7  UNL d   1      -0.670  -4.043  -1.516  0.00  0.00     0.076 C 
ATOM      7  C8  UNL d   1      -0.757  -2.107   0.082  0.00  0.00     0.001 A 
ENDROOT
BRANCH   1   8
ATOM      8  C1  UNL d   1      -0.944  -0.225   1.756  0.00  0.00     0.053 C 
ATOM      9  C   UNL d   1      -0.099   0.908   2.316  0.00  0.00     0.018 C 
ENDBRANCH   1   8
TORSDOF 1
ENDMDL
