MODEL 1
REMARK minimizedAffinity -4.88327789
REMARK minimizedRMSD -1
REMARK  1 active torsions:
REMARK  status: ('A' for Active; 'I' for Inactive)
REMARK    1  A    between atoms: C1_2  and  C2_3 
ROOT
ATOM      1  C2  UNL d   1       0.159   1.017   0.505  0.00  0.00    -0.073 A 
ATOM      2  C3  UNL d   1      -0.033   1.569   1.777  0.00  0.00    -0.002 A 
ATOM      3  C4  UNL d   1      -0.435   2.898   1.915  0.00  0.00     0.004 A 
ATOM      4  C5  UNL d   1      -0.656   3.685   0.785  0.00  0.00    -0.004 A 
ATOM      5  C6  UNL d   1      -0.482   3.148  -0.494  0.00  0.00    -0.075 A 
ATOM      6  C7  UNL d   1      -0.713   3.983  -1.720  0.00  0.00     0.076 C 
ATOM      7  C8  UNL d   1      -0.075   1.814  -0.625  0.00  0.00     0.001 A 
ENDROOT
BRANCH   1   8
ATOM      8  C1  UNL d   1       0.587  -0.420   0.351  0.00  0.00     0.053 C 
ATOM      9  C   UNL d   1       0.988  -1.041   1.680  0.00  0.00     0.018 C 
ENDBRANCH   1   8
TORSDOF 1
ENDMDL
