MODEL 1
REMARK minimizedAffinity 1.63862288
REMARK minimizedRMSD -1
REMARK  1 active torsions:
REMARK  status: ('A' for Active; 'I' for Inactive)
REMARK    1  A    between atoms: C1_2  and  C2_3 
ROOT
ATOM      1  C2  UNL d   1       0.065   2.205   0.577  0.00  0.00    -0.073 A 
ATOM      2  C3  UNL d   1      -0.097   1.539  -0.644  0.00  0.00    -0.002 A 
ATOM      3  C4  UNL d   1       0.269   0.199  -0.770  0.00  0.00     0.004 A 
ATOM      4  C5  UNL d   1       0.794  -0.492   0.322  0.00  0.00    -0.004 A 
ATOM      5  C6  UNL d   1       0.952   0.152   1.554  0.00  0.00    -0.075 A 
ATOM      6  C7  UNL d   1       1.517  -0.576   2.738  0.00  0.00     0.076 C 
ATOM      7  C8  UNL d   1       0.585   1.500   1.672  0.00  0.00     0.001 A 
ENDROOT
BRANCH   1   8
ATOM      8  C1  UNL d   1      -0.335   3.650   0.720  0.00  0.00     0.053 C 
ATOM      9  C   UNL d   1       0.063   4.474  -0.495  0.00  0.00     0.018 C 
ENDBRANCH   1   8
TORSDOF 1
ENDMDL
