MODEL 1
REMARK minimizedAffinity 0.956916213
REMARK minimizedRMSD -1
REMARK  1 active torsions:
REMARK  status: ('A' for Active; 'I' for Inactive)
REMARK    1  A    between atoms: C1_2  and  C2_3 
ROOT
ATOM      1  C2  UNL d   1       0.112  -0.236   0.923  0.00  0.00    -0.073 A 
ATOM      2  C3  UNL d   1      -0.033   0.669  -0.134  0.00  0.00    -0.002 A 
ATOM      3  C4  UNL d   1       0.225   0.268  -1.446  0.00  0.00     0.004 A 
ATOM      4  C5  UNL d   1       0.623  -1.041  -1.713  0.00  0.00    -0.004 A 
ATOM      5  C6  UNL d   1       0.762  -1.964  -0.671  0.00  0.00    -0.075 A 
ATOM      6  C7  UNL d   1       1.193  -3.375  -0.942  0.00  0.00     0.076 C 
ATOM      7  C8  UNL d   1       0.504  -1.552   0.643  0.00  0.00     0.001 A 
ENDROOT
BRANCH   1   8
ATOM      8  C1  UNL d   1      -0.172   0.191   2.340  0.00  0.00     0.053 C 
ATOM      9  C   UNL d   1      -0.227   1.704   2.480  0.00  0.00     0.018 C 
ENDBRANCH   1   8
TORSDOF 1
ENDMDL
