MODEL 1
REMARK minimizedAffinity -3.9346962
REMARK minimizedRMSD -1
REMARK  1 active torsions:
REMARK  status: ('A' for Active; 'I' for Inactive)
REMARK    1  A    between atoms: C1_2  and  C2_3 
ROOT
ATOM      1  C2  UNL d   1      -0.365   2.030   0.873  0.00  0.00    -0.073 A 
ATOM      2  C3  UNL d   1      -0.129   1.688   2.209  0.00  0.00    -0.002 A 
ATOM      3  C4  UNL d   1       0.219   0.381   2.551  0.00  0.00     0.004 A 
ATOM      4  C5  UNL d   1       0.341  -0.595   1.562  0.00  0.00    -0.004 A 
ATOM      5  C6  UNL d   1       0.121  -0.270   0.220  0.00  0.00    -0.075 A 
ATOM      6  C7  UNL d   1       0.246  -1.308  -0.856  0.00  0.00     0.076 C 
ATOM      7  C8  UNL d   1      -0.231   1.045  -0.116  0.00  0.00     0.001 A 
ENDROOT
BRANCH   1   8
ATOM      8  C1  UNL d   1      -0.735   3.442   0.498  0.00  0.00     0.053 C 
ATOM      9  C   UNL d   1      -0.349   3.771  -0.935  0.00  0.00     0.018 C 
ENDBRANCH   1   8
TORSDOF 1
ENDMDL
