MODEL 1
REMARK minimizedAffinity -3.68041945
REMARK minimizedRMSD -1
REMARK  1 active torsions:
REMARK  status: ('A' for Active; 'I' for Inactive)
REMARK    1  A    between atoms: C1_2  and  C2_3 
ROOT
ATOM      1  C2  UNL d   1       0.381  -0.618  -0.317  0.00  0.00    -0.073 A 
ATOM      2  C3  UNL d   1       1.112  -0.688  -1.508  0.00  0.00    -0.002 A 
ATOM      3  C4  UNL d   1       0.828  -1.676  -2.452  0.00  0.00     0.004 A 
ATOM      4  C5  UNL d   1      -0.191  -2.599  -2.217  0.00  0.00    -0.004 A 
ATOM      5  C6  UNL d   1      -0.940  -2.538  -1.038  0.00  0.00    -0.075 A 
ATOM      6  C7  UNL d   1      -2.038  -3.525  -0.769  0.00  0.00     0.076 C 
ATOM      7  C8  UNL d   1      -0.647  -1.545  -0.094  0.00  0.00     0.001 A 
ENDROOT
BRANCH   1   8
ATOM      8  C1  UNL d   1       0.680   0.451   0.702  0.00  0.00     0.053 C 
ATOM      9  C   UNL d   1      -0.329   0.452   1.840  0.00  0.00     0.018 C 
ENDBRANCH   1   8
TORSDOF 1
ENDMDL
