MODEL 1
REMARK minimizedAffinity 10.1778851
REMARK minimizedRMSD -1
REMARK  2 active torsions:
REMARK  status: ('A' for Active; 'I' for Inactive)
REMARK    1  A    between atoms: C2'_3  and  C1'_4 
REMARK    2  A    between atoms: C1'_4  and  C1_5 
ROOT
ATOM      1  C1  I4B d   1      -4.314   2.472   0.181  0.00  0.00    -0.075 A 
ATOM      2  C2  I4B d   1      -3.125   2.080   0.743  0.00  0.00     0.003 A 
ATOM      3  C3  I4B d   1      -3.090   1.595   2.073  0.00  0.00     0.002 A 
ATOM      4  C4  I4B d   1      -4.252   1.567   2.817  0.00  0.00    -0.004 A 
ATOM      5  C5  I4B d   1      -5.460   1.943   2.238  0.00  0.00     0.002 A 
ATOM      6  C6  I4B d   1      -5.495   2.387   0.908  0.00  0.00     0.003 A 
ENDROOT
BRANCH   1   7
ATOM      7  C1' I4B d   1      -4.310   3.010  -1.214  0.00  0.00     0.060 C 
BRANCH   7   8
ATOM      8  C2' I4B d   1      -5.743   3.047  -1.705  0.00  0.00    -0.013 C 
ATOM      9  C4' I4B d   1      -5.999   4.268  -2.548  0.00  0.00     0.013 C 
ATOM     10  C3' I4B d   1      -6.000   1.790  -2.480  0.00  0.00     0.013 C 
ENDBRANCH   7   8
ENDBRANCH   1   7
TORSDOF 2
ENDMDL
