MODEL 1
REMARK minimizedAffinity 11.0517168
REMARK minimizedRMSD -1
REMARK  2 active torsions:
REMARK  status: ('A' for Active; 'I' for Inactive)
REMARK    1  A    between atoms: C2'_3  and  C1'_4 
REMARK    2  A    between atoms: C1'_4  and  C1_5 
ROOT
ATOM      1  C1  I4B d   1       1.437  -3.065  -0.352  0.00  0.00    -0.075 A 
ATOM      2  C2  I4B d   1       0.946  -4.278  -0.766  0.00  0.00     0.003 A 
ATOM      3  C3  I4B d   1      -0.252  -4.344  -1.518  0.00  0.00     0.002 A 
ATOM      4  C4  I4B d   1      -0.949  -3.184  -1.788  0.00  0.00    -0.004 A 
ATOM      5  C5  I4B d   1      -0.439  -1.953  -1.386  0.00  0.00     0.002 A 
ATOM      6  C6  I4B d   1       0.768  -1.891  -0.675  0.00  0.00     0.003 A 
ENDROOT
BRANCH   1   7
ATOM      7  C1' I4B d   1       2.687  -3.035   0.468  0.00  0.00     0.060 C 
BRANCH   7   8
ATOM      8  C2' I4B d   1       3.630  -2.027  -0.155  0.00  0.00    -0.013 C 
ATOM      9  C4' I4B d   1       3.996  -0.943   0.825  0.00  0.00     0.013 C 
ATOM     10  C3' I4B d   1       4.849  -2.762  -0.628  0.00  0.00     0.013 C 
ENDBRANCH   7   8
ENDBRANCH   1   7
TORSDOF 2
ENDMDL
