MODEL 1
REMARK minimizedAffinity 7.35159063
REMARK minimizedRMSD -1
REMARK  2 active torsions:
REMARK  status: ('A' for Active; 'I' for Inactive)
REMARK    1  A    between atoms: C2'_3  and  C1'_4 
REMARK    2  A    between atoms: C1'_4  and  C1_5 
ROOT
ATOM      1  C1  I4B d   1      -5.838   1.531  -1.194  0.00  0.00    -0.075 A 
ATOM      2  C2  I4B d   1      -6.000   0.665  -2.247  0.00  0.00     0.003 A 
ATOM      3  C3  I4B d   1      -5.963   1.147  -3.578  0.00  0.00     0.002 A 
ATOM      4  C4  I4B d   1      -5.814   2.499  -3.807  0.00  0.00    -0.004 A 
ATOM      5  C5  I4B d   1      -5.627   3.372  -2.740  0.00  0.00     0.002 A 
ATOM      6  C6  I4B d   1      -5.627   2.884  -1.425  0.00  0.00     0.003 A 
ENDROOT
BRANCH   1   7
ATOM      7  C1' I4B d   1      -5.914   0.993   0.200  0.00  0.00     0.060 C 
BRANCH   7   8
ATOM      8  C2' I4B d   1      -4.499   0.790   0.700  0.00  0.00    -0.013 C 
ATOM      9  C4' I4B d   1      -3.974   2.033   1.370  0.00  0.00     0.013 C 
ATOM     10  C3' I4B d   1      -4.505  -0.373   1.646  0.00  0.00     0.013 C 
ENDBRANCH   7   8
ENDBRANCH   1   7
TORSDOF 2
ENDMDL
