MODEL 1
REMARK minimizedAffinity 2.49628377
REMARK minimizedRMSD -1
REMARK  2 active torsions:
REMARK  status: ('A' for Active; 'I' for Inactive)
REMARK    1  A    between atoms: C2'_3  and  C1'_4 
REMARK    2  A    between atoms: C1'_4  and  C1_5 
ROOT
ATOM      1  C1  I4B d   1      -5.371   2.140  -0.967  0.00  0.00    -0.075 A 
ATOM      2  C2  I4B d   1      -4.900   3.326  -1.473  0.00  0.00     0.003 A 
ATOM      3  C3  I4B d   1      -4.987   3.594  -2.860  0.00  0.00     0.002 A 
ATOM      4  C4  I4B d   1      -5.502   2.634  -3.707  0.00  0.00    -0.004 A 
ATOM      5  C5  I4B d   1      -6.000   1.442  -3.190  0.00  0.00     0.002 A 
ATOM      6  C6  I4B d   1      -5.945   1.198  -1.810  0.00  0.00     0.003 A 
ENDROOT
BRANCH   1   7
ATOM      7  C1' I4B d   1      -5.233   1.876   0.498  0.00  0.00     0.060 C 
BRANCH   7   8
ATOM      8  C2' I4B d   1      -3.816   1.408   0.758  0.00  0.00    -0.013 C 
ATOM      9  C4' I4B d   1      -2.919   2.562   1.121  0.00  0.00     0.013 C 
ATOM     10  C3' I4B d   1      -3.858   0.388   1.856  0.00  0.00     0.013 C 
ENDBRANCH   7   8
ENDBRANCH   1   7
TORSDOF 2
ENDMDL
