MODEL 1
REMARK minimizedAffinity 12.2390766
REMARK minimizedRMSD -1
REMARK  2 active torsions:
REMARK  status: ('A' for Active; 'I' for Inactive)
REMARK    1  A    between atoms: C2'_3  and  C1'_4 
REMARK    2  A    between atoms: C1'_4  and  C1_5 
ROOT
ATOM      1  C1  I4B d   1       0.139   2.802   1.367  0.00  0.00    -0.075 A 
ATOM      2  C2  I4B d   1      -1.136   2.747   1.873  0.00  0.00     0.003 A 
ATOM      3  C3  I4B d   1      -1.369   2.209   3.162  0.00  0.00     0.002 A 
ATOM      4  C4  I4B d   1      -0.311   1.696   3.886  0.00  0.00    -0.004 A 
ATOM      5  C5  I4B d   1       0.983   1.774   3.381  0.00  0.00     0.002 A 
ATOM      6  C6  I4B d   1       1.212   2.342   2.119  0.00  0.00     0.003 A 
ENDROOT
BRANCH   1   7
ATOM      7  C1' I4B d   1       0.344   3.346  -0.011  0.00  0.00     0.060 C 
BRANCH   7   8
ATOM      8  C2' I4B d   1      -0.737   4.374  -0.273  0.00  0.00    -0.013 C 
ATOM      9  C4' I4B d   1      -0.207   5.775  -0.118  0.00  0.00     0.013 C 
ATOM     10  C3' I4B d   1      -1.267   4.146  -1.658  0.00  0.00     0.013 C 
ENDBRANCH   7   8
ENDBRANCH   1   7
TORSDOF 2
ENDMDL
