MODEL 1
REMARK minimizedAffinity -1.04592812
REMARK minimizedRMSD -1
REMARK  1 active torsions:
REMARK  status: ('A' for Active; 'I' for Inactive)
REMARK    1  A    between atoms: N_2  and  C1_3 
ROOT
ATOM      1  C1  UNL d   1       2.659  -0.773   1.383  0.00  0.00     0.143 A 
ATOM      2  C2  UNL d   1       3.566  -1.350   2.279  0.00  0.00    -0.057 A 
ATOM      3  C3  UNL d   1       3.237  -2.501   3.004  0.00  0.00     0.033 A 
ATOM      4  C4  UNL d   1       1.980  -3.081   2.869  0.00  0.00    -0.042 A 
ATOM      5  C5  UNL d   1       1.054  -2.511   2.003  0.00  0.00     0.033 A 
ATOM      6  C6  UNL d   1       1.390  -1.365   1.276  0.00  0.00    -0.057 A 
ENDROOT
BRANCH   1   7
ATOM      7  N   UNL d   1       2.890   0.427   0.707  0.00  0.00    -0.732 N 
ATOM      8  C   UNL d   1       1.848   1.427   0.602  0.00  0.00     0.284 C 
ATOM      9  H3  UNL d   1       3.814   0.808   0.896  0.00  0.00     0.395 HD
ENDBRANCH   1   7
TORSDOF 1
ENDMDL
