MODEL 1
REMARK minimizedAffinity 2.43875742
REMARK minimizedRMSD -1
REMARK  1 active torsions:
REMARK  status: ('A' for Active; 'I' for Inactive)
REMARK    1  A    between atoms: N_2  and  C1_3 
ROOT
ATOM      1  C1  UNL d   1       4.123  -1.657  -4.449  0.00  0.00     0.143 A 
ATOM      2  C2  UNL d   1       5.266  -1.880  -5.224  0.00  0.00    -0.057 A 
ATOM      3  C3  UNL d   1       5.843  -0.853  -5.981  0.00  0.00     0.033 A 
ATOM      4  C4  UNL d   1       5.267   0.413  -5.998  0.00  0.00    -0.042 A 
ATOM      5  C5  UNL d   1       4.116   0.652  -5.255  0.00  0.00     0.033 A 
ATOM      6  C6  UNL d   1       3.549  -0.377  -4.497  0.00  0.00    -0.057 A 
ENDROOT
BRANCH   1   7
ATOM      7  N   UNL d   1       3.446  -2.662  -3.754  0.00  0.00    -0.732 N 
ATOM      8  C   UNL d   1       2.612  -2.338  -2.616  0.00  0.00     0.284 C 
ATOM      9  H3  UNL d   1       3.048  -3.363  -4.374  0.00  0.00     0.395 HD
ENDBRANCH   1   7
TORSDOF 1
ENDMDL
