MODEL 1
REMARK minimizedAffinity -2.95396495
REMARK minimizedRMSD -1
REMARK  1 active torsions:
REMARK  status: ('A' for Active; 'I' for Inactive)
REMARK    1  A    between atoms: N_2  and  C1_3 
ROOT
ATOM      1  C1  UNL d   1       1.365  -2.235   2.021  0.00  0.00     0.143 A 
ATOM      2  C2  UNL d   1       1.637  -0.889   2.287  0.00  0.00    -0.057 A 
ATOM      3  C3  UNL d   1       2.888  -0.330   1.999  0.00  0.00     0.033 A 
ATOM      4  C4  UNL d   1       3.902  -1.118   1.466  0.00  0.00    -0.042 A 
ATOM      5  C5  UNL d   1       3.663  -2.465   1.217  0.00  0.00     0.033 A 
ATOM      6  C6  UNL d   1       2.409  -3.016   1.500  0.00  0.00    -0.057 A 
ENDROOT
BRANCH   1   7
ATOM      7  N   UNL d   1       0.174  -2.873   2.376  0.00  0.00    -0.732 N 
ATOM      8  C   UNL d   1      -1.072  -2.519   1.731  0.00  0.00     0.284 C 
ATOM      9  H3  UNL d   1       0.297  -3.873   2.522  0.00  0.00     0.395 HD
ENDBRANCH   1   7
TORSDOF 1
ENDMDL
