MODEL 1
REMARK minimizedAffinity 2.69976234
REMARK minimizedRMSD -1
REMARK  1 active torsions:
REMARK  status: ('A' for Active; 'I' for Inactive)
REMARK    1  A    between atoms: N_2  and  C1_3 
ROOT
ATOM      1  C1  UNL d   1      -1.014  -1.038  -0.252  0.00  0.00     0.143 A 
ATOM      2  C2  UNL d   1      -0.122  -1.447   0.745  0.00  0.00    -0.057 A 
ATOM      3  C3  UNL d   1       1.072  -2.105   0.424  0.00  0.00     0.033 A 
ATOM      4  C4  UNL d   1       1.382  -2.390  -0.901  0.00  0.00    -0.042 A 
ATOM      5  C5  UNL d   1       0.498  -2.015  -1.906  0.00  0.00     0.033 A 
ATOM      6  C6  UNL d   1      -0.690  -1.353  -1.580  0.00  0.00    -0.057 A 
ENDROOT
BRANCH   1   7
ATOM      7  N   UNL d   1      -2.263  -0.468   0.009  0.00  0.00    -0.732 N 
ATOM      8  C   UNL d   1      -2.373   0.922   0.394  0.00  0.00     0.284 C 
ATOM      9  H3  UNL d   1      -2.975  -0.775  -0.650  0.00  0.00     0.395 HD
ENDBRANCH   1   7
TORSDOF 1
ENDMDL
