MODEL 1
REMARK minimizedAffinity 3.53335047
REMARK minimizedRMSD -1
REMARK  1 active torsions:
REMARK  status: ('A' for Active; 'I' for Inactive)
REMARK    1  A    between atoms: N_2  and  C1_3 
ROOT
ATOM      1  C1  UNL d   1       1.209  -1.839   1.860  0.00  0.00     0.143 A 
ATOM      2  C2  UNL d   1       2.278  -2.599   1.371  0.00  0.00    -0.057 A 
ATOM      3  C3  UNL d   1       3.520  -2.014   1.099  0.00  0.00     0.033 A 
ATOM      4  C4  UNL d   1       3.708  -0.648   1.285  0.00  0.00    -0.042 A 
ATOM      5  C5  UNL d   1       2.653   0.131   1.746  0.00  0.00     0.033 A 
ATOM      6  C6  UNL d   1       1.417  -0.460   2.022  0.00  0.00    -0.057 A 
ENDROOT
BRANCH   1   7
ATOM      7  N   UNL d   1      -0.078  -2.343   2.056  0.00  0.00    -0.732 N 
ATOM      8  C   UNL d   1      -1.203  -1.798   1.325  0.00  0.00     0.284 C 
ATOM      9  H3  UNL d   1      -0.090  -3.357   2.140  0.00  0.00     0.395 HD
ENDBRANCH   1   7
TORSDOF 1
ENDMDL
