MODEL 1
REMARK minimizedAffinity -3.32169175
REMARK minimizedRMSD -1
REMARK  2 active torsions:
REMARK  status: ('A' for Active; 'I' for Inactive)
REMARK    1  A    between atoms: C2'_3  and  C1'_4 
REMARK    2  A    between atoms: C1'_4  and  C1_5 
ROOT
ATOM      1  C1  I4B d   1      -0.675   0.323   0.198  0.00  0.00    -0.075 A 
ATOM      2  C2  I4B d   1      -1.193  -0.622   1.048  0.00  0.00     0.003 A 
ATOM      3  C3  I4B d   1      -0.417  -1.746   1.424  0.00  0.00     0.002 A 
ATOM      4  C4  I4B d   1       0.845  -1.909   0.891  0.00  0.00    -0.004 A 
ATOM      5  C5  I4B d   1       1.378  -0.938   0.047  0.00  0.00     0.002 A 
ATOM      6  C6  I4B d   1       0.618   0.191  -0.291  0.00  0.00     0.003 A 
ENDROOT
BRANCH   1   7
ATOM      7  C1' I4B d   1      -1.534   1.479  -0.204  0.00  0.00     0.060 C 
BRANCH   7   8
ATOM      8  C2' I4B d   1      -2.123   1.171  -1.565  0.00  0.00    -0.013 C 
ATOM      9  C4' I4B d   1      -3.568   0.761  -1.454  0.00  0.00     0.013 C 
ATOM     10  C3' I4B d   1      -1.972   2.393  -2.422  0.00  0.00     0.013 C 
ENDBRANCH   7   8
ENDBRANCH   1   7
TORSDOF 2
ENDMDL
