MODEL 1
REMARK minimizedAffinity -3.87650418
REMARK minimizedRMSD -1
REMARK  2 active torsions:
REMARK  status: ('A' for Active; 'I' for Inactive)
REMARK    1  A    between atoms: C2'_3  and  C1'_4 
REMARK    2  A    between atoms: C1'_4  and  C1_5 
ROOT
ATOM      1  C1  I4B d   1      -0.313   0.418  -0.319  0.00  0.00    -0.075 A 
ATOM      2  C2  I4B d   1      -1.090  -0.243   0.599  0.00  0.00     0.003 A 
ATOM      3  C3  I4B d   1      -0.577  -1.368   1.290  0.00  0.00     0.002 A 
ATOM      4  C4  I4B d   1       0.692  -1.824   0.997  0.00  0.00    -0.004 A 
ATOM      5  C5  I4B d   1       1.487  -1.139   0.083  0.00  0.00     0.002 A 
ATOM      6  C6  I4B d   1       0.987  -0.004  -0.571  0.00  0.00     0.003 A 
ENDROOT
BRANCH   1   7
ATOM      7  C1' I4B d   1      -0.898   1.582  -1.054  0.00  0.00     0.060 C 
BRANCH   7   8
ATOM      8  C2' I4B d   1      -2.013   1.062  -1.939  0.00  0.00    -0.013 C 
ATOM      9  C4' I4B d   1      -3.345   1.631  -1.527  0.00  0.00     0.013 C 
ATOM     10  C3' I4B d   1      -1.685   1.423  -3.357  0.00  0.00     0.013 C 
ENDBRANCH   7   8
ENDBRANCH   1   7
TORSDOF 2
ENDMDL
