MODEL 1
REMARK minimizedAffinity -2.56181407
REMARK minimizedRMSD -1
REMARK  2 active torsions:
REMARK  status: ('A' for Active; 'I' for Inactive)
REMARK    1  A    between atoms: C2'_3  and  C1'_4 
REMARK    2  A    between atoms: C1'_4  and  C1_5 
ROOT
ATOM      1  C1  I4B d   1      -0.206   0.926  -0.450  0.00  0.00    -0.075 A 
ATOM      2  C2  I4B d   1      -1.025   0.318   0.468  0.00  0.00     0.003 A 
ATOM      3  C3  I4B d   1      -0.600  -0.855   1.138  0.00  0.00     0.002 A 
ATOM      4  C4  I4B d   1       0.624  -1.410   0.823  0.00  0.00    -0.004 A 
ATOM      5  C5  I4B d   1       1.463  -0.780  -0.092  0.00  0.00     0.002 A 
ATOM      6  C6  I4B d   1       1.051   0.402  -0.723  0.00  0.00     0.003 A 
ENDROOT
BRANCH   1   7
ATOM      7  C1' I4B d   1      -0.701   2.144  -1.163  0.00  0.00     0.060 C 
BRANCH   7   8
ATOM      8  C2' I4B d   1      -1.226   1.713  -2.517  0.00  0.00    -0.013 C 
ATOM      9  C4' I4B d   1      -2.730   1.648  -2.523  0.00  0.00     0.013 C 
ATOM     10  C3' I4B d   1      -0.721   2.686  -3.540  0.00  0.00     0.013 C 
ENDBRANCH   7   8
ENDBRANCH   1   7
TORSDOF 2
ENDMDL
