MODEL 1
REMARK minimizedAffinity -3.61915469
REMARK minimizedRMSD -1
REMARK  2 active torsions:
REMARK  status: ('A' for Active; 'I' for Inactive)
REMARK    1  A    between atoms: C2'_3  and  C1'_4 
REMARK    2  A    between atoms: C1'_4  and  C1_5 
ROOT
ATOM      1  C1  I4B d   1      -0.017  -0.175  -0.031  0.00  0.00    -0.075 A 
ATOM      2  C2  I4B d   1      -0.609  -1.351   0.358  0.00  0.00     0.003 A 
ATOM      3  C3  I4B d   1       0.184  -2.434   0.806  0.00  0.00     0.002 A 
ATOM      4  C4  I4B d   1       1.559  -2.318   0.801  0.00  0.00    -0.004 A 
ATOM      5  C5  I4B d   1       2.157  -1.118   0.428  0.00  0.00     0.002 A 
ATOM      6  C6  I4B d   1       1.364  -0.035   0.021  0.00  0.00     0.003 A 
ENDROOT
BRANCH   1   7
ATOM      7  C1' I4B d   1      -0.883   0.938  -0.531  0.00  0.00     0.060 C 
BRANCH   7   8
ATOM      8  C2' I4B d   1      -1.262   0.627  -1.964  0.00  0.00    -0.013 C 
ATOM      9  C4' I4B d   1      -2.752   0.466  -2.111  0.00  0.00     0.013 C 
ATOM     10  C3' I4B d   1      -0.749   1.738  -2.830  0.00  0.00     0.013 C 
ENDBRANCH   7   8
ENDBRANCH   1   7
TORSDOF 2
ENDMDL
