MODEL 1
REMARK minimizedAffinity -3.96488261
REMARK minimizedRMSD -1
REMARK  2 active torsions:
REMARK  status: ('A' for Active; 'I' for Inactive)
REMARK    1  A    between atoms: C2'_3  and  C1'_4 
REMARK    2  A    between atoms: C1'_4  and  C1_5 
ROOT
ATOM      1  C1  I4B d   1      -0.014  -0.204   0.251  0.00  0.00    -0.075 A 
ATOM      2  C2  I4B d   1      -0.822  -0.948   1.074  0.00  0.00     0.003 A 
ATOM      3  C3  I4B d   1      -0.364  -2.183   1.595  0.00  0.00     0.002 A 
ATOM      4  C4  I4B d   1       0.879  -2.657   1.227  0.00  0.00    -0.004 A 
ATOM      5  C5  I4B d   1       1.705  -1.891   0.410  0.00  0.00     0.002 A 
ATOM      6  C6  I4B d   1       1.261  -0.651  -0.072  0.00  0.00     0.003 A 
ENDROOT
BRANCH   1   7
ATOM      7  C1' I4B d   1      -0.542   1.079  -0.307  0.00  0.00     0.060 C 
BRANCH   7   8
ATOM      8  C2' I4B d   1      -1.290   0.760  -1.586  0.00  0.00    -0.013 C 
ATOM      9  C4' I4B d   1      -2.701   0.321  -1.297  0.00  0.00     0.013 C 
ATOM     10  C3' I4B d   1      -1.270   1.985  -2.452  0.00  0.00     0.013 C 
ENDBRANCH   7   8
ENDBRANCH   1   7
TORSDOF 2
ENDMDL
