MODEL 1
REMARK minimizedAffinity -0.322750747
REMARK minimizedRMSD -1
REMARK  2 active torsions:
REMARK  status: ('A' for Active; 'I' for Inactive)
REMARK    1  A    between atoms: C2'_3  and  C1'_4 
REMARK    2  A    between atoms: C1'_4  and  C1_5 
ROOT
ATOM      1  C1  I4B d   1       0.429  -1.767   0.303  0.00  0.00    -0.075 A 
ATOM      2  C2  I4B d   1       0.902  -0.675  -0.381  0.00  0.00     0.003 A 
ATOM      3  C3  I4B d   1       0.233   0.569  -0.288  0.00  0.00     0.002 A 
ATOM      4  C4  I4B d   1      -0.926   0.664   0.456  0.00  0.00    -0.004 A 
ATOM      5  C5  I4B d   1      -1.391  -0.438   1.167  0.00  0.00     0.002 A 
ATOM      6  C6  I4B d   1      -0.703  -1.658   1.101  0.00  0.00     0.003 A 
ENDROOT
BRANCH   1   7
ATOM      7  C1' I4B d   1       1.142  -3.074   0.156  0.00  0.00     0.060 C 
BRANCH   7   8
ATOM      8  C2' I4B d   1       2.162  -3.178   1.272  0.00  0.00    -0.013 C 
ATOM      9  C4' I4B d   1       2.430  -1.832   1.893  0.00  0.00     0.013 C 
ATOM     10  C3' I4B d   1       1.639  -4.149   2.288  0.00  0.00     0.013 C 
ENDBRANCH   7   8
ENDBRANCH   1   7
TORSDOF 2
ENDMDL
