MODEL 1
REMARK minimizedAffinity -3.33433652
REMARK minimizedRMSD -1
REMARK  2 active torsions:
REMARK  status: ('A' for Active; 'I' for Inactive)
REMARK    1  A    between atoms: C2'_3  and  C1'_4 
REMARK    2  A    between atoms: C1'_4  and  C1_5 
ROOT
ATOM      1  C1  I4B d   1       0.918   0.798  -0.337  0.00  0.00    -0.075 A 
ATOM      2  C2  I4B d   1       2.228   1.151  -0.130  0.00  0.00     0.003 A 
ATOM      3  C3  I4B d   1       2.583   2.512   0.032  0.00  0.00     0.002 A 
ATOM      4  C4  I4B d   1       1.609   3.485  -0.071  0.00  0.00    -0.004 A 
ATOM      5  C5  I4B d   1       0.278   3.124  -0.258  0.00  0.00     0.002 A 
ATOM      6  C6  I4B d   1      -0.072   1.771  -0.380  0.00  0.00     0.003 A 
ENDROOT
BRANCH   1   7
ATOM      7  C1' I4B d   1       0.583  -0.646  -0.536  0.00  0.00     0.060 C 
BRANCH   7   8
ATOM      8  C2' I4B d   1       0.393  -1.274   0.830  0.00  0.00    -0.013 C 
ATOM      9  C4' I4B d   1      -1.067  -1.366   1.189  0.00  0.00     0.013 C 
ATOM     10  C3' I4B d   1       1.032  -2.631   0.809  0.00  0.00     0.013 C 
ENDBRANCH   7   8
ENDBRANCH   1   7
TORSDOF 2
ENDMDL
