MODEL 1
REMARK minimizedAffinity -1.88304317
REMARK minimizedRMSD -1
REMARK  2 active torsions:
REMARK  status: ('A' for Active; 'I' for Inactive)
REMARK    1  A    between atoms: C2'_3  and  C1'_4 
REMARK    2  A    between atoms: C1'_4  and  C1_5 
ROOT
ATOM      1  C1  I4B d   1      -1.338   0.727  -0.820  0.00  0.00    -0.075 A 
ATOM      2  C2  I4B d   1      -0.548  -0.264  -1.346  0.00  0.00     0.003 A 
ATOM      3  C3  I4B d   1       0.079  -1.205  -0.492  0.00  0.00     0.002 A 
ATOM      4  C4  I4B d   1      -0.071  -1.088   0.874  0.00  0.00    -0.004 A 
ATOM      5  C5  I4B d   1      -0.891  -0.096   1.405  0.00  0.00     0.002 A 
ATOM      6  C6  I4B d   1      -1.539   0.810   0.552  0.00  0.00     0.003 A 
ENDROOT
BRANCH   1   7
ATOM      7  C1' I4B d   1      -1.957   1.723  -1.748  0.00  0.00     0.060 C 
BRANCH   7   8
ATOM      8  C2' I4B d   1      -3.058   1.023  -2.517  0.00  0.00    -0.013 C 
ATOM      9  C4' I4B d   1      -4.389   1.693  -2.296  0.00  0.00     0.013 C 
ATOM     10  C3' I4B d   1      -2.684   1.028  -3.969  0.00  0.00     0.013 C 
ENDBRANCH   7   8
ENDBRANCH   1   7
TORSDOF 2
ENDMDL
