MODEL 1
REMARK minimizedAffinity -0.903321922
REMARK minimizedRMSD -1
REMARK  2 active torsions:
REMARK  status: ('A' for Active; 'I' for Inactive)
REMARK    1  A    between atoms: C2'_3  and  C1'_4 
REMARK    2  A    between atoms: C1'_4  and  C1_5 
ROOT
ATOM      1  C1  I4B d   1      -0.907   0.359  -0.394  0.00  0.00    -0.075 A 
ATOM      2  C2  I4B d   1      -1.217   0.644   0.912  0.00  0.00     0.003 A 
ATOM      3  C3  I4B d   1      -1.079  -0.350   1.911  0.00  0.00     0.002 A 
ATOM      4  C4  I4B d   1      -0.678  -1.621   1.554  0.00  0.00    -0.004 A 
ATOM      5  C5  I4B d   1      -0.343  -1.902   0.232  0.00  0.00     0.002 A 
ATOM      6  C6  I4B d   1      -0.446  -0.902  -0.746  0.00  0.00     0.003 A 
ENDROOT
BRANCH   1   7
ATOM      7  C1' I4B d   1      -1.096   1.423  -1.429  0.00  0.00     0.060 C 
BRANCH   7   8
ATOM      8  C2' I4B d   1      -2.038   0.884  -2.486  0.00  0.00    -0.013 C 
ATOM      9  C4' I4B d   1      -3.477   1.069  -2.080  0.00  0.00     0.013 C 
ATOM     10  C3' I4B d   1      -1.744   1.594  -3.774  0.00  0.00     0.013 C 
ENDBRANCH   7   8
ENDBRANCH   1   7
TORSDOF 2
ENDMDL
