MODEL 1
REMARK minimizedAffinity -2.60755348
REMARK minimizedRMSD -1
REMARK  2 active torsions:
REMARK  status: ('A' for Active; 'I' for Inactive)
REMARK    1  A    between atoms: C2'_3  and  C1'_4 
REMARK    2  A    between atoms: C1'_4  and  C1_5 
ROOT
ATOM      1  C1  I4B d   1      -0.673  -0.072   0.061  0.00  0.00    -0.075 A 
ATOM      2  C2  I4B d   1       0.381  -0.472  -0.722  0.00  0.00     0.003 A 
ATOM      3  C3  I4B d   1       1.086  -1.662  -0.415  0.00  0.00     0.002 A 
ATOM      4  C4  I4B d   1       0.736  -2.389   0.704  0.00  0.00    -0.004 A 
ATOM      5  C5  I4B d   1      -0.348  -1.995   1.483  0.00  0.00     0.002 A 
ATOM      6  C6  I4B d   1      -1.065  -0.836   1.153  0.00  0.00     0.003 A 
ENDROOT
BRANCH   1   7
ATOM      7  C1' I4B d   1      -1.373   1.207  -0.272  0.00  0.00     0.060 C 
BRANCH   7   8
ATOM      8  C2' I4B d   1      -1.502   1.290  -1.779  0.00  0.00    -0.013 C 
ATOM      9  C4' I4B d   1      -2.881   0.887  -2.232  0.00  0.00     0.013 C 
ATOM     10  C3' I4B d   1      -1.185   2.695  -2.194  0.00  0.00     0.013 C 
ENDBRANCH   7   8
ENDBRANCH   1   7
TORSDOF 2
ENDMDL
