MODEL 1
REMARK minimizedAffinity -5.23845387
REMARK minimizedRMSD -1
REMARK  2 active torsions:
REMARK  status: ('A' for Active; 'I' for Inactive)
REMARK    1  A    between atoms: C2'_3  and  C1'_4 
REMARK    2  A    between atoms: C1'_4  and  C1_5 
ROOT
ATOM      1  C1  I4B d   1       1.684   0.813  -0.277  0.00  0.00    -0.075 A 
ATOM      2  C2  I4B d   1       0.371   1.187  -0.422  0.00  0.00     0.003 A 
ATOM      3  C3  I4B d   1      -0.667   0.262  -0.156  0.00  0.00     0.002 A 
ATOM      4  C4  I4B d   1      -0.350  -1.032   0.202  0.00  0.00    -0.004 A 
ATOM      5  C5  I4B d   1       0.981  -1.404   0.371  0.00  0.00     0.002 A 
ATOM      6  C6  I4B d   1       2.004  -0.472   0.142  0.00  0.00     0.003 A 
ENDROOT
BRANCH   1   7
ATOM      7  C1' I4B d   1       2.756   1.805  -0.598  0.00  0.00     0.060 C 
BRANCH   7   8
ATOM      8  C2' I4B d   1       2.628   2.961   0.373  0.00  0.00    -0.013 C 
ATOM      9  C4' I4B d   1       3.918   3.732   0.476  0.00  0.00     0.013 C 
ATOM     10  C3' I4B d   1       1.509   3.840  -0.100  0.00  0.00     0.013 C 
ENDBRANCH   7   8
ENDBRANCH   1   7
TORSDOF 2
ENDMDL
