MODEL 1
REMARK minimizedAffinity 2.00817037
REMARK minimizedRMSD -1
REMARK  0 active torsions:
REMARK  status: ('A' for Active; 'I' for Inactive)
ROOT
ATOM      1  C1  BNZ d   1      -2.628   4.733   1.630  0.00  0.00     0.000 A 
ATOM      2  C2  BNZ d   1      -3.369   5.655   0.940  0.00  0.00     0.000 A 
ATOM      3  C3  BNZ d   1      -3.951   5.332  -0.254  0.00  0.00     0.000 A 
ATOM      4  C4  BNZ d   1      -3.758   4.103  -0.775  0.00  0.00     0.000 A 
ATOM      5  C5  BNZ d   1      -3.005   3.166  -0.095  0.00  0.00     0.000 A 
ATOM      6  C6  BNZ d   1      -2.453   3.482   1.125  0.00  0.00     0.000 A 
ENDROOT
TORSDOF 0
ENDMDL
