MODEL 1
REMARK minimizedAffinity 7.44408035
REMARK minimizedRMSD -1
REMARK  0 active torsions:
REMARK  status: ('A' for Active; 'I' for Inactive)
ROOT
ATOM      1  C1  BNZ d   1      -3.770  -4.518  -4.219  0.00  0.00     0.000 A 
ATOM      2  C2  BNZ d   1      -5.092  -4.528  -3.864  0.00  0.00     0.000 A 
ATOM      3  C3  BNZ d   1      -5.996  -5.286  -4.555  0.00  0.00     0.000 A 
ATOM      4  C4  BNZ d   1      -5.585  -5.999  -5.623  0.00  0.00     0.000 A 
ATOM      5  C5  BNZ d   1      -4.257  -5.991  -6.000  0.00  0.00     0.000 A 
ATOM      6  C6  BNZ d   1      -3.343  -5.258  -5.278  0.00  0.00     0.000 A 
ENDROOT
TORSDOF 0
ENDMDL
