MODEL 1
REMARK minimizedAffinity 8.2446413
REMARK minimizedRMSD -1
REMARK  0 active torsions:
REMARK  status: ('A' for Active; 'I' for Inactive)
ROOT
ATOM      1  C1  BNZ d   1       4.961  -4.484  -2.965  0.00  0.00     0.000 A 
ATOM      2  C2  BNZ d   1       4.088  -4.455  -4.020  0.00  0.00     0.000 A 
ATOM      3  C3  BNZ d   1       3.362  -3.330  -4.296  0.00  0.00     0.000 A 
ATOM      4  C4  BNZ d   1       3.480  -2.251  -3.496  0.00  0.00     0.000 A 
ATOM      5  C5  BNZ d   1       4.350  -2.268  -2.423  0.00  0.00     0.000 A 
ATOM      6  C6  BNZ d   1       5.108  -3.388  -2.171  0.00  0.00     0.000 A 
ENDROOT
TORSDOF 0
ENDMDL
