MODEL 1
REMARK minimizedAffinity 5.45032167
REMARK minimizedRMSD -1
REMARK  0 active torsions:
REMARK  status: ('A' for Active; 'I' for Inactive)
ROOT
ATOM      1  C1  BNZ d   1      -3.743   3.795  -0.778  0.00  0.00     0.000 A 
ATOM      2  C2  BNZ d   1      -4.502   4.927  -0.907  0.00  0.00     0.000 A 
ATOM      3  C3  BNZ d   1      -4.308   5.998  -0.081  0.00  0.00     0.000 A 
ATOM      4  C4  BNZ d   1      -3.383   5.921   0.898  0.00  0.00     0.000 A 
ATOM      5  C5  BNZ d   1      -2.616   4.783   1.047  0.00  0.00     0.000 A 
ATOM      6  C6  BNZ d   1      -2.788   3.721   0.189  0.00  0.00     0.000 A 
ENDROOT
TORSDOF 0
ENDMDL
