MODEL 1
REMARK minimizedAffinity 8.03716755
REMARK minimizedRMSD -1
REMARK  0 active torsions:
REMARK  status: ('A' for Active; 'I' for Inactive)
ROOT
ATOM      1  C1  BNZ d   1       3.742   2.427  -5.712  0.00  0.00     0.000 A 
ATOM      2  C2  BNZ d   1       3.754   3.378  -4.727  0.00  0.00     0.000 A 
ATOM      3  C3  BNZ d   1       4.890   3.626  -4.008  0.00  0.00     0.000 A 
ATOM      4  C4  BNZ d   1       5.999   2.897  -4.247  0.00  0.00     0.000 A 
ATOM      5  C5  BNZ d   1       6.000   1.928  -5.230  0.00  0.00     0.000 A 
ATOM      6  C6  BNZ d   1       4.867   1.708  -5.979  0.00  0.00     0.000 A 
ENDROOT
TORSDOF 0
ENDMDL
