MODEL 1
REMARK minimizedAffinity 4.78859806
REMARK minimizedRMSD -1
REMARK  0 active torsions:
REMARK  status: ('A' for Active; 'I' for Inactive)
ROOT
ATOM      1  C1  BNZ d   1       4.542  -0.975  -4.829  0.00  0.00     0.000 A 
ATOM      2  C2  BNZ d   1       4.833  -0.326  -5.999  0.00  0.00     0.000 A 
ATOM      3  C3  BNZ d   1       5.580   0.819  -5.998  0.00  0.00     0.000 A 
ATOM      4  C4  BNZ d   1       6.000   1.335  -4.824  0.00  0.00     0.000 A 
ATOM      5  C5  BNZ d   1       5.706   0.698  -3.635  0.00  0.00     0.000 A 
ATOM      6  C6  BNZ d   1       4.987  -0.475  -3.644  0.00  0.00     0.000 A 
ENDROOT
TORSDOF 0
ENDMDL
