MODEL 1
REMARK minimizedAffinity 6.27321577
REMARK minimizedRMSD -1
REMARK  0 active torsions:
REMARK  status: ('A' for Active; 'I' for Inactive)
ROOT
ATOM      1  C1  BNZ d   1       5.600   3.649  -1.776  0.00  0.00     0.000 A 
ATOM      2  C2  BNZ d   1       5.761   3.662  -3.136  0.00  0.00     0.000 A 
ATOM      3  C3  BNZ d   1       5.977   4.835  -3.804  0.00  0.00     0.000 A 
ATOM      4  C4  BNZ d   1       5.992   5.996  -3.117  0.00  0.00     0.000 A 
ATOM      5  C5  BNZ d   1       5.822   6.000  -1.747  0.00  0.00     0.000 A 
ATOM      6  C6  BNZ d   1       5.643   4.813  -1.073  0.00  0.00     0.000 A 
ENDROOT
TORSDOF 0
ENDMDL
