MODEL 1
REMARK minimizedAffinity 7.87945843
REMARK minimizedRMSD -1
REMARK  0 active torsions:
REMARK  status: ('A' for Active; 'I' for Inactive)
ROOT
ATOM      1  C1  BNZ d   1       1.974   3.861   0.271  0.00  0.00     0.000 A 
ATOM      2  C2  BNZ d   1       2.205   5.201   0.430  0.00  0.00     0.000 A 
ATOM      3  C3  BNZ d   1       1.320   5.988   1.112  0.00  0.00     0.000 A 
ATOM      4  C4  BNZ d   1       0.187   5.442   1.600  0.00  0.00     0.000 A 
ATOM      5  C5  BNZ d   1      -0.065   4.094   1.440  0.00  0.00     0.000 A 
ATOM      6  C6  BNZ d   1       0.847   3.298   0.786  0.00  0.00     0.000 A 
ENDROOT
TORSDOF 0
ENDMDL
