MODEL 1
REMARK minimizedAffinity 8.52041435
REMARK minimizedRMSD -1
REMARK  0 active torsions:
REMARK  status: ('A' for Active; 'I' for Inactive)
ROOT
ATOM      1  C1  BNZ d   1      -1.501  -1.744  -1.658  0.00  0.00     0.000 A 
ATOM      2  C2  BNZ d   1      -0.187  -2.084  -1.842  0.00  0.00     0.000 A 
ATOM      3  C3  BNZ d   1       0.560  -2.572  -0.807  0.00  0.00     0.000 A 
ATOM      4  C4  BNZ d   1       0.006  -2.683   0.417  0.00  0.00     0.000 A 
ATOM      5  C5  BNZ d   1      -1.315  -2.335   0.620  0.00  0.00     0.000 A 
ATOM      6  C6  BNZ d   1      -2.076  -1.880  -0.432  0.00  0.00     0.000 A 
ENDROOT
TORSDOF 0
ENDMDL
