MODEL 1
REMARK minimizedAffinity 11.9145985
REMARK minimizedRMSD -1
REMARK  0 active torsions:
REMARK  status: ('A' for Active; 'I' for Inactive)
ROOT
ATOM      1  C1  BNZ d   1      -3.558  -4.475  -4.405  0.00  0.00     0.000 A 
ATOM      2  C2  BNZ d   1      -4.601  -3.593  -4.490  0.00  0.00     0.000 A 
ATOM      3  C3  BNZ d   1      -5.737  -3.916  -5.178  0.00  0.00     0.000 A 
ATOM      4  C4  BNZ d   1      -5.812  -5.103  -5.814  0.00  0.00     0.000 A 
ATOM      5  C5  BNZ d   1      -4.765  -5.999  -5.746  0.00  0.00     0.000 A 
ATOM      6  C6  BNZ d   1      -3.638  -5.687  -5.020  0.00  0.00     0.000 A 
ENDROOT
TORSDOF 0
ENDMDL
