MODEL 1
REMARK minimizedAffinity 4.86998081
REMARK minimizedRMSD -1
REMARK  0 active torsions:
REMARK  status: ('A' for Active; 'I' for Inactive)
ROOT
ATOM      1  C1  BNZ d   1      -2.829  -5.063  -5.645  0.00  0.00     0.000 A 
ATOM      2  C2  BNZ d   1      -3.763  -6.000  -5.999  0.00  0.00     0.000 A 
ATOM      3  C3  BNZ d   1      -5.011  -5.989  -5.442  0.00  0.00     0.000 A 
ATOM      4  C4  BNZ d   1      -5.311  -5.068  -4.504  0.00  0.00     0.000 A 
ATOM      5  C5  BNZ d   1      -4.377  -4.122  -4.129  0.00  0.00     0.000 A 
ATOM      6  C6  BNZ d   1      -3.135  -4.112  -4.720  0.00  0.00     0.000 A 
ENDROOT
TORSDOF 0
ENDMDL
