MODEL 1
REMARK minimizedAffinity 5.68813515
REMARK minimizedRMSD -1
REMARK  0 active torsions:
REMARK  status: ('A' for Active; 'I' for Inactive)
ROOT
ATOM      1  C1  BNZ d   1       2.481  -1.843  -1.909  0.00  0.00     0.000 A 
ATOM      2  C2  BNZ d   1       1.562  -2.243  -0.975  0.00  0.00     0.000 A 
ATOM      3  C3  BNZ d   1       0.229  -1.999  -1.156  0.00  0.00     0.000 A 
ATOM      4  C4  BNZ d   1      -0.179  -1.321  -2.247  0.00  0.00     0.000 A 
ATOM      5  C5  BNZ d   1       0.736  -0.902  -3.193  0.00  0.00     0.000 A 
ATOM      6  C6  BNZ d   1       2.073  -1.184  -3.028  0.00  0.00     0.000 A 
ENDROOT
TORSDOF 0
ENDMDL
