MODEL 1
REMARK minimizedAffinity 10.6052618
REMARK minimizedRMSD -1
REMARK  0 active torsions:
REMARK  status: ('A' for Active; 'I' for Inactive)
ROOT
ATOM      1  C1  BNZ d   1      -0.804  -1.257  -1.146  0.00  0.00     0.000 A 
ATOM      2  C2  BNZ d   1      -0.866  -1.515  -2.490  0.00  0.00     0.000 A 
ATOM      3  C3  BNZ d   1       0.263  -1.824  -3.196  0.00  0.00     0.000 A 
ATOM      4  C4  BNZ d   1       1.456  -1.834  -2.568  0.00  0.00     0.000 A 
ATOM      5  C5  BNZ d   1       1.536  -1.566  -1.215  0.00  0.00     0.000 A 
ATOM      6  C6  BNZ d   1       0.393  -1.294  -0.500  0.00  0.00     0.000 A 
ENDROOT
TORSDOF 0
ENDMDL
