MODEL 1
REMARK minimizedAffinity 15.0714922
REMARK minimizedRMSD -1
REMARK  0 active torsions:
REMARK  status: ('A' for Active; 'I' for Inactive)
ROOT
ATOM      1  C1  BNZ d   1       3.243   2.326  -4.268  0.00  0.00     0.000 A 
ATOM      2  C2  BNZ d   1       2.528   3.429  -3.883  0.00  0.00     0.000 A 
ATOM      3  C3  BNZ d   1       3.146   4.490  -3.284  0.00  0.00     0.000 A 
ATOM      4  C4  BNZ d   1       4.471   4.431  -3.034  0.00  0.00     0.000 A 
ATOM      5  C5  BNZ d   1       5.204   3.323  -3.408  0.00  0.00     0.000 A 
ATOM      6  C6  BNZ d   1       4.584   2.272  -4.046  0.00  0.00     0.000 A 
ENDROOT
TORSDOF 0
ENDMDL
