MODEL 1
REMARK minimizedAffinity 5.18780947
REMARK minimizedRMSD -1
REMARK  0 active torsions:
REMARK  status: ('A' for Active; 'I' for Inactive)
ROOT
ATOM      1  C1  BNZ d   1       3.306  -2.272   5.066  0.00  0.00     0.000 A 
ATOM      2  C2  BNZ d   1       4.139  -2.834   5.997  0.00  0.00     0.000 A 
ATOM      3  C3  BNZ d   1       4.378  -4.180   6.000  0.00  0.00     0.000 A 
ATOM      4  C4  BNZ d   1       3.753  -4.966   5.099  0.00  0.00     0.000 A 
ATOM      5  C5  BNZ d   1       2.903  -4.415   4.161  0.00  0.00     0.000 A 
ATOM      6  C6  BNZ d   1       2.696  -3.055   4.136  0.00  0.00     0.000 A 
ENDROOT
TORSDOF 0
ENDMDL
