MODEL 1
REMARK minimizedAffinity 6.98669243
REMARK minimizedRMSD -1
REMARK  0 active torsions:
REMARK  status: ('A' for Active; 'I' for Inactive)
ROOT
ATOM      1  C1  BNZ d   1       5.219  -3.891   3.757  0.00  0.00     0.000 A 
ATOM      2  C2  BNZ d   1       5.999  -4.066   4.869  0.00  0.00     0.000 A 
ATOM      3  C3  BNZ d   1       5.785  -3.325   5.998  0.00  0.00     0.000 A 
ATOM      4  C4  BNZ d   1       4.819  -2.383   6.000  0.00  0.00     0.000 A 
ATOM      5  C5  BNZ d   1       4.031  -2.188   4.883  0.00  0.00     0.000 A 
ATOM      6  C6  BNZ d   1       4.224  -2.963   3.762  0.00  0.00     0.000 A 
ENDROOT
TORSDOF 0
ENDMDL
