MODEL 1
REMARK minimizedAffinity 11.9460354
REMARK minimizedRMSD -1
REMARK  0 active torsions:
REMARK  status: ('A' for Active; 'I' for Inactive)
ROOT
ATOM      1  C1  BNZ d   1       3.638   5.601  -2.561  0.00  0.00     0.000 A 
ATOM      2  C2  BNZ d   1       3.654   4.874  -1.401  0.00  0.00     0.000 A 
ATOM      3  C3  BNZ d   1       4.836   4.547  -0.796  0.00  0.00     0.000 A 
ATOM      4  C4  BNZ d   1       5.999   4.912  -1.372  0.00  0.00     0.000 A 
ATOM      5  C5  BNZ d   1       6.000   5.637  -2.547  0.00  0.00     0.000 A 
ATOM      6  C6  BNZ d   1       4.808   5.998  -3.133  0.00  0.00     0.000 A 
ENDROOT
TORSDOF 0
ENDMDL
