MODEL 1
REMARK minimizedAffinity 2.33273387
REMARK minimizedRMSD -1
REMARK  0 active torsions:
REMARK  status: ('A' for Active; 'I' for Inactive)
ROOT
ATOM      1  C1  BNZ d   1       5.990  -3.852  -4.893  0.00  0.00     0.000 A 
ATOM      2  C2  BNZ d   1       5.954  -2.665  -5.575  0.00  0.00     0.000 A 
ATOM      3  C3  BNZ d   1       5.813  -1.479  -4.910  0.00  0.00     0.000 A 
ATOM      4  C4  BNZ d   1       5.669  -1.484  -3.569  0.00  0.00     0.000 A 
ATOM      5  C5  BNZ d   1       5.694  -2.673  -2.868  0.00  0.00     0.000 A 
ATOM      6  C6  BNZ d   1       5.875  -3.862  -3.537  0.00  0.00     0.000 A 
ENDROOT
TORSDOF 0
ENDMDL
