MODEL 1
REMARK minimizedAffinity 9.1222353
REMARK minimizedRMSD -1
REMARK  2 active torsions:
REMARK  status: ('A' for Active; 'I' for Inactive)
REMARK    1  A    between atoms: C2'_3  and  C1'_4 
REMARK    2  A    between atoms: C1'_4  and  C1_5 
ROOT
ATOM      1  C1  I4B d   1      -2.651   3.715  -2.210  0.00  0.00    -0.075 A 
ATOM      2  C2  I4B d   1      -3.716   3.366  -1.417  0.00  0.00     0.003 A 
ATOM      3  C3  I4B d   1      -4.669   4.341  -1.035  0.00  0.00     0.002 A 
ATOM      4  C4  I4B d   1      -4.494   5.653  -1.425  0.00  0.00    -0.004 A 
ATOM      5  C5  I4B d   1      -3.427   6.000  -2.249  0.00  0.00     0.002 A 
ATOM      6  C6  I4B d   1      -2.506   5.023  -2.654  0.00  0.00     0.003 A 
ENDROOT
BRANCH   1   7
ATOM      7  C1' I4B d   1      -1.645   2.667  -2.567  0.00  0.00     0.060 C 
BRANCH   7   8
ATOM      8  C2' I4B d   1      -1.295   1.907  -1.304  0.00  0.00    -0.013 C 
ATOM      9  C4' I4B d   1      -1.321   0.419  -1.539  0.00  0.00     0.013 C 
ATOM     10  C3' I4B d   1       0.061   2.360  -0.852  0.00  0.00     0.013 C 
ENDBRANCH   7   8
ENDBRANCH   1   7
TORSDOF 2
ENDMDL
