MODEL 1
REMARK minimizedAffinity 12.8721657
REMARK minimizedRMSD -1
REMARK  2 active torsions:
REMARK  status: ('A' for Active; 'I' for Inactive)
REMARK    1  A    between atoms: C2'_3  and  C1'_4 
REMARK    2  A    between atoms: C1'_4  and  C1_5 
ROOT
ATOM      1  C1  I4B d   1       1.339  -0.116   3.250  0.00  0.00    -0.075 A 
ATOM      2  C2  I4B d   1       0.007  -0.182   2.922  0.00  0.00     0.003 A 
ATOM      3  C3  I4B d   1      -0.981  -0.077   3.931  0.00  0.00     0.002 A 
ATOM      4  C4  I4B d   1      -0.596   0.042   5.250  0.00  0.00    -0.004 A 
ATOM      5  C5  I4B d   1       0.754   0.131   5.579  0.00  0.00     0.002 A 
ATOM      6  C6  I4B d   1       1.728   0.064   4.571  0.00  0.00     0.003 A 
ENDROOT
BRANCH   1   7
ATOM      7  C1' I4B d   1       2.357  -0.263   2.164  0.00  0.00     0.060 C 
BRANCH   7   8
ATOM      8  C2' I4B d   1       3.547   0.605   2.519  0.00  0.00    -0.013 C 
ATOM      9  C4' I4B d   1       4.815  -0.205   2.573  0.00  0.00     0.013 C 
ATOM     10  C3' I4B d   1       3.645   1.696   1.495  0.00  0.00     0.013 C 
ENDBRANCH   7   8
ENDBRANCH   1   7
TORSDOF 2
ENDMDL
