MODEL 1
REMARK minimizedAffinity 26.2560825
REMARK minimizedRMSD -1
REMARK  2 active torsions:
REMARK  status: ('A' for Active; 'I' for Inactive)
REMARK    1  A    between atoms: C2'_3  and  C1'_4 
REMARK    2  A    between atoms: C1'_4  and  C1_5 
ROOT
ATOM      1  C1  I4B d   1       3.550  -0.206   0.228  0.00  0.00    -0.075 A 
ATOM      2  C2  I4B d   1       4.234  -1.272  -0.301  0.00  0.00     0.003 A 
ATOM      3  C3  I4B d   1       4.788  -1.189  -1.601  0.00  0.00     0.002 A 
ATOM      4  C4  I4B d   1       4.593  -0.047  -2.351  0.00  0.00    -0.004 A 
ATOM      5  C5  I4B d   1       3.919   1.041  -1.805  0.00  0.00     0.002 A 
ATOM      6  C6  I4B d   1       3.405   0.967  -0.502  0.00  0.00     0.003 A 
ENDROOT
BRANCH   1   7
ATOM      7  C1' I4B d   1       2.949  -0.340   1.592  0.00  0.00     0.060 C 
BRANCH   7   8
ATOM      8  C2' I4B d   1       1.503  -0.762   1.425  0.00  0.00    -0.013 C 
ATOM      9  C4' I4B d   1       1.367  -2.262   1.451  0.00  0.00     0.013 C 
ATOM     10  C3' I4B d   1       0.706  -0.127   2.525  0.00  0.00     0.013 C 
ENDBRANCH   7   8
ENDBRANCH   1   7
TORSDOF 2
ENDMDL
