MODEL 1
REMARK minimizedAffinity 18.7479439
REMARK minimizedRMSD -1
REMARK  2 active torsions:
REMARK  status: ('A' for Active; 'I' for Inactive)
REMARK    1  A    between atoms: C2'_3  and  C1'_4 
REMARK    2  A    between atoms: C1'_4  and  C1_5 
ROOT
ATOM      1  C1  I4B d   1       2.395   0.192   2.870  0.00  0.00    -0.075 A 
ATOM      2  C2  I4B d   1       1.411  -0.396   2.114  0.00  0.00     0.003 A 
ATOM      3  C3  I4B d   1       0.194  -0.796   2.715  0.00  0.00     0.002 A 
ATOM      4  C4  I4B d   1       0.023  -0.637   4.075  0.00  0.00    -0.004 A 
ATOM      5  C5  I4B d   1       1.012  -0.020   4.836  0.00  0.00     0.002 A 
ATOM      6  C6  I4B d   1       2.200   0.409   4.227  0.00  0.00     0.003 A 
ENDROOT
BRANCH   1   7
ATOM      7  C1' I4B d   1       3.681   0.572   2.208  0.00  0.00     0.060 C 
BRANCH   7   8
ATOM      8  C2' I4B d   1       4.541  -0.671   2.110  0.00  0.00    -0.013 C 
ATOM      9  C4' I4B d   1       4.611  -1.175   0.693  0.00  0.00     0.013 C 
ATOM     10  C3' I4B d   1       5.906  -0.333   2.632  0.00  0.00     0.013 C 
ENDBRANCH   7   8
ENDBRANCH   1   7
TORSDOF 2
ENDMDL
