MODEL 1
REMARK minimizedAffinity 15.3196249
REMARK minimizedRMSD -1
REMARK  2 active torsions:
REMARK  status: ('A' for Active; 'I' for Inactive)
REMARK    1  A    between atoms: C2'_3  and  C1'_4 
REMARK    2  A    between atoms: C1'_4  and  C1_5 
ROOT
ATOM      1  C1  I4B d   1      -1.270  -2.300   2.682  0.00  0.00    -0.075 A 
ATOM      2  C2  I4B d   1      -1.089  -1.418   3.719  0.00  0.00     0.003 A 
ATOM      3  C3  I4B d   1       0.029  -0.549   3.729  0.00  0.00     0.002 A 
ATOM      4  C4  I4B d   1       0.962  -0.630   2.715  0.00  0.00    -0.004 A 
ATOM      5  C5  I4B d   1       0.765  -1.509   1.653  0.00  0.00     0.002 A 
ATOM      6  C6  I4B d   1      -0.364  -2.341   1.630  0.00  0.00     0.003 A 
ENDROOT
BRANCH   1   7
ATOM      7  C1' I4B d   1      -2.444  -3.226   2.720  0.00  0.00     0.060 C 
BRANCH   7   8
ATOM      8  C2' I4B d   1      -3.429  -2.774   1.662  0.00  0.00    -0.013 C 
ATOM      9  C4' I4B d   1      -3.727  -3.881   0.686  0.00  0.00     0.013 C 
ATOM     10  C3' I4B d   1      -4.677  -2.315   2.357  0.00  0.00     0.013 C 
ENDBRANCH   7   8
ENDBRANCH   1   7
TORSDOF 2
ENDMDL
