MODEL 1
REMARK minimizedAffinity 13.2162828
REMARK minimizedRMSD -1
REMARK  2 active torsions:
REMARK  status: ('A' for Active; 'I' for Inactive)
REMARK    1  A    between atoms: C2'_3  and  C1'_4 
REMARK    2  A    between atoms: C1'_4  and  C1_5 
ROOT
ATOM      1  C1  I4B d   1       0.727   3.414  -0.409  0.00  0.00    -0.075 A 
ATOM      2  C2  I4B d   1       0.150   2.440   0.365  0.00  0.00     0.003 A 
ATOM      3  C3  I4B d   1      -0.788   1.542  -0.200  0.00  0.00     0.002 A 
ATOM      4  C4  I4B d   1      -1.154   1.686  -1.523  0.00  0.00    -0.004 A 
ATOM      5  C5  I4B d   1      -0.551   2.660  -2.313  0.00  0.00     0.002 A 
ATOM      6  C6  I4B d   1       0.405   3.522  -1.756  0.00  0.00     0.003 A 
ENDROOT
BRANCH   1   7
ATOM      7  C1' I4B d   1       1.689   4.367   0.228  0.00  0.00     0.060 C 
BRANCH   7   8
ATOM      8  C2' I4B d   1       1.197   5.775  -0.038  0.00  0.00    -0.013 C 
ATOM      9  C4' I4B d   1       0.954   5.998  -1.508  0.00  0.00     0.013 C 
ATOM     10  C3' I4B d   1      -0.057   5.986   0.756  0.00  0.00     0.013 C 
ENDBRANCH   7   8
ENDBRANCH   1   7
TORSDOF 2
ENDMDL
