MODEL 1
REMARK minimizedAffinity 9.06744671
REMARK minimizedRMSD -1
REMARK  2 active torsions:
REMARK  status: ('A' for Active; 'I' for Inactive)
REMARK    1  A    between atoms: C2'_3  and  C1'_4 
REMARK    2  A    between atoms: C1'_4  and  C1_5 
ROOT
ATOM      1  C1  I4B d   1       0.279   3.732  -1.317  0.00  0.00    -0.075 A 
ATOM      2  C2  I4B d   1       0.691   4.853  -1.993  0.00  0.00     0.003 A 
ATOM      3  C3  I4B d   1       1.118   5.999  -1.280  0.00  0.00     0.002 A 
ATOM      4  C4  I4B d   1       1.069   5.998   0.100  0.00  0.00    -0.004 A 
ATOM      5  C5  I4B d   1       0.672   4.853   0.784  0.00  0.00     0.002 A 
ATOM      6  C6  I4B d   1       0.286   3.708   0.072  0.00  0.00     0.003 A 
ENDROOT
BRANCH   1   7
ATOM      7  C1' I4B d   1      -0.197   2.551  -2.102  0.00  0.00     0.060 C 
BRANCH   7   8
ATOM      8  C2' I4B d   1      -1.658   2.771  -2.437  0.00  0.00    -0.013 C 
ATOM      9  C4' I4B d   1      -1.819   3.352  -3.817  0.00  0.00     0.013 C 
ATOM     10  C3' I4B d   1      -2.364   1.453  -2.319  0.00  0.00     0.013 C 
ENDBRANCH   7   8
ENDBRANCH   1   7
TORSDOF 2
ENDMDL
