MODEL 1
REMARK minimizedAffinity 4.51304293
REMARK minimizedRMSD -1
REMARK  2 active torsions:
REMARK  status: ('A' for Active; 'I' for Inactive)
REMARK    1  A    between atoms: C2'_3  and  C1'_4 
REMARK    2  A    between atoms: C1'_4  and  C1_5 
ROOT
ATOM      1  C1  I4B d   1       0.692   3.411  -0.430  0.00  0.00    -0.075 A 
ATOM      2  C2  I4B d   1      -0.084   2.625   0.385  0.00  0.00     0.003 A 
ATOM      3  C3  I4B d   1      -1.083   1.790  -0.171  0.00  0.00     0.002 A 
ATOM      4  C4  I4B d   1      -1.306   1.812  -1.533  0.00  0.00    -0.004 A 
ATOM      5  C5  I4B d   1      -0.504   2.593  -2.360  0.00  0.00     0.002 A 
ATOM      6  C6  I4B d   1       0.509   3.388  -1.807  0.00  0.00     0.003 A 
ENDROOT
BRANCH   1   7
ATOM      7  C1' I4B d   1       1.716   4.305   0.193  0.00  0.00     0.060 C 
BRANCH   7   8
ATOM      8  C2' I4B d   1       1.306   5.740  -0.069  0.00  0.00    -0.013 C 
ATOM      9  C4' I4B d   1       1.143   6.000  -1.543  0.00  0.00     0.013 C 
ATOM     10  C3' I4B d   1       0.027   5.998   0.671  0.00  0.00     0.013 C 
ENDBRANCH   7   8
ENDBRANCH   1   7
TORSDOF 2
ENDMDL
