MODEL 1
REMARK minimizedAffinity 9.14589214
REMARK minimizedRMSD -1
REMARK  2 active torsions:
REMARK  status: ('A' for Active; 'I' for Inactive)
REMARK    1  A    between atoms: C2'_3  and  C1'_4 
REMARK    2  A    between atoms: C1'_4  and  C1_5 
ROOT
ATOM      1  C1  I4B d   1      -2.355   4.321  -3.521  0.00  0.00    -0.075 A 
ATOM      2  C2  I4B d   1      -2.537   5.642  -3.195  0.00  0.00     0.003 A 
ATOM      3  C3  I4B d   1      -3.376   6.000  -2.111  0.00  0.00     0.002 A 
ATOM      4  C4  I4B d   1      -4.048   5.014  -1.418  0.00  0.00    -0.004 A 
ATOM      5  C5  I4B d   1      -3.844   3.674  -1.735  0.00  0.00     0.002 A 
ATOM      6  C6  I4B d   1      -2.983   3.324  -2.785  0.00  0.00     0.003 A 
ENDROOT
BRANCH   1   7
ATOM      7  C1' I4B d   1      -1.489   3.980  -4.692  0.00  0.00     0.060 C 
BRANCH   7   8
ATOM      8  C2' I4B d   1      -2.220   4.399  -5.951  0.00  0.00    -0.013 C 
ATOM      9  C4' I4B d   1      -3.604   3.808  -6.000  0.00  0.00     0.013 C 
ATOM     10  C3' I4B d   1      -2.270   5.898  -5.980  0.00  0.00     0.013 C 
ENDBRANCH   7   8
ENDBRANCH   1   7
TORSDOF 2
ENDMDL
