MODEL 1
REMARK minimizedAffinity 6.07109642
REMARK minimizedRMSD -1
REMARK  2 active torsions:
REMARK  status: ('A' for Active; 'I' for Inactive)
REMARK    1  A    between atoms: C2'_3  and  C1'_4 
REMARK    2  A    between atoms: C1'_4  and  C1_5 
ROOT
ATOM      1  C1  I4B d   1      -0.310   3.255  -1.581  0.00  0.00    -0.075 A 
ATOM      2  C2  I4B d   1       0.605   4.050  -2.224  0.00  0.00     0.003 A 
ATOM      3  C3  I4B d   1       1.562   4.781  -1.480  0.00  0.00     0.002 A 
ATOM      4  C4  I4B d   1       1.536   4.726  -0.101  0.00  0.00    -0.004 A 
ATOM      5  C5  I4B d   1       0.622   3.901   0.548  0.00  0.00     0.002 A 
ATOM      6  C6  I4B d   1      -0.299   3.151  -0.196  0.00  0.00     0.003 A 
ENDROOT
BRANCH   1   7
ATOM      7  C1' I4B d   1      -1.328   2.523  -2.397  0.00  0.00     0.060 C 
BRANCH   7   8
ATOM      8  C2' I4B d   1      -2.528   3.431  -2.571  0.00  0.00    -0.013 C 
ATOM      9  C4' I4B d   1      -2.534   4.072  -3.934  0.00  0.00     0.013 C 
ATOM     10  C3' I4B d   1      -3.765   2.611  -2.353  0.00  0.00     0.013 C 
ENDBRANCH   7   8
ENDBRANCH   1   7
TORSDOF 2
ENDMDL
