MODEL 1
REMARK minimizedAffinity 11.2490034
REMARK minimizedRMSD -1
REMARK  2 active torsions:
REMARK  status: ('A' for Active; 'I' for Inactive)
REMARK    1  A    between atoms: C2'_3  and  C1'_4 
REMARK    2  A    between atoms: C1'_4  and  C1_5 
ROOT
ATOM      1  C1  I4B d   1      -1.515   2.643  -1.869  0.00  0.00    -0.075 A 
ATOM      2  C2  I4B d   1      -0.307   2.833  -2.493  0.00  0.00     0.003 A 
ATOM      3  C3  I4B d   1       0.859   3.081  -1.729  0.00  0.00     0.002 A 
ATOM      4  C4  I4B d   1       0.763   3.180  -0.356  0.00  0.00    -0.004 A 
ATOM      5  C5  I4B d   1      -0.458   2.964   0.277  0.00  0.00     0.002 A 
ATOM      6  C6  I4B d   1      -1.602   2.682  -0.483  0.00  0.00     0.003 A 
ENDROOT
BRANCH   1   7
ATOM      7  C1' I4B d   1      -2.732   2.416  -2.708  0.00  0.00     0.060 C 
BRANCH   7   8
ATOM      8  C2' I4B d   1      -3.925   2.304  -1.781  0.00  0.00    -0.013 C 
ATOM      9  C4' I4B d   1      -4.367   3.660  -1.297  0.00  0.00     0.013 C 
ATOM     10  C3' I4B d   1      -5.026   1.608  -2.524  0.00  0.00     0.013 C 
ENDBRANCH   7   8
ENDBRANCH   1   7
TORSDOF 2
ENDMDL
