MODEL 1
REMARK minimizedAffinity 15.5219526
REMARK minimizedRMSD -1
REMARK  2 active torsions:
REMARK  status: ('A' for Active; 'I' for Inactive)
REMARK    1  A    between atoms: C2'_3  and  C1'_4 
REMARK    2  A    between atoms: C1'_4  and  C1_5 
ROOT
ATOM      1  C1  I4B d   1      -1.112  -2.738   2.722  0.00  0.00    -0.075 A 
ATOM      2  C2  I4B d   1      -0.013  -2.381   1.982  0.00  0.00     0.003 A 
ATOM      3  C3  I4B d   1       0.783  -1.279   2.374  0.00  0.00     0.002 A 
ATOM      4  C4  I4B d   1       0.418  -0.535   3.478  0.00  0.00    -0.004 A 
ATOM      5  C5  I4B d   1      -0.683  -0.912   4.241  0.00  0.00     0.002 A 
ATOM      6  C6  I4B d   1      -1.447  -2.028   3.868  0.00  0.00     0.003 A 
ENDROOT
BRANCH   1   7
ATOM      7  C1' I4B d   1      -1.950  -3.888   2.260  0.00  0.00     0.060 C 
BRANCH   7   8
ATOM      8  C2' I4B d   1      -2.810  -3.406   1.109  0.00  0.00    -0.013 C 
ATOM      9  C4' I4B d   1      -3.019  -4.496   0.091  0.00  0.00     0.013 C 
ATOM     10  C3' I4B d   1      -4.117  -2.935   1.674  0.00  0.00     0.013 C 
ENDBRANCH   7   8
ENDBRANCH   1   7
TORSDOF 2
ENDMDL
