MODEL 1
REMARK minimizedAffinity 6.67742682
REMARK minimizedRMSD -1
REMARK  2 active torsions:
REMARK  status: ('A' for Active; 'I' for Inactive)
REMARK    1  A    between atoms: C2'_3  and  C1'_4 
REMARK    2  A    between atoms: C1'_4  and  C1_5 
ROOT
ATOM      1  C1  I4B d   1      -0.361  -2.623   0.793  0.00  0.00    -0.075 A 
ATOM      2  C2  I4B d   1       0.711  -3.400   1.156  0.00  0.00     0.003 A 
ATOM      3  C3  I4B d   1       1.734  -2.864   1.975  0.00  0.00     0.002 A 
ATOM      4  C4  I4B d   1       1.671  -1.541   2.363  0.00  0.00    -0.004 A 
ATOM      5  C5  I4B d   1       0.572  -0.762   2.013  0.00  0.00     0.002 A 
ATOM      6  C6  I4B d   1      -0.457  -1.309   1.233  0.00  0.00     0.003 A 
ENDROOT
BRANCH   1   7
ATOM      7  C1' I4B d   1      -1.408  -3.211  -0.100  0.00  0.00     0.060 C 
BRANCH   7   8
ATOM      8  C2' I4B d   1      -2.125  -4.298   0.675  0.00  0.00    -0.013 C 
ATOM      9  C4' I4B d   1      -3.008  -3.712   1.745  0.00  0.00     0.013 C 
ATOM     10  C3' I4B d   1      -2.924  -5.111  -0.300  0.00  0.00     0.013 C 
ENDBRANCH   7   8
ENDBRANCH   1   7
TORSDOF 2
ENDMDL
