MODEL 1
REMARK minimizedAffinity 15.6044846
REMARK minimizedRMSD -1
REMARK  2 active torsions:
REMARK  status: ('A' for Active; 'I' for Inactive)
REMARK    1  A    between atoms: C2'_3  and  C1'_4 
REMARK    2  A    between atoms: C1'_4  and  C1_5 
ROOT
ATOM      1  C1  I4B d   1       1.204  -0.334   3.148  0.00  0.00    -0.075 A 
ATOM      2  C2  I4B d   1      -0.128  -0.361   2.815  0.00  0.00     0.003 A 
ATOM      3  C3  I4B d   1      -1.116  -0.256   3.824  0.00  0.00     0.002 A 
ATOM      4  C4  I4B d   1      -0.732  -0.178   5.147  0.00  0.00    -0.004 A 
ATOM      5  C5  I4B d   1       0.618  -0.129   5.480  0.00  0.00     0.002 A 
ATOM      6  C6  I4B d   1       1.593  -0.194   4.474  0.00  0.00     0.003 A 
ENDROOT
BRANCH   1   7
ATOM      7  C1' I4B d   1       2.221  -0.480   2.061  0.00  0.00     0.060 C 
BRANCH   7   8
ATOM      8  C2' I4B d   1       3.158   0.709   2.136  0.00  0.00    -0.013 C 
ATOM      9  C4' I4B d   1       4.450   0.343   2.819  0.00  0.00     0.013 C 
ATOM     10  C3' I4B d   1       3.402   1.195   0.739  0.00  0.00     0.013 C 
ENDBRANCH   7   8
ENDBRANCH   1   7
TORSDOF 2
ENDMDL
