MODEL 1
REMARK minimizedAffinity -2.54275274
REMARK minimizedRMSD -1
REMARK  0 active torsions:
REMARK  status: ('A' for Active; 'I' for Inactive)
ROOT
ATOM      1  C   UNL d   1       2.409   0.389   0.727  0.00  0.00     0.023 A 
ATOM      2  C1  UNL d   1       2.030  -0.914   0.406  0.00  0.00     0.003 A 
ATOM      3  C2  UNL d   1       0.738  -1.173  -0.058  0.00  0.00     0.048 A 
ATOM      4  C3  UNL d   1      -0.169  -0.123  -0.198  0.00  0.00     0.023 A 
ATOM      5  C4  UNL d   1       0.206   1.183   0.121  0.00  0.00     0.048 A 
ATOM      6  C5  UNL d   1       1.499   1.436   0.585  0.00  0.00     0.003 A 
ATOM      7  I   UNL d   1      -2.092  -0.506  -0.888  0.00  0.00    -0.146 I 
ENDROOT
TORSDOF 0
ENDMDL
