MODEL 1
REMARK minimizedAffinity -3.2657795
REMARK minimizedRMSD -1
REMARK  0 active torsions:
REMARK  status: ('A' for Active; 'I' for Inactive)
ROOT
ATOM      1  C   UNL d   1       3.075   0.093   0.745  0.00  0.00     0.023 A 
ATOM      2  C1  UNL d   1       1.831   0.258   1.353  0.00  0.00     0.003 A 
ATOM      3  C2  UNL d   1       0.703   0.530   0.576  0.00  0.00     0.048 A 
ATOM      4  C3  UNL d   1       0.826   0.635  -0.809  0.00  0.00     0.023 A 
ATOM      5  C4  UNL d   1       2.069   0.469  -1.422  0.00  0.00     0.048 A 
ATOM      6  C5  UNL d   1       3.194   0.198  -0.641  0.00  0.00     0.003 A 
ATOM      7  I   UNL d   1      -0.851   1.039  -1.968  0.00  0.00    -0.146 I 
ENDROOT
TORSDOF 0
ENDMDL
