MODEL 1
REMARK minimizedAffinity -3.96725178
REMARK minimizedRMSD -1
REMARK  0 active torsions:
REMARK  status: ('A' for Active; 'I' for Inactive)
ROOT
ATOM      1  C   UNL d   1       3.304  -0.810   1.727  0.00  0.00     0.023 A 
ATOM      2  C1  UNL d   1       3.103   0.241   0.833  0.00  0.00     0.003 A 
ATOM      3  C2  UNL d   1       1.838   0.459   0.282  0.00  0.00     0.048 A 
ATOM      4  C3  UNL d   1       0.779  -0.377   0.632  0.00  0.00     0.023 A 
ATOM      5  C4  UNL d   1       0.975  -1.430   1.527  0.00  0.00     0.048 A 
ATOM      6  C5  UNL d   1       2.241  -1.645   2.074  0.00  0.00     0.003 A 
ATOM      7  I   UNL d   1      -1.105  -0.054  -0.186  0.00  0.00    -0.146 I 
ENDROOT
TORSDOF 0
ENDMDL
