MODEL 1
REMARK minimizedAffinity 8.95195103
REMARK minimizedRMSD -1
REMARK  0 active torsions:
REMARK  status: ('A' for Active; 'I' for Inactive)
ROOT
ATOM      1  C   UNL d   1       1.088   3.153  -0.567  0.00  0.00     0.023 A 
ATOM      2  C1  UNL d   1       1.845   2.059  -0.987  0.00  0.00     0.003 A 
ATOM      3  C2  UNL d   1       1.891   0.901  -0.209  0.00  0.00     0.048 A 
ATOM      4  C3  UNL d   1       1.177   0.843   0.988  0.00  0.00     0.023 A 
ATOM      5  C4  UNL d   1       0.418   1.935   1.411  0.00  0.00     0.048 A 
ATOM      6  C5  UNL d   1       0.375   3.091   0.630  0.00  0.00     0.003 A 
ATOM      7  I   UNL d   1       1.244  -0.880   2.148  0.00  0.00    -0.146 I 
ENDROOT
TORSDOF 0
ENDMDL
