MODEL 1
REMARK minimizedAffinity -0.884298444
REMARK minimizedRMSD -1
REMARK  0 active torsions:
REMARK  status: ('A' for Active; 'I' for Inactive)
ROOT
ATOM      1  C   UNL d   1      -0.174   0.150   1.178  0.00  0.00     0.023 A 
ATOM      2  C1  UNL d   1      -0.751  -1.060   0.790  0.00  0.00     0.003 A 
ATOM      3  C2  UNL d   1      -1.396  -1.163  -0.444  0.00  0.00     0.048 A 
ATOM      4  C3  UNL d   1      -1.460  -0.054  -1.286  0.00  0.00     0.023 A 
ATOM      5  C4  UNL d   1      -0.884   1.159  -0.902  0.00  0.00     0.048 A 
ATOM      6  C5  UNL d   1      -0.241   1.258   0.333  0.00  0.00     0.003 A 
ATOM      7  I   UNL d   1      -2.419  -0.205  -3.123  0.00  0.00    -0.146 I 
ENDROOT
TORSDOF 0
ENDMDL
