MODEL 1
REMARK minimizedAffinity -3.79600573
REMARK minimizedRMSD -1
REMARK  0 active torsions:
REMARK  status: ('A' for Active; 'I' for Inactive)
ROOT
ATOM      1  C   UNL d   1       2.773  -0.623   1.820  0.00  0.00     0.023 A 
ATOM      2  C1  UNL d   1       2.075  -1.607   1.120  0.00  0.00     0.003 A 
ATOM      3  C2  UNL d   1       1.022  -1.250   0.275  0.00  0.00     0.048 A 
ATOM      4  C3  UNL d   1       0.673   0.093   0.135  0.00  0.00     0.023 A 
ATOM      5  C4  UNL d   1       1.369   1.081   0.833  0.00  0.00     0.048 A 
ATOM      6  C5  UNL d   1       2.421   0.719   1.677  0.00  0.00     0.003 A 
ATOM      7  I   UNL d   1      -0.895   0.626  -1.122  0.00  0.00    -0.146 I 
ENDROOT
TORSDOF 0
ENDMDL
