MODEL 1
REMARK minimizedAffinity -3.62792802
REMARK minimizedRMSD -1
REMARK  0 active torsions:
REMARK  status: ('A' for Active; 'I' for Inactive)
ROOT
ATOM      1  C   UNL d   1      -2.978   0.120  -2.822  0.00  0.00     0.023 A 
ATOM      2  C1  UNL d   1      -3.203   0.125  -1.445  0.00  0.00     0.003 A 
ATOM      3  C2  UNL d   1      -2.128   0.026  -0.560  0.00  0.00     0.048 A 
ATOM      4  C3  UNL d   1      -0.830  -0.077  -1.058  0.00  0.00     0.023 A 
ATOM      5  C4  UNL d   1      -0.599  -0.082  -2.434  0.00  0.00     0.048 A 
ATOM      6  C5  UNL d   1      -1.677   0.016  -3.316  0.00  0.00     0.003 A 
ATOM      7  I   UNL d   1       0.773  -0.224   0.258  0.00  0.00    -0.146 I 
ENDROOT
TORSDOF 0
ENDMDL
