MODEL 1
REMARK minimizedAffinity -3.22071481
REMARK minimizedRMSD -1
REMARK  0 active torsions:
REMARK  status: ('A' for Active; 'I' for Inactive)
ROOT
ATOM      1  C   UNL d   1       1.951  -0.156   0.989  0.00  0.00     0.023 A 
ATOM      2  C1  UNL d   1       1.441  -1.344   0.464  0.00  0.00     0.003 A 
ATOM      3  C2  UNL d   1       0.302  -1.321  -0.343  0.00  0.00     0.048 A 
ATOM      4  C3  UNL d   1      -0.323  -0.105  -0.622  0.00  0.00     0.023 A 
ATOM      5  C4  UNL d   1       0.184   1.086  -0.100  0.00  0.00     0.048 A 
ATOM      6  C5  UNL d   1       1.323   1.057   0.707  0.00  0.00     0.003 A 
ATOM      7  I   UNL d   1      -2.019  -0.068  -1.823  0.00  0.00    -0.146 I 
ENDROOT
TORSDOF 0
ENDMDL
