MODEL 1
REMARK minimizedAffinity -4.47523451
REMARK minimizedRMSD -1
REMARK  0 active torsions:
REMARK  status: ('A' for Active; 'I' for Inactive)
ROOT
ATOM      1  C   UNL d   1       3.007  -0.012   0.627  0.00  0.00     0.023 A 
ATOM      2  C1  UNL d   1       2.541  -1.085  -0.133  0.00  0.00     0.003 A 
ATOM      3  C2  UNL d   1       1.270  -1.036  -0.708  0.00  0.00     0.048 A 
ATOM      4  C3  UNL d   1       0.470   0.091  -0.521  0.00  0.00     0.023 A 
ATOM      5  C4  UNL d   1       0.932   1.168   0.237  0.00  0.00     0.048 A 
ATOM      6  C5  UNL d   1       2.203   1.113   0.812  0.00  0.00     0.003 A 
ATOM      7  I   UNL d   1      -1.422   0.167  -1.378  0.00  0.00    -0.146 I 
ENDROOT
TORSDOF 0
ENDMDL
