MODEL 1
REMARK minimizedAffinity -2.54614878
REMARK minimizedRMSD -1
REMARK  0 active torsions:
REMARK  status: ('A' for Active; 'I' for Inactive)
ROOT
ATOM      1  C   UNL d   1       0.322   1.808   2.795  0.00  0.00    -0.002 A 
ATOM      2  C1  UNL d   1       0.621   0.474   3.030  0.00  0.00     0.010 A 
ATOM      3  C2  UNL d   1       0.410  -0.487   2.039  0.00  0.00     0.041 A 
ATOM      4  C3  UNL d   1      -0.110  -0.080   0.795  0.00  0.00    -0.075 A 
ATOM      5  S   UNL d   1      -0.451  -1.080  -0.567  0.00  0.00     0.015 SA
ATOM      6  C4  UNL d   1      -1.000   0.240  -1.494  0.00  0.00     0.022 A 
ATOM      7  C5  UNL d   1      -0.933   1.423  -0.797  0.00  0.00     0.026 A 
ATOM      8  C6  UNL d   1      -0.419   1.258   0.534  0.00  0.00    -0.082 A 
ATOM      9  C7  UNL d   1      -0.194   2.208   1.559  0.00  0.00     0.045 A 
ENDROOT
TORSDOF 0
ENDMDL
