MODEL 1
REMARK minimizedAffinity -5.38405848
REMARK minimizedRMSD -1
REMARK  0 active torsions:
REMARK  status: ('A' for Active; 'I' for Inactive)
ROOT
ATOM      1  C   UNL d   1      -0.446   1.629   3.088  0.00  0.00    -0.002 A 
ATOM      2  C1  UNL d   1       0.211   0.510   2.595  0.00  0.00     0.010 A 
ATOM      3  C2  UNL d   1       0.385   0.336   1.220  0.00  0.00     0.041 A 
ATOM      4  C3  UNL d   1      -0.115   1.317   0.341  0.00  0.00    -0.075 A 
ATOM      5  S   UNL d   1      -0.017   1.317  -1.380  0.00  0.00     0.015 SA
ATOM      6  C4  UNL d   1      -0.843   2.802  -1.502  0.00  0.00     0.022 A 
ATOM      7  C5  UNL d   1      -1.193   3.300  -0.269  0.00  0.00     0.026 A 
ATOM      8  C6  UNL d   1      -0.778   2.453   0.814  0.00  0.00    -0.082 A 
ATOM      9  C7  UNL d   1      -0.940   2.599   2.212  0.00  0.00     0.045 A 
ENDROOT
TORSDOF 0
ENDMDL
