MODEL 1
REMARK minimizedAffinity -2.55057216
REMARK minimizedRMSD -1
REMARK  0 active torsions:
REMARK  status: ('A' for Active; 'I' for Inactive)
ROOT
ATOM      1  C   UNL d   1       0.399   2.698   2.062  0.00  0.00    -0.002 A 
ATOM      2  C1  UNL d   1       0.740   1.384   2.347  0.00  0.00     0.010 A 
ATOM      3  C2  UNL d   1       0.848   0.441   1.322  0.00  0.00     0.041 A 
ATOM      4  C3  UNL d   1       0.608   0.846  -0.005  0.00  0.00    -0.075 A 
ATOM      5  S   UNL d   1       0.683  -0.135  -1.421  0.00  0.00     0.015 SA
ATOM      6  C4  UNL d   1       0.265   1.168  -2.437  0.00  0.00     0.022 A 
ATOM      7  C5  UNL d   1       0.069   2.331  -1.729  0.00  0.00     0.026 A 
ATOM      8  C6  UNL d   1       0.264   2.164  -0.316  0.00  0.00    -0.082 A 
ATOM      9  C7  UNL d   1       0.161   3.096   0.744  0.00  0.00     0.045 A 
ENDROOT
TORSDOF 0
ENDMDL
