MODEL 1
REMARK minimizedAffinity -2.84064651
REMARK minimizedRMSD -1
REMARK  0 active torsions:
REMARK  status: ('A' for Active; 'I' for Inactive)
ROOT
ATOM      1  C   UNL d   1       0.461   1.845   2.232  0.00  0.00    -0.002 A 
ATOM      2  C1  UNL d   1      -0.808   2.207   1.803  0.00  0.00     0.010 A 
ATOM      3  C2  UNL d   1      -1.496   1.423   0.875  0.00  0.00     0.041 A 
ATOM      4  C3  UNL d   1      -0.881   0.255   0.382  0.00  0.00    -0.075 A 
ATOM      5  S   UNL d   1      -1.534  -0.859  -0.760  0.00  0.00     0.015 SA
ATOM      6  C4  UNL d   1      -0.144  -1.844  -0.706  0.00  0.00     0.022 A 
ATOM      7  C5  UNL d   1       0.805  -1.349   0.157  0.00  0.00     0.026 A 
ATOM      8  C6  UNL d   1       0.396  -0.131   0.799  0.00  0.00    -0.082 A 
ATOM      9  C7  UNL d   1       1.067   0.686   1.740  0.00  0.00     0.045 A 
ENDROOT
TORSDOF 0
ENDMDL
