MODEL 1
REMARK minimizedAffinity -4.32112503
REMARK minimizedRMSD -1
REMARK  0 active torsions:
REMARK  status: ('A' for Active; 'I' for Inactive)
ROOT
ATOM      1  C   UNL d   1       0.159  -0.869  -1.308  0.00  0.00    -0.002 A 
ATOM      2  C1  UNL d   1       1.333  -0.932  -0.571  0.00  0.00     0.010 A 
ATOM      3  C2  UNL d   1       1.473  -0.194   0.606  0.00  0.00     0.041 A 
ATOM      4  C3  UNL d   1       0.402   0.615   1.035  0.00  0.00    -0.075 A 
ATOM      5  S   UNL d   1       0.347   1.606   2.445  0.00  0.00     0.015 SA
ATOM      6  C4  UNL d   1      -1.236   2.135   2.102  0.00  0.00     0.022 A 
ATOM      7  C5  UNL d   1      -1.726   1.580   0.944  0.00  0.00     0.026 A 
ATOM      8  C6  UNL d   1      -0.790   0.695   0.310  0.00  0.00    -0.082 A 
ATOM      9  C7  UNL d   1      -0.901  -0.065  -0.880  0.00  0.00     0.045 A 
ENDROOT
TORSDOF 0
ENDMDL
