MODEL 1
REMARK minimizedAffinity -3.93648124
REMARK minimizedRMSD -1
REMARK  0 active torsions:
REMARK  status: ('A' for Active; 'I' for Inactive)
ROOT
ATOM      1  C   UNL d   1       0.091   1.585  -2.239  0.00  0.00    -0.002 A 
ATOM      2  C1  UNL d   1       0.820   0.500  -1.774  0.00  0.00     0.010 A 
ATOM      3  C2  UNL d   1       0.774   0.139  -0.426  0.00  0.00     0.041 A 
ATOM      4  C3  UNL d   1      -0.026   0.893   0.455  0.00  0.00    -0.075 A 
ATOM      5  S   UNL d   1      -0.236   0.636   2.146  0.00  0.00     0.015 SA
ATOM      6  C4  UNL d   1      -1.300   1.960   2.291  0.00  0.00     0.022 A 
ATOM      7  C5  UNL d   1      -1.501   2.594   1.088  0.00  0.00     0.026 A 
ATOM      8  C6  UNL d   1      -0.770   1.990   0.010  0.00  0.00    -0.082 A 
ATOM      9  C7  UNL d   1      -0.702   2.331  -1.363  0.00  0.00     0.045 A 
ENDROOT
TORSDOF 0
ENDMDL
