MODEL 1
REMARK minimizedAffinity 2.270854
REMARK minimizedRMSD -1
REMARK  0 active torsions:
REMARK  status: ('A' for Active; 'I' for Inactive)
ROOT
ATOM      1  C   UNL d   1      -0.073   4.409   0.123  0.00  0.00     0.078 C 
ATOM      2  C1  UNL d   1       0.859   3.240  -0.002  0.00  0.00    -0.077 A 
ATOM      3  C2  UNL d   1       0.370   1.952  -0.251  0.00  0.00    -0.001 A 
ATOM      4  C3  UNL d   1       1.248   0.872  -0.355  0.00  0.00     0.003 A 
ATOM      5  C4  UNL d   1       2.620   1.069  -0.209  0.00  0.00    -0.005 A 
ATOM      6  C5  UNL d   1       3.115   2.347   0.041  0.00  0.00     0.003 A 
ATOM      7  C6  UNL d   1       2.239   3.428   0.145  0.00  0.00    -0.001 A 
ENDROOT
TORSDOF 0
ENDMDL
