MODEL 1
REMARK minimizedAffinity 0.115322359
REMARK minimizedRMSD -1
REMARK  0 active torsions:
REMARK  status: ('A' for Active; 'I' for Inactive)
ROOT
ATOM      1  C   UNL d   1      -5.999  -0.189  -4.902  0.00  0.00     0.078 C 
ATOM      2  C1  UNL d   1      -4.994   0.781  -4.357  0.00  0.00    -0.077 A 
ATOM      3  C2  UNL d   1      -5.394   2.019  -3.840  0.00  0.00    -0.001 A 
ATOM      4  C3  UNL d   1      -4.446   2.917  -3.344  0.00  0.00     0.003 A 
ATOM      5  C4  UNL d   1      -3.093   2.586  -3.362  0.00  0.00    -0.005 A 
ATOM      6  C5  UNL d   1      -2.685   1.357  -3.877  0.00  0.00     0.003 A 
ATOM      7  C6  UNL d   1      -3.632   0.458  -4.373  0.00  0.00    -0.001 A 
ENDROOT
TORSDOF 0
ENDMDL
