MODEL 1
REMARK minimizedAffinity 3.45496702
REMARK minimizedRMSD -1
REMARK  0 active torsions:
REMARK  status: ('A' for Active; 'I' for Inactive)
ROOT
ATOM      1  C   UNL d   1       2.371  -1.973  -0.154  0.00  0.00     0.078 C 
ATOM      2  C1  UNL d   1       2.715  -0.517  -0.249  0.00  0.00    -0.077 A 
ATOM      3  C2  UNL d   1       3.993  -0.102  -0.643  0.00  0.00    -0.001 A 
ATOM      4  C3  UNL d   1       4.302   1.257  -0.718  0.00  0.00     0.003 A 
ATOM      5  C4  UNL d   1       3.339   2.212  -0.400  0.00  0.00    -0.005 A 
ATOM      6  C5  UNL d   1       2.065   1.809  -0.005  0.00  0.00     0.003 A 
ATOM      7  C6  UNL d   1       1.754   0.450   0.071  0.00  0.00    -0.001 A 
ENDROOT
TORSDOF 0
ENDMDL
