MODEL 1
REMARK minimizedAffinity -2.85094166
REMARK minimizedRMSD -1
REMARK  0 active torsions:
REMARK  status: ('A' for Active; 'I' for Inactive)
ROOT
ATOM      1  C   UNL d   1      -4.587   3.761  -1.922  0.00  0.00     0.078 C 
ATOM      2  C1  UNL d   1      -4.274   2.595  -2.811  0.00  0.00    -0.077 A 
ATOM      3  C2  UNL d   1      -2.950   2.244  -3.102  0.00  0.00    -0.001 A 
ATOM      4  C3  UNL d   1      -2.675   1.162  -3.940  0.00  0.00     0.003 A 
ATOM      5  C4  UNL d   1      -3.718   0.423  -4.495  0.00  0.00    -0.005 A 
ATOM      6  C5  UNL d   1      -5.038   0.766  -4.213  0.00  0.00     0.003 A 
ATOM      7  C6  UNL d   1      -5.316   1.848  -3.375  0.00  0.00    -0.001 A 
ENDROOT
TORSDOF 0
ENDMDL
