MODEL 1
REMARK minimizedAffinity 1.88226485
REMARK minimizedRMSD -1
REMARK  0 active torsions:
REMARK  status: ('A' for Active; 'I' for Inactive)
ROOT
ATOM      1  C   UNL d   1      -5.999   0.768  -0.734  0.00  0.00     0.078 C 
ATOM      2  C1  UNL d   1      -5.170   1.031  -1.955  0.00  0.00    -0.077 A 
ATOM      3  C2  UNL d   1      -4.398   0.016  -2.535  0.00  0.00    -0.001 A 
ATOM      4  C3  UNL d   1      -3.623   0.277  -3.666  0.00  0.00     0.003 A 
ATOM      5  C4  UNL d   1      -3.612   1.553  -4.227  0.00  0.00    -0.005 A 
ATOM      6  C5  UNL d   1      -4.375   2.569  -3.656  0.00  0.00     0.003 A 
ATOM      7  C6  UNL d   1      -5.150   2.310  -2.525  0.00  0.00    -0.001 A 
ENDROOT
TORSDOF 0
ENDMDL
