MODEL 1
REMARK minimizedAffinity 17.0274715
REMARK minimizedRMSD -1
REMARK  0 active torsions:
REMARK  status: ('A' for Active; 'I' for Inactive)
ROOT
ATOM      1  C4' PXY d   1       6.000  -5.924   5.995  0.00  0.00     0.077 C 
ATOM      2  C1' PXY d   1       5.833  -2.017   1.738  0.00  0.00     0.077 C 
ATOM      3  C1  PXY d   1       5.872  -3.051   2.847  0.00  0.00    -0.082 A 
ATOM      4  C2  PXY d   1       5.828  -2.658   4.109  0.00  0.00     0.003 A 
ATOM      5  C3  PXY d   1       5.895  -3.577   5.124  0.00  0.00     0.003 A 
ATOM      6  C4  PXY d   1       5.953  -4.916   4.844  0.00  0.00    -0.082 A 
ATOM      7  C5  PXY d   1       5.988  -5.325   3.558  0.00  0.00     0.003 A 
ATOM      8  C6  PXY d   1       5.961  -4.374   2.542  0.00  0.00     0.003 A 
ENDROOT
TORSDOF 0
ENDMDL
