MODEL 1
REMARK minimizedAffinity 5.95738888
REMARK minimizedRMSD -1
REMARK  0 active torsions:
REMARK  status: ('A' for Active; 'I' for Inactive)
ROOT
ATOM      1  C4' PXY d   1      -2.325  -4.848   1.056  0.00  0.00     0.077 C 
ATOM      2  C1' PXY d   1       3.370  -4.788   2.046  0.00  0.00     0.077 C 
ATOM      3  C1  PXY d   1       1.876  -4.816   1.791  0.00  0.00    -0.082 A 
ATOM      4  C2  PXY d   1       1.356  -4.030   0.863  0.00  0.00     0.003 A 
ATOM      5  C3  PXY d   1       0.003  -4.019   0.641  0.00  0.00     0.003 A 
ATOM      6  C4  PXY d   1      -0.820  -4.860   1.341  0.00  0.00    -0.082 A 
ATOM      7  C5  PXY d   1      -0.296  -5.673   2.283  0.00  0.00     0.003 A 
ATOM      8  C6  PXY d   1       1.075  -5.639   2.521  0.00  0.00     0.003 A 
ENDROOT
TORSDOF 0
ENDMDL
