MODEL 1
REMARK minimizedAffinity 0.473066837
REMARK minimizedRMSD -1
REMARK  0 active torsions:
REMARK  status: ('A' for Active; 'I' for Inactive)
ROOT
ATOM      1  C4' PXY d   1       0.202  -4.492   0.975  0.00  0.00     0.077 C 
ATOM      2  C1' PXY d   1       5.178  -6.000   3.500  0.00  0.00     0.077 C 
ATOM      3  C1  PXY d   1       3.867  -5.614   2.844  0.00  0.00    -0.082 A 
ATOM      4  C2  PXY d   1       3.878  -4.895   1.733  0.00  0.00     0.003 A 
ATOM      5  C3  PXY d   1       2.701  -4.511   1.144  0.00  0.00     0.003 A 
ATOM      6  C4  PXY d   1       1.501  -4.912   1.667  0.00  0.00    -0.082 A 
ATOM      7  C5  PXY d   1       1.482  -5.655   2.794  0.00  0.00     0.003 A 
ATOM      8  C6  PXY d   1       2.686  -6.000   3.400  0.00  0.00     0.003 A 
ENDROOT
TORSDOF 0
ENDMDL
