MODEL 1
REMARK minimizedAffinity 0.0657126829
REMARK minimizedRMSD -1
REMARK  0 active torsions:
REMARK  status: ('A' for Active; 'I' for Inactive)
ROOT
ATOM      1  C4' PXY d   1       5.250  -0.444   3.096  0.00  0.00     0.077 C 
ATOM      2  C1' PXY d   1       6.000  -5.974   4.602  0.00  0.00     0.077 C 
ATOM      3  C1  PXY d   1       5.801  -4.521   4.219  0.00  0.00    -0.082 A 
ATOM      4  C2  PXY d   1       5.441  -4.213   2.984  0.00  0.00     0.003 A 
ATOM      5  C3  PXY d   1       5.288  -2.902   2.612  0.00  0.00     0.003 A 
ATOM      6  C4  PXY d   1       5.453  -1.899   3.529  0.00  0.00    -0.082 A 
ATOM      7  C5  PXY d   1       5.809  -2.205   4.794  0.00  0.00     0.003 A 
ATOM      8  C6  PXY d   1       6.000  -3.540   5.141  0.00  0.00     0.003 A 
ENDROOT
TORSDOF 0
ENDMDL
