MODEL 1
REMARK minimizedAffinity -1.25637221
REMARK minimizedRMSD -1
REMARK  0 active torsions:
REMARK  status: ('A' for Active; 'I' for Inactive)
ROOT
ATOM      1  C4' PXY d   1       5.993  -5.315   5.986  0.00  0.00     0.077 C 
ATOM      2  C1' PXY d   1       3.258  -5.354   0.894  0.00  0.00     0.077 C 
ATOM      3  C1  PXY d   1       3.986  -5.341   2.223  0.00  0.00    -0.082 A 
ATOM      4  C2  PXY d   1       3.480  -5.999   3.253  0.00  0.00     0.003 A 
ATOM      5  C3  PXY d   1       4.109  -5.972   4.471  0.00  0.00     0.003 A 
ATOM      6  C4  PXY d   1       5.297  -5.308   4.623  0.00  0.00    -0.082 A 
ATOM      7  C5  PXY d   1       5.826  -4.643   3.574  0.00  0.00     0.003 A 
ATOM      8  C6  PXY d   1       5.150  -4.649   2.357  0.00  0.00     0.003 A 
ENDROOT
TORSDOF 0
ENDMDL
