MODEL 1
REMARK minimizedAffinity 2.24653745
REMARK minimizedRMSD -1
REMARK  0 active torsions:
REMARK  status: ('A' for Active; 'I' for Inactive)
ROOT
ATOM      1  C4' PXY d   1      -0.008  -5.572   2.980  0.00  0.00     0.077 C 
ATOM      2  C1' PXY d   1       5.695  -5.692   2.040  0.00  0.00     0.077 C 
ATOM      3  C1  PXY d   1       4.198  -5.652   2.277  0.00  0.00    -0.082 A 
ATOM      4  C2  PXY d   1       3.713  -6.000   3.457  0.00  0.00     0.003 A 
ATOM      5  C3  PXY d   1       2.360  -6.000   3.679  0.00  0.00     0.003 A 
ATOM      6  C4  PXY d   1       1.497  -5.589   2.698  0.00  0.00    -0.082 A 
ATOM      7  C5  PXY d   1       1.985  -5.222   1.494  0.00  0.00     0.003 A 
ATOM      8  C6  PXY d   1       3.359  -5.268   1.276  0.00  0.00     0.003 A 
ENDROOT
TORSDOF 0
ENDMDL
