MODEL 1
REMARK minimizedAffinity -2.46129036
REMARK minimizedRMSD -1
REMARK  0 active torsions:
REMARK  status: ('A' for Active; 'I' for Inactive)
ROOT
ATOM      1  C4' PXY d   1       5.953  -0.310   2.681  0.00  0.00     0.077 C 
ATOM      2  C1' PXY d   1       5.970  -5.989   3.762  0.00  0.00     0.077 C 
ATOM      3  C1  PXY d   1       5.961  -4.498   3.491  0.00  0.00    -0.082 A 
ATOM      4  C2  PXY d   1       5.924  -4.060   2.242  0.00  0.00     0.003 A 
ATOM      5  C3  PXY d   1       5.947  -2.715   1.978  0.00  0.00     0.003 A 
ATOM      6  C4  PXY d   1       5.954  -1.807   3.003  0.00  0.00    -0.082 A 
ATOM      7  C5  PXY d   1       5.981  -2.246   4.279  0.00  0.00     0.003 A 
ATOM      8  C6  PXY d   1       5.999  -3.615   4.526  0.00  0.00     0.003 A 
ENDROOT
TORSDOF 0
ENDMDL
