MODEL 1
REMARK minimizedAffinity 0.768347859
REMARK minimizedRMSD -1
REMARK  0 active torsions:
REMARK  status: ('A' for Active; 'I' for Inactive)
ROOT
ATOM      1  C4' PXY d   1      -5.137  -2.245   0.310  0.00  0.00     0.077 C 
ATOM      2  C1' PXY d   1      -4.169  -2.573   6.000  0.00  0.00     0.077 C 
ATOM      3  C1  PXY d   1      -4.422  -2.500   4.507  0.00  0.00    -0.082 A 
ATOM      4  C2  PXY d   1      -4.176  -1.374   3.856  0.00  0.00     0.003 A 
ATOM      5  C3  PXY d   1      -4.429  -1.281   2.512  0.00  0.00     0.003 A 
ATOM      6  C4  PXY d   1      -4.888  -2.367   1.816  0.00  0.00    -0.082 A 
ATOM      7  C5  PXY d   1      -5.131  -3.523   2.470  0.00  0.00     0.003 A 
ATOM      8  C6  PXY d   1      -4.906  -3.584   3.843  0.00  0.00     0.003 A 
ENDROOT
TORSDOF 0
ENDMDL
