MODEL 1
REMARK minimizedAffinity 0.577281952
REMARK minimizedRMSD -1
REMARK  0 active torsions:
REMARK  status: ('A' for Active; 'I' for Inactive)
ROOT
ATOM      1  C4' PXY d   1      -6.000   6.000   5.474  0.00  0.00     0.077 C 
ATOM      2  C1' PXY d   1      -2.619   3.382   1.584  0.00  0.00     0.077 C 
ATOM      3  C1  PXY d   1      -3.516   4.067   2.596  0.00  0.00    -0.082 A 
ATOM      4  C2  PXY d   1      -2.991   4.909   3.471  0.00  0.00     0.003 A 
ATOM      5  C3  PXY d   1      -3.783   5.513   4.414  0.00  0.00     0.003 A 
ATOM      6  C4  PXY d   1      -5.134   5.293   4.427  0.00  0.00    -0.082 A 
ATOM      7  C5  PXY d   1      -5.679   4.444   3.531  0.00  0.00     0.003 A 
ATOM      8  C6  PXY d   1      -4.852   3.809   2.608  0.00  0.00     0.003 A 
ENDROOT
TORSDOF 0
ENDMDL
