MODEL 1
REMARK minimizedAffinity 0.478295743
REMARK minimizedRMSD -1
REMARK  0 active torsions:
REMARK  status: ('A' for Active; 'I' for Inactive)
ROOT
ATOM      1  C4' PXY d   1      -4.544   3.429   2.604  0.00  0.00     0.077 C 
ATOM      2  C1' PXY d   1       0.914   1.816   1.595  0.00  0.00     0.077 C 
ATOM      3  C1  PXY d   1      -0.513   2.248   1.868  0.00  0.00    -0.082 A 
ATOM      4  C2  PXY d   1      -1.507   1.404   1.642  0.00  0.00     0.003 A 
ATOM      5  C3  PXY d   1      -2.806   1.789   1.853  0.00  0.00     0.003 A 
ATOM      6  C4  PXY d   1      -3.087   3.033   2.352  0.00  0.00    -0.082 A 
ATOM      7  C5  PXY d   1      -2.078   3.896   2.595  0.00  0.00     0.003 A 
ATOM      8  C6  PXY d   1      -0.769   3.500   2.334  0.00  0.00     0.003 A 
ENDROOT
TORSDOF 0
ENDMDL
