MODEL 1
REMARK minimizedAffinity -1.59543061
REMARK minimizedRMSD -1
REMARK  0 active torsions:
REMARK  status: ('A' for Active; 'I' for Inactive)
ROOT
ATOM      1  C4' PXY d   1      -2.280  -5.623   2.300  0.00  0.00     0.077 C 
ATOM      2  C1' PXY d   1       3.485  -5.586   1.888  0.00  0.00     0.077 C 
ATOM      3  C1  PXY d   1       1.974  -5.604   2.005  0.00  0.00    -0.082 A 
ATOM      4  C2  PXY d   1       1.233  -5.252   0.968  0.00  0.00     0.003 A 
ATOM      5  C3  PXY d   1      -0.134  -5.232   1.067  0.00  0.00     0.003 A 
ATOM      6  C4  PXY d   1      -0.751  -5.628   2.223  0.00  0.00    -0.082 A 
ATOM      7  C5  PXY d   1      -0.002  -6.000   3.283  0.00  0.00     0.003 A 
ATOM      8  C6  PXY d   1       1.385  -5.973   3.175  0.00  0.00     0.003 A 
ENDROOT
TORSDOF 0
ENDMDL
