MODEL 1
REMARK minimizedAffinity 0.353586942
REMARK minimizedRMSD -1
REMARK  0 active torsions:
REMARK  status: ('A' for Active; 'I' for Inactive)
ROOT
ATOM      1  C4' PXY d   1      -0.485  -6.000   2.620  0.00  0.00     0.077 C 
ATOM      2  C1' PXY d   1      -5.940  -5.966   0.708  0.00  0.00     0.077 C 
ATOM      3  C1  PXY d   1      -4.506  -5.980   1.198  0.00  0.00    -0.082 A 
ATOM      4  C2  PXY d   1      -4.259  -5.986   2.498  0.00  0.00     0.003 A 
ATOM      5  C3  PXY d   1      -2.967  -5.966   2.959  0.00  0.00     0.003 A 
ATOM      6  C4  PXY d   1      -1.918  -5.995   2.080  0.00  0.00    -0.082 A 
ATOM      7  C5  PXY d   1      -2.162  -6.000   0.752  0.00  0.00     0.003 A 
ATOM      8  C6  PXY d   1      -3.479  -5.978   0.305  0.00  0.00     0.003 A 
ENDROOT
TORSDOF 0
ENDMDL
