MODEL 1
REMARK minimizedAffinity 4.3448863
REMARK minimizedRMSD -1
REMARK  0 active torsions:
REMARK  status: ('A' for Active; 'I' for Inactive)
ROOT
ATOM      1  C4' PXY d   1       0.738  -6.000   1.556  0.00  0.00     0.077 C 
ATOM      2  C1' PXY d   1      -3.780  -2.742   0.009  0.00  0.00     0.077 C 
ATOM      3  C1  PXY d   1      -2.603  -3.606   0.418  0.00  0.00    -0.082 A 
ATOM      4  C2  PXY d   1      -1.459  -3.035   0.759  0.00  0.00     0.003 A 
ATOM      5  C3  PXY d   1      -0.376  -3.802   1.101  0.00  0.00     0.003 A 
ATOM      6  C4  PXY d   1      -0.479  -5.167   1.145  0.00  0.00    -0.082 A 
ATOM      7  C5  PXY d   1      -1.646  -5.757   0.809  0.00  0.00     0.003 A 
ATOM      8  C6  PXY d   1      -2.722  -4.961   0.425  0.00  0.00     0.003 A 
ENDROOT
TORSDOF 0
ENDMDL
