MODEL 1
REMARK minimizedAffinity 3.93956232
REMARK minimizedRMSD -1
REMARK  0 active torsions:
REMARK  status: ('A' for Active; 'I' for Inactive)
ROOT
ATOM      1  C4' PXY d   1       2.190   0.061   2.072  0.00  0.00     0.077 C 
ATOM      2  C1' PXY d   1      -3.412   0.415   0.691  0.00  0.00     0.077 C 
ATOM      3  C1  PXY d   1      -1.945   0.314   1.063  0.00  0.00    -0.082 A 
ATOM      4  C2  PXY d   1      -1.114   1.281   0.712  0.00  0.00     0.003 A 
ATOM      5  C3  PXY d   1       0.221   1.191   1.013  0.00  0.00     0.003 A 
ATOM      6  C4  PXY d   1       0.700   0.125   1.726  0.00  0.00    -0.082 A 
ATOM      7  C5  PXY d   1      -0.144  -0.861   2.097  0.00  0.00     0.003 A 
ATOM      8  C6  PXY d   1      -1.488  -0.770   1.746  0.00  0.00     0.003 A 
ENDROOT
TORSDOF 0
ENDMDL
