MODEL 1
REMARK minimizedAffinity 4.60960531
REMARK minimizedRMSD -1
REMARK  0 active torsions:
REMARK  status: ('A' for Active; 'I' for Inactive)
ROOT
ATOM      1  C4' PXY d   1      -0.181   3.028   3.711  0.00  0.00     0.077 C 
ATOM      2  C1' PXY d   1      -2.454  -0.370  -0.377  0.00  0.00     0.077 C 
ATOM      3  C1  PXY d   1      -1.869   0.528   0.696  0.00  0.00    -0.082 A 
ATOM      4  C2  PXY d   1      -0.558   0.691   0.770  0.00  0.00     0.003 A 
ATOM      5  C3  PXY d   1      -0.010   1.473   1.753  0.00  0.00     0.003 A 
ATOM      6  C4  PXY d   1      -0.816   2.139   2.638  0.00  0.00    -0.082 A 
ATOM      7  C5  PXY d   1      -2.155   1.986   2.563  0.00  0.00     0.003 A 
ATOM      8  C6  PXY d   1      -2.689   1.154   1.583  0.00  0.00     0.003 A 
ENDROOT
TORSDOF 0
ENDMDL
