MODEL 1
REMARK minimizedAffinity 10.8329782
REMARK minimizedRMSD -1
REMARK  0 active torsions:
REMARK  status: ('A' for Active; 'I' for Inactive)
ROOT
ATOM      1  C4' PXY d   1      -3.634  -1.532  -0.168  0.00  0.00     0.077 C 
ATOM      2  C1' PXY d   1       0.047   2.147   2.348  0.00  0.00     0.077 C 
ATOM      3  C1  PXY d   1      -0.928   1.187   1.696  0.00  0.00    -0.082 A 
ATOM      4  C2  PXY d   1      -0.482   0.058   1.170  0.00  0.00     0.003 A 
ATOM      5  C3  PXY d   1      -1.345  -0.807   0.548  0.00  0.00     0.003 A 
ATOM      6  C4  PXY d   1      -2.687  -0.538   0.510  0.00  0.00    -0.082 A 
ATOM      7  C5  PXY d   1      -3.152   0.607   1.053  0.00  0.00     0.003 A 
ATOM      8  C6  PXY d   1      -2.254   1.491   1.644  0.00  0.00     0.003 A 
ENDROOT
TORSDOF 0
ENDMDL
