MODEL 1
REMARK minimizedAffinity 4.61292744
REMARK minimizedRMSD -1
REMARK  0 active torsions:
REMARK  status: ('A' for Active; 'I' for Inactive)
ROOT
ATOM      1  C4' PXY d   1      -5.976   2.760   5.912  0.00  0.00     0.077 C 
ATOM      2  C1' PXY d   1      -6.000  -1.496   2.000  0.00  0.00     0.077 C 
ATOM      3  C1  PXY d   1      -5.999  -0.388   3.035  0.00  0.00    -0.082 A 
ATOM      4  C2  PXY d   1      -5.999   0.875   2.641  0.00  0.00     0.003 A 
ATOM      5  C3  PXY d   1      -5.966   1.890   3.563  0.00  0.00     0.003 A 
ATOM      6  C4  PXY d   1      -5.986   1.609   4.903  0.00  0.00    -0.082 A 
ATOM      7  C5  PXY d   1      -5.997   0.322   5.313  0.00  0.00     0.003 A 
ATOM      8  C6  PXY d   1      -5.989  -0.693   4.361  0.00  0.00     0.003 A 
ENDROOT
TORSDOF 0
ENDMDL
