MODEL 1
REMARK minimizedAffinity 11.1612997
REMARK minimizedRMSD -1
REMARK  0 active torsions:
REMARK  status: ('A' for Active; 'I' for Inactive)
ROOT
ATOM      1  C4' PXY d   1      -3.951   1.678   1.915  0.00  0.00     0.077 C 
ATOM      2  C1' PXY d   1       1.578   2.725   3.235  0.00  0.00     0.077 C 
ATOM      3  C1  PXY d   1       0.132   2.444   2.879  0.00  0.00    -0.082 A 
ATOM      4  C2  PXY d   1      -0.821   3.241   3.333  0.00  0.00     0.003 A 
ATOM      5  C3  PXY d   1      -2.137   2.983   3.047  0.00  0.00     0.003 A 
ATOM      6  C4  PXY d   1      -2.477   1.929   2.242  0.00  0.00    -0.082 A 
ATOM      7  C5  PXY d   1      -1.510   1.117   1.766  0.00  0.00     0.003 A 
ATOM      8  C6  PXY d   1      -0.183   1.372   2.102  0.00  0.00     0.003 A 
ENDROOT
TORSDOF 0
ENDMDL
