MODEL 1
REMARK minimizedAffinity 7.26051617
REMARK minimizedRMSD -1
REMARK  0 active torsions:
REMARK  status: ('A' for Active; 'I' for Inactive)
ROOT
ATOM      1  C4' PXY d   1       5.998   5.247  -0.832  0.00  0.00     0.077 C 
ATOM      2  C1' PXY d   1       2.533   1.094   1.210  0.00  0.00     0.077 C 
ATOM      3  C1  PXY d   1       3.432   2.189   0.670  0.00  0.00    -0.082 A 
ATOM      4  C2  PXY d   1       4.694   1.918   0.382  0.00  0.00     0.003 A 
ATOM      5  C3  PXY d   1       5.529   2.904  -0.077  0.00  0.00     0.003 A 
ATOM      6  C4  PXY d   1       5.052   4.169  -0.294  0.00  0.00    -0.082 A 
ATOM      7  C5  PXY d   1       3.762   4.452  -0.012  0.00  0.00     0.003 A 
ATOM      8  C6  PXY d   1       2.942   3.446   0.491  0.00  0.00     0.003 A 
ENDROOT
TORSDOF 0
ENDMDL
