MODEL 1
REMARK minimizedAffinity 9.4219799
REMARK minimizedRMSD -1
REMARK  0 active torsions:
REMARK  status: ('A' for Active; 'I' for Inactive)
ROOT
ATOM      1  C4' PXY d   1       0.350  -2.216  -5.668  0.00  0.00     0.077 C 
ATOM      2  C1' PXY d   1       5.422  -0.222  -3.739  0.00  0.00     0.077 C 
ATOM      3  C1  PXY d   1       4.090  -0.752  -4.234  0.00  0.00    -0.082 A 
ATOM      4  C2  PXY d   1       3.850  -0.806  -5.534  0.00  0.00     0.003 A 
ATOM      5  C3  PXY d   1       2.639  -1.252  -5.997  0.00  0.00     0.003 A 
ATOM      6  C4  PXY d   1       1.684  -1.698  -5.123  0.00  0.00    -0.082 A 
ATOM      7  C5  PXY d   1       1.925  -1.656  -3.796  0.00  0.00     0.003 A 
ATOM      8  C6  PXY d   1       3.145  -1.161  -3.344  0.00  0.00     0.003 A 
ENDROOT
TORSDOF 0
ENDMDL
