MODEL 1
REMARK minimizedAffinity 2.34426546
REMARK minimizedRMSD -1
REMARK  0 active torsions:
REMARK  status: ('A' for Active; 'I' for Inactive)
ROOT
ATOM      1  C   UNL d   1       0.044   2.756  -4.883  0.00  0.00     0.077 C 
ATOM      2  C1  UNL d   1       1.079   3.767  -5.279  0.00  0.00    -0.074 A 
ATOM      3  C2  UNL d   1       0.711   5.066  -5.644  0.00  0.00    -0.005 A 
ATOM      4  C3  UNL d   1       1.684   5.999  -6.000  0.00  0.00     0.006 A 
ATOM      5  C4  UNL d   1       3.034   5.644  -5.995  0.00  0.00    -0.005 A 
ATOM      6  C5  UNL d   1       3.421   4.350  -5.632  0.00  0.00    -0.074 A 
ATOM      7  C6  UNL d   1       4.867   3.954  -5.612  0.00  0.00     0.077 C 
ATOM      8  C7  UNL d   1       2.437   3.420  -5.268  0.00  0.00    -0.001 A 
ENDROOT
TORSDOF 0
ENDMDL
