MODEL 1
REMARK minimizedAffinity -3.62654948
REMARK minimizedRMSD -1
REMARK  0 active torsions:
REMARK  status: ('A' for Active; 'I' for Inactive)
ROOT
ATOM      1  C   UNL d   1      -4.671   2.603   5.938  0.00  0.00     0.077 C 
ATOM      2  C1  UNL d   1      -4.101   3.787   5.215  0.00  0.00    -0.074 A 
ATOM      3  C2  UNL d   1      -4.938   4.752   4.646  0.00  0.00    -0.005 A 
ATOM      4  C3  UNL d   1      -4.394   5.853   3.985  0.00  0.00     0.006 A 
ATOM      5  C4  UNL d   1      -3.009   5.999   3.885  0.00  0.00    -0.005 A 
ATOM      6  C5  UNL d   1      -2.157   5.044   4.448  0.00  0.00    -0.074 A 
ATOM      7  C6  UNL d   1      -0.667   5.191   4.359  0.00  0.00     0.077 C 
ATOM      8  C7  UNL d   1      -2.712   3.944   5.118  0.00  0.00    -0.001 A 
ENDROOT
TORSDOF 0
ENDMDL
