MODEL 1
REMARK minimizedAffinity 10.240139
REMARK minimizedRMSD -1
REMARK  0 active torsions:
REMARK  status: ('A' for Active; 'I' for Inactive)
ROOT
ATOM      1  C   UNL d   1       0.415  -0.009  -2.875  0.00  0.00     0.077 C 
ATOM      2  C1  UNL d   1       0.685  -0.725  -1.585  0.00  0.00    -0.074 A 
ATOM      3  C2  UNL d   1       1.987  -1.078  -1.218  0.00  0.00    -0.005 A 
ATOM      4  C3  UNL d   1       2.224  -1.735  -0.011  0.00  0.00     0.006 A 
ATOM      5  C4  UNL d   1       1.162  -2.045   0.840  0.00  0.00    -0.005 A 
ATOM      6  C5  UNL d   1      -0.147  -1.699   0.491  0.00  0.00    -0.074 A 
ATOM      7  C6  UNL d   1      -1.298  -2.016   1.398  0.00  0.00     0.077 C 
ATOM      8  C7  UNL d   1      -0.375  -1.032  -0.721  0.00  0.00    -0.001 A 
ENDROOT
TORSDOF 0
ENDMDL
