MODEL 1
REMARK minimizedAffinity 7.43524933
REMARK minimizedRMSD -1
REMARK  0 active torsions:
REMARK  status: ('A' for Active; 'I' for Inactive)
ROOT
ATOM      1  C   UNL d   1       1.953  -3.778  -0.320  0.00  0.00     0.077 C 
ATOM      2  C1  UNL d   1       1.949  -2.697   0.719  0.00  0.00    -0.074 A 
ATOM      3  C2  UNL d   1       0.925  -1.745   0.763  0.00  0.00    -0.005 A 
ATOM      4  C3  UNL d   1       0.930  -0.751   1.741  0.00  0.00     0.006 A 
ATOM      5  C4  UNL d   1       1.957  -0.698   2.684  0.00  0.00    -0.005 A 
ATOM      6  C5  UNL d   1       2.989  -1.641   2.656  0.00  0.00    -0.074 A 
ATOM      7  C6  UNL d   1       4.095  -1.605   3.668  0.00  0.00     0.077 C 
ATOM      8  C7  UNL d   1       2.973  -2.642   1.675  0.00  0.00    -0.001 A 
ENDROOT
TORSDOF 0
ENDMDL
