MODEL 1
REMARK minimizedAffinity 7.44953012
REMARK minimizedRMSD -1
REMARK  0 active torsions:
REMARK  status: ('A' for Active; 'I' for Inactive)
ROOT
ATOM      1  C   UNL d   1      -1.362  -0.106   3.144  0.00  0.00     0.077 C 
ATOM      2  C1  UNL d   1      -0.043  -0.620   2.649  0.00  0.00    -0.074 A 
ATOM      3  C2  UNL d   1       1.151  -0.271   3.289  0.00  0.00    -0.005 A 
ATOM      4  C3  UNL d   1       2.369  -0.764   2.823  0.00  0.00     0.006 A 
ATOM      5  C4  UNL d   1       2.407  -1.611   1.715  0.00  0.00    -0.005 A 
ATOM      6  C5  UNL d   1       1.224  -1.972   1.063  0.00  0.00    -0.074 A 
ATOM      7  C6  UNL d   1       1.246  -2.889  -0.124  0.00  0.00     0.077 C 
ATOM      8  C7  UNL d   1       0.003  -1.478   1.541  0.00  0.00    -0.001 A 
ENDROOT
TORSDOF 0
ENDMDL
