MODEL 1
REMARK minimizedAffinity 10.1494246
REMARK minimizedRMSD -1
REMARK  0 active torsions:
REMARK  status: ('A' for Active; 'I' for Inactive)
ROOT
ATOM      1  C   UNL d   1      -0.710  -4.518   1.505  0.00  0.00     0.077 C 
ATOM      2  C1  UNL d   1      -0.137  -3.165   1.807  0.00  0.00    -0.074 A 
ATOM      3  C2  UNL d   1       1.165  -2.834   1.421  0.00  0.00    -0.005 A 
ATOM      4  C3  UNL d   1       1.681  -1.568   1.701  0.00  0.00     0.006 A 
ATOM      5  C4  UNL d   1       0.901  -0.624   2.369  0.00  0.00    -0.005 A 
ATOM      6  C5  UNL d   1      -0.404  -0.937   2.762  0.00  0.00    -0.074 A 
ATOM      7  C6  UNL d   1      -1.259   0.070   3.473  0.00  0.00     0.077 C 
ATOM      8  C7  UNL d   1      -0.917  -2.208   2.471  0.00  0.00    -0.001 A 
ENDROOT
TORSDOF 0
ENDMDL
