MODEL 1
REMARK minimizedAffinity 11.6702213
REMARK minimizedRMSD -1
REMARK  0 active torsions:
REMARK  status: ('A' for Active; 'I' for Inactive)
ROOT
ATOM      1  C   UNL d   1       1.675  -5.857   6.000  0.00  0.00     0.077 C 
ATOM      2  C1  UNL d   1       3.031  -5.227   5.892  0.00  0.00    -0.074 A 
ATOM      3  C2  UNL d   1       4.193  -5.999   6.000  0.00  0.00    -0.005 A 
ATOM      4  C3  UNL d   1       5.448  -5.401   5.888  0.00  0.00     0.006 A 
ATOM      5  C4  UNL d   1       5.554  -4.027   5.668  0.00  0.00    -0.005 A 
ATOM      6  C5  UNL d   1       4.404  -3.239   5.557  0.00  0.00    -0.074 A 
ATOM      7  C6  UNL d   1       4.500  -1.763   5.311  0.00  0.00     0.077 C 
ATOM      8  C7  UNL d   1       3.146  -3.849   5.663  0.00  0.00    -0.001 A 
ENDROOT
TORSDOF 0
ENDMDL
