MODEL 1
REMARK minimizedAffinity 2.43656325
REMARK minimizedRMSD -1
REMARK  1 active torsions:
REMARK  status: ('A' for Active; 'I' for Inactive)
REMARK    1  A    between atoms: C1_2  and  C2_3 
ROOT
ATOM      1  C2  UNL d   1       3.333   1.992  -0.494  0.00  0.00    -0.077 A 
ATOM      2  C3  UNL d   1       3.445   1.356   0.750  0.00  0.00     0.002 A 
ATOM      3  C4  UNL d   1       2.360   1.327   1.628  0.00  0.00     0.002 A 
ATOM      4  C5  UNL d   1       1.155   1.928   1.270  0.00  0.00    -0.004 A 
ATOM      5  C6  UNL d   1       1.035   2.564   0.035  0.00  0.00     0.002 A 
ATOM      6  C7  UNL d   1       2.119   2.595  -0.843  0.00  0.00     0.002 A 
ENDROOT
BRANCH   1   7
ATOM      7  C1  UNL d   1       4.487   1.981  -1.463  0.00  0.00     0.055 C 
ATOM      8  C   UNL d   1       4.193   1.093  -2.664  0.00  0.00     0.019 C 
ENDBRANCH   1   7
TORSDOF 1
ENDMDL
