MODEL 1
REMARK minimizedAffinity 6.68553734
REMARK minimizedRMSD -1
REMARK  1 active torsions:
REMARK  status: ('A' for Active; 'I' for Inactive)
REMARK    1  A    between atoms: C1_2  and  C2_3 
ROOT
ATOM      1  C2  UNL d   1       4.709   2.415   0.928  0.00  0.00    -0.077 A 
ATOM      2  C3  UNL d   1       3.331   2.325   0.690  0.00  0.00     0.002 A 
ATOM      3  C4  UNL d   1       2.467   1.896   1.700  0.00  0.00     0.002 A 
ATOM      4  C5  UNL d   1       2.971   1.558   2.954  0.00  0.00    -0.004 A 
ATOM      5  C6  UNL d   1       4.341   1.643   3.199  0.00  0.00     0.002 A 
ATOM      6  C7  UNL d   1       5.206   2.071   2.191  0.00  0.00     0.002 A 
ENDROOT
BRANCH   1   7
ATOM      7  C1  UNL d   1       5.637   2.925  -0.145  0.00  0.00     0.055 C 
ATOM      8  C   UNL d   1       5.230   2.412  -1.518  0.00  0.00     0.019 C 
ENDBRANCH   1   7
TORSDOF 1
ENDMDL
