MODEL 1
REMARK minimizedAffinity 7.98650551
REMARK minimizedRMSD -1
REMARK  1 active torsions:
REMARK  status: ('A' for Active; 'I' for Inactive)
REMARK    1  A    between atoms: C1_2  and  C2_3 
ROOT
ATOM      1  C2  UNL d   1       3.338  -5.340  -4.721  0.00  0.00    -0.077 A 
ATOM      2  C3  UNL d   1       4.063  -5.999  -5.725  0.00  0.00     0.002 A 
ATOM      3  C4  UNL d   1       5.386  -5.643  -5.990  0.00  0.00     0.002 A 
ATOM      4  C5  UNL d   1       5.998  -4.630  -5.254  0.00  0.00    -0.004 A 
ATOM      5  C6  UNL d   1       5.285  -3.967  -4.255  0.00  0.00     0.002 A 
ATOM      6  C7  UNL d   1       3.962  -4.321  -3.990  0.00  0.00     0.002 A 
ENDROOT
BRANCH   1   7
ATOM      7  C1  UNL d   1       1.926  -5.756  -4.401  0.00  0.00     0.055 C 
ATOM      8  C   UNL d   1       1.108  -5.962  -5.667  0.00  0.00     0.019 C 
ENDBRANCH   1   7
TORSDOF 1
ENDMDL
