MODEL 1
REMARK minimizedAffinity 2.78697395
REMARK minimizedRMSD -1
REMARK  1 active torsions:
REMARK  status: ('A' for Active; 'I' for Inactive)
REMARK    1  A    between atoms: C1_2  and  C2_3 
ROOT
ATOM      1  C2  UNL d   1       1.023   2.312   1.297  0.00  0.00    -0.077 A 
ATOM      2  C3  UNL d   1       0.227   1.826   2.344  0.00  0.00     0.002 A 
ATOM      3  C4  UNL d   1      -1.163   1.947   2.288  0.00  0.00     0.002 A 
ATOM      4  C5  UNL d   1      -1.768   2.549   1.187  0.00  0.00    -0.004 A 
ATOM      5  C6  UNL d   1      -0.985   3.037   0.142  0.00  0.00     0.002 A 
ATOM      6  C7  UNL d   1       0.405   2.918   0.197  0.00  0.00     0.002 A 
ENDROOT
BRANCH   1   7
ATOM      7  C1  UNL d   1       2.519   2.139   1.333  0.00  0.00     0.055 C 
ATOM      8  C   UNL d   1       3.041   2.125   2.762  0.00  0.00     0.019 C 
ENDBRANCH   1   7
TORSDOF 1
ENDMDL
