MODEL 1
REMARK minimizedAffinity 2.1340096
REMARK minimizedRMSD -1
REMARK  1 active torsions:
REMARK  status: ('A' for Active; 'I' for Inactive)
REMARK    1  A    between atoms: C1_2  and  C2_3 
ROOT
ATOM      1  C2  UNL d   1       4.022  -5.157  -4.852  0.00  0.00    -0.077 A 
ATOM      2  C3  UNL d   1       3.245  -4.953  -3.703  0.00  0.00     0.002 A 
ATOM      3  C4  UNL d   1       1.886  -5.270  -3.704  0.00  0.00     0.002 A 
ATOM      4  C5  UNL d   1       1.292  -5.795  -4.850  0.00  0.00    -0.004 A 
ATOM      5  C6  UNL d   1       2.056  -5.999  -5.999  0.00  0.00     0.002 A 
ATOM      6  C7  UNL d   1       3.415  -5.682  -5.999  0.00  0.00     0.002 A 
ENDROOT
BRANCH   1   7
ATOM      7  C1  UNL d   1       5.499  -4.862  -4.837  0.00  0.00     0.055 C 
ATOM      8  C   UNL d   1       5.765  -3.364  -4.800  0.00  0.00     0.019 C 
ENDBRANCH   1   7
TORSDOF 1
ENDMDL
