MODEL 1
REMARK minimizedAffinity 13.3282595
REMARK minimizedRMSD -1
REMARK  1 active torsions:
REMARK  status: ('A' for Active; 'I' for Inactive)
REMARK    1  A    between atoms: C1_2  and  C2_3 
ROOT
ATOM      1  C2  UNL d   1       0.287   2.665   1.150  0.00  0.00    -0.077 A 
ATOM      2  C3  UNL d   1       1.126   1.629   1.583  0.00  0.00     0.002 A 
ATOM      3  C4  UNL d   1       2.513   1.749   1.469  0.00  0.00     0.002 A 
ATOM      4  C5  UNL d   1       3.072   2.904   0.927  0.00  0.00    -0.004 A 
ATOM      5  C6  UNL d   1       2.245   3.939   0.491  0.00  0.00     0.002 A 
ATOM      6  C7  UNL d   1       0.859   3.821   0.603  0.00  0.00     0.002 A 
ENDROOT
BRANCH   1   7
ATOM      7  C1  UNL d   1      -1.206   2.558   1.317  0.00  0.00     0.055 C 
ATOM      8  C   UNL d   1      -1.583   2.275   2.764  0.00  0.00     0.019 C 
ENDBRANCH   1   7
TORSDOF 1
ENDMDL
