MODEL 1
REMARK minimizedAffinity 8.8403759
REMARK minimizedRMSD -1
REMARK  1 active torsions:
REMARK  status: ('A' for Active; 'I' for Inactive)
REMARK    1  A    between atoms: C1_2  and  C2_3 
ROOT
ATOM      1  C2  UNL d   1       3.458   1.499   3.871  0.00  0.00    -0.077 A 
ATOM      2  C3  UNL d   1       3.821   1.812   2.554  0.00  0.00     0.002 A 
ATOM      3  C4  UNL d   1       2.918   1.619   1.507  0.00  0.00     0.002 A 
ATOM      4  C5  UNL d   1       1.645   1.116   1.767  0.00  0.00    -0.004 A 
ATOM      5  C6  UNL d   1       1.274   0.800   3.073  0.00  0.00     0.002 A 
ATOM      6  C7  UNL d   1       2.176   0.991   4.121  0.00  0.00     0.002 A 
ENDROOT
BRANCH   1   7
ATOM      7  C1  UNL d   1       4.413   1.753   5.008  0.00  0.00     0.055 C 
ATOM      8  C   UNL d   1       5.436   0.633   5.132  0.00  0.00     0.019 C 
ENDBRANCH   1   7
TORSDOF 1
ENDMDL
