MODEL 1
REMARK minimizedAffinity 6.47547531
REMARK minimizedRMSD -1
REMARK  1 active torsions:
REMARK  status: ('A' for Active; 'I' for Inactive)
REMARK    1  A    between atoms: C1_2  and  C2_3 
ROOT
ATOM      1  C2  UNL d   1       3.769   1.383   2.546  0.00  0.00    -0.077 A 
ATOM      2  C3  UNL d   1       4.146   1.055   1.236  0.00  0.00     0.002 A 
ATOM      3  C4  UNL d   1       3.181   0.930   0.234  0.00  0.00     0.002 A 
ATOM      4  C5  UNL d   1       1.836   1.136   0.530  0.00  0.00    -0.004 A 
ATOM      5  C6  UNL d   1       1.451   1.461   1.831  0.00  0.00     0.002 A 
ATOM      6  C7  UNL d   1       2.413   1.585   2.833  0.00  0.00     0.002 A 
ENDROOT
BRANCH   1   7
ATOM      7  C1  UNL d   1       4.812   1.567   3.617  0.00  0.00     0.055 C 
ATOM      8  C   UNL d   1       4.639   2.897   4.336  0.00  0.00     0.019 C 
ENDBRANCH   1   7
TORSDOF 1
ENDMDL
