MODEL 1
REMARK minimizedAffinity -0.187668249
REMARK minimizedRMSD -1
REMARK  1 active torsions:
REMARK  status: ('A' for Active; 'I' for Inactive)
REMARK    1  A    between atoms: C1_2  and  C2_3 
ROOT
ATOM      1  C2  UNL d   1       4.853   3.246   4.759  0.00  0.00    -0.077 A 
ATOM      2  C3  UNL d   1       4.736   4.022   3.597  0.00  0.00     0.002 A 
ATOM      3  C4  UNL d   1       4.999   5.393   3.634  0.00  0.00     0.002 A 
ATOM      4  C5  UNL d   1       5.385   5.998   4.828  0.00  0.00    -0.004 A 
ATOM      5  C6  UNL d   1       5.503   5.235   5.989  0.00  0.00     0.002 A 
ATOM      6  C7  UNL d   1       5.239   3.865   5.955  0.00  0.00     0.002 A 
ENDROOT
BRANCH   1   7
ATOM      7  C1  UNL d   1       4.618   1.759   4.711  0.00  0.00     0.055 C 
ATOM      8  C   UNL d   1       3.566   1.399   3.671  0.00  0.00     0.019 C 
ENDBRANCH   1   7
TORSDOF 1
ENDMDL
