MODEL 1
REMARK minimizedAffinity 8.6166935
REMARK minimizedRMSD -1
REMARK  1 active torsions:
REMARK  status: ('A' for Active; 'I' for Inactive)
REMARK    1  A    between atoms: C1_2  and  C2_3 
ROOT
ATOM      1  C2  UNL d   1       0.748   2.142   1.703  0.00  0.00    -0.077 A 
ATOM      2  C3  UNL d   1       0.098   2.629   0.560  0.00  0.00     0.002 A 
ATOM      3  C4  UNL d   1      -1.273   2.896   0.587  0.00  0.00     0.002 A 
ATOM      4  C5  UNL d   1      -2.003   2.684   1.754  0.00  0.00    -0.004 A 
ATOM      5  C6  UNL d   1      -1.366   2.198   2.895  0.00  0.00     0.002 A 
ATOM      6  C7  UNL d   1       0.003   1.929   2.870  0.00  0.00     0.002 A 
ENDROOT
BRANCH   1   7
ATOM      7  C1  UNL d   1       2.235   1.900   1.691  0.00  0.00     0.055 C 
ATOM      8  C   UNL d   1       2.624   0.902   0.611  0.00  0.00     0.019 C 
ENDBRANCH   1   7
TORSDOF 1
ENDMDL
