MODEL 1
REMARK minimizedAffinity 1.94077361
REMARK minimizedRMSD -1
REMARK  1 active torsions:
REMARK  status: ('A' for Active; 'I' for Inactive)
REMARK    1  A    between atoms: C1_2  and  C2_3 
ROOT
ATOM      1  C2  UNL d   1      -3.601   4.898  -5.485  0.00  0.00    -0.077 A 
ATOM      2  C3  UNL d   1      -2.381   5.202  -4.865  0.00  0.00     0.002 A 
ATOM      3  C4  UNL d   1      -1.534   4.179  -4.433  0.00  0.00     0.002 A 
ATOM      4  C5  UNL d   1      -1.896   2.847  -4.621  0.00  0.00    -0.004 A 
ATOM      5  C6  UNL d   1      -3.108   2.535  -5.235  0.00  0.00     0.002 A 
ATOM      6  C7  UNL d   1      -3.957   3.555  -5.665  0.00  0.00     0.002 A 
ENDROOT
BRANCH   1   7
ATOM      7  C1  UNL d   1      -4.493   6.000  -5.995  0.00  0.00     0.055 C 
ATOM      8  C   UNL d   1      -5.954   5.573  -5.995  0.00  0.00     0.019 C 
ENDBRANCH   1   7
TORSDOF 1
ENDMDL
