MODEL 1
REMARK minimizedAffinity 0.565477729
REMARK minimizedRMSD -1
REMARK  1 active torsions:
REMARK  status: ('A' for Active; 'I' for Inactive)
REMARK    1  A    between atoms: C1_2  and  C2_3 
ROOT
ATOM      1  C2  UNL d   1       5.210   4.247  -0.510  0.00  0.00    -0.077 A 
ATOM      2  C3  UNL d   1       5.493   5.518   0.011  0.00  0.00     0.002 A 
ATOM      3  C4  UNL d   1       4.791   6.000   1.117  0.00  0.00     0.002 A 
ATOM      4  C5  UNL d   1       3.806   5.216   1.715  0.00  0.00    -0.004 A 
ATOM      5  C6  UNL d   1       3.516   3.952   1.204  0.00  0.00     0.002 A 
ATOM      6  C7  UNL d   1       4.216   3.469   0.097  0.00  0.00     0.002 A 
ENDROOT
BRANCH   1   7
ATOM      7  C1  UNL d   1       6.000   3.705  -1.673  0.00  0.00     0.055 C 
ATOM      8  C   UNL d   1       5.133   2.838  -2.574  0.00  0.00     0.019 C 
ENDBRANCH   1   7
TORSDOF 1
ENDMDL
