MODEL 1
REMARK minimizedAffinity 6.28260326
REMARK minimizedRMSD -1
REMARK  1 active torsions:
REMARK  status: ('A' for Active; 'I' for Inactive)
REMARK    1  A    between atoms: C1_2  and  C2_3 
ROOT
ATOM      1  C2  UNL d   1       3.499   3.707   1.645  0.00  0.00    -0.077 A 
ATOM      2  C3  UNL d   1       4.801   3.709   1.125  0.00  0.00     0.002 A 
ATOM      3  C4  UNL d   1       5.602   4.848   1.232  0.00  0.00     0.002 A 
ATOM      4  C5  UNL d   1       5.112   5.990   1.862  0.00  0.00    -0.004 A 
ATOM      5  C6  UNL d   1       3.817   5.998   2.380  0.00  0.00     0.002 A 
ATOM      6  C7  UNL d   1       3.015   4.861   2.273  0.00  0.00     0.002 A 
ENDROOT
BRANCH   1   7
ATOM      7  C1  UNL d   1       2.651   2.463   1.574  0.00  0.00     0.055 C 
ATOM      8  C   UNL d   1       1.184   2.805   1.362  0.00  0.00     0.019 C 
ENDBRANCH   1   7
TORSDOF 1
ENDMDL
