MODEL 1
REMARK minimizedAffinity 7.10887384
REMARK minimizedRMSD -1
REMARK  0 active torsions:
REMARK  status: ('A' for Active; 'I' for Inactive)
ROOT
ATOM      1  C2' OXE d   1       3.394  -2.244  -4.415  0.00  0.00     0.078 C 
ATOM      2  C1' OXE d   1       4.832  -4.061  -6.000  0.00  0.00     0.078 C 
ATOM      3  C1  OXE d   1       3.432  -4.442  -5.587  0.00  0.00    -0.078 A 
ATOM      4  C2  OXE d   1       2.753  -3.567  -4.774  0.00  0.00    -0.078 A 
ATOM      5  C3  OXE d   1       1.439  -3.844  -4.409  0.00  0.00     0.003 A 
ATOM      6  C4  OXE d   1       0.857  -5.075  -4.736  0.00  0.00    -0.002 A 
ATOM      7  C5  OXE d   1       1.545  -5.997  -5.531  0.00  0.00    -0.002 A 
ATOM      8  C6  OXE d   1       2.815  -5.678  -5.999  0.00  0.00     0.003 A 
ENDROOT
TORSDOF 0
ENDMDL
