MODEL 1
REMARK minimizedAffinity 18.500124
REMARK minimizedRMSD -1
REMARK  0 active torsions:
REMARK  status: ('A' for Active; 'I' for Inactive)
ROOT
ATOM      1  C2' OXE d   1       1.058  -0.709   1.546  0.00  0.00     0.078 C 
ATOM      2  C1' OXE d   1       3.365  -1.969   0.560  0.00  0.00     0.078 C 
ATOM      3  C1  OXE d   1       2.196  -2.842   0.942  0.00  0.00    -0.078 A 
ATOM      4  C2  OXE d   1       1.088  -2.221   1.467  0.00  0.00    -0.078 A 
ATOM      5  C3  OXE d   1      -0.039  -2.973   1.784  0.00  0.00     0.003 A 
ATOM      6  C4  OXE d   1       0.001  -4.371   1.718  0.00  0.00    -0.002 A 
ATOM      7  C5  OXE d   1       1.134  -5.027   1.223  0.00  0.00    -0.002 A 
ATOM      8  C6  OXE d   1       2.221  -4.276   0.791  0.00  0.00     0.003 A 
ENDROOT
TORSDOF 0
ENDMDL
