MODEL 1
REMARK minimizedAffinity 16.8598347
REMARK minimizedRMSD -1
REMARK  0 active torsions:
REMARK  status: ('A' for Active; 'I' for Inactive)
ROOT
ATOM      1  C2' OXE d   1      -0.763  -3.183  -1.409  0.00  0.00     0.078 C 
ATOM      2  C1' OXE d   1      -1.485  -3.422   1.293  0.00  0.00     0.078 C 
ATOM      3  C1  OXE d   1      -0.125  -3.927   0.881  0.00  0.00    -0.078 A 
ATOM      4  C2  OXE d   1       0.202  -3.849  -0.451  0.00  0.00    -0.078 A 
ATOM      5  C3  OXE d   1       1.465  -4.250  -0.876  0.00  0.00     0.003 A 
ATOM      6  C4  OXE d   1       2.347  -4.874   0.014  0.00  0.00    -0.002 A 
ATOM      7  C5  OXE d   1       2.018  -5.000   1.368  0.00  0.00    -0.002 A 
ATOM      8  C6  OXE d   1       0.806  -4.494   1.825  0.00  0.00     0.003 A 
ENDROOT
TORSDOF 0
ENDMDL
