MODEL 1
REMARK minimizedAffinity 10.9520407
REMARK minimizedRMSD -1
REMARK  0 active torsions:
REMARK  status: ('A' for Active; 'I' for Inactive)
ROOT
ATOM      1  C2' OXE d   1      -2.450  -2.465   2.698  0.00  0.00     0.078 C 
ATOM      2  C1' OXE d   1      -5.135  -2.508   1.881  0.00  0.00     0.078 C 
ATOM      3  C1  OXE d   1      -4.839  -2.762   3.338  0.00  0.00    -0.078 A 
ATOM      4  C2  OXE d   1      -3.519  -2.786   3.720  0.00  0.00    -0.078 A 
ATOM      5  C3  OXE d   1      -3.192  -2.961   5.061  0.00  0.00     0.003 A 
ATOM      6  C4  OXE d   1      -4.187  -3.267   5.999  0.00  0.00    -0.002 A 
ATOM      7  C5  OXE d   1      -5.534  -3.287   5.623  0.00  0.00    -0.002 A 
ATOM      8  C6  OXE d   1      -5.880  -2.996   4.308  0.00  0.00     0.003 A 
ENDROOT
TORSDOF 0
ENDMDL
