MODEL 1
REMARK minimizedAffinity 3.99152994
REMARK minimizedRMSD -1
REMARK  0 active torsions:
REMARK  status: ('A' for Active; 'I' for Inactive)
ROOT
ATOM      1  C2' OXE d   1       3.554  -4.977  -5.999  0.00  0.00     0.078 C 
ATOM      2  C1' OXE d   1       2.976  -3.050  -4.041  0.00  0.00     0.078 C 
ATOM      3  C1  OXE d   1       1.918  -4.080  -4.349  0.00  0.00    -0.078 A 
ATOM      4  C2  OXE d   1       2.191  -4.990  -5.341  0.00  0.00    -0.078 A 
ATOM      5  C3  OXE d   1       1.271  -5.995  -5.627  0.00  0.00     0.003 A 
ATOM      6  C4  OXE d   1       0.009  -5.994  -5.021  0.00  0.00    -0.002 A 
ATOM      7  C5  OXE d   1      -0.305  -5.052  -4.036  0.00  0.00    -0.002 A 
ATOM      8  C6  OXE d   1       0.652  -4.116  -3.659  0.00  0.00     0.003 A 
ENDROOT
TORSDOF 0
ENDMDL
