MODEL 1
REMARK minimizedAffinity 20.8386135
REMARK minimizedRMSD -1
REMARK  0 active torsions:
REMARK  status: ('A' for Active; 'I' for Inactive)
ROOT
ATOM      1  C2' OXE d   1      -2.729  -2.577   2.495  0.00  0.00     0.078 C 
ATOM      2  C1' OXE d   1      -5.474  -2.324   1.966  0.00  0.00     0.078 C 
ATOM      3  C1  OXE d   1      -5.052  -2.547   3.396  0.00  0.00    -0.078 A 
ATOM      4  C2  OXE d   1      -3.710  -2.716   3.640  0.00  0.00    -0.078 A 
ATOM      5  C3  OXE d   1      -3.261  -2.870   4.948  0.00  0.00     0.003 A 
ATOM      6  C4  OXE d   1      -4.175  -3.008   6.000  0.00  0.00    -0.002 A 
ATOM      7  C5  OXE d   1      -5.549  -2.878   5.768  0.00  0.00    -0.002 A 
ATOM      8  C6  OXE d   1      -6.000  -2.605   4.481  0.00  0.00     0.003 A 
ENDROOT
TORSDOF 0
ENDMDL
