MODEL 1
REMARK minimizedAffinity 20.8772221
REMARK minimizedRMSD -1
REMARK  0 active torsions:
REMARK  status: ('A' for Active; 'I' for Inactive)
ROOT
ATOM      1  C2' OXE d   1       1.350   2.389  -0.339  0.00  0.00     0.078 C 
ATOM      2  C1' OXE d   1       3.890   1.857   0.732  0.00  0.00     0.078 C 
ATOM      3  C1  OXE d   1       2.835   0.787   0.860  0.00  0.00    -0.078 A 
ATOM      4  C2  OXE d   1       1.582   1.074   0.374  0.00  0.00    -0.078 A 
ATOM      5  C3  OXE d   1       0.586   0.102   0.418  0.00  0.00     0.003 A 
ATOM      6  C4  OXE d   1       0.806  -1.108   1.088  0.00  0.00    -0.002 A 
ATOM      7  C5  OXE d   1       2.063  -1.404   1.625  0.00  0.00    -0.002 A 
ATOM      8  C6  OXE d   1       3.098  -0.487   1.482  0.00  0.00     0.003 A 
ENDROOT
TORSDOF 0
ENDMDL
