MODEL 1
REMARK minimizedAffinity 11.7177296
REMARK minimizedRMSD -1
REMARK  0 active torsions:
REMARK  status: ('A' for Active; 'I' for Inactive)
ROOT
ATOM      1  C2' OXE d   1      -1.165   6.000  -5.604  0.00  0.00     0.078 C 
ATOM      2  C1' OXE d   1       0.234   6.000  -3.170  0.00  0.00     0.078 C 
ATOM      3  C1  OXE d   1      -0.736   4.873  -3.424  0.00  0.00    -0.078 A 
ATOM      4  C2  OXE d   1      -1.451   4.906  -4.597  0.00  0.00    -0.078 A 
ATOM      5  C3  OXE d   1      -2.319   3.863  -4.905  0.00  0.00     0.003 A 
ATOM      6  C4  OXE d   1      -2.585   2.861  -3.964  0.00  0.00    -0.002 A 
ATOM      7  C5  OXE d   1      -1.897   2.830  -2.746  0.00  0.00    -0.002 A 
ATOM      8  C6  OXE d   1      -0.940   3.803  -2.479  0.00  0.00     0.003 A 
ENDROOT
TORSDOF 0
ENDMDL
