MODEL 1
REMARK minimizedAffinity 20.9954205
REMARK minimizedRMSD -1
REMARK  0 active torsions:
REMARK  status: ('A' for Active; 'I' for Inactive)
ROOT
ATOM      1  C2' OXE d   1      -1.599  -0.545   3.453  0.00  0.00     0.078 C 
ATOM      2  C1' OXE d   1      -2.118  -3.087   2.382  0.00  0.00     0.078 C 
ATOM      3  C1  OXE d   1      -0.731  -2.521   2.209  0.00  0.00    -0.078 A 
ATOM      4  C2  OXE d   1      -0.499  -1.257   2.696  0.00  0.00    -0.078 A 
ATOM      5  C3  OXE d   1       0.778  -0.709   2.611  0.00  0.00     0.003 A 
ATOM      6  C4  OXE d   1       1.787  -1.370   1.900  0.00  0.00    -0.002 A 
ATOM      7  C5  OXE d   1       1.561  -2.641   1.362  0.00  0.00    -0.002 A 
ATOM      8  C6  OXE d   1       0.323  -3.247   1.544  0.00  0.00     0.003 A 
ENDROOT
TORSDOF 0
ENDMDL
