MODEL 1
REMARK minimizedAffinity 20.3567734
REMARK minimizedRMSD -1
REMARK  0 active torsions:
REMARK  status: ('A' for Active; 'I' for Inactive)
ROOT
ATOM      1  C2' OXE d   1       2.669  -0.663   1.531  0.00  0.00     0.078 C 
ATOM      2  C1' OXE d   1       1.785  -3.229   0.816  0.00  0.00     0.078 C 
ATOM      3  C1  OXE d   1       0.777  -2.279   1.413  0.00  0.00    -0.078 A 
ATOM      4  C2  OXE d   1       1.229  -1.042   1.803  0.00  0.00    -0.078 A 
ATOM      5  C3  OXE d   1       0.329  -0.108   2.309  0.00  0.00     0.003 A 
ATOM      6  C4  OXE d   1      -0.998  -0.470   2.567  0.00  0.00    -0.002 A 
ATOM      7  C5  OXE d   1      -1.470  -1.739   2.214  0.00  0.00    -0.002 A 
ATOM      8  C6  OXE d   1      -0.607  -2.639   1.598  0.00  0.00     0.003 A 
ENDROOT
TORSDOF 0
ENDMDL
