MODEL 1
REMARK minimizedAffinity 7.77556753
REMARK minimizedRMSD -1
REMARK  0 active torsions:
REMARK  status: ('A' for Active; 'I' for Inactive)
ROOT
ATOM      1  C2' OXE d   1       3.642   1.506   0.833  0.00  0.00     0.078 C 
ATOM      2  C1' OXE d   1       1.096   1.977  -0.250  0.00  0.00     0.078 C 
ATOM      3  C1  OXE d   1       1.372   0.612   0.331  0.00  0.00    -0.078 A 
ATOM      4  C2  OXE d   1       2.635   0.376   0.816  0.00  0.00    -0.078 A 
ATOM      5  C3  OXE d   1       2.927  -0.848   1.413  0.00  0.00     0.003 A 
ATOM      6  C4  OXE d   1       1.993  -1.891   1.384  0.00  0.00    -0.002 A 
ATOM      7  C5  OXE d   1       0.713  -1.683   0.859  0.00  0.00    -0.002 A 
ATOM      8  C6  OXE d   1       0.373  -0.428   0.368  0.00  0.00     0.003 A 
ENDROOT
TORSDOF 0
ENDMDL
