MODEL 1
REMARK minimizedAffinity 9.83285809
REMARK minimizedRMSD -1
REMARK  0 active torsions:
REMARK  status: ('A' for Active; 'I' for Inactive)
ROOT
ATOM      1  C2' OXE d   1       3.328  -2.247  -3.890  0.00  0.00     0.078 C 
ATOM      2  C1' OXE d   1       4.425  -3.740  -6.000  0.00  0.00     0.078 C 
ATOM      3  C1  OXE d   1       3.090  -4.175  -5.450  0.00  0.00    -0.078 A 
ATOM      4  C2  OXE d   1       2.582  -3.467  -4.387  0.00  0.00    -0.078 A 
ATOM      5  C3  OXE d   1       1.329  -3.792  -3.877  0.00  0.00     0.003 A 
ATOM      6  C4  OXE d   1       0.650  -4.928  -4.336  0.00  0.00    -0.002 A 
ATOM      7  C5  OXE d   1       1.168  -5.686  -5.391  0.00  0.00    -0.002 A 
ATOM      8  C6  OXE d   1       2.363  -5.299  -5.987  0.00  0.00     0.003 A 
ENDROOT
TORSDOF 0
ENDMDL
