MODEL 1
REMARK minimizedAffinity 11.2326298
REMARK minimizedRMSD -1
REMARK  0 active torsions:
REMARK  status: ('A' for Active; 'I' for Inactive)
ROOT
ATOM      1  C2' OXE d   1       0.359  -3.830  -3.335  0.00  0.00     0.078 C 
ATOM      2  C1' OXE d   1       0.293  -5.992  -5.125  0.00  0.00     0.078 C 
ATOM      3  C1  OXE d   1       1.517  -5.111  -5.131  0.00  0.00    -0.078 A 
ATOM      4  C2  OXE d   1       1.521  -4.028  -4.285  0.00  0.00    -0.078 A 
ATOM      5  C3  OXE d   1       2.649  -3.215  -4.211  0.00  0.00     0.003 A 
ATOM      6  C4  OXE d   1       3.715  -3.399  -5.100  0.00  0.00    -0.002 A 
ATOM      7  C5  OXE d   1       3.713  -4.473  -5.997  0.00  0.00    -0.002 A 
ATOM      8  C6  OXE d   1       2.643  -5.361  -5.996  0.00  0.00     0.003 A 
ENDROOT
TORSDOF 0
ENDMDL
