MODEL 1
REMARK minimizedAffinity 14.0141077
REMARK minimizedRMSD -1
REMARK  0 active torsions:
REMARK  status: ('A' for Active; 'I' for Inactive)
ROOT
ATOM      1  C2' OXE d   1      -2.012   3.464  -3.923  0.00  0.00     0.078 C 
ATOM      2  C1' OXE d   1      -3.244   2.879  -1.469  0.00  0.00     0.078 C 
ATOM      3  C1  OXE d   1      -1.748   2.713  -1.562  0.00  0.00    -0.078 A 
ATOM      4  C2  OXE d   1      -1.159   2.957  -2.780  0.00  0.00    -0.078 A 
ATOM      5  C3  OXE d   1       0.224   2.872  -2.906  0.00  0.00     0.003 A 
ATOM      6  C4  OXE d   1       1.005   2.393  -1.847  0.00  0.00    -0.002 A 
ATOM      7  C5  OXE d   1       0.420   2.101  -0.610  0.00  0.00    -0.002 A 
ATOM      8  C6  OXE d   1      -0.946   2.296  -0.439  0.00  0.00     0.003 A 
ENDROOT
TORSDOF 0
ENDMDL
