MODEL 1
REMARK minimizedAffinity 10.5753441
REMARK minimizedRMSD -1
REMARK  0 active torsions:
REMARK  status: ('A' for Active; 'I' for Inactive)
ROOT
ATOM      1  C2' OXE d   1       4.448  -0.134   2.021  0.00  0.00     0.078 C 
ATOM      2  C1' OXE d   1       2.067  -1.551   1.569  0.00  0.00     0.078 C 
ATOM      3  C1  OXE d   1       2.124  -0.111   1.125  0.00  0.00    -0.078 A 
ATOM      4  C2  OXE d   1       3.276   0.588   1.392  0.00  0.00    -0.078 A 
ATOM      5  C3  OXE d   1       3.401   1.904   0.954  0.00  0.00     0.003 A 
ATOM      6  C4  OXE d   1       2.309   2.568   0.382  0.00  0.00    -0.002 A 
ATOM      7  C5  OXE d   1       1.113   1.886   0.137  0.00  0.00    -0.002 A 
ATOM      8  C6  OXE d   1       1.018   0.537   0.463  0.00  0.00     0.003 A 
ENDROOT
TORSDOF 0
ENDMDL
