MODEL 1
REMARK minimizedAffinity 15.0369949
REMARK minimizedRMSD -1
REMARK  0 active torsions:
REMARK  status: ('A' for Active; 'I' for Inactive)
ROOT
ATOM      1  C2' OXE d   1      -3.161   3.499  -5.994  0.00  0.00     0.078 C 
ATOM      2  C1' OXE d   1      -1.976   5.999  -5.520  0.00  0.00     0.078 C 
ATOM      3  C1  OXE d   1      -1.829   4.939  -4.458  0.00  0.00    -0.078 A 
ATOM      4  C2  OXE d   1      -2.452   3.734  -4.677  0.00  0.00    -0.078 A 
ATOM      5  C3  OXE d   1      -2.303   2.702  -3.755  0.00  0.00     0.003 A 
ATOM      6  C4  OXE d   1      -1.653   2.930  -2.536  0.00  0.00    -0.002 A 
ATOM      7  C5  OXE d   1      -1.046   4.163  -2.275  0.00  0.00    -0.002 A 
ATOM      8  C6  OXE d   1      -1.088   5.162  -3.241  0.00  0.00     0.003 A 
ENDROOT
TORSDOF 0
ENDMDL
