MODEL 1
REMARK minimizedAffinity 5.11900949
REMARK minimizedRMSD -1
REMARK  0 active torsions:
REMARK  status: ('A' for Active; 'I' for Inactive)
ROOT
ATOM      1  C2' OXE d   1       3.243  -0.712   3.164  0.00  0.00     0.078 C 
ATOM      2  C1' OXE d   1       1.251  -0.756   1.186  0.00  0.00     0.078 C 
ATOM      3  C1  OXE d   1       0.811  -0.704   2.628  0.00  0.00    -0.078 A 
ATOM      4  C2  OXE d   1       1.791  -0.730   3.590  0.00  0.00    -0.078 A 
ATOM      5  C3  OXE d   1       1.442  -0.629   4.934  0.00  0.00     0.003 A 
ATOM      6  C4  OXE d   1       0.096  -0.656   5.320  0.00  0.00    -0.002 A 
ATOM      7  C5  OXE d   1      -0.919  -0.669   4.357  0.00  0.00    -0.002 A 
ATOM      8  C6  OXE d   1      -0.579  -0.650   3.009  0.00  0.00     0.003 A 
ENDROOT
TORSDOF 0
ENDMDL
