MODEL 1
REMARK minimizedAffinity 9.84185505
REMARK minimizedRMSD -1
REMARK  0 active torsions:
REMARK  status: ('A' for Active; 'I' for Inactive)
ROOT
ATOM      1  C2' OXE d   1      -4.556  -3.203   3.307  0.00  0.00     0.078 C 
ATOM      2  C1' OXE d   1      -2.828  -3.087   1.098  0.00  0.00     0.078 C 
ATOM      3  C1  OXE d   1      -3.935  -4.110   1.072  0.00  0.00    -0.078 A 
ATOM      4  C2  OXE d   1      -4.747  -4.192   2.177  0.00  0.00    -0.078 A 
ATOM      5  C3  OXE d   1      -5.818  -5.082   2.182  0.00  0.00     0.003 A 
ATOM      6  C4  OXE d   1      -5.982  -5.999   1.137  0.00  0.00    -0.002 A 
ATOM      7  C5  OXE d   1      -5.141  -5.960   0.020  0.00  0.00    -0.002 A 
ATOM      8  C6  OXE d   1      -4.142  -4.996  -0.048  0.00  0.00     0.003 A 
ENDROOT
TORSDOF 0
ENDMDL
