MODEL 1
REMARK minimizedAffinity 19.3643398
REMARK minimizedRMSD -1
REMARK  0 active torsions:
REMARK  status: ('A' for Active; 'I' for Inactive)
ROOT
ATOM      1  C2' OXE d   1      -2.975   3.337  -5.790  0.00  0.00     0.078 C 
ATOM      2  C1' OXE d   1      -2.090   6.000  -5.723  0.00  0.00     0.078 C 
ATOM      3  C1  OXE d   1      -2.390   5.325  -4.408  0.00  0.00    -0.078 A 
ATOM      4  C2  OXE d   1      -2.867   4.037  -4.453  0.00  0.00    -0.078 A 
ATOM      5  C3  OXE d   1      -3.108   3.350  -3.267  0.00  0.00     0.003 A 
ATOM      6  C4  OXE d   1      -3.015   4.008  -2.034  0.00  0.00    -0.002 A 
ATOM      7  C5  OXE d   1      -2.568   5.332  -1.969  0.00  0.00    -0.002 A 
ATOM      8  C6  OXE d   1      -2.212   5.990  -3.141  0.00  0.00     0.003 A 
ENDROOT
TORSDOF 0
ENDMDL
