MODEL 1
REMARK minimizedAffinity -0.769646704
REMARK minimizedRMSD -1
REMARK  0 active torsions:
REMARK  status: ('A' for Active; 'I' for Inactive)
ROOT
ATOM      1  C2' OXE d   1      -3.334  -3.036   3.300  0.00  0.00     0.078 C 
ATOM      2  C1' OXE d   1      -3.985  -2.616   5.998  0.00  0.00     0.078 C 
ATOM      3  C1  OXE d   1      -4.574  -3.824   5.312  0.00  0.00    -0.078 A 
ATOM      4  C2  OXE d   1      -4.287  -3.996   3.979  0.00  0.00    -0.078 A 
ATOM      5  C3  OXE d   1      -4.760  -5.122   3.312  0.00  0.00     0.003 A 
ATOM      6  C4  OXE d   1      -5.650  -5.999   3.944  0.00  0.00    -0.002 A 
ATOM      7  C5  OXE d   1      -5.986  -5.820   5.290  0.00  0.00    -0.002 A 
ATOM      8  C6  OXE d   1      -5.425  -4.764   5.999  0.00  0.00     0.003 A 
ENDROOT
TORSDOF 0
ENDMDL
