MODEL 1
REMARK minimizedAffinity -4.86070299
REMARK minimizedRMSD -1
REMARK  1 active torsions:
REMARK  status: ('A' for Active; 'I' for Inactive)
REMARK    1  A    between atoms: C1_2  and  C2_3 
ROOT
ATOM      1  C2  UNL d   1       0.056  -0.146  -1.034  0.00  0.00    -0.081 A 
ATOM      2  C3  UNL d   1      -1.277   0.048  -0.650  0.00  0.00     0.006 A 
ATOM      3  C4  UNL d   1      -1.582   0.578   0.606  0.00  0.00     0.002 A 
ATOM      4  C5  UNL d   1      -0.560   0.930   1.494  0.00  0.00    -0.080 A 
ATOM      5  C6  UNL d   1      -0.873   1.529   2.834  0.00  0.00     0.076 C 
ATOM      6  C7  UNL d   1       0.771   0.720   1.117  0.00  0.00     0.002 A 
ATOM      7  C8  UNL d   1       1.076   0.189  -0.138  0.00  0.00     0.006 A 
ENDROOT
BRANCH   1   8
ATOM      8  C1  UNL d   1       0.389  -0.657  -2.413  0.00  0.00     0.054 C 
ATOM      9  C   UNL d   1       1.325   0.294  -3.144  0.00  0.00     0.018 C 
ENDBRANCH   1   8
TORSDOF 1
ENDMDL
