MODEL 1
REMARK minimizedAffinity -3.85520029
REMARK minimizedRMSD -1
REMARK  1 active torsions:
REMARK  status: ('A' for Active; 'I' for Inactive)
REMARK    1  A    between atoms: C1_2  and  C2_3 
ROOT
ATOM      1  C2  UNL d   1       0.597  -0.427  -0.730  0.00  0.00    -0.081 A 
ATOM      2  C3  UNL d   1       1.577  -0.428   0.271  0.00  0.00     0.006 A 
ATOM      3  C4  UNL d   1       1.334   0.188   1.501  0.00  0.00     0.002 A 
ATOM      4  C5  UNL d   1       0.105   0.808   1.754  0.00  0.00    -0.080 A 
ATOM      5  C6  UNL d   1      -0.180   1.446   3.081  0.00  0.00     0.076 C 
ATOM      6  C7  UNL d   1      -0.867   0.824   0.748  0.00  0.00     0.002 A 
ATOM      7  C8  UNL d   1      -0.625   0.209  -0.482  0.00  0.00     0.006 A 
ENDROOT
BRANCH   1   8
ATOM      8  C1  UNL d   1       0.832  -1.146  -2.033  0.00  0.00     0.054 C 
ATOM      9  C   UNL d   1       0.916  -0.169  -3.197  0.00  0.00     0.018 C 
ENDBRANCH   1   8
TORSDOF 1
ENDMDL
