MODEL 1
REMARK minimizedAffinity -1.98934042
REMARK minimizedRMSD -1
REMARK  1 active torsions:
REMARK  status: ('A' for Active; 'I' for Inactive)
REMARK    1  A    between atoms: C1_2  and  C2_3 
ROOT
ATOM      1  C2  UNL d   1      -1.217   0.156   1.357  0.00  0.00    -0.081 A 
ATOM      2  C3  UNL d   1      -0.805  -0.184   0.062  0.00  0.00     0.006 A 
ATOM      3  C4  UNL d   1       0.520  -0.550  -0.186  0.00  0.00     0.002 A 
ATOM      4  C5  UNL d   1       1.452  -0.591   0.856  0.00  0.00    -0.080 A 
ATOM      5  C6  UNL d   1       2.870  -1.012   0.608  0.00  0.00     0.076 C 
ATOM      6  C7  UNL d   1       1.045  -0.235   2.146  0.00  0.00     0.002 A 
ATOM      7  C8  UNL d   1      -0.279   0.132   2.395  0.00  0.00     0.006 A 
ENDROOT
BRANCH   1   8
ATOM      8  C1  UNL d   1      -2.659   0.489   1.640  0.00  0.00     0.054 C 
ATOM      9  C   UNL d   1      -3.418   0.794   0.357  0.00  0.00     0.018 C 
ENDBRANCH   1   8
TORSDOF 1
ENDMDL
