MODEL 1
REMARK minimizedAffinity -3.60018826
REMARK minimizedRMSD -1
REMARK  1 active torsions:
REMARK  status: ('A' for Active; 'I' for Inactive)
REMARK    1  A    between atoms: C1_2  and  C2_3 
ROOT
ATOM      1  C2  UNL d   1       0.043   0.034  -0.641  0.00  0.00    -0.081 A 
ATOM      2  C3  UNL d   1      -1.259   0.029  -0.126  0.00  0.00     0.006 A 
ATOM      3  C4  UNL d   1      -1.519   0.542   1.147  0.00  0.00     0.002 A 
ATOM      4  C5  UNL d   1      -0.484   1.075   1.923  0.00  0.00    -0.080 A 
ATOM      5  C6  UNL d   1      -0.755   1.656   3.279  0.00  0.00     0.076 C 
ATOM      6  C7  UNL d   1       0.820   1.064   1.416  0.00  0.00     0.002 A 
ATOM      7  C8  UNL d   1       1.080   0.551   0.143  0.00  0.00     0.006 A 
ENDROOT
BRANCH   1   8
ATOM      8  C1  UNL d   1       0.316  -0.459  -2.039  0.00  0.00     0.054 C 
ATOM      9  C   UNL d   1       1.032   0.598  -2.868  0.00  0.00     0.018 C 
ENDBRANCH   1   8
TORSDOF 1
ENDMDL
