MODEL 1
REMARK minimizedAffinity 2.99310088
REMARK minimizedRMSD -1
REMARK  0 active torsions:
REMARK  status: ('A' for Active; 'I' for Inactive)
ROOT
ATOM      1  C   UNL d   1       0.583  -0.926   1.969  0.00  0.00    -0.002 A 
ATOM      2  C1  UNL d   1       0.968   0.399   1.817  0.00  0.00     0.010 A 
ATOM      3  C2  UNL d   1       1.571   0.833   0.635  0.00  0.00     0.041 A 
ATOM      4  C3  UNL d   1       1.782  -0.096  -0.403  0.00  0.00    -0.075 A 
ATOM      5  S   UNL d   1       2.502   0.208  -1.940  0.00  0.00     0.015 SA
ATOM      6  C4  UNL d   1       2.315  -1.413  -2.432  0.00  0.00     0.022 A 
ATOM      7  C5  UNL d   1       1.720  -2.182  -1.460  0.00  0.00     0.026 A 
ATOM      8  C6  UNL d   1       1.402  -1.435  -0.275  0.00  0.00    -0.082 A 
ATOM      9  C7  UNL d   1       0.794  -1.844   0.937  0.00  0.00     0.045 A 
ENDROOT
TORSDOF 0
ENDMDL
