MODEL 1
REMARK minimizedAffinity 3.32136512
REMARK minimizedRMSD -1
REMARK  0 active torsions:
REMARK  status: ('A' for Active; 'I' for Inactive)
ROOT
ATOM      1  C   UNL d   1       0.357  -0.952   1.181  0.00  0.00    -0.002 A 
ATOM      2  C1  UNL d   1       0.431   0.434   1.175  0.00  0.00     0.010 A 
ATOM      3  C2  UNL d   1       1.357   1.092   0.363  0.00  0.00     0.041 A 
ATOM      4  C3  UNL d   1       2.214   0.327  -0.452  0.00  0.00    -0.075 A 
ATOM      5  S   UNL d   1       3.426   0.917  -1.527  0.00  0.00     0.015 SA
ATOM      6  C4  UNL d   1       3.873  -0.657  -2.005  0.00  0.00     0.022 A 
ATOM      7  C5  UNL d   1       3.127  -1.621  -1.368  0.00  0.00     0.026 A 
ATOM      8  C6  UNL d   1       2.158  -1.069  -0.463  0.00  0.00    -0.082 A 
ATOM      9  C7  UNL d   1       1.209  -1.707   0.371  0.00  0.00     0.045 A 
ENDROOT
TORSDOF 0
ENDMDL
