MODEL 1
REMARK minimizedAffinity 9.55585194
REMARK minimizedRMSD -1
REMARK  0 active torsions:
REMARK  status: ('A' for Active; 'I' for Inactive)
ROOT
ATOM      1  C   UNL d   1      -2.074  -1.542   2.306  0.00  0.00    -0.002 A 
ATOM      2  C1  UNL d   1      -1.778  -0.351   2.954  0.00  0.00     0.010 A 
ATOM      3  C2  UNL d   1      -0.544   0.274   2.763  0.00  0.00     0.041 A 
ATOM      4  C3  UNL d   1       0.395  -0.322   1.899  0.00  0.00    -0.075 A 
ATOM      5  S   UNL d   1       1.970   0.264   1.511  0.00  0.00     0.015 SA
ATOM      6  C4  UNL d   1       2.286  -1.052   0.475  0.00  0.00     0.022 A 
ATOM      7  C5  UNL d   1       1.228  -1.927   0.415  0.00  0.00     0.026 A 
ATOM      8  C6  UNL d   1       0.120  -1.520   1.234  0.00  0.00    -0.082 A 
ATOM      9  C7  UNL d   1      -1.139  -2.130   1.449  0.00  0.00     0.045 A 
ENDROOT
TORSDOF 0
ENDMDL
