MODEL 1
REMARK minimizedAffinity 6.30364227
REMARK minimizedRMSD -1
REMARK  0 active torsions:
REMARK  status: ('A' for Active; 'I' for Inactive)
ROOT
ATOM      1  C   UNL d   1       1.112  -0.394   1.516  0.00  0.00    -0.002 A 
ATOM      2  C1  UNL d   1       1.381  -1.669   1.038  0.00  0.00     0.010 A 
ATOM      3  C2  UNL d   1       2.183  -1.851  -0.090  0.00  0.00     0.041 A 
ATOM      4  C3  UNL d   1       2.718  -0.718  -0.735  0.00  0.00    -0.075 A 
ATOM      5  S   UNL d   1       3.728  -0.699  -2.132  0.00  0.00     0.015 SA
ATOM      6  C4  UNL d   1       3.828   1.003  -2.127  0.00  0.00     0.022 A 
ATOM      7  C5  UNL d   1       3.114   1.558  -1.092  0.00  0.00     0.026 A 
ATOM      8  C6  UNL d   1       2.463   0.576  -0.272  0.00  0.00    -0.082 A 
ATOM      9  C7  UNL d   1       1.645   0.727   0.873  0.00  0.00     0.045 A 
ENDROOT
TORSDOF 0
ENDMDL
