MODEL 1
REMARK minimizedAffinity -0.954789937
REMARK minimizedRMSD -1
REMARK  0 active torsions:
REMARK  status: ('A' for Active; 'I' for Inactive)
ROOT
ATOM      1  C   UNL d   1       2.417  -0.528  -1.224  0.00  0.00    -0.002 A 
ATOM      2  C1  UNL d   1       2.348   0.739  -0.660  0.00  0.00     0.010 A 
ATOM      3  C2  UNL d   1       1.468   1.001   0.392  0.00  0.00     0.041 A 
ATOM      4  C3  UNL d   1       0.652  -0.041   0.873  0.00  0.00    -0.075 A 
ATOM      5  S   UNL d   1      -0.500   0.048   2.153  0.00  0.00     0.015 SA
ATOM      6  C4  UNL d   1      -0.927  -1.593   1.983  0.00  0.00     0.022 A 
ATOM      7  C5  UNL d   1      -0.218  -2.209   0.979  0.00  0.00     0.026 A 
ATOM      8  C6  UNL d   1       0.704  -1.325   0.323  0.00  0.00    -0.082 A 
ATOM      9  C7  UNL d   1       1.606  -1.559  -0.743  0.00  0.00     0.045 A 
ENDROOT
TORSDOF 0
ENDMDL
