MODEL 1
REMARK minimizedAffinity 12.0815353
REMARK minimizedRMSD -1
REMARK  0 active torsions:
REMARK  status: ('A' for Active; 'I' for Inactive)
ROOT
ATOM      1  C   UNL d   1      -0.715   0.954  -4.265  0.00  0.00    -0.002 A 
ATOM      2  C1  UNL d   1      -2.078   1.180  -4.139  0.00  0.00     0.010 A 
ATOM      3  C2  UNL d   1      -2.555   2.416  -3.696  0.00  0.00     0.041 A 
ATOM      4  C3  UNL d   1      -1.630   3.430  -3.381  0.00  0.00    -0.075 A 
ATOM      5  S   UNL d   1      -1.984   5.022  -2.821  0.00  0.00     0.015 SA
ATOM      6  C4  UNL d   1      -0.333   5.440  -2.737  0.00  0.00     0.022 A 
ATOM      7  C5  UNL d   1       0.481   4.402  -3.123  0.00  0.00     0.026 A 
ATOM      8  C6  UNL d   1      -0.252   3.227  -3.501  0.00  0.00    -0.082 A 
ATOM      9  C7  UNL d   1       0.200   1.963  -3.952  0.00  0.00     0.045 A 
ENDROOT
TORSDOF 0
ENDMDL
