MODEL 1
REMARK minimizedAffinity 6.7899785
REMARK minimizedRMSD -1
REMARK  0 active torsions:
REMARK  status: ('A' for Active; 'I' for Inactive)
ROOT
ATOM      1  C   UNL d   1       2.173  -0.247  -1.062  0.00  0.00    -0.002 A 
ATOM      2  C1  UNL d   1       2.319   1.023  -0.523  0.00  0.00     0.010 A 
ATOM      3  C2  UNL d   1       1.730   1.348   0.701  0.00  0.00     0.041 A 
ATOM      4  C3  UNL d   1       0.986   0.364   1.381  0.00  0.00    -0.075 A 
ATOM      5  S   UNL d   1       0.176   0.534   2.894  0.00  0.00     0.015 SA
ATOM      6  C4  UNL d   1      -0.383  -1.075   2.860  0.00  0.00     0.022 A 
ATOM      7  C5  UNL d   1       0.029  -1.741   1.730  0.00  0.00     0.026 A 
ATOM      8  C6  UNL d   1       0.825  -0.922   0.859  0.00  0.00    -0.082 A 
ATOM      9  C7  UNL d   1       1.433  -1.220  -0.384  0.00  0.00     0.045 A 
ENDROOT
TORSDOF 0
ENDMDL
