MODEL 1
REMARK minimizedAffinity 7.40449905
REMARK minimizedRMSD -1
REMARK  0 active torsions:
REMARK  status: ('A' for Active; 'I' for Inactive)
ROOT
ATOM      1  C   UNL d   1      -2.582   2.254  -3.623  0.00  0.00    -0.002 A 
ATOM      2  C1  UNL d   1      -2.068   3.381  -2.998  0.00  0.00     0.010 A 
ATOM      3  C2  UNL d   1      -0.804   3.868  -3.337  0.00  0.00     0.041 A 
ATOM      4  C3  UNL d   1      -0.059   3.198  -4.328  0.00  0.00    -0.075 A 
ATOM      5  S   UNL d   1       1.510   3.615  -4.907  0.00  0.00     0.015 SA
ATOM      6  C4  UNL d   1       1.535   2.306  -5.999  0.00  0.00     0.022 A 
ATOM      7  C5  UNL d   1       0.383   1.560  -5.937  0.00  0.00     0.026 A 
ATOM      8  C6  UNL d   1      -0.556   2.062  -4.973  0.00  0.00    -0.082 A 
ATOM      9  C7  UNL d   1      -1.840   1.592  -4.605  0.00  0.00     0.045 A 
ENDROOT
TORSDOF 0
ENDMDL
