MODEL 1
REMARK minimizedAffinity -5.69719696
REMARK minimizedRMSD -1
REMARK  3 active torsions:
REMARK  status: ('A' for Active; 'I' for Inactive)
REMARK    1  A    between atoms: C3'_2  and  C2'_3 
REMARK    2  A    between atoms: C2'_3  and  C1'_4 
REMARK    3  A    between atoms: C1'_4  and  C1_5 
ROOT
ATOM      1  C1  N4B d   1      -0.158   0.368   0.335  0.00  0.00    -0.075 A 
ATOM      2  C2  N4B d   1       1.171   0.684   0.693  0.00  0.00     0.002 A 
ATOM      3  C3  N4B d   1       1.593   0.509   1.988  0.00  0.00     0.002 A 
ATOM      4  C4  N4B d   1       0.703   0.040   2.942  0.00  0.00    -0.004 A 
ATOM      5  C5  N4B d   1      -0.571  -0.287   2.584  0.00  0.00     0.002 A 
ATOM      6  C6  N4B d   1      -1.009  -0.120   1.285  0.00  0.00     0.002 A 
ENDROOT
BRANCH   1   7
ATOM      7  C1' N4B d   1      -0.691   0.623  -1.048  0.00  0.00     0.057 C 
BRANCH   7   8
ATOM      8  C2' N4B d   1       0.429   0.410  -2.063  0.00  0.00     0.009 C 
BRANCH   8   9
ATOM      9  C3' N4B d   1       0.230  -0.862  -2.869  0.00  0.00     0.004 C 
ATOM     10  C4' N4B d   1       1.523  -1.466  -3.330  0.00  0.00     0.003 C 
ENDBRANCH   8   9
ENDBRANCH   7   8
ENDBRANCH   1   7
TORSDOF 3
ENDMDL
