MODEL 1
REMARK minimizedAffinity -5.31249905
REMARK minimizedRMSD -1
REMARK  3 active torsions:
REMARK  status: ('A' for Active; 'I' for Inactive)
REMARK    1  A    between atoms: C3'_2  and  C2'_3 
REMARK    2  A    between atoms: C2'_3  and  C1'_4 
REMARK    3  A    between atoms: C1'_4  and  C1_5 
ROOT
ATOM      1  C1  N4B d   1       0.227  -0.193   0.075  0.00  0.00    -0.075 A 
ATOM      2  C2  N4B d   1      -0.918  -0.788   0.650  0.00  0.00     0.002 A 
ATOM      3  C3  N4B d   1      -1.081  -0.785   2.014  0.00  0.00     0.002 A 
ATOM      4  C4  N4B d   1      -0.108  -0.213   2.820  0.00  0.00    -0.004 A 
ATOM      5  C5  N4B d   1       0.982   0.381   2.255  0.00  0.00     0.002 A 
ATOM      6  C6  N4B d   1       1.157   0.389   0.885  0.00  0.00     0.002 A 
ENDROOT
BRANCH   1   7
ATOM      7  C1' N4B d   1       0.490  -0.247  -1.405  0.00  0.00     0.057 C 
BRANCH   7   8
ATOM      8  C2' N4B d   1       0.052  -1.606  -1.943  0.00  0.00     0.009 C 
BRANCH   8   9
ATOM      9  C3' N4B d   1       0.735  -1.945  -3.257  0.00  0.00     0.004 C 
ATOM     10  C4' N4B d   1       2.179  -2.310  -3.083  0.00  0.00     0.003 C 
ENDBRANCH   8   9
ENDBRANCH   7   8
ENDBRANCH   1   7
TORSDOF 3
ENDMDL
