MODEL 1
REMARK minimizedAffinity -3.01224518
REMARK minimizedRMSD -1
REMARK  3 active torsions:
REMARK  status: ('A' for Active; 'I' for Inactive)
REMARK    1  A    between atoms: C3'_2  and  C2'_3 
REMARK    2  A    between atoms: C2'_3  and  C1'_4 
REMARK    3  A    between atoms: C1'_4  and  C1_5 
ROOT
ATOM      1  C1  N4B d   1       0.605  -0.500  -2.680  0.00  0.00    -0.075 A 
ATOM      2  C2  N4B d   1       1.593   0.053  -3.524  0.00  0.00     0.002 A 
ATOM      3  C3  N4B d   1       2.401  -0.772  -4.267  0.00  0.00     0.002 A 
ATOM      4  C4  N4B d   1       2.252  -2.148  -4.169  0.00  0.00    -0.004 A 
ATOM      5  C5  N4B d   1       1.278  -2.673  -3.371  0.00  0.00     0.002 A 
ATOM      6  C6  N4B d   1       0.457  -1.855  -2.621  0.00  0.00     0.002 A 
ENDROOT
BRANCH   1   7
ATOM      7  C1' N4B d   1      -0.245   0.359  -1.783  0.00  0.00     0.057 C 
BRANCH   7   8
ATOM      8  C2' N4B d   1      -0.356  -0.304  -0.414  0.00  0.00     0.009 C 
BRANCH   8   9
ATOM      9  C3' N4B d   1       0.875  -0.052   0.441  0.00  0.00     0.004 C 
ATOM     10  C4' N4B d   1       0.571  -0.043   1.909  0.00  0.00     0.003 C 
ENDBRANCH   8   9
ENDBRANCH   7   8
ENDBRANCH   1   7
TORSDOF 3
ENDMDL
