MODEL 1
REMARK minimizedAffinity 4.89552593
REMARK minimizedRMSD -1
REMARK  0 active torsions:
REMARK  status: ('A' for Active; 'I' for Inactive)
ROOT
ATOM      1  C   UNL d   1      -2.181  -2.254  -2.391  0.00  0.00     0.172 C 
ATOM      2  N   UNL d   1      -2.246  -2.615  -3.787  0.00  0.00    -0.070 N 
ATOM      3  C1  UNL d   1      -1.863  -1.821  -4.836  0.00  0.00    -0.004 A 
ATOM      4  C2  UNL d   1      -2.081  -2.526  -6.000  0.00  0.00    -0.047 A 
ATOM      5  C3  UNL d   1      -2.613  -3.787  -5.638  0.00  0.00    -0.047 A 
ATOM      6  C4  UNL d   1      -2.705  -3.815  -4.263  0.00  0.00    -0.004 A 
ENDROOT
TORSDOF 0
ENDMDL
