MODEL 1
REMARK minimizedAffinity 0.807690263
REMARK minimizedRMSD -1
REMARK  0 active torsions:
REMARK  status: ('A' for Active; 'I' for Inactive)
ROOT
ATOM      1  C   UNL d   1      -1.785  -2.245  -2.389  0.00  0.00     0.172 C 
ATOM      2  N   UNL d   1      -1.926  -2.591  -3.784  0.00  0.00    -0.070 N 
ATOM      3  C1  UNL d   1      -1.441  -1.865  -4.839  0.00  0.00    -0.004 A 
ATOM      4  C2  UNL d   1      -1.782  -2.527  -5.999  0.00  0.00    -0.047 A 
ATOM      5  C3  UNL d   1      -2.498  -3.690  -5.627  0.00  0.00    -0.047 A 
ATOM      6  C4  UNL d   1      -2.572  -3.705  -4.251  0.00  0.00    -0.004 A 
ENDROOT
TORSDOF 0
ENDMDL
