MODEL 1
REMARK minimizedAffinity 3.12448621
REMARK minimizedRMSD -1
REMARK  0 active torsions:
REMARK  status: ('A' for Active; 'I' for Inactive)
ROOT
ATOM      1  C   UNL d   1      -1.481  -2.624  -2.409  0.00  0.00     0.172 C 
ATOM      2  N   UNL d   1      -1.733  -3.006  -3.778  0.00  0.00    -0.070 N 
ATOM      3  C1  UNL d   1      -2.434  -4.111  -4.183  0.00  0.00    -0.004 A 
ATOM      4  C2  UNL d   1      -2.450  -4.119  -5.561  0.00  0.00    -0.047 A 
ATOM      5  C3  UNL d   1      -1.733  -2.980  -6.000  0.00  0.00    -0.047 A 
ATOM      6  C4  UNL d   1      -1.300  -2.309  -4.875  0.00  0.00    -0.004 A 
ENDROOT
TORSDOF 0
ENDMDL
