MODEL 1
REMARK minimizedAffinity 1.77757955
REMARK minimizedRMSD -1
REMARK  0 active torsions:
REMARK  status: ('A' for Active; 'I' for Inactive)
ROOT
ATOM      1  C   UNL d   1      -1.132  -2.904   2.676  0.00  0.00     0.172 C 
ATOM      2  N   UNL d   1      -0.926  -2.502   1.304  0.00  0.00    -0.070 N 
ATOM      3  C1  UNL d   1       0.173  -2.796   0.542  0.00  0.00    -0.004 A 
ATOM      4  C2  UNL d   1      -0.015  -2.236  -0.703  0.00  0.00    -0.047 A 
ATOM      5  C3  UNL d   1      -1.270  -1.582  -0.689  0.00  0.00    -0.047 A 
ATOM      6  C4  UNL d   1      -1.813  -1.763   0.566  0.00  0.00    -0.004 A 
ENDROOT
TORSDOF 0
ENDMDL
