MODEL 1
REMARK minimizedAffinity 3.92907476
REMARK minimizedRMSD -1
REMARK  0 active torsions:
REMARK  status: ('A' for Active; 'I' for Inactive)
ROOT
ATOM      1  C   UNL d   1      -1.670  -2.314  -2.410  0.00  0.00     0.172 C 
ATOM      2  N   UNL d   1      -1.916  -2.702  -3.779  0.00  0.00    -0.070 N 
ATOM      3  C1  UNL d   1      -2.718  -3.736  -4.183  0.00  0.00    -0.004 A 
ATOM      4  C2  UNL d   1      -2.690  -3.778  -5.560  0.00  0.00    -0.047 A 
ATOM      5  C3  UNL d   1      -1.841  -2.734  -5.999  0.00  0.00    -0.047 A 
ATOM      6  C4  UNL d   1      -1.375  -2.084  -4.875  0.00  0.00    -0.004 A 
ENDROOT
TORSDOF 0
ENDMDL
