MODEL 1
REMARK minimizedAffinity 5.78525877
REMARK minimizedRMSD -1
REMARK  0 active torsions:
REMARK  status: ('A' for Active; 'I' for Inactive)
ROOT
ATOM      1  C   UNL d   1       0.333   0.719   3.779  0.00  0.00     0.172 C 
ATOM      2  N   UNL d   1      -0.399  -0.393   3.218  0.00  0.00    -0.070 N 
ATOM      3  C1  UNL d   1      -1.553  -0.926   3.726  0.00  0.00    -0.004 A 
ATOM      4  C2  UNL d   1      -1.934  -1.967   2.907  0.00  0.00    -0.047 A 
ATOM      5  C3  UNL d   1      -0.975  -2.062   1.870  0.00  0.00    -0.047 A 
ATOM      6  C4  UNL d   1      -0.036  -1.076   2.088  0.00  0.00    -0.004 A 
ENDROOT
TORSDOF 0
ENDMDL
