MODEL 1
REMARK minimizedAffinity 4.90260506
REMARK minimizedRMSD -1
REMARK  0 active torsions:
REMARK  status: ('A' for Active; 'I' for Inactive)
ROOT
ATOM      1  C   UNL d   1      -1.727  -2.127   2.422  0.00  0.00     0.172 C 
ATOM      2  N   UNL d   1      -1.511  -1.954   1.005  0.00  0.00    -0.070 N 
ATOM      3  C1  UNL d   1      -2.369  -1.332   0.137  0.00  0.00    -0.004 A 
ATOM      4  C2  UNL d   1      -1.803  -1.374  -1.119  0.00  0.00    -0.047 A 
ATOM      5  C3  UNL d   1      -0.562  -2.045  -1.002  0.00  0.00    -0.047 A 
ATOM      6  C4  UNL d   1      -0.407  -2.393   0.324  0.00  0.00    -0.004 A 
ENDROOT
TORSDOF 0
ENDMDL
