MODEL 1
REMARK minimizedAffinity -1.25925732
REMARK minimizedRMSD -1
REMARK  0 active torsions:
REMARK  status: ('A' for Active; 'I' for Inactive)
ROOT
ATOM      1  C   UNL d   1       3.741   2.686  -5.984  0.00  0.00     0.172 C 
ATOM      2  N   UNL d   1       4.651   1.740  -5.382  0.00  0.00    -0.070 N 
ATOM      3  C1  UNL d   1       5.184   0.640  -6.000  0.00  0.00    -0.004 A 
ATOM      4  C2  UNL d   1       6.000  -0.000  -5.092  0.00  0.00    -0.047 A 
ATOM      5  C3  UNL d   1       5.955   0.739  -3.887  0.00  0.00    -0.047 A 
ATOM      6  C4  UNL d   1       5.113   1.812  -4.094  0.00  0.00    -0.004 A 
ENDROOT
TORSDOF 0
ENDMDL
