MODEL 1
REMARK minimizedAffinity -2.15907836
REMARK minimizedRMSD -1
REMARK  0 active torsions:
REMARK  status: ('A' for Active; 'I' for Inactive)
ROOT
ATOM      1  C   UNL d   1       5.188   5.999  -5.867  0.00  0.00     0.172 C 
ATOM      2  N   UNL d   1       3.906   5.398  -5.585  0.00  0.00    -0.070 N 
ATOM      3  C1  UNL d   1       3.499   4.157  -5.997  0.00  0.00    -0.004 A 
ATOM      4  C2  UNL d   1       2.219   3.955  -5.525  0.00  0.00    -0.047 A 
ATOM      5  C3  UNL d   1       1.845   5.115  -4.807  0.00  0.00    -0.047 A 
ATOM      6  C4  UNL d   1       2.907   5.992  -4.860  0.00  0.00    -0.004 A 
ENDROOT
TORSDOF 0
ENDMDL
