MODEL 1
REMARK minimizedAffinity -2.59684229
REMARK minimizedRMSD -1
REMARK  0 active torsions:
REMARK  status: ('A' for Active; 'I' for Inactive)
ROOT
ATOM      1  C   UNL d   1       5.669   5.621  -5.859  0.00  0.00     0.172 C 
ATOM      2  N   UNL d   1       4.497   4.877  -5.462  0.00  0.00    -0.070 N 
ATOM      3  C1  UNL d   1       3.600   5.256  -4.499  0.00  0.00    -0.004 A 
ATOM      4  C2  UNL d   1       2.629   4.281  -4.421  0.00  0.00    -0.047 A 
ATOM      5  C3  UNL d   1       2.953   3.282  -5.369  0.00  0.00    -0.047 A 
ATOM      6  C4  UNL d   1       4.114   3.677  -6.000  0.00  0.00    -0.004 A 
ENDROOT
TORSDOF 0
ENDMDL
