MODEL 1
REMARK minimizedAffinity -2.6743474
REMARK minimizedRMSD -1
REMARK  0 active torsions:
REMARK  status: ('A' for Active; 'I' for Inactive)
ROOT
ATOM      1  C   UNL d   1       5.070  -0.076   2.632  0.00  0.00     0.172 C 
ATOM      2  N   UNL d   1       4.378   1.001   1.964  0.00  0.00    -0.070 N 
ATOM      3  C1  UNL d   1       4.958   2.140   1.473  0.00  0.00    -0.004 A 
ATOM      4  C2  UNL d   1       3.964   2.912   0.911  0.00  0.00    -0.047 A 
ATOM      5  C3  UNL d   1       2.744   2.213   1.072  0.00  0.00    -0.047 A 
ATOM      6  C4  UNL d   1       3.029   1.034   1.727  0.00  0.00    -0.004 A 
ENDROOT
TORSDOF 0
ENDMDL
