MODEL 1
REMARK minimizedAffinity -2.49146795
REMARK minimizedRMSD -1
REMARK  0 active torsions:
REMARK  status: ('A' for Active; 'I' for Inactive)
ROOT
ATOM      1  C   UNL d   1       4.548   4.624  -5.854  0.00  0.00     0.172 C 
ATOM      2  N   UNL d   1       4.915   3.356  -5.270  0.00  0.00    -0.070 N 
ATOM      3  C1  UNL d   1       5.999   3.133  -4.464  0.00  0.00    -0.004 A 
ATOM      4  C2  UNL d   1       5.999   1.799  -4.116  0.00  0.00    -0.047 A 
ATOM      5  C3  UNL d   1       4.877   1.200  -4.736  0.00  0.00    -0.047 A 
ATOM      6  C4  UNL d   1       4.224   2.186  -5.444  0.00  0.00    -0.004 A 
ENDROOT
TORSDOF 0
ENDMDL
