MODEL 1
REMARK minimizedAffinity -1.19046748
REMARK minimizedRMSD -1
REMARK  0 active torsions:
REMARK  status: ('A' for Active; 'I' for Inactive)
ROOT
ATOM      1  C   UNL d   1       5.999   0.234  -4.555  0.00  0.00     0.172 C 
ATOM      2  N   UNL d   1       5.997   1.677  -4.606  0.00  0.00    -0.070 N 
ATOM      3  C1  UNL d   1       5.993   2.514  -3.522  0.00  0.00    -0.004 A 
ATOM      4  C2  UNL d   1       5.994   3.810  -3.990  0.00  0.00    -0.047 A 
ATOM      5  C3  UNL d   1       5.997   3.750  -5.404  0.00  0.00    -0.047 A 
ATOM      6  C4  UNL d   1       5.999   2.418  -5.758  0.00  0.00    -0.004 A 
ENDROOT
TORSDOF 0
ENDMDL
