MODEL 1
REMARK minimizedAffinity -2.74265575
REMARK minimizedRMSD -1
REMARK  0 active torsions:
REMARK  status: ('A' for Active; 'I' for Inactive)
ROOT
ATOM      1  C   UNL d   1       2.756   3.020  -6.000  0.00  0.00     0.172 C 
ATOM      2  N   UNL d   1       3.987   2.390  -5.584  0.00  0.00    -0.070 N 
ATOM      3  C1  UNL d   1       4.329   1.082  -5.803  0.00  0.00    -0.004 A 
ATOM      4  C2  UNL d   1       5.576   0.873  -5.255  0.00  0.00    -0.047 A 
ATOM      5  C3  UNL d   1       5.998   2.098  -4.685  0.00  0.00    -0.047 A 
ATOM      6  C4  UNL d   1       4.996   3.020  -4.903  0.00  0.00    -0.004 A 
ENDROOT
TORSDOF 0
ENDMDL
