MODEL 1
REMARK minimizedAffinity 3.05454278
REMARK minimizedRMSD -1
REMARK  1 active torsions:
REMARK  status: ('A' for Active; 'I' for Inactive)
REMARK    1  A    between atoms: C1_2  and  C2_3 
ROOT
ATOM      1  C2  UNL d   1      -0.101   1.861   0.945  0.00  0.00    -0.081 A 
ATOM      2  C3  UNL d   1       0.942   0.968   0.675  0.00  0.00     0.006 A 
ATOM      3  C4  UNL d   1       1.274  -0.033   1.592  0.00  0.00     0.002 A 
ATOM      4  C5  UNL d   1       0.563  -0.161   2.790  0.00  0.00    -0.080 A 
ATOM      5  C6  UNL d   1       0.889  -1.250   3.769  0.00  0.00     0.076 C 
ATOM      6  C7  UNL d   1      -0.468   0.742   3.068  0.00  0.00     0.002 A 
ATOM      7  C8  UNL d   1      -0.800   1.743   2.152  0.00  0.00     0.006 A 
ENDROOT
BRANCH   1   8
ATOM      8  C1  UNL d   1      -0.504   2.900  -0.070  0.00  0.00     0.054 C 
ATOM      9  C   UNL d   1      -0.723   2.277  -1.442  0.00  0.00     0.018 C 
ENDBRANCH   1   8
TORSDOF 1
ENDMDL
