MODEL 1
REMARK minimizedAffinity 9.89792061
REMARK minimizedRMSD -1
REMARK  1 active torsions:
REMARK  status: ('A' for Active; 'I' for Inactive)
REMARK    1  A    between atoms: C1_2  and  C2_3 
ROOT
ATOM      1  C2  UNL d   1      -2.481   2.026  -1.093  0.00  0.00    -0.081 A 
ATOM      2  C3  UNL d   1      -2.287   2.839   0.031  0.00  0.00     0.006 A 
ATOM      3  C4  UNL d   1      -1.158   3.657   0.126  0.00  0.00     0.002 A 
ATOM      4  C5  UNL d   1      -0.210   3.681  -0.903  0.00  0.00    -0.080 A 
ATOM      5  C6  UNL d   1       0.990   4.577  -0.827  0.00  0.00     0.076 C 
ATOM      6  C7  UNL d   1      -0.396   2.855  -2.017  0.00  0.00     0.002 A 
ATOM      7  C8  UNL d   1      -1.523   2.037  -2.112  0.00  0.00     0.006 A 
ENDROOT
BRANCH   1   8
ATOM      8  C1  UNL d   1      -3.729   1.191  -1.228  0.00  0.00     0.054 C 
ATOM      9  C   UNL d   1      -4.316   1.296  -2.628  0.00  0.00     0.018 C 
ENDBRANCH   1   8
TORSDOF 1
ENDMDL
