MODEL 1
REMARK minimizedAffinity 12.9679413
REMARK minimizedRMSD -1
REMARK  1 active torsions:
REMARK  status: ('A' for Active; 'I' for Inactive)
REMARK    1  A    between atoms: C1_2  and  C2_3 
ROOT
ATOM      1  C2  UNL d   1      -2.504   2.839  -3.211  0.00  0.00    -0.081 A 
ATOM      2  C3  UNL d   1      -1.125   2.645  -3.065  0.00  0.00     0.006 A 
ATOM      3  C4  UNL d   1      -0.222   3.609  -3.521  0.00  0.00     0.002 A 
ATOM      4  C5  UNL d   1      -0.682   4.785  -4.123  0.00  0.00    -0.080 A 
ATOM      5  C6  UNL d   1       0.275   5.841  -4.589  0.00  0.00     0.076 C 
ATOM      6  C7  UNL d   1      -2.060   4.970  -4.284  0.00  0.00     0.002 A 
ATOM      7  C8  UNL d   1      -2.963   4.007  -3.829  0.00  0.00     0.006 A 
ENDROOT
BRANCH   1   8
ATOM      8  C1  UNL d   1      -3.482   1.831  -2.663  0.00  0.00     0.054 C 
ATOM      9  C   UNL d   1      -2.947   1.173  -1.399  0.00  0.00     0.018 C 
ENDBRANCH   1   8
TORSDOF 1
ENDMDL
