MODEL 1
REMARK minimizedAffinity 1.51618469
REMARK minimizedRMSD -1
REMARK  1 active torsions:
REMARK  status: ('A' for Active; 'I' for Inactive)
REMARK    1  A    between atoms: C1_2  and  C2_3 
ROOT
ATOM      1  C2  UNL d   1      -0.007   1.461   0.169  0.00  0.00    -0.081 A 
ATOM      2  C3  UNL d   1       0.578   0.333  -0.420  0.00  0.00     0.006 A 
ATOM      3  C4  UNL d   1       0.430   0.093  -1.789  0.00  0.00     0.002 A 
ATOM      4  C5  UNL d   1      -0.298   0.978  -2.590  0.00  0.00    -0.080 A 
ATOM      5  C6  UNL d   1      -0.439   0.748  -4.066  0.00  0.00     0.076 C 
ATOM      6  C7  UNL d   1      -0.897   2.095  -1.998  0.00  0.00     0.002 A 
ATOM      7  C8  UNL d   1      -0.750   2.336  -0.630  0.00  0.00     0.006 A 
ENDROOT
BRANCH   1   8
ATOM      8  C1  UNL d   1       0.205   1.757   1.632  0.00  0.00     0.054 C 
ATOM      9  C   UNL d   1      -1.101   2.139   2.314  0.00  0.00     0.018 C 
ENDBRANCH   1   8
TORSDOF 1
ENDMDL
