MODEL 1
REMARK minimizedAffinity 16.9283943
REMARK minimizedRMSD -1
REMARK  1 active torsions:
REMARK  status: ('A' for Active; 'I' for Inactive)
REMARK    1  A    between atoms: C1_2  and  C2_3 
ROOT
ATOM      1  C2  UNL d   1       1.416   2.415   1.064  0.00  0.00    -0.081 A 
ATOM      2  C3  UNL d   1       1.852   3.646   0.557  0.00  0.00     0.006 A 
ATOM      3  C4  UNL d   1       1.279   4.178  -0.600  0.00  0.00     0.002 A 
ATOM      4  C5  UNL d   1       0.255   3.494  -1.265  0.00  0.00    -0.080 A 
ATOM      5  C6  UNL d   1      -0.389   4.069  -2.491  0.00  0.00     0.076 C 
ATOM      6  C7  UNL d   1      -0.168   2.257  -0.769  0.00  0.00     0.002 A 
ATOM      7  C8  UNL d   1       0.405   1.723   0.388  0.00  0.00     0.006 A 
ENDROOT
BRANCH   1   8
ATOM      8  C1  UNL d   1       1.987   1.869   2.348  0.00  0.00     0.054 C 
ATOM      9  C   UNL d   1       2.855   2.903   3.051  0.00  0.00     0.018 C 
ENDBRANCH   1   8
TORSDOF 1
ENDMDL
