MODEL 1
REMARK minimizedAffinity 3.43544483
REMARK minimizedRMSD -1
REMARK  1 active torsions:
REMARK  status: ('A' for Active; 'I' for Inactive)
REMARK    1  A    between atoms: C1_2  and  C2_3 
ROOT
ATOM      1  C2  UNL d   1      -5.217  -0.048   2.923  0.00  0.00    -0.081 A 
ATOM      2  C3  UNL d   1      -4.905  -1.397   2.709  0.00  0.00     0.006 A 
ATOM      3  C4  UNL d   1      -5.144  -2.346   3.706  0.00  0.00     0.002 A 
ATOM      4  C5  UNL d   1      -5.705  -1.964   4.929  0.00  0.00    -0.080 A 
ATOM      5  C6  UNL d   1      -5.994  -2.977   5.997  0.00  0.00     0.076 C 
ATOM      6  C7  UNL d   1      -6.000  -0.614   5.150  0.00  0.00     0.002 A 
ATOM      7  C8  UNL d   1      -5.761   0.335   4.154  0.00  0.00     0.006 A 
ENDROOT
BRANCH   1   8
ATOM      8  C1  UNL d   1      -5.021   0.967   1.826  0.00  0.00     0.054 C 
ATOM      9  C   UNL d   1      -4.848   0.293   0.473  0.00  0.00     0.018 C 
ENDBRANCH   1   8
TORSDOF 1
ENDMDL
