MODEL 1
REMARK minimizedAffinity 7.91016436
REMARK minimizedRMSD -1
REMARK  0 active torsions:
REMARK  status: ('A' for Active; 'I' for Inactive)
ROOT
ATOM      1  N1  IND d   1      -2.333  -6.000  -5.920  0.00  0.00    -0.196 N 
ATOM      2  C2  IND d   1      -1.349  -5.053  -5.848  0.00  0.00     0.054 A 
ATOM      3  C3  IND d   1      -1.890  -3.814  -5.826  0.00  0.00    -0.031 A 
ATOM      4  C4  IND d   1      -4.366  -3.111  -5.796  0.00  0.00     0.051 A 
ATOM      5  C5  IND d   1      -5.632  -3.619  -5.885  0.00  0.00    -0.031 A 
ATOM      6  C6  IND d   1      -5.867  -4.975  -5.990  0.00  0.00     0.015 A 
ATOM      7  C7  IND d   1      -4.841  -5.878  -5.998  0.00  0.00    -0.016 A 
ATOM      8  C8  IND d   1      -3.555  -5.364  -5.914  0.00  0.00    -0.047 A 
ATOM      9  C9  IND d   1      -3.308  -3.987  -5.851  0.00  0.00    -0.096 A 
ATOM     10  HN1 IND d   1      -2.209  -6.850  -5.961  0.00  0.00     0.298 HD
ENDROOT
TORSDOF 0
ENDMDL
