MODEL 1
REMARK minimizedAffinity 4.26774931
REMARK minimizedRMSD -1
REMARK  0 active torsions:
REMARK  status: ('A' for Active; 'I' for Inactive)
ROOT
ATOM      1  N1  IND d   1      -1.816  -1.054   3.526  0.00  0.00    -0.196 N 
ATOM      2  C2  IND d   1      -2.927  -0.272   3.373  0.00  0.00     0.054 A 
ATOM      3  C3  IND d   1      -3.067   0.100   2.081  0.00  0.00    -0.031 A 
ATOM      4  C4  IND d   1      -1.648  -0.544   0.031  0.00  0.00     0.051 A 
ATOM      5  C5  IND d   1      -0.509  -1.211  -0.324  0.00  0.00    -0.031 A 
ATOM      6  C6  IND d   1       0.267  -1.874   0.604  0.00  0.00     0.015 A 
ATOM      7  C7  IND d   1      -0.075  -1.906   1.927  0.00  0.00    -0.016 A 
ATOM      8  C8  IND d   1      -1.228  -1.225   2.292  0.00  0.00    -0.047 A 
ATOM      9  C9  IND d   1      -1.996  -0.514   1.361  0.00  0.00    -0.096 A 
ATOM     10  HN1 IND d   1      -1.533  -1.384   4.268  0.00  0.00     0.298 HD
ENDROOT
TORSDOF 0
ENDMDL
