MODEL 1
REMARK minimizedAffinity 1.32273698
REMARK minimizedRMSD -1
REMARK  0 active torsions:
REMARK  status: ('A' for Active; 'I' for Inactive)
ROOT
ATOM      1  N1  IND d   1      -3.054  -4.459  -3.764  0.00  0.00    -0.196 N 
ATOM      2  C2  IND d   1      -2.449  -4.813  -4.938  0.00  0.00     0.054 A 
ATOM      3  C3  IND d   1      -3.088  -4.246  -5.986  0.00  0.00    -0.031 A 
ATOM      4  C4  IND d   1      -5.084  -2.621  -6.000  0.00  0.00     0.051 A 
ATOM      5  C5  IND d   1      -5.999  -2.032  -5.173  0.00  0.00    -0.031 A 
ATOM      6  C6  IND d   1      -5.978  -2.224  -3.807  0.00  0.00     0.015 A 
ATOM      7  C7  IND d   1      -5.028  -3.006  -3.212  0.00  0.00    -0.016 A 
ATOM      8  C8  IND d   1      -4.101  -3.611  -4.049  0.00  0.00    -0.047 A 
ATOM      9  C9  IND d   1      -4.144  -3.455  -5.441  0.00  0.00    -0.096 A 
ATOM     10  HN1 IND d   1      -2.819  -4.722  -2.980  0.00  0.00     0.298 HD
ENDROOT
TORSDOF 0
ENDMDL
