MODEL 1
REMARK minimizedAffinity 1.0941658
REMARK minimizedRMSD -1
REMARK  0 active torsions:
REMARK  status: ('A' for Active; 'I' for Inactive)
ROOT
ATOM      1  N1  IND d   1      -2.540  -6.000  -5.164  0.00  0.00    -0.196 N 
ATOM      2  C2  IND d   1      -1.761  -5.179  -4.397  0.00  0.00     0.054 A 
ATOM      3  C3  IND d   1      -2.448  -4.068  -4.050  0.00  0.00    -0.031 A 
ATOM      4  C4  IND d   1      -4.894  -3.436  -4.546  0.00  0.00     0.051 A 
ATOM      5  C5  IND d   1      -5.994  -3.851  -5.242  0.00  0.00    -0.031 A 
ATOM      6  C6  IND d   1      -6.000  -5.029  -5.961  0.00  0.00     0.015 A 
ATOM      7  C7  IND d   1      -4.905  -5.845  -6.000  0.00  0.00    -0.016 A 
ATOM      8  C8  IND d   1      -3.783  -5.423  -5.300  0.00  0.00    -0.047 A 
ATOM      9  C9  IND d   1      -3.757  -4.207  -4.604  0.00  0.00    -0.096 A 
ATOM     10  HN1 IND d   1      -2.294  -6.750  -5.505  0.00  0.00     0.298 HD
ENDROOT
TORSDOF 0
ENDMDL
