MODEL 1
REMARK minimizedAffinity -0.35340935
REMARK minimizedRMSD -1
REMARK  0 active torsions:
REMARK  status: ('A' for Active; 'I' for Inactive)
ROOT
ATOM      1  N1  IND d   1      -2.936  -5.998  -4.926  0.00  0.00    -0.196 N 
ATOM      2  C2  IND d   1      -1.775  -5.297  -4.753  0.00  0.00     0.054 A 
ATOM      3  C3  IND d   1      -1.970  -3.988  -5.028  0.00  0.00    -0.031 A 
ATOM      4  C4  IND d   1      -4.136  -2.759  -5.683  0.00  0.00     0.051 A 
ATOM      5  C5  IND d   1      -5.446  -2.981  -6.000  0.00  0.00    -0.031 A 
ATOM      6  C6  IND d   1      -5.999  -4.245  -5.972  0.00  0.00     0.015 A 
ATOM      7  C7  IND d   1      -5.261  -5.338  -5.614  0.00  0.00    -0.016 A 
ATOM      8  C8  IND d   1      -3.928  -5.117  -5.298  0.00  0.00    -0.047 A 
ATOM      9  C9  IND d   1      -3.351  -3.843  -5.365  0.00  0.00    -0.096 A 
ATOM     10  HN1 IND d   1      -3.031  -6.846  -4.821  0.00  0.00     0.298 HD
ENDROOT
TORSDOF 0
ENDMDL
