MODEL 1
REMARK minimizedAffinity -0.487588167
REMARK minimizedRMSD -1
REMARK  0 active torsions:
REMARK  status: ('A' for Active; 'I' for Inactive)
ROOT
ATOM      1  N1  IND d   1      -3.912  -1.996  -1.075  0.00  0.00    -0.196 N 
ATOM      2  C2  IND d   1      -4.075  -1.152  -2.137  0.00  0.00     0.054 A 
ATOM      3  C3  IND d   1      -3.500   0.044  -1.880  0.00  0.00    -0.031 A 
ATOM      4  C4  IND d   1      -2.151   0.801   0.178  0.00  0.00     0.051 A 
ATOM      5  C5  IND d   1      -1.765   0.392   1.423  0.00  0.00    -0.031 A 
ATOM      6  C6  IND d   1      -2.079  -0.861   1.908  0.00  0.00     0.015 A 
ATOM      7  C7  IND d   1      -2.784  -1.760   1.158  0.00  0.00    -0.016 A 
ATOM      8  C8  IND d   1      -3.184  -1.344  -0.104  0.00  0.00    -0.047 A 
ATOM      9  C9  IND d   1      -2.905  -0.059  -0.585  0.00  0.00    -0.096 A 
ATOM     10  HN1 IND d   1      -4.214  -2.800  -1.021  0.00  0.00     0.298 HD
ENDROOT
TORSDOF 0
ENDMDL
