MODEL 1
REMARK minimizedAffinity -0.878630817
REMARK minimizedRMSD -1
REMARK  0 active torsions:
REMARK  status: ('A' for Active; 'I' for Inactive)
ROOT
ATOM      1  N1  IND d   1      -4.340  -4.213  -3.785  0.00  0.00    -0.196 N 
ATOM      2  C2  IND d   1      -4.869  -3.790  -4.973  0.00  0.00     0.054 A 
ATOM      3  C3  IND d   1      -4.049  -4.117  -5.996  0.00  0.00    -0.031 A 
ATOM      4  C4  IND d   1      -1.839  -5.436  -5.964  0.00  0.00     0.051 A 
ATOM      5  C5  IND d   1      -0.934  -6.000  -5.110  0.00  0.00    -0.031 A 
ATOM      6  C6  IND d   1      -1.123  -5.999  -3.743  0.00  0.00     0.015 A 
ATOM      7  C7  IND d   1      -2.235  -5.442  -3.178  0.00  0.00    -0.016 A 
ATOM      8  C8  IND d   1      -3.153  -4.863  -4.042  0.00  0.00    -0.047 A 
ATOM      9  C9  IND d   1      -2.946  -4.823  -5.426  0.00  0.00    -0.096 A 
ATOM     10  HN1 IND d   1      -4.690  -4.093  -3.009  0.00  0.00     0.298 HD
ENDROOT
TORSDOF 0
ENDMDL
