MODEL 1
REMARK minimizedAffinity 3.34530449
REMARK minimizedRMSD -1
REMARK  0 active torsions:
REMARK  status: ('A' for Active; 'I' for Inactive)
ROOT
ATOM      1  N1  IND d   1       0.047   0.810   1.278  0.00  0.00    -0.196 N 
ATOM      2  C2  IND d   1       0.975   0.416   0.355  0.00  0.00     0.054 A 
ATOM      3  C3  IND d   1       0.745  -0.861  -0.027  0.00  0.00    -0.031 A 
ATOM      4  C4  IND d   1      -1.157  -2.455   0.657  0.00  0.00     0.051 A 
ATOM      5  C5  IND d   1      -2.226  -2.557   1.502  0.00  0.00    -0.031 A 
ATOM      6  C6  IND d   1      -2.601  -1.519   2.331  0.00  0.00     0.015 A 
ATOM      7  C7  IND d   1      -1.925  -0.332   2.337  0.00  0.00    -0.016 A 
ATOM      8  C8  IND d   1      -0.835  -0.228   1.485  0.00  0.00    -0.047 A 
ATOM      9  C9  IND d   1      -0.424  -1.292   0.672  0.00  0.00    -0.096 A 
ATOM     10  HN1 IND d   1       0.018   1.578   1.664  0.00  0.00     0.298 HD
ENDROOT
TORSDOF 0
ENDMDL
