MODEL 1
REMARK minimizedAffinity -2.24595094
REMARK minimizedRMSD -1
REMARK  0 active torsions:
REMARK  status: ('A' for Active; 'I' for Inactive)
ROOT
ATOM      1  N1  IND d   1      -5.052  -3.750  -3.822  0.00  0.00    -0.196 N 
ATOM      2  C2  IND d   1      -5.778  -3.618  -4.972  0.00  0.00     0.054 A 
ATOM      3  C3  IND d   1      -5.146  -4.228  -6.000  0.00  0.00    -0.031 A 
ATOM      4  C4  IND d   1      -2.961  -5.590  -5.999  0.00  0.00     0.051 A 
ATOM      5  C5  IND d   1      -1.921  -5.958  -5.192  0.00  0.00    -0.031 A 
ATOM      6  C6  IND d   1      -1.873  -5.604  -3.859  0.00  0.00     0.015 A 
ATOM      7  C7  IND d   1      -2.872  -4.875  -3.278  0.00  0.00    -0.016 A 
ATOM      8  C8  IND d   1      -3.926  -4.494  -4.097  0.00  0.00    -0.047 A 
ATOM      9  C9  IND d   1      -3.960  -4.814  -5.460  0.00  0.00    -0.096 A 
ATOM     10  HN1 IND d   1      -5.264  -3.423  -3.055  0.00  0.00     0.298 HD
ENDROOT
TORSDOF 0
ENDMDL
