MODEL 1
REMARK minimizedAffinity 0.796973646
REMARK minimizedRMSD -1
REMARK  0 active torsions:
REMARK  status: ('A' for Active; 'I' for Inactive)
ROOT
ATOM      1  N1  IND d   1      -2.040  -4.266  -5.878  0.00  0.00    -0.196 N 
ATOM      2  C2  IND d   1      -1.953  -5.564  -5.459  0.00  0.00     0.054 A 
ATOM      3  C3  IND d   1      -3.157  -5.999  -5.022  0.00  0.00    -0.031 A 
ATOM      4  C4  IND d   1      -5.426  -4.783  -5.000  0.00  0.00     0.051 A 
ATOM      5  C5  IND d   1      -5.999  -3.568  -5.251  0.00  0.00    -0.031 A 
ATOM      6  C6  IND d   1      -5.268  -2.503  -5.736  0.00  0.00     0.015 A 
ATOM      7  C7  IND d   1      -3.932  -2.617  -6.000  0.00  0.00    -0.016 A 
ATOM      8  C8  IND d   1      -3.345  -3.847  -5.740  0.00  0.00    -0.047 A 
ATOM      9  C9  IND d   1      -4.073  -4.919  -5.208  0.00  0.00    -0.096 A 
ATOM     10  HN1 IND d   1      -1.389  -3.791  -6.178  0.00  0.00     0.298 HD
ENDROOT
TORSDOF 0
ENDMDL
