MODEL 1
REMARK minimizedAffinity 6.77037048
REMARK minimizedRMSD -1
REMARK  0 active torsions:
REMARK  status: ('A' for Active; 'I' for Inactive)
ROOT
ATOM      1  N1  IND d   1      -3.595  -4.555  -3.676  0.00  0.00    -0.196 N 
ATOM      2  C2  IND d   1      -3.191  -5.163  -4.832  0.00  0.00     0.054 A 
ATOM      3  C3  IND d   1      -3.764  -4.566  -5.902  0.00  0.00    -0.031 A 
ATOM      4  C4  IND d   1      -5.314  -2.513  -5.994  0.00  0.00     0.051 A 
ATOM      5  C5  IND d   1      -5.993  -1.639  -5.192  0.00  0.00    -0.031 A 
ATOM      6  C6  IND d   1      -5.902  -1.691  -3.816  0.00  0.00     0.015 A 
ATOM      7  C7  IND d   1      -5.118  -2.617  -3.189  0.00  0.00    -0.016 A 
ATOM      8  C8  IND d   1      -4.433  -3.511  -3.999  0.00  0.00    -0.047 A 
ATOM      9  C9  IND d   1      -4.554  -3.490  -5.395  0.00  0.00    -0.096 A 
ATOM     10  HN1 IND d   1      -3.364  -4.786  -2.881  0.00  0.00     0.298 HD
ENDROOT
TORSDOF 0
ENDMDL
