MODEL 1
REMARK minimizedAffinity -0.251649439
REMARK minimizedRMSD -1
REMARK  0 active torsions:
REMARK  status: ('A' for Active; 'I' for Inactive)
ROOT
ATOM      1  N1  IND d   1      -2.997  -5.973  -4.851  0.00  0.00    -0.196 N 
ATOM      2  C2  IND d   1      -2.208  -5.428  -3.877  0.00  0.00     0.054 A 
ATOM      3  C3  IND d   1      -2.700  -4.231  -3.487  0.00  0.00    -0.031 A 
ATOM      4  C4  IND d   1      -4.844  -3.021  -4.240  0.00  0.00     0.051 A 
ATOM      5  C5  IND d   1      -5.872  -3.109  -5.136  0.00  0.00    -0.031 A 
ATOM      6  C6  IND d   1      -5.999  -4.179  -5.999  0.00  0.00     0.015 A 
ATOM      7  C7  IND d   1      -5.103  -5.211  -5.990  0.00  0.00    -0.016 A 
ATOM      8  C8  IND d   1      -4.054  -5.122  -5.086  0.00  0.00    -0.047 A 
ATOM      9  C9  IND d   1      -3.898  -4.018  -4.237  0.00  0.00    -0.096 A 
ATOM     10  HN1 IND d   1      -2.856  -6.721  -5.251  0.00  0.00     0.298 HD
ENDROOT
TORSDOF 0
ENDMDL
