MODEL 1
REMARK minimizedAffinity -1.68727982
REMARK minimizedRMSD -1
REMARK  0 active torsions:
REMARK  status: ('A' for Active; 'I' for Inactive)
ROOT
ATOM      1  N1  IND d   1      -2.206  -3.934  -4.872  0.00  0.00    -0.196 N 
ATOM      2  C2  IND d   1      -1.472  -5.020  -5.260  0.00  0.00     0.054 A 
ATOM      3  C3  IND d   1      -2.286  -6.000  -5.712  0.00  0.00    -0.031 A 
ATOM      4  C4  IND d   1      -4.844  -5.999  -6.000  0.00  0.00     0.051 A 
ATOM      5  C5  IND d   1      -5.956  -5.246  -5.748  0.00  0.00    -0.031 A 
ATOM      6  C6  IND d   1      -5.873  -3.990  -5.182  0.00  0.00     0.015 A 
ATOM      7  C7  IND d   1      -4.668  -3.433  -4.857  0.00  0.00    -0.016 A 
ATOM      8  C8  IND d   1      -3.537  -4.199  -5.104  0.00  0.00    -0.047 A 
ATOM      9  C9  IND d   1      -3.618  -5.491  -5.639  0.00  0.00    -0.096 A 
ATOM     10  HN1 IND d   1      -1.889  -3.207  -4.538  0.00  0.00     0.298 HD
ENDROOT
TORSDOF 0
ENDMDL
