MODEL 1
REMARK minimizedAffinity -3.52406621
REMARK minimizedRMSD -1
REMARK  0 active torsions:
REMARK  status: ('A' for Active; 'I' for Inactive)
ROOT
ATOM      1  N1  IND d   1      -3.126  -6.000  -5.995  0.00  0.00    -0.196 N 
ATOM      2  C2  IND d   1      -1.824  -5.902  -5.590  0.00  0.00     0.054 A 
ATOM      3  C3  IND d   1      -1.572  -4.664  -5.108  0.00  0.00    -0.031 A 
ATOM      4  C4  IND d   1      -3.175  -2.675  -4.794  0.00  0.00     0.051 A 
ATOM      5  C5  IND d   1      -4.456  -2.272  -5.051  0.00  0.00    -0.031 A 
ATOM      6  C6  IND d   1      -5.378  -3.110  -5.645  0.00  0.00     0.015 A 
ATOM      7  C7  IND d   1      -5.056  -4.390  -5.996  0.00  0.00    -0.016 A 
ATOM      8  C8  IND d   1      -3.754  -4.800  -5.743  0.00  0.00    -0.047 A 
ATOM      9  C9  IND d   1      -2.802  -3.941  -5.179  0.00  0.00    -0.096 A 
ATOM     10  HN1 IND d   1      -3.491  -6.694  -6.347  0.00  0.00     0.298 HD
ENDROOT
TORSDOF 0
ENDMDL
