MODEL 1
REMARK minimizedAffinity -1.59448671
REMARK minimizedRMSD -1
REMARK  0 active torsions:
REMARK  status: ('A' for Active; 'I' for Inactive)
ROOT
ATOM      1  N1  IND d   1      -4.760  -2.449  -5.258  0.00  0.00    -0.196 N 
ATOM      2  C2  IND d   1      -5.985  -2.799  -4.763  0.00  0.00     0.054 A 
ATOM      3  C3  IND d   1      -5.999  -4.108  -4.426  0.00  0.00    -0.031 A 
ATOM      4  C4  IND d   1      -4.095  -5.839  -4.505  0.00  0.00     0.051 A 
ATOM      5  C5  IND d   1      -2.802  -5.999  -4.917  0.00  0.00    -0.031 A 
ATOM      6  C6  IND d   1      -2.079  -4.963  -5.472  0.00  0.00     0.015 A 
ATOM      7  C7  IND d   1      -2.622  -3.718  -5.626  0.00  0.00    -0.016 A 
ATOM      8  C8  IND d   1      -3.938  -3.554  -5.216  0.00  0.00    -0.047 A 
ATOM      9  C9  IND d   1      -4.690  -4.613  -4.691  0.00  0.00    -0.096 A 
ATOM     10  HN1 IND d   1      -4.539  -1.670  -5.547  0.00  0.00     0.298 HD
ENDROOT
TORSDOF 0
ENDMDL
