MODEL 1
REMARK minimizedAffinity 2.27667403
REMARK minimizedRMSD -1
REMARK  0 active torsions:
REMARK  status: ('A' for Active; 'I' for Inactive)
ROOT
ATOM      1  N1  IND d   1      -3.272  -4.533  -5.999  0.00  0.00    -0.196 N 
ATOM      2  C2  IND d   1      -2.965  -5.480  -5.062  0.00  0.00     0.054 A 
ATOM      3  C3  IND d   1      -3.646  -5.248  -3.917  0.00  0.00    -0.031 A 
ATOM      4  C4  IND d   1      -5.394  -3.432  -3.395  0.00  0.00     0.051 A 
ATOM      5  C5  IND d   1      -5.980  -2.317  -3.924  0.00  0.00    -0.031 A 
ATOM      6  C6  IND d   1      -5.690  -1.876  -5.199  0.00  0.00     0.015 A 
ATOM      7  C7  IND d   1      -4.807  -2.544  -6.000  0.00  0.00    -0.016 A 
ATOM      8  C8  IND d   1      -4.205  -3.673  -5.463  0.00  0.00    -0.047 A 
ATOM      9  C9  IND d   1      -4.464  -4.100  -4.154  0.00  0.00    -0.096 A 
ATOM     10  HN1 IND d   1      -2.939  -4.484  -6.790  0.00  0.00     0.298 HD
ENDROOT
TORSDOF 0
ENDMDL
