MODEL 1
REMARK minimizedAffinity 3.32539725
REMARK minimizedRMSD -1
REMARK  0 active torsions:
REMARK  status: ('A' for Active; 'I' for Inactive)
ROOT
ATOM      1  N1  IND d   1      -5.742  -2.743  -5.984  0.00  0.00    -0.196 N 
ATOM      2  C2  IND d   1      -5.012  -1.588  -5.954  0.00  0.00     0.054 A 
ATOM      3  C3  IND d   1      -3.690  -1.868  -5.917  0.00  0.00    -0.031 A 
ATOM      4  C4  IND d   1      -2.498  -4.149  -6.000  0.00  0.00     0.051 A 
ATOM      5  C5  IND d   1      -2.744  -5.493  -5.994  0.00  0.00    -0.031 A 
ATOM      6  C6  IND d   1      -4.028  -6.000  -5.988  0.00  0.00     0.015 A 
ATOM      7  C7  IND d   1      -5.118  -5.177  -5.999  0.00  0.00    -0.016 A 
ATOM      8  C8  IND d   1      -4.872  -3.811  -5.997  0.00  0.00    -0.047 A 
ATOM      9  C9  IND d   1      -3.572  -3.291  -5.960  0.00  0.00    -0.096 A 
ATOM     10  HN1 IND d   1      -6.600  -2.794  -5.994  0.00  0.00     0.298 HD
ENDROOT
TORSDOF 0
ENDMDL
