MODEL 1
REMARK minimizedAffinity -2.63968325
REMARK minimizedRMSD -1
REMARK  0 active torsions:
REMARK  status: ('A' for Active; 'I' for Inactive)
ROOT
ATOM      1  C   UNL d   1      -0.061   0.909  -0.246  0.00  0.00     0.172 C 
ATOM      2  N   UNL d   1       0.799   1.950   0.267  0.00  0.00    -0.070 N 
ATOM      3  C1  UNL d   1       0.411   3.228   0.569  0.00  0.00    -0.004 A 
ATOM      4  C2  UNL d   1       1.519   3.907   1.028  0.00  0.00    -0.047 A 
ATOM      5  C3  UNL d   1       2.610   3.006   1.000  0.00  0.00    -0.047 A 
ATOM      6  C4  UNL d   1       2.136   1.802   0.525  0.00  0.00    -0.004 A 
ENDROOT
TORSDOF 0
ENDMDL
