MODEL 1
REMARK minimizedAffinity -2.94197106
REMARK minimizedRMSD -1
REMARK  0 active torsions:
REMARK  status: ('A' for Active; 'I' for Inactive)
ROOT
ATOM      1  C   UNL d   1      -1.420  -2.190   0.925  0.00  0.00     0.172 C 
ATOM      2  N   UNL d   1      -0.797  -0.978   0.448  0.00  0.00    -0.070 N 
ATOM      3  C1  UNL d   1      -0.571  -0.660  -0.865  0.00  0.00    -0.004 A 
ATOM      4  C2  UNL d   1       0.040   0.575  -0.900  0.00  0.00    -0.047 A 
ATOM      5  C3  UNL d   1       0.188   1.014   0.437  0.00  0.00    -0.047 A 
ATOM      6  C4  UNL d   1      -0.339   0.033   1.251  0.00  0.00    -0.004 A 
ENDROOT
TORSDOF 0
ENDMDL
