MODEL 1
REMARK minimizedAffinity -1.48815572
REMARK minimizedRMSD -1
REMARK  0 active torsions:
REMARK  status: ('A' for Active; 'I' for Inactive)
ROOT
ATOM      1  C   UNL d   1       0.973  -2.152  -0.604  0.00  0.00     0.172 C 
ATOM      2  N   UNL d   1       0.437  -0.876  -0.191  0.00  0.00    -0.070 N 
ATOM      3  C1  UNL d   1       0.613   0.313  -0.846  0.00  0.00    -0.004 A 
ATOM      4  C2  UNL d   1      -0.054   1.288  -0.136  0.00  0.00    -0.047 A 
ATOM      5  C3  UNL d   1      -0.650   0.663   0.985  0.00  0.00    -0.047 A 
ATOM      6  C4  UNL d   1      -0.330  -0.677   0.926  0.00  0.00    -0.004 A 
ENDROOT
TORSDOF 0
ENDMDL
