MODEL 1
REMARK minimizedAffinity -2.5855
REMARK minimizedRMSD -1
REMARK  0 active torsions:
REMARK  status: ('A' for Active; 'I' for Inactive)
ROOT
ATOM      1  C   UNL d   1       0.302   1.518  -0.163  0.00  0.00     0.172 C 
ATOM      2  N   UNL d   1      -0.070   0.148   0.099  0.00  0.00    -0.070 N 
ATOM      3  C1  UNL d   1      -0.848  -0.283   1.140  0.00  0.00    -0.004 A 
ATOM      4  C2  UNL d   1      -0.969  -1.652   1.038  0.00  0.00    -0.047 A 
ATOM      5  C3  UNL d   1      -0.237  -2.058  -0.103  0.00  0.00    -0.047 A 
ATOM      6  C4  UNL d   1       0.309  -0.924  -0.665  0.00  0.00    -0.004 A 
ENDROOT
TORSDOF 0
ENDMDL
