MODEL 1
REMARK minimizedAffinity -1.44209397
REMARK minimizedRMSD -1
REMARK  0 active torsions:
REMARK  status: ('A' for Active; 'I' for Inactive)
ROOT
ATOM      1  C   UNL d   1       6.000  -3.237   1.352  0.00  0.00     0.172 C 
ATOM      2  N   UNL d   1       5.872  -3.102  -0.080  0.00  0.00    -0.070 N 
ATOM      3  C1  UNL d   1       5.992  -4.116  -0.991  0.00  0.00    -0.004 A 
ATOM      4  C2  UNL d   1       5.804  -3.580  -2.247  0.00  0.00    -0.047 A 
ATOM      5  C3  UNL d   1       5.563  -2.195  -2.084  0.00  0.00    -0.047 A 
ATOM      6  C4  UNL d   1       5.611  -1.926  -0.732  0.00  0.00    -0.004 A 
ENDROOT
TORSDOF 0
ENDMDL
