MODEL 1
REMARK minimizedAffinity -1.63294268
REMARK minimizedRMSD -1
REMARK  0 active torsions:
REMARK  status: ('A' for Active; 'I' for Inactive)
ROOT
ATOM      1  C   UNL d   1       0.311   0.767  -0.745  0.00  0.00     0.172 C 
ATOM      2  N   UNL d   1      -0.134  -0.564  -0.406  0.00  0.00    -0.070 N 
ATOM      3  C1  UNL d   1      -0.134  -1.644  -1.247  0.00  0.00    -0.004 A 
ATOM      4  C2  UNL d   1      -0.631  -2.723  -0.548  0.00  0.00    -0.047 A 
ATOM      5  C3  UNL d   1      -0.942  -2.275   0.758  0.00  0.00    -0.047 A 
ATOM      6  C4  UNL d   1      -0.625  -0.934   0.818  0.00  0.00    -0.004 A 
ENDROOT
TORSDOF 0
ENDMDL
