MODEL 1
REMARK minimizedAffinity -3.12963414
REMARK minimizedRMSD -1
REMARK  0 active torsions:
REMARK  status: ('A' for Active; 'I' for Inactive)
ROOT
ATOM      1  C   UNL d   1      -0.777  -2.372   0.344  0.00  0.00     0.172 C 
ATOM      2  N   UNL d   1      -0.276  -1.129  -0.195  0.00  0.00    -0.070 N 
ATOM      3  C1  UNL d   1      -0.157  -0.826  -1.525  0.00  0.00    -0.004 A 
ATOM      4  C2  UNL d   1       0.357   0.449  -1.622  0.00  0.00    -0.047 A 
ATOM      5  C3  UNL d   1       0.554   0.928  -0.305  0.00  0.00    -0.047 A 
ATOM      6  C4  UNL d   1       0.154  -0.069   0.559  0.00  0.00    -0.004 A 
ENDROOT
TORSDOF 0
ENDMDL
