MODEL 1
REMARK minimizedAffinity -0.900144279
REMARK minimizedRMSD -1
REMARK  0 active torsions:
REMARK  status: ('A' for Active; 'I' for Inactive)
ROOT
ATOM      1  C   UNL d   1      -1.094  -2.293   0.561  0.00  0.00     0.172 C 
ATOM      2  N   UNL d   1      -0.689  -0.985   0.102  0.00  0.00    -0.070 N 
ATOM      3  C1  UNL d   1      -0.798   0.180   0.814  0.00  0.00    -0.004 A 
ATOM      4  C2  UNL d   1      -0.303   1.200   0.031  0.00  0.00    -0.047 A 
ATOM      5  C3  UNL d   1       0.117   0.629  -1.194  0.00  0.00    -0.047 A 
ATOM      6  C4  UNL d   1      -0.133  -0.725  -1.122  0.00  0.00    -0.004 A 
ENDROOT
TORSDOF 0
ENDMDL
