MODEL 1
REMARK minimizedAffinity -2.82309937
REMARK minimizedRMSD -1
REMARK  0 active torsions:
REMARK  status: ('A' for Active; 'I' for Inactive)
ROOT
ATOM      1  C   UNL d   1       0.184   0.916   0.057  0.00  0.00     0.172 C 
ATOM      2  N   UNL d   1       1.122   1.937   0.462  0.00  0.00    -0.070 N 
ATOM      3  C1  UNL d   1       0.928   3.288   0.352  0.00  0.00    -0.004 A 
ATOM      4  C2  UNL d   1       2.050   3.917   0.847  0.00  0.00    -0.047 A 
ATOM      5  C3  UNL d   1       2.949   2.909   1.269  0.00  0.00    -0.047 A 
ATOM      6  C4  UNL d   1       2.350   1.693   1.019  0.00  0.00    -0.004 A 
ENDROOT
TORSDOF 0
ENDMDL
