MODEL 1
REMARK minimizedAffinity -2.94012308
REMARK minimizedRMSD -1
REMARK  0 active torsions:
REMARK  status: ('A' for Active; 'I' for Inactive)
ROOT
ATOM      1  C   UNL d   1       0.116  -2.361  -2.425  0.00  0.00     0.172 C 
ATOM      2  N   UNL d   1      -0.220  -1.992  -1.070  0.00  0.00    -0.070 N 
ATOM      3  C1  UNL d   1      -0.825  -2.803  -0.148  0.00  0.00    -0.004 A 
ATOM      4  C2  UNL d   1      -0.971  -2.082   1.018  0.00  0.00    -0.047 A 
ATOM      5  C3  UNL d   1      -0.435  -0.792   0.788  0.00  0.00    -0.047 A 
ATOM      6  C4  UNL d   1       0.022  -0.764  -0.513  0.00  0.00    -0.004 A 
ENDROOT
TORSDOF 0
ENDMDL
