MODEL 1
REMARK minimizedAffinity -2.02067852
REMARK minimizedRMSD -1
REMARK  0 active torsions:
REMARK  status: ('A' for Active; 'I' for Inactive)
ROOT
ATOM      1  C   UNL d   1       0.596   1.339   0.392  0.00  0.00     0.172 C 
ATOM      2  N   UNL d   1      -0.031   0.087   0.742  0.00  0.00    -0.070 N 
ATOM      3  C1  UNL d   1      -0.805  -0.136   1.850  0.00  0.00    -0.004 A 
ATOM      4  C2  UNL d   1      -1.213  -1.452   1.822  0.00  0.00    -0.047 A 
ATOM      5  C3  UNL d   1      -0.665  -2.041   0.657  0.00  0.00    -0.047 A 
ATOM      6  C4  UNL d   1       0.063  -1.066   0.008  0.00  0.00    -0.004 A 
ENDROOT
TORSDOF 0
ENDMDL
