MODEL 1
REMARK minimizedAffinity -0.295034826
REMARK minimizedRMSD -1
REMARK  0 active torsions:
REMARK  status: ('A' for Active; 'I' for Inactive)
ROOT
ATOM      1  C   UNL d   1      -0.748  -2.766   0.334  0.00  0.00     0.172 C 
ATOM      2  N   UNL d   1      -0.510  -1.341   0.359  0.00  0.00    -0.070 N 
ATOM      3  C1  UNL d   1       0.199  -0.634  -0.574  0.00  0.00    -0.004 A 
ATOM      4  C2  UNL d   1       0.195   0.690  -0.192  0.00  0.00    -0.047 A 
ATOM      5  C3  UNL d   1      -0.540   0.781   1.013  0.00  0.00    -0.047 A 
ATOM      6  C4  UNL d   1      -0.966  -0.491   1.332  0.00  0.00    -0.004 A 
ENDROOT
TORSDOF 0
ENDMDL
