MODEL 1
REMARK minimizedAffinity -1.08290124
REMARK minimizedRMSD -1
REMARK  0 active torsions:
REMARK  status: ('A' for Active; 'I' for Inactive)
ROOT
ATOM      1  C   UNL d   1       0.154   2.277  -0.042  0.00  0.00     0.172 C 
ATOM      2  N   UNL d   1      -0.289   0.957   0.341  0.00  0.00    -0.070 N 
ATOM      3  C1  UNL d   1      -1.361   0.678   1.146  0.00  0.00    -0.004 A 
ATOM      4  C2  UNL d   1      -1.451  -0.692   1.269  0.00  0.00    -0.047 A 
ATOM      5  C3  UNL d   1      -0.395  -1.255   0.513  0.00  0.00    -0.047 A 
ATOM      6  C4  UNL d   1       0.308  -0.212  -0.050  0.00  0.00    -0.004 A 
ENDROOT
TORSDOF 0
ENDMDL
