MODEL 1
REMARK minimizedAffinity -3.37713766
REMARK minimizedRMSD -1
REMARK  0 active torsions:
REMARK  status: ('A' for Active; 'I' for Inactive)
ROOT
ATOM      1  C   UNL d   1       0.355   1.154  -0.711  0.00  0.00     0.172 C 
ATOM      2  N   UNL d   1      -0.004  -0.211  -0.404  0.00  0.00    -0.070 N 
ATOM      3  C1  UNL d   1       0.177  -1.289  -1.228  0.00  0.00    -0.004 A 
ATOM      4  C2  UNL d   1      -0.292  -2.406  -0.571  0.00  0.00    -0.047 A 
ATOM      5  C3  UNL d   1      -0.772  -1.984   0.691  0.00  0.00    -0.047 A 
ATOM      6  C4  UNL d   1      -0.581  -0.621   0.769  0.00  0.00    -0.004 A 
ENDROOT
TORSDOF 0
ENDMDL
