MODEL 1
REMARK minimizedAffinity -3.07603884
REMARK minimizedRMSD -1
REMARK  0 active torsions:
REMARK  status: ('A' for Active; 'I' for Inactive)
ROOT
ATOM      1  C   UNL d   1       0.842  -1.861  -3.052  0.00  0.00     0.172 C 
ATOM      2  N   UNL d   1       0.424  -1.071  -1.918  0.00  0.00    -0.070 N 
ATOM      3  C1  UNL d   1      -0.010  -1.565  -0.717  0.00  0.00    -0.004 A 
ATOM      4  C2  UNL d   1      -0.311  -0.494   0.096  0.00  0.00    -0.047 A 
ATOM      5  C3  UNL d   1      -0.049   0.685  -0.641  0.00  0.00    -0.047 A 
ATOM      6  C4  UNL d   1       0.405   0.299  -1.884  0.00  0.00    -0.004 A 
ENDROOT
TORSDOF 0
ENDMDL
