MODEL 1
REMARK minimizedAffinity -4.73899937
REMARK minimizedRMSD -1
REMARK  0 active torsions:
REMARK  status: ('A' for Active; 'I' for Inactive)
ROOT
ATOM      1  C   UNL d   1       0.751  -0.375  -1.464  0.00  0.00     0.078 C 
ATOM      2  C1  UNL d   1       0.383  -0.279  -0.013  0.00  0.00    -0.077 A 
ATOM      3  C2  UNL d   1       1.190   0.424   0.890  0.00  0.00    -0.001 A 
ATOM      4  C3  UNL d   1       0.840   0.497   2.240  0.00  0.00     0.003 A 
ATOM      5  C4  UNL d   1      -0.315  -0.132   2.698  0.00  0.00    -0.005 A 
ATOM      6  C5  UNL d   1      -1.123  -0.835   1.807  0.00  0.00     0.003 A 
ATOM      7  C6  UNL d   1      -0.775  -0.910   0.458  0.00  0.00    -0.001 A 
ENDROOT
TORSDOF 0
ENDMDL
