MODEL 1
REMARK minimizedAffinity -4.1671586
REMARK minimizedRMSD -1
REMARK  0 active torsions:
REMARK  status: ('A' for Active; 'I' for Inactive)
ROOT
ATOM      1  C   UNL d   1       0.086  -0.498  -1.319  0.00  0.00     0.078 C 
ATOM      2  C1  UNL d   1       0.078  -0.465   0.180  0.00  0.00    -0.077 A 
ATOM      3  C2  UNL d   1       1.173   0.035   0.896  0.00  0.00    -0.001 A 
ATOM      4  C3  UNL d   1       1.156   0.051   2.292  0.00  0.00     0.003 A 
ATOM      5  C4  UNL d   1       0.048  -0.433   2.983  0.00  0.00    -0.005 A 
ATOM      6  C5  UNL d   1      -1.045  -0.935   2.280  0.00  0.00     0.003 A 
ATOM      7  C6  UNL d   1      -1.030  -0.952   0.884  0.00  0.00    -0.001 A 
ENDROOT
TORSDOF 0
ENDMDL
