MODEL 1
REMARK minimizedAffinity -4.46978092
REMARK minimizedRMSD -1
REMARK  0 active torsions:
REMARK  status: ('A' for Active; 'I' for Inactive)
ROOT
ATOM      1  C   UNL d   1      -1.028  -1.474   2.648  0.00  0.00     0.078 C 
ATOM      2  C1  UNL d   1      -0.968  -0.565   1.458  0.00  0.00    -0.077 A 
ATOM      3  C2  UNL d   1       0.192   0.162   1.163  0.00  0.00    -0.001 A 
ATOM      4  C3  UNL d   1       0.229   1.013   0.057  0.00  0.00     0.003 A 
ATOM      5  C4  UNL d   1      -0.890   1.145  -0.763  0.00  0.00    -0.005 A 
ATOM      6  C5  UNL d   1      -2.049   0.427  -0.476  0.00  0.00     0.003 A 
ATOM      7  C6  UNL d   1      -2.089  -0.424   0.630  0.00  0.00    -0.001 A 
ENDROOT
TORSDOF 0
ENDMDL
