MODEL 1
REMARK minimizedAffinity -5.02676105
REMARK minimizedRMSD -1
REMARK  0 active torsions:
REMARK  status: ('A' for Active; 'I' for Inactive)
ROOT
ATOM      1  C   UNL d   1      -1.111  -0.690   3.371  0.00  0.00     0.078 C 
ATOM      2  C1  UNL d   1      -0.862  -0.200   1.976  0.00  0.00    -0.077 A 
ATOM      3  C2  UNL d   1      -1.926   0.100   1.116  0.00  0.00    -0.001 A 
ATOM      4  C3  UNL d   1      -1.679   0.545  -0.183  0.00  0.00     0.003 A 
ATOM      5  C4  UNL d   1      -0.370   0.695  -0.635  0.00  0.00    -0.005 A 
ATOM      6  C5  UNL d   1       0.695   0.397   0.213  0.00  0.00     0.003 A 
ATOM      7  C6  UNL d   1       0.451  -0.049   1.513  0.00  0.00    -0.001 A 
ENDROOT
TORSDOF 0
ENDMDL
