MODEL 1
REMARK minimizedAffinity -5.18612528
REMARK minimizedRMSD -1
REMARK  0 active torsions:
REMARK  status: ('A' for Active; 'I' for Inactive)
ROOT
ATOM      1  C   UNL d   1      -1.116  -0.688   3.004  0.00  0.00     0.078 C 
ATOM      2  C1  UNL d   1      -0.906  -0.193   1.604  0.00  0.00    -0.077 A 
ATOM      3  C2  UNL d   1       0.383   0.009   1.097  0.00  0.00    -0.001 A 
ATOM      4  C3  UNL d   1       0.563   0.479  -0.205  0.00  0.00     0.003 A 
ATOM      5  C4  UNL d   1      -0.541   0.752  -1.010  0.00  0.00    -0.005 A 
ATOM      6  C5  UNL d   1      -1.828   0.556  -0.513  0.00  0.00     0.003 A 
ATOM      7  C6  UNL d   1      -2.010   0.086   0.789  0.00  0.00    -0.001 A 
ENDROOT
TORSDOF 0
ENDMDL
