MODEL 1
REMARK minimizedAffinity 1.97300589
REMARK minimizedRMSD -1
REMARK  0 active torsions:
REMARK  status: ('A' for Active; 'I' for Inactive)
ROOT
ATOM      1  C   UNL d   1       0.934   1.176  -0.732  0.00  0.00     0.078 C 
ATOM      2  C1  UNL d   1      -0.262   0.360  -0.342  0.00  0.00    -0.077 A 
ATOM      3  C2  UNL d   1      -1.559   0.787  -0.651  0.00  0.00    -0.001 A 
ATOM      4  C3  UNL d   1      -2.663   0.022  -0.273  0.00  0.00     0.003 A 
ATOM      5  C4  UNL d   1      -2.482  -1.175   0.418  0.00  0.00    -0.005 A 
ATOM      6  C5  UNL d   1      -1.195  -1.607   0.732  0.00  0.00     0.003 A 
ATOM      7  C6  UNL d   1      -0.089  -0.843   0.355  0.00  0.00    -0.001 A 
ENDROOT
TORSDOF 0
ENDMDL
