MODEL 1
REMARK minimizedAffinity -2.88550806
REMARK minimizedRMSD -1
REMARK  0 active torsions:
REMARK  status: ('A' for Active; 'I' for Inactive)
ROOT
ATOM      1  C   UNL d   1       0.371   0.182  -1.417  0.00  0.00     0.078 C 
ATOM      2  C1  UNL d   1       0.145  -0.052   0.047  0.00  0.00    -0.077 A 
ATOM      3  C2  UNL d   1       0.507   0.912   0.996  0.00  0.00    -0.001 A 
ATOM      4  C3  UNL d   1       0.300   0.676   2.356  0.00  0.00     0.003 A 
ATOM      5  C4  UNL d   1      -0.268  -0.524   2.779  0.00  0.00    -0.005 A 
ATOM      6  C5  UNL d   1      -0.629  -1.490   1.842  0.00  0.00     0.003 A 
ATOM      7  C6  UNL d   1      -0.423  -1.256   0.482  0.00  0.00    -0.001 A 
ENDROOT
TORSDOF 0
ENDMDL
