MODEL 1
REMARK minimizedAffinity -1.01666081
REMARK minimizedRMSD -1
REMARK  0 active torsions:
REMARK  status: ('A' for Active; 'I' for Inactive)
ROOT
ATOM      1  C   UNL d   1      -0.294   0.913   3.594  0.00  0.00     0.078 C 
ATOM      2  C1  UNL d   1      -0.414   0.709   2.114  0.00  0.00    -0.077 A 
ATOM      3  C2  UNL d   1       0.719   0.475   1.324  0.00  0.00    -0.001 A 
ATOM      4  C3  UNL d   1       0.594   0.297  -0.054  0.00  0.00     0.003 A 
ATOM      5  C4  UNL d   1      -0.662   0.352  -0.656  0.00  0.00    -0.005 A 
ATOM      6  C5  UNL d   1      -1.794   0.586   0.121  0.00  0.00     0.003 A 
ATOM      7  C6  UNL d   1      -1.671   0.765   1.500  0.00  0.00    -0.001 A 
ENDROOT
TORSDOF 0
ENDMDL
