MODEL 1
REMARK minimizedAffinity -4.37270212
REMARK minimizedRMSD -1
REMARK  0 active torsions:
REMARK  status: ('A' for Active; 'I' for Inactive)
ROOT
ATOM      1  C   UNL d   1       0.031   0.139  -1.371  0.00  0.00     0.078 C 
ATOM      2  C1  UNL d   1       0.033   0.033   0.125  0.00  0.00    -0.077 A 
ATOM      3  C2  UNL d   1      -1.027  -0.580   0.805  0.00  0.00    -0.001 A 
ATOM      4  C3  UNL d   1      -1.017  -0.663   2.199  0.00  0.00     0.003 A 
ATOM      5  C4  UNL d   1       0.049  -0.134   2.924  0.00  0.00    -0.005 A 
ATOM      6  C5  UNL d   1       1.107   0.480   2.255  0.00  0.00     0.003 A 
ATOM      7  C6  UNL d   1       1.099   0.564   0.862  0.00  0.00    -0.001 A 
ENDROOT
TORSDOF 0
ENDMDL
