MODEL 1
REMARK minimizedAffinity -1.8780055
REMARK minimizedRMSD -1
REMARK  1 active torsions:
REMARK  status: ('A' for Active; 'I' for Inactive)
REMARK    1  A    between atoms: C1_2  and  C2_3 
ROOT
ATOM      1  C2  UNL d   1       0.789   1.607   0.226  0.00  0.00    -0.077 A 
ATOM      2  C3  UNL d   1      -0.427   1.377  -0.432  0.00  0.00     0.002 A 
ATOM      3  C4  UNL d   1      -1.204   0.262  -0.112  0.00  0.00     0.002 A 
ATOM      4  C5  UNL d   1      -0.775  -0.629   0.870  0.00  0.00    -0.004 A 
ATOM      5  C6  UNL d   1       0.434  -0.410   1.529  0.00  0.00     0.002 A 
ATOM      6  C7  UNL d   1       1.212   0.704   1.209  0.00  0.00     0.002 A 
ENDROOT
BRANCH   1   7
ATOM      7  C1  UNL d   1       1.604   2.836  -0.083  0.00  0.00     0.055 C 
ATOM      8  C   UNL d   1       2.024   3.556   1.190  0.00  0.00     0.019 C 
ENDBRANCH   1   7
TORSDOF 1
ENDMDL
