MODEL 1
REMARK minimizedAffinity -3.45221901
REMARK minimizedRMSD -1
REMARK  1 active torsions:
REMARK  status: ('A' for Active; 'I' for Inactive)
REMARK    1  A    between atoms: C1_2  and  C2_3 
ROOT
ATOM      1  C2  UNL d   1       0.599   0.444   0.688  0.00  0.00    -0.077 A 
ATOM      2  C3  UNL d   1       0.741  -0.088   1.977  0.00  0.00     0.002 A 
ATOM      3  C4  UNL d   1       0.032  -1.231   2.351  0.00  0.00     0.002 A 
ATOM      4  C5  UNL d   1      -0.820  -1.854   1.441  0.00  0.00    -0.004 A 
ATOM      5  C6  UNL d   1      -0.969  -1.331   0.157  0.00  0.00     0.002 A 
ATOM      6  C7  UNL d   1      -0.262  -0.188  -0.218  0.00  0.00     0.002 A 
ENDROOT
BRANCH   1   7
ATOM      7  C1  UNL d   1       1.401   1.648   0.267  0.00  0.00     0.055 C 
ATOM      8  C   UNL d   1       0.549   2.909   0.271  0.00  0.00     0.019 C 
ENDBRANCH   1   7
TORSDOF 1
ENDMDL
