MODEL 1
REMARK minimizedAffinity -4.78759289
REMARK minimizedRMSD -1
REMARK  1 active torsions:
REMARK  status: ('A' for Active; 'I' for Inactive)
REMARK    1  A    between atoms: C1_2  and  C2_3 
ROOT
ATOM      1  C2  UNL d   1       0.328   0.744   0.065  0.00  0.00    -0.077 A 
ATOM      2  C3  UNL d   1       1.559   1.175   0.579  0.00  0.00     0.002 A 
ATOM      3  C4  UNL d   1       1.849   2.538   0.667  0.00  0.00     0.002 A 
ATOM      4  C5  UNL d   1       0.913   3.480   0.247  0.00  0.00    -0.004 A 
ATOM      5  C6  UNL d   1      -0.313   3.062  -0.268  0.00  0.00     0.002 A 
ATOM      6  C7  UNL d   1      -0.605   1.700  -0.358  0.00  0.00     0.002 A 
ENDROOT
BRANCH   1   7
ATOM      7  C1  UNL d   1      -0.007  -0.724   0.015  0.00  0.00     0.055 C 
ATOM      8  C   UNL d   1      -0.886  -1.131   1.188  0.00  0.00     0.019 C 
ENDBRANCH   1   7
TORSDOF 1
ENDMDL
