MODEL 1
REMARK minimizedAffinity -4.11642551
REMARK minimizedRMSD -1
REMARK  1 active torsions:
REMARK  status: ('A' for Active; 'I' for Inactive)
REMARK    1  A    between atoms: C1_2  and  C2_3 
ROOT
ATOM      1  C2  UNL d   1       1.006   1.970   0.905  0.00  0.00    -0.077 A 
ATOM      2  C3  UNL d   1       1.154   0.711   1.503  0.00  0.00     0.002 A 
ATOM      3  C4  UNL d   1       0.331  -0.352   1.124  0.00  0.00     0.002 A 
ATOM      4  C5  UNL d   1      -0.641  -0.167   0.143  0.00  0.00    -0.004 A 
ATOM      5  C6  UNL d   1      -0.796   1.082  -0.457  0.00  0.00     0.002 A 
ATOM      6  C7  UNL d   1       0.024   2.146  -0.078  0.00  0.00     0.002 A 
ENDROOT
BRANCH   1   7
ATOM      7  C1  UNL d   1       1.925   3.105   1.277  0.00  0.00     0.055 C 
ATOM      8  C   UNL d   1       2.858   3.461   0.130  0.00  0.00     0.019 C 
ENDBRANCH   1   7
TORSDOF 1
ENDMDL
