MODEL 1
REMARK minimizedAffinity -3.31390047
REMARK minimizedRMSD -1
REMARK  1 active torsions:
REMARK  status: ('A' for Active; 'I' for Inactive)
REMARK    1  A    between atoms: C1_2  and  C2_3 
ROOT
ATOM      1  C2  UNL d   1      -0.479  -1.837  -0.530  0.00  0.00    -0.077 A 
ATOM      2  C3  UNL d   1      -1.344  -1.961   0.566  0.00  0.00     0.002 A 
ATOM      3  C4  UNL d   1      -1.541  -0.886   1.435  0.00  0.00     0.002 A 
ATOM      4  C5  UNL d   1      -0.880   0.320   1.215  0.00  0.00    -0.004 A 
ATOM      5  C6  UNL d   1      -0.016   0.453   0.129  0.00  0.00     0.002 A 
ATOM      6  C7  UNL d   1       0.183  -0.621  -0.740  0.00  0.00     0.002 A 
ENDROOT
BRANCH   1   7
ATOM      7  C1  UNL d   1      -0.303  -2.979  -1.497  0.00  0.00     0.055 C 
ATOM      8  C   UNL d   1      -0.042  -2.474  -2.909  0.00  0.00     0.019 C 
ENDBRANCH   1   7
TORSDOF 1
ENDMDL
