MODEL 1
REMARK minimizedAffinity -4.19429493
REMARK minimizedRMSD -1
REMARK  1 active torsions:
REMARK  status: ('A' for Active; 'I' for Inactive)
REMARK    1  A    between atoms: C1_2  and  C2_3 
ROOT
ATOM      1  C2  UNL d   1       0.612   1.383   0.314  0.00  0.00    -0.077 A 
ATOM      2  C3  UNL d   1      -0.706   1.579  -0.123  0.00  0.00     0.002 A 
ATOM      3  C4  UNL d   1      -1.727   0.729   0.309  0.00  0.00     0.002 A 
ATOM      4  C5  UNL d   1      -1.441  -0.318   1.183  0.00  0.00    -0.004 A 
ATOM      5  C6  UNL d   1      -0.133  -0.522   1.621  0.00  0.00     0.002 A 
ATOM      6  C7  UNL d   1       0.888   0.325   1.189  0.00  0.00     0.002 A 
ENDROOT
BRANCH   1   7
ATOM      7  C1  UNL d   1       1.705   2.328  -0.112  0.00  0.00     0.055 C 
ATOM      8  C   UNL d   1       1.952   3.399   0.940  0.00  0.00     0.019 C 
ENDBRANCH   1   7
TORSDOF 1
ENDMDL
