MODEL 1
REMARK minimizedAffinity -2.84499264
REMARK minimizedRMSD -1
REMARK  1 active torsions:
REMARK  status: ('A' for Active; 'I' for Inactive)
REMARK    1  A    between atoms: C1_2  and  C2_3 
ROOT
ATOM      1  C2  UNL d   1      -0.411  -1.380  -0.926  0.00  0.00    -0.077 A 
ATOM      2  C3  UNL d   1      -0.142  -0.141  -0.329  0.00  0.00     0.002 A 
ATOM      3  C4  UNL d   1      -0.352   0.044   1.039  0.00  0.00     0.002 A 
ATOM      4  C5  UNL d   1      -0.826  -1.007   1.821  0.00  0.00    -0.004 A 
ATOM      5  C6  UNL d   1      -1.098  -2.242   1.236  0.00  0.00     0.002 A 
ATOM      6  C7  UNL d   1      -0.891  -2.429  -0.131  0.00  0.00     0.002 A 
ENDROOT
BRANCH   1   7
ATOM      7  C1  UNL d   1      -0.139  -1.596  -2.392  0.00  0.00     0.055 C 
ATOM      8  C   UNL d   1      -0.628  -2.963  -2.850  0.00  0.00     0.019 C 
ENDBRANCH   1   7
TORSDOF 1
ENDMDL
