MODEL 1
REMARK minimizedAffinity 2.75434923
REMARK minimizedRMSD -1
REMARK  0 active torsions:
REMARK  status: ('A' for Active; 'I' for Inactive)
ROOT
ATOM      1  C   UNL d   1      -3.006   1.126   2.626  0.00  0.00     0.172 C 
ATOM      2  N   UNL d   1      -4.073   1.875   2.004  0.00  0.00    -0.070 N 
ATOM      3  C1  UNL d   1      -4.086   2.321   0.709  0.00  0.00    -0.004 A 
ATOM      4  C2  UNL d   1      -5.274   2.988   0.504  0.00  0.00    -0.047 A 
ATOM      5  C3  UNL d   1      -6.000   2.943   1.718  0.00  0.00    -0.047 A 
ATOM      6  C4  UNL d   1      -5.233   2.247   2.629  0.00  0.00    -0.004 A 
ENDROOT
TORSDOF 0
ENDMDL
