MODEL 1
REMARK minimizedAffinity 3.96353889
REMARK minimizedRMSD -1
REMARK  0 active torsions:
REMARK  status: ('A' for Active; 'I' for Inactive)
ROOT
ATOM      1  C   UNL d   1      -3.735  -1.593   1.653  0.00  0.00     0.172 C 
ATOM      2  N   UNL d   1      -3.762  -0.152   1.748  0.00  0.00    -0.070 N 
ATOM      3  C1  UNL d   1      -4.840   0.646   1.475  0.00  0.00    -0.004 A 
ATOM      4  C2  UNL d   1      -4.461   1.954   1.685  0.00  0.00    -0.047 A 
ATOM      5  C3  UNL d   1      -3.108   1.942   2.098  0.00  0.00    -0.047 A 
ATOM      6  C4  UNL d   1      -2.700   0.625   2.129  0.00  0.00    -0.004 A 
ENDROOT
TORSDOF 0
ENDMDL
