MODEL 1
REMARK minimizedAffinity 0.0071062292
REMARK minimizedRMSD -1
REMARK  0 active torsions:
REMARK  status: ('A' for Active; 'I' for Inactive)
ROOT
ATOM      1  C   UNL d   1      -3.749   3.260  -3.223  0.00  0.00     0.172 C 
ATOM      2  N   UNL d   1      -2.376   3.693  -3.110  0.00  0.00    -0.070 N 
ATOM      3  C1  UNL d   1      -1.948   4.838  -2.493  0.00  0.00    -0.004 A 
ATOM      4  C2  UNL d   1      -0.575   4.887  -2.600  0.00  0.00    -0.047 A 
ATOM      5  C3  UNL d   1      -0.163   3.732  -3.307  0.00  0.00    -0.047 A 
ATOM      6  C4  UNL d   1      -1.298   3.010  -3.610  0.00  0.00    -0.004 A 
ENDROOT
TORSDOF 0
ENDMDL
