MODEL 1
REMARK minimizedAffinity 1.61602879
REMARK minimizedRMSD -1
REMARK  0 active torsions:
REMARK  status: ('A' for Active; 'I' for Inactive)
ROOT
ATOM      1  C   UNL d   1       5.433  -0.322  -2.538  0.00  0.00     0.172 C 
ATOM      2  N   UNL d   1       4.342  -1.118  -2.027  0.00  0.00    -0.070 N 
ATOM      3  C1  UNL d   1       4.042  -1.307  -0.704  0.00  0.00    -0.004 A 
ATOM      4  C2  UNL d   1       2.934  -2.124  -0.635  0.00  0.00    -0.047 A 
ATOM      5  C3  UNL d   1       2.556  -2.439  -1.962  0.00  0.00    -0.047 A 
ATOM      6  C4  UNL d   1       3.444  -1.803  -2.804  0.00  0.00    -0.004 A 
ENDROOT
TORSDOF 0
ENDMDL
