MODEL 1
REMARK minimizedAffinity 1.74384284
REMARK minimizedRMSD -1
REMARK  0 active torsions:
REMARK  status: ('A' for Active; 'I' for Inactive)
ROOT
ATOM      1  C   UNL d   1      -1.144   6.000   1.493  0.00  0.00     0.172 C 
ATOM      2  N   UNL d   1      -1.344   5.664   0.102  0.00  0.00    -0.070 N 
ATOM      3  C1  UNL d   1      -0.464   4.972  -0.686  0.00  0.00    -0.004 A 
ATOM      4  C2  UNL d   1      -1.021   4.859  -1.942  0.00  0.00    -0.047 A 
ATOM      5  C3  UNL d   1      -2.279   5.507  -1.907  0.00  0.00    -0.047 A 
ATOM      6  C4  UNL d   1      -2.453   5.996  -0.629  0.00  0.00    -0.004 A 
ENDROOT
TORSDOF 0
ENDMDL
