MODEL 1
REMARK minimizedAffinity 2.22684002
REMARK minimizedRMSD -1
REMARK  0 active torsions:
REMARK  status: ('A' for Active; 'I' for Inactive)
ROOT
ATOM      1  C   UNL d   1      -3.319   6.000   2.253  0.00  0.00     0.172 C 
ATOM      2  N   UNL d   1      -2.257   5.370   1.502  0.00  0.00    -0.070 N 
ATOM      3  C1  UNL d   1      -2.236   4.065   1.090  0.00  0.00    -0.004 A 
ATOM      4  C2  UNL d   1      -1.058   3.856   0.407  0.00  0.00    -0.047 A 
ATOM      5  C3  UNL d   1      -0.345   5.079   0.410  0.00  0.00    -0.047 A 
ATOM      6  C4  UNL d   1      -1.111   5.999   1.094  0.00  0.00    -0.004 A 
ENDROOT
TORSDOF 0
ENDMDL
