MODEL 1
REMARK minimizedAffinity -0.718823731
REMARK minimizedRMSD -1
REMARK  0 active torsions:
REMARK  status: ('A' for Active; 'I' for Inactive)
ROOT
ATOM      1  C   UNL d   1      -1.472   5.712  -2.058  0.00  0.00     0.172 C 
ATOM      2  N   UNL d   1      -1.476   5.782  -0.615  0.00  0.00    -0.070 N 
ATOM      3  C1  UNL d   1      -0.380   5.646   0.194  0.00  0.00    -0.004 A 
ATOM      4  C2  UNL d   1      -0.801   5.777   1.500  0.00  0.00    -0.047 A 
ATOM      5  C3  UNL d   1      -2.198   5.999   1.474  0.00  0.00    -0.047 A 
ATOM      6  C4  UNL d   1      -2.590   5.997   0.153  0.00  0.00    -0.004 A 
ENDROOT
TORSDOF 0
ENDMDL
