MODEL 1
REMARK minimizedAffinity -2.98627019
REMARK minimizedRMSD -1
REMARK  0 active torsions:
REMARK  status: ('A' for Active; 'I' for Inactive)
ROOT
ATOM      1  C   UNL d   1      -0.499   5.998   1.073  0.00  0.00     0.172 C 
ATOM      2  N   UNL d   1      -1.717   5.351   0.644  0.00  0.00    -0.070 N 
ATOM      3  C1  UNL d   1      -1.877   4.007   0.441  0.00  0.00    -0.004 A 
ATOM      4  C2  UNL d   1      -3.178   3.793   0.038  0.00  0.00    -0.047 A 
ATOM      5  C3  UNL d   1      -3.821   5.053  -0.003  0.00  0.00    -0.047 A 
ATOM      6  C4  UNL d   1      -2.893   6.000   0.376  0.00  0.00    -0.004 A 
ENDROOT
TORSDOF 0
ENDMDL
