MODEL 1
REMARK minimizedAffinity 3.67554474
REMARK minimizedRMSD -1
REMARK  0 active torsions:
REMARK  status: ('A' for Active; 'I' for Inactive)
ROOT
ATOM      1  C   UNL d   1      -4.137  -6.000   1.134  0.00  0.00     0.172 C 
ATOM      2  N   UNL d   1      -3.891  -4.577   1.117  0.00  0.00    -0.070 N 
ATOM      3  C1  UNL d   1      -3.132  -3.909   0.193  0.00  0.00    -0.004 A 
ATOM      4  C2  UNL d   1      -3.145  -2.572   0.525  0.00  0.00    -0.047 A 
ATOM      5  C3  UNL d   1      -3.937  -2.431   1.689  0.00  0.00    -0.047 A 
ATOM      6  C4  UNL d   1      -4.386  -3.688   2.034  0.00  0.00    -0.004 A 
ENDROOT
TORSDOF 0
ENDMDL
