MODEL 1
REMARK minimizedAffinity 2.51107454
REMARK minimizedRMSD -1
REMARK  0 active torsions:
REMARK  status: ('A' for Active; 'I' for Inactive)
ROOT
ATOM      1  C   UNL d   1      -1.832   2.922  -3.811  0.00  0.00     0.172 C 
ATOM      2  N   UNL d   1      -1.677   4.168  -3.098  0.00  0.00    -0.070 N 
ATOM      3  C1  UNL d   1      -2.667   4.827  -2.418  0.00  0.00    -0.004 A 
ATOM      4  C2  UNL d   1      -2.119   5.970  -1.878  0.00  0.00    -0.047 A 
ATOM      5  C3  UNL d   1      -0.753   5.999  -2.246  0.00  0.00    -0.047 A 
ATOM      6  C4  UNL d   1      -0.506   4.872  -3.001  0.00  0.00    -0.004 A 
ENDROOT
TORSDOF 0
ENDMDL
