MODEL 1
REMARK minimizedAffinity 5.18882847
REMARK minimizedRMSD -1
REMARK  0 active torsions:
REMARK  status: ('A' for Active; 'I' for Inactive)
ROOT
ATOM      1  C   UNL d   1      -0.989   4.433  -2.083  0.00  0.00     0.172 C 
ATOM      2  N   UNL d   1      -0.700   3.310  -2.944  0.00  0.00    -0.070 N 
ATOM      3  C1  UNL d   1      -1.586   2.327  -3.298  0.00  0.00    -0.004 A 
ATOM      4  C2  UNL d   1      -0.928   1.445  -4.127  0.00  0.00    -0.047 A 
ATOM      5  C3  UNL d   1       0.400   1.913  -4.275  0.00  0.00    -0.047 A 
ATOM      6  C4  UNL d   1       0.513   3.069  -3.532  0.00  0.00    -0.004 A 
ENDROOT
TORSDOF 0
ENDMDL
