MODEL 1
REMARK minimizedAffinity 1.6801964
REMARK minimizedRMSD -1
REMARK  0 active torsions:
REMARK  status: ('A' for Active; 'I' for Inactive)
ROOT
ATOM      1  C   UNL d   1       4.442  -0.007  -2.234  0.00  0.00     0.172 C 
ATOM      2  N   UNL d   1       3.832  -0.838  -1.223  0.00  0.00    -0.070 N 
ATOM      3  C1  UNL d   1       3.229  -2.048  -1.441  0.00  0.00    -0.004 A 
ATOM      4  C2  UNL d   1       2.776  -2.519  -0.227  0.00  0.00    -0.047 A 
ATOM      5  C3  UNL d   1       3.116  -1.557   0.754  0.00  0.00    -0.047 A 
ATOM      6  C4  UNL d   1       3.769  -0.527   0.110  0.00  0.00    -0.004 A 
ENDROOT
TORSDOF 0
ENDMDL
