MODEL 1
REMARK minimizedAffinity 0.479587585
REMARK minimizedRMSD -1
REMARK  0 active torsions:
REMARK  status: ('A' for Active; 'I' for Inactive)
ROOT
ATOM      1  C   UNL d   1       5.700  -0.581  -2.939  0.00  0.00     0.172 C 
ATOM      2  N   UNL d   1       4.527  -1.089  -2.267  0.00  0.00    -0.070 N 
ATOM      3  C1  UNL d   1       4.019  -0.620  -1.084  0.00  0.00    -0.004 A 
ATOM      4  C2  UNL d   1       2.900  -1.365  -0.781  0.00  0.00    -0.047 A 
ATOM      5  C3  UNL d   1       2.730  -2.314  -1.817  0.00  0.00    -0.047 A 
ATOM      6  C4  UNL d   1       3.751  -2.121  -2.723  0.00  0.00    -0.004 A 
ENDROOT
TORSDOF 0
ENDMDL
