MODEL 1
REMARK minimizedAffinity 7.88257074
REMARK minimizedRMSD -1
REMARK  0 active torsions:
REMARK  status: ('A' for Active; 'I' for Inactive)
ROOT
ATOM      1  C   UNL d   1       0.030   0.035  -3.976  0.00  0.00     0.172 C 
ATOM      2  N   UNL d   1      -0.153   1.432  -3.656  0.00  0.00    -0.070 N 
ATOM      3  C1  UNL d   1       0.817   2.397  -3.714  0.00  0.00    -0.004 A 
ATOM      4  C2  UNL d   1       0.245   3.592  -3.335  0.00  0.00    -0.047 A 
ATOM      5  C3  UNL d   1      -1.114   3.336  -3.037  0.00  0.00    -0.047 A 
ATOM      6  C4  UNL d   1      -1.333   1.991  -3.244  0.00  0.00    -0.004 A 
ENDROOT
TORSDOF 0
ENDMDL
