MODEL 1
REMARK minimizedAffinity 2.16154265
REMARK minimizedRMSD -1
REMARK  0 active torsions:
REMARK  status: ('A' for Active; 'I' for Inactive)
ROOT
ATOM      1  C   UNL d   1      -0.201   4.486  -1.383  0.00  0.00     0.172 C 
ATOM      2  N   UNL d   1      -0.189   3.467  -2.406  0.00  0.00    -0.070 N 
ATOM      3  C1  UNL d   1       0.907   3.068  -3.123  0.00  0.00    -0.004 A 
ATOM      4  C2  UNL d   1       0.505   2.080  -3.995  0.00  0.00    -0.047 A 
ATOM      5  C3  UNL d   1      -0.881   1.878  -3.796  0.00  0.00    -0.047 A 
ATOM      6  C4  UNL d   1      -1.285   2.750  -2.807  0.00  0.00    -0.004 A 
ENDROOT
TORSDOF 0
ENDMDL
