MODEL 1
REMARK minimizedAffinity 5.38276434
REMARK minimizedRMSD -1
REMARK  0 active torsions:
REMARK  status: ('A' for Active; 'I' for Inactive)
ROOT
ATOM      1  C   UNL d   1      -4.089  -2.659   1.652  0.00  0.00     0.172 C 
ATOM      2  N   UNL d   1      -4.292  -3.871   0.893  0.00  0.00    -0.070 N 
ATOM      3  C1  UNL d   1      -4.512  -5.115   1.421  0.00  0.00    -0.004 A 
ATOM      4  C2  UNL d   1      -4.656  -5.998   0.373  0.00  0.00    -0.047 A 
ATOM      5  C3  UNL d   1      -4.518  -5.259  -0.826  0.00  0.00    -0.047 A 
ATOM      6  C4  UNL d   1      -4.293  -3.945  -0.475  0.00  0.00    -0.004 A 
ENDROOT
TORSDOF 0
ENDMDL
