MODEL 1
REMARK minimizedAffinity -0.125523001
REMARK minimizedRMSD -1
REMARK  0 active torsions:
REMARK  status: ('A' for Active; 'I' for Inactive)
ROOT
ATOM      1  C   UNL d   1       6.000  -0.425  -2.693  0.00  0.00     0.172 C 
ATOM      2  N   UNL d   1       4.720  -0.411  -2.024  0.00  0.00    -0.070 N 
ATOM      3  C1  UNL d   1       4.155  -1.468  -1.361  0.00  0.00    -0.004 A 
ATOM      4  C2  UNL d   1       2.939  -1.052  -0.863  0.00  0.00    -0.047 A 
ATOM      5  C3  UNL d   1       2.767   0.301  -1.240  0.00  0.00    -0.047 A 
ATOM      6  C4  UNL d   1       3.885   0.672  -1.958  0.00  0.00    -0.004 A 
ENDROOT
TORSDOF 0
ENDMDL
