MODEL 1
REMARK minimizedAffinity 3.84720397
REMARK minimizedRMSD -1
REMARK  0 active torsions:
REMARK  status: ('A' for Active; 'I' for Inactive)
ROOT
ATOM      1  C   UNL d   1      -0.802   4.636  -1.902  0.00  0.00     0.172 C 
ATOM      2  N   UNL d   1      -0.558   3.419  -2.640  0.00  0.00    -0.070 N 
ATOM      3  C1  UNL d   1       0.645   3.032  -3.167  0.00  0.00    -0.004 A 
ATOM      4  C2  UNL d   1       0.461   1.817  -3.791  0.00  0.00    -0.047 A 
ATOM      5  C3  UNL d   1      -0.901   1.463  -3.635  0.00  0.00    -0.047 A 
ATOM      6  C4  UNL d   1      -1.508   2.472  -2.919  0.00  0.00    -0.004 A 
ENDROOT
TORSDOF 0
ENDMDL
