MODEL 1
REMARK minimizedAffinity -2.35607982
REMARK minimizedRMSD -1
REMARK  0 active torsions:
REMARK  status: ('A' for Active; 'I' for Inactive)
ROOT
ATOM      1  C   UNL d   1       1.549   5.979  -4.539  0.00  0.00    -0.002 A 
ATOM      2  C1  UNL d   1       1.005   5.951  -5.815  0.00  0.00     0.010 A 
ATOM      3  C2  UNL d   1      -0.379   5.939  -5.997  0.00  0.00     0.041 A 
ATOM      4  C3  UNL d   1      -1.216   5.957  -4.863  0.00  0.00    -0.075 A 
ATOM      5  S   UNL d   1      -2.940   5.947  -4.843  0.00  0.00     0.015 SA
ATOM      6  C4  UNL d   1      -2.994   5.981  -3.140  0.00  0.00     0.022 A 
ATOM      7  C5  UNL d   1      -1.737   5.999  -2.584  0.00  0.00     0.026 A 
ATOM      8  C6  UNL d   1      -0.691   5.986  -3.568  0.00  0.00    -0.082 A 
ATOM      9  C7  UNL d   1       0.716   5.997  -3.417  0.00  0.00     0.045 A 
ENDROOT
TORSDOF 0
ENDMDL
