MODEL 1
REMARK minimizedAffinity -1.89292371
REMARK minimizedRMSD -1
REMARK  0 active torsions:
REMARK  status: ('A' for Active; 'I' for Inactive)
ROOT
ATOM      1  C   UNL d   1      -3.274   5.998  -1.907  0.00  0.00    -0.002 A 
ATOM      2  C1  UNL d   1      -4.136   5.990  -2.995  0.00  0.00     0.010 A 
ATOM      3  C2  UNL d   1      -3.635   5.986  -4.298  0.00  0.00     0.041 A 
ATOM      4  C3  UNL d   1      -2.240   5.987  -4.492  0.00  0.00    -0.075 A 
ATOM      5  S   UNL d   1      -1.399   5.982  -5.997  0.00  0.00     0.015 SA
ATOM      6  C4  UNL d   1       0.124   5.989  -5.232  0.00  0.00     0.022 A 
ATOM      7  C5  UNL d   1       0.012   5.995  -3.862  0.00  0.00     0.026 A 
ATOM      8  C6  UNL d   1      -1.351   5.994  -3.412  0.00  0.00    -0.082 A 
ATOM      9  C7  UNL d   1      -1.891   6.000  -2.103  0.00  0.00     0.045 A 
ENDROOT
TORSDOF 0
ENDMDL
