MODEL 1
REMARK minimizedAffinity 1.55339205
REMARK minimizedRMSD -1
REMARK  0 active torsions:
REMARK  status: ('A' for Active; 'I' for Inactive)
ROOT
ATOM      1  C   UNL d   1       2.599   1.885  -1.369  0.00  0.00    -0.002 A 
ATOM      2  C1  UNL d   1       1.831   0.985  -2.094  0.00  0.00     0.010 A 
ATOM      3  C2  UNL d   1       0.894   0.172  -1.453  0.00  0.00     0.041 A 
ATOM      4  C3  UNL d   1       0.739   0.282  -0.057  0.00  0.00    -0.075 A 
ATOM      5  S   UNL d   1      -0.346  -0.611   0.942  0.00  0.00     0.015 SA
ATOM      6  C4  UNL d   1       0.183   0.182   2.355  0.00  0.00     0.022 A 
ATOM      7  C5  UNL d   1       1.164   1.108   2.089  0.00  0.00     0.026 A 
ATOM      8  C6  UNL d   1       1.500   1.181   0.695  0.00  0.00    -0.082 A 
ATOM      9  C7  UNL d   1       2.442   1.991   0.016  0.00  0.00     0.045 A 
ENDROOT
TORSDOF 0
ENDMDL
