MODEL 1
REMARK minimizedAffinity -1.86882603
REMARK minimizedRMSD -1
REMARK  0 active torsions:
REMARK  status: ('A' for Active; 'I' for Inactive)
ROOT
ATOM      1  C   UNL d   1       1.300   4.419  -5.073  0.00  0.00    -0.002 A 
ATOM      2  C1  UNL d   1       1.596   5.450  -5.953  0.00  0.00     0.010 A 
ATOM      3  C2  UNL d   1       2.880   5.997  -6.000  0.00  0.00     0.041 A 
ATOM      4  C3  UNL d   1       3.871   5.485  -5.139  0.00  0.00    -0.075 A 
ATOM      5  S   UNL d   1       5.512   5.999  -5.022  0.00  0.00     0.015 SA
ATOM      6  C4  UNL d   1       5.859   4.861  -3.801  0.00  0.00     0.022 A 
ATOM      7  C5  UNL d   1       4.761   4.100  -3.479  0.00  0.00     0.026 A 
ATOM      8  C6  UNL d   1       3.597   4.446  -4.245  0.00  0.00    -0.082 A 
ATOM      9  C7  UNL d   1       2.286   3.913  -4.221  0.00  0.00     0.045 A 
ENDROOT
TORSDOF 0
ENDMDL
