MODEL 1
REMARK minimizedAffinity 4.84752941
REMARK minimizedRMSD -1
REMARK  0 active torsions:
REMARK  status: ('A' for Active; 'I' for Inactive)
ROOT
ATOM      1  C   UNL d   1       5.488   4.064  -5.063  0.00  0.00    -0.002 A 
ATOM      2  C1  UNL d   1       5.524   5.331  -5.627  0.00  0.00     0.010 A 
ATOM      3  C2  UNL d   1       4.342   6.000  -5.949  0.00  0.00     0.041 A 
ATOM      4  C3  UNL d   1       3.109   5.368  -5.690  0.00  0.00    -0.075 A 
ATOM      5  S   UNL d   1       1.534   5.996  -6.000  0.00  0.00     0.015 SA
ATOM      6  C4  UNL d   1       0.775   4.598  -5.390  0.00  0.00     0.022 A 
ATOM      7  C5  UNL d   1       1.686   3.664  -4.956  0.00  0.00     0.026 A 
ATOM      8  C6  UNL d   1       3.047   4.093  -5.121  0.00  0.00    -0.082 A 
ATOM      9  C7  UNL d   1       4.263   3.441  -4.807  0.00  0.00     0.045 A 
ENDROOT
TORSDOF 0
ENDMDL
