MODEL 1
REMARK minimizedAffinity 14.696785
REMARK minimizedRMSD -1
REMARK  0 active torsions:
REMARK  status: ('A' for Active; 'I' for Inactive)
ROOT
ATOM      1  C   UNL d   1      -0.531   5.939  -1.479  0.00  0.00    -0.002 A 
ATOM      2  C1  UNL d   1      -1.793   5.947  -2.056  0.00  0.00     0.010 A 
ATOM      3  C2  UNL d   1      -1.939   5.952  -3.445  0.00  0.00     0.041 A 
ATOM      4  C3  UNL d   1      -0.785   5.947  -4.252  0.00  0.00    -0.075 A 
ATOM      5  S   UNL d   1      -0.721   5.951  -5.974  0.00  0.00     0.015 SA
ATOM      6  C4  UNL d   1       0.984   5.941  -5.985  0.00  0.00     0.022 A 
ATOM      7  C5  UNL d   1       1.508   5.935  -4.714  0.00  0.00     0.026 A 
ATOM      8  C6  UNL d   1       0.497   5.938  -3.694  0.00  0.00    -0.082 A 
ATOM      9  C7  UNL d   1       0.612   5.934  -2.283  0.00  0.00     0.045 A 
ENDROOT
TORSDOF 0
ENDMDL
