MODEL 1
REMARK minimizedAffinity 2.41673899
REMARK minimizedRMSD -1
REMARK  0 active torsions:
REMARK  status: ('A' for Active; 'I' for Inactive)
ROOT
ATOM      1  C   UNL d   1      -2.278   5.946  -3.273  0.00  0.00    -0.002 A 
ATOM      2  C1  UNL d   1      -1.432   5.964  -2.173  0.00  0.00     0.010 A 
ATOM      3  C2  UNL d   1      -0.047   5.980  -2.342  0.00  0.00     0.041 A 
ATOM      4  C3  UNL d   1       0.480   5.980  -3.649  0.00  0.00    -0.075 A 
ATOM      5  S   UNL d   1       2.145   6.000  -4.098  0.00  0.00     0.015 SA
ATOM      6  C4  UNL d   1       1.773   5.987  -5.762  0.00  0.00     0.022 A 
ATOM      7  C5  UNL d   1       0.417   5.968  -5.987  0.00  0.00     0.026 A 
ATOM      8  C6  UNL d   1      -0.351   5.964  -4.773  0.00  0.00    -0.082 A 
ATOM      9  C7  UNL d   1      -1.751   5.947  -4.568  0.00  0.00     0.045 A 
ENDROOT
TORSDOF 0
ENDMDL
