MODEL 1
REMARK minimizedAffinity 1.79068637
REMARK minimizedRMSD -1
REMARK  0 active torsions:
REMARK  status: ('A' for Active; 'I' for Inactive)
ROOT
ATOM      1  C   UNL d   1       0.117   5.999  -4.908  0.00  0.00    -0.002 A 
ATOM      2  C1  UNL d   1       0.572   5.997  -3.597  0.00  0.00     0.010 A 
ATOM      3  C2  UNL d   1      -0.331   5.998  -2.532  0.00  0.00     0.041 A 
ATOM      4  C3  UNL d   1      -1.712   5.998  -2.809  0.00  0.00    -0.075 A 
ATOM      5  S   UNL d   1      -3.003   5.998  -1.666  0.00  0.00     0.015 SA
ATOM      6  C4  UNL d   1      -4.188   5.999  -2.891  0.00  0.00     0.022 A 
ATOM      7  C5  UNL d   1      -3.630   5.999  -4.147  0.00  0.00     0.026 A 
ATOM      8  C6  UNL d   1      -2.195   5.999  -4.121  0.00  0.00    -0.082 A 
ATOM      9  C7  UNL d   1      -1.254   5.999  -5.179  0.00  0.00     0.045 A 
ENDROOT
TORSDOF 0
ENDMDL
