MODEL 1
REMARK minimizedAffinity 15.1551113
REMARK minimizedRMSD -1
REMARK  0 active torsions:
REMARK  status: ('A' for Active; 'I' for Inactive)
ROOT
ATOM      1  C   UNL d   1       1.858   5.803  -4.771  0.00  0.00    -0.002 A 
ATOM      2  C1  UNL d   1       1.171   5.776  -5.977  0.00  0.00     0.010 A 
ATOM      3  C2  UNL d   1      -0.225   5.810  -6.000  0.00  0.00     0.041 A 
ATOM      4  C3  UNL d   1      -0.926   5.873  -4.779  0.00  0.00    -0.075 A 
ATOM      5  S   UNL d   1      -2.635   5.924  -4.564  0.00  0.00     0.015 SA
ATOM      6  C4  UNL d   1      -2.494   5.984  -2.866  0.00  0.00     0.022 A 
ATOM      7  C5  UNL d   1      -1.182   5.966  -2.457  0.00  0.00     0.026 A 
ATOM      8  C6  UNL d   1      -0.256   5.902  -3.553  0.00  0.00    -0.082 A 
ATOM      9  C7  UNL d   1       1.159   5.866  -3.563  0.00  0.00     0.045 A 
ENDROOT
TORSDOF 0
ENDMDL
