MODEL 1
REMARK minimizedAffinity 7.77073002
REMARK minimizedRMSD -1
REMARK  0 active torsions:
REMARK  status: ('A' for Active; 'I' for Inactive)
ROOT
ATOM      1  C   UNL d   1       1.702   3.154  -4.319  0.00  0.00    -0.002 A 
ATOM      2  C1  UNL d   1       2.262   3.345  -5.575  0.00  0.00     0.010 A 
ATOM      3  C2  UNL d   1       3.589   3.756  -5.705  0.00  0.00     0.041 A 
ATOM      4  C3  UNL d   1       4.354   3.973  -4.542  0.00  0.00    -0.075 A 
ATOM      5  S   UNL d   1       6.000   4.478  -4.459  0.00  0.00     0.015 SA
ATOM      6  C4  UNL d   1       6.000   4.451  -2.755  0.00  0.00     0.022 A 
ATOM      7  C5  UNL d   1       4.781   4.069  -2.245  0.00  0.00     0.026 A 
ATOM      8  C6  UNL d   1       3.813   3.787  -3.267  0.00  0.00    -0.082 A 
ATOM      9  C7  UNL d   1       2.463   3.370  -3.167  0.00  0.00     0.045 A 
ENDROOT
TORSDOF 0
ENDMDL
