MODEL 1
REMARK minimizedAffinity 4.42336845
REMARK minimizedRMSD -1
REMARK  0 active torsions:
REMARK  status: ('A' for Active; 'I' for Inactive)
ROOT
ATOM      1  C   UNL d   1      -3.377  -1.913  -3.467  0.00  0.00    -0.002 A 
ATOM      2  C1  UNL d   1      -2.506  -2.174  -4.515  0.00  0.00     0.010 A 
ATOM      3  C2  UNL d   1      -1.124  -2.139  -4.316  0.00  0.00     0.041 A 
ATOM      4  C3  UNL d   1      -0.628  -1.836  -3.033  0.00  0.00    -0.075 A 
ATOM      5  S   UNL d   1       1.026  -1.737  -2.555  0.00  0.00     0.015 SA
ATOM      6  C4  UNL d   1       0.615  -1.348  -0.947  0.00  0.00     0.022 A 
ATOM      7  C5  UNL d   1      -0.746  -1.290  -0.762  0.00  0.00     0.026 A 
ATOM      8  C6  UNL d   1      -1.485  -1.571  -1.961  0.00  0.00    -0.082 A 
ATOM      9  C7  UNL d   1      -2.881  -1.614  -2.195  0.00  0.00     0.045 A 
ENDROOT
TORSDOF 0
ENDMDL
