MODEL 1
REMARK minimizedAffinity 4.58500385
REMARK minimizedRMSD -1
REMARK  0 active torsions:
REMARK  status: ('A' for Active; 'I' for Inactive)
ROOT
ATOM      1  C   UNL d   1      -1.051   2.022   3.614  0.00  0.00    -0.002 A 
ATOM      2  C1  UNL d   1      -1.760   0.871   3.928  0.00  0.00     0.010 A 
ATOM      3  C2  UNL d   1      -1.798  -0.204   3.038  0.00  0.00     0.041 A 
ATOM      4  C3  UNL d   1      -1.104  -0.103   1.816  0.00  0.00    -0.075 A 
ATOM      5  S   UNL d   1      -1.009  -1.294   0.573  0.00  0.00     0.015 SA
ATOM      6  C4  UNL d   1      -0.024  -0.303  -0.404  0.00  0.00     0.022 A 
ATOM      7  C5  UNL d   1       0.235   0.910   0.189  0.00  0.00     0.026 A 
ATOM      8  C6  UNL d   1      -0.382   1.045   1.478  0.00  0.00    -0.082 A 
ATOM      9  C7  UNL d   1      -0.363   2.119   2.401  0.00  0.00     0.045 A 
ENDROOT
TORSDOF 0
ENDMDL
