MODEL 1
REMARK minimizedAffinity -2.62126637
REMARK minimizedRMSD -1
REMARK  0 active torsions:
REMARK  status: ('A' for Active; 'I' for Inactive)
ROOT
ATOM      1  C   UNL d   1       1.135  -2.336  -0.166  0.00  0.00    -0.002 A 
ATOM      2  C1  UNL d   1       2.263  -1.741  -0.714  0.00  0.00     0.010 A 
ATOM      3  C2  UNL d   1       2.250  -0.392  -1.076  0.00  0.00     0.041 A 
ATOM      4  C3  UNL d   1       1.074   0.356  -0.874  0.00  0.00    -0.075 A 
ATOM      5  S   UNL d   1       0.826   2.023  -1.240  0.00  0.00     0.015 SA
ATOM      6  C4  UNL d   1      -0.782   1.985  -0.676  0.00  0.00     0.022 A 
ATOM      7  C5  UNL d   1      -1.138   0.739  -0.217  0.00  0.00     0.026 A 
ATOM      8  C6  UNL d   1      -0.074  -0.220  -0.322  0.00  0.00    -0.082 A 
ATOM      9  C7  UNL d   1      -0.030  -1.590   0.033  0.00  0.00     0.045 A 
ENDROOT
TORSDOF 0
ENDMDL
