MODEL 1
REMARK minimizedAffinity -3.38683939
REMARK minimizedRMSD -1
REMARK  0 active torsions:
REMARK  status: ('A' for Active; 'I' for Inactive)
ROOT
ATOM      1  C   UNL d   1       2.726  -0.124  -1.682  0.00  0.00    -0.002 A 
ATOM      2  C1  UNL d   1       2.095   1.111  -1.729  0.00  0.00     0.010 A 
ATOM      3  C2  UNL d   1       1.071   1.420  -0.831  0.00  0.00     0.041 A 
ATOM      4  C3  UNL d   1       0.689   0.458   0.124  0.00  0.00    -0.075 A 
ATOM      5  S   UNL d   1      -0.539   0.616   1.324  0.00  0.00     0.015 SA
ATOM      6  C4  UNL d   1      -0.255  -0.952   1.928  0.00  0.00     0.022 A 
ATOM      7  C5  UNL d   1       0.749  -1.595   1.242  0.00  0.00     0.026 A 
ATOM      8  C6  UNL d   1       1.310  -0.792   0.191  0.00  0.00    -0.082 A 
ATOM      9  C7  UNL d   1       2.344  -1.076  -0.733  0.00  0.00     0.045 A 
ENDROOT
TORSDOF 0
ENDMDL
