MODEL 1
REMARK minimizedAffinity -5.06639481
REMARK minimizedRMSD -1
REMARK  0 active torsions:
REMARK  status: ('A' for Active; 'I' for Inactive)
ROOT
ATOM      1  C   UNL d   1       3.128   0.426  -1.015  0.00  0.00    -0.002 A 
ATOM      2  C1  UNL d   1       3.147  -0.939  -1.264  0.00  0.00     0.010 A 
ATOM      3  C2  UNL d   1       1.997  -1.709  -1.083  0.00  0.00     0.041 A 
ATOM      4  C3  UNL d   1       0.816  -1.079  -0.644  0.00  0.00    -0.075 A 
ATOM      5  S   UNL d   1      -0.713  -1.821  -0.353  0.00  0.00     0.015 SA
ATOM      6  C4  UNL d   1      -1.426  -0.344   0.108  0.00  0.00     0.022 A 
ATOM      7  C5  UNL d   1      -0.534   0.701   0.048  0.00  0.00     0.026 A 
ATOM      8  C6  UNL d   1       0.772   0.294  -0.387  0.00  0.00    -0.082 A 
ATOM      9  C7  UNL d   1       1.955   1.048  -0.579  0.00  0.00     0.045 A 
ENDROOT
TORSDOF 0
ENDMDL
