MODEL 1
REMARK minimizedAffinity -3.39508176
REMARK minimizedRMSD -1
REMARK  0 active torsions:
REMARK  status: ('A' for Active; 'I' for Inactive)
ROOT
ATOM      1  C   UNL d   1       1.863  -2.044  -0.374  0.00  0.00    -0.002 A 
ATOM      2  C1  UNL d   1       2.735  -1.117  -0.927  0.00  0.00     0.010 A 
ATOM      3  C2  UNL d   1       2.275   0.140  -1.327  0.00  0.00     0.041 A 
ATOM      4  C3  UNL d   1       0.912   0.452  -1.157  0.00  0.00    -0.075 A 
ATOM      5  S   UNL d   1       0.124   1.929  -1.572  0.00  0.00     0.015 SA
ATOM      6  C4  UNL d   1      -1.387   1.364  -1.023  0.00  0.00     0.022 A 
ATOM      7  C5  UNL d   1      -1.311   0.082  -0.532  0.00  0.00     0.026 A 
ATOM      8  C6  UNL d   1       0.015  -0.464  -0.601  0.00  0.00    -0.082 A 
ATOM      9  C7  UNL d   1       0.512  -1.730  -0.207  0.00  0.00     0.045 A 
ENDROOT
TORSDOF 0
ENDMDL
