MODEL 1
REMARK minimizedAffinity -1.51766288
REMARK minimizedRMSD -1
REMARK  0 active torsions:
REMARK  status: ('A' for Active; 'I' for Inactive)
ROOT
ATOM      1  C   UNL d   1       2.644  -1.224  -1.651  0.00  0.00    -0.002 A 
ATOM      2  C1  UNL d   1       1.535  -2.057  -1.611  0.00  0.00     0.010 A 
ATOM      3  C2  UNL d   1       0.367  -1.654  -0.960  0.00  0.00     0.041 A 
ATOM      4  C3  UNL d   1       0.333  -0.386  -0.345  0.00  0.00    -0.075 A 
ATOM      5  S   UNL d   1      -0.988   0.319   0.509  0.00  0.00     0.015 SA
ATOM      6  C4  UNL d   1      -0.111   1.743   0.839  0.00  0.00     0.022 A 
ATOM      7  C5  UNL d   1       1.160   1.698   0.319  0.00  0.00     0.026 A 
ATOM      8  C6  UNL d   1       1.437   0.470  -0.373  0.00  0.00    -0.082 A 
ATOM      9  C7  UNL d   1       2.606   0.032  -1.041  0.00  0.00     0.045 A 
ENDROOT
TORSDOF 0
ENDMDL
