MODEL 1
REMARK minimizedAffinity -1.61649728
REMARK minimizedRMSD -1
REMARK  0 active torsions:
REMARK  status: ('A' for Active; 'I' for Inactive)
ROOT
ATOM      1  C   UNL d   1      -1.407   1.380  -0.372  0.00  0.00    -0.002 A 
ATOM      2  C1  UNL d   1      -0.397   2.089  -1.008  0.00  0.00     0.010 A 
ATOM      3  C2  UNL d   1       0.836   1.488  -1.270  0.00  0.00     0.041 A 
ATOM      4  C3  UNL d   1       1.038   0.149  -0.881  0.00  0.00    -0.075 A 
ATOM      5  S   UNL d   1       2.465  -0.793  -1.100  0.00  0.00     0.015 SA
ATOM      6  C4  UNL d   1       1.768  -2.158  -0.355  0.00  0.00     0.022 A 
ATOM      7  C5  UNL d   1       0.479  -1.919   0.056  0.00  0.00     0.026 A 
ATOM      8  C6  UNL d   1       0.036  -0.585  -0.240  0.00  0.00    -0.082 A 
ATOM      9  C7  UNL d   1      -1.202   0.053   0.013  0.00  0.00     0.045 A 
ENDROOT
TORSDOF 0
ENDMDL
