MODEL 1
REMARK minimizedAffinity -0.765359044
REMARK minimizedRMSD -1
REMARK  0 active torsions:
REMARK  status: ('A' for Active; 'I' for Inactive)
ROOT
ATOM      1  C   UNL d   1      -1.365   1.124   0.218  0.00  0.00    -0.002 A 
ATOM      2  C1  UNL d   1      -0.638   1.947  -0.630  0.00  0.00     0.010 A 
ATOM      3  C2  UNL d   1       0.544   1.494  -1.218  0.00  0.00     0.041 A 
ATOM      4  C3  UNL d   1       0.987   0.186  -0.938  0.00  0.00    -0.075 A 
ATOM      5  S   UNL d   1       2.405  -0.584  -1.546  0.00  0.00     0.015 SA
ATOM      6  C4  UNL d   1       2.078  -2.024  -0.694  0.00  0.00     0.022 A 
ATOM      7  C5  UNL d   1       0.920  -1.937   0.041  0.00  0.00     0.026 A 
ATOM      8  C6  UNL d   1       0.271  -0.662  -0.088  0.00  0.00    -0.082 A 
ATOM      9  C7  UNL d   1      -0.923  -0.173   0.494  0.00  0.00     0.045 A 
ENDROOT
TORSDOF 0
ENDMDL
