MODEL 1
REMARK minimizedAffinity 20.0919781
REMARK minimizedRMSD -1
REMARK  0 active torsions:
REMARK  status: ('A' for Active; 'I' for Inactive)
ROOT
ATOM      1  C   UNL d   1       2.866   0.078  -1.227  0.00  0.00     0.124 A 
ATOM      2  C1  UNL d   1       1.979  -0.737  -1.917  0.00  0.00     0.062 A 
ATOM      3  C2  UNL d   1       1.949  -2.106  -1.670  0.00  0.00     0.162 A 
ATOM      4  C3  UNL d   1       2.809  -2.670  -0.728  0.00  0.00    -0.034 A 
ATOM      5  C4  UNL d   1       3.700  -1.845  -0.039  0.00  0.00     0.162 A 
ATOM      6  C5  UNL d   1       3.725  -0.476  -0.289  0.00  0.00     0.062 A 
ATOM      7  F   UNL d   1       4.583   0.309   0.379  0.00  0.00    -0.097 F 
ATOM      8  F1  UNL d   1       4.540  -2.354   0.874  0.00  0.00    -0.096 F 
ATOM      9  I   UNL d   1       2.769  -4.718  -0.356  0.00  0.00    -0.060 I 
ATOM     10  F2  UNL d   1       1.082  -2.869  -2.351  0.00  0.00    -0.096 F 
ATOM     11  F3  UNL d   1       1.148  -0.204  -2.824  0.00  0.00    -0.097 F 
ATOM     12  F4  UNL d   1       2.892   1.395  -1.467  0.00  0.00    -0.092 F 
ENDROOT
TORSDOF 0
ENDMDL
