MODEL 1
REMARK minimizedAffinity 12.5219717
REMARK minimizedRMSD -1
REMARK  0 active torsions:
REMARK  status: ('A' for Active; 'I' for Inactive)
ROOT
ATOM      1  C   UNL d   1       3.002  -4.771  -2.383  0.00  0.00     0.124 A 
ATOM      2  C1  UNL d   1       1.840  -4.152  -2.822  0.00  0.00     0.062 A 
ATOM      3  C2  UNL d   1       1.513  -2.876  -2.371  0.00  0.00     0.162 A 
ATOM      4  C3  UNL d   1       2.350  -2.211  -1.475  0.00  0.00    -0.034 A 
ATOM      5  C4  UNL d   1       3.516  -2.840  -1.037  0.00  0.00     0.162 A 
ATOM      6  C5  UNL d   1       3.839  -4.115  -1.492  0.00  0.00     0.062 A 
ATOM      7  F   UNL d   1       4.962  -4.712  -1.067  0.00  0.00    -0.097 F 
ATOM      8  F1  UNL d   1       4.343  -2.229  -0.177  0.00  0.00    -0.096 F 
ATOM      9  I   UNL d   1       1.864  -0.304  -0.798  0.00  0.00    -0.060 I 
ATOM     10  F2  UNL d   1       0.383  -2.302  -2.812  0.00  0.00    -0.096 F 
ATOM     11  F3  UNL d   1       1.029  -4.784  -3.683  0.00  0.00    -0.097 F 
ATOM     12  F4  UNL d   1       3.314  -5.998  -2.819  0.00  0.00    -0.092 F 
ENDROOT
TORSDOF 0
ENDMDL
