MODEL 1
REMARK minimizedAffinity 15.2177448
REMARK minimizedRMSD -1
REMARK  0 active torsions:
REMARK  status: ('A' for Active; 'I' for Inactive)
ROOT
ATOM      1  C   UNL d   1       1.325  -4.016  -1.589  0.00  0.00     0.124 A 
ATOM      2  C1  UNL d   1       0.633  -2.870  -1.958  0.00  0.00     0.062 A 
ATOM      3  C2  UNL d   1       1.127  -1.614  -1.616  0.00  0.00     0.162 A 
ATOM      4  C3  UNL d   1       2.320  -1.497  -0.903  0.00  0.00    -0.034 A 
ATOM      5  C4  UNL d   1       3.009  -2.654  -0.535  0.00  0.00     0.162 A 
ATOM      6  C5  UNL d   1       2.512  -3.907  -0.879  0.00  0.00     0.062 A 
ATOM      7  F   UNL d   1       3.181  -5.012  -0.522  0.00  0.00    -0.097 F 
ATOM      8  F1  UNL d   1       4.159  -2.578   0.151  0.00  0.00    -0.096 F 
ATOM      9  I   UNL d   1       3.061   0.379  -0.390  0.00  0.00    -0.060 I 
ATOM     10  F2  UNL d   1       0.438  -0.524  -1.985  0.00  0.00    -0.096 F 
ATOM     11  F3  UNL d   1      -0.514  -2.972  -2.644  0.00  0.00    -0.097 F 
ATOM     12  F4  UNL d   1       0.847  -5.223  -1.918  0.00  0.00    -0.092 F 
ENDROOT
TORSDOF 0
ENDMDL
