MODEL 1
REMARK minimizedAffinity 20.9624367
REMARK minimizedRMSD -1
REMARK  0 active torsions:
REMARK  status: ('A' for Active; 'I' for Inactive)
ROOT
ATOM      1  C   UNL d   1       0.765  -4.480  -1.686  0.00  0.00     0.124 A 
ATOM      2  C1  UNL d   1       0.016  -3.336  -1.927  0.00  0.00     0.062 A 
ATOM      3  C2  UNL d   1       0.545  -2.080  -1.644  0.00  0.00     0.162 A 
ATOM      4  C3  UNL d   1       1.831  -1.961  -1.117  0.00  0.00    -0.034 A 
ATOM      5  C4  UNL d   1       2.578  -3.115  -0.876  0.00  0.00     0.162 A 
ATOM      6  C5  UNL d   1       2.044  -4.368  -1.161  0.00  0.00     0.062 A 
ATOM      7  F   UNL d   1       2.770  -5.472  -0.927  0.00  0.00    -0.097 F 
ATOM      8  F1  UNL d   1       3.817  -3.037  -0.370  0.00  0.00    -0.096 F 
ATOM      9  I   UNL d   1       2.625  -0.085  -0.691  0.00  0.00    -0.060 I 
ATOM     10  F2  UNL d   1      -0.201  -0.993  -1.887  0.00  0.00    -0.096 F 
ATOM     11  F3  UNL d   1      -1.221  -3.441  -2.434  0.00  0.00    -0.097 F 
ATOM     12  F4  UNL d   1       0.253  -5.687  -1.959  0.00  0.00    -0.092 F 
ENDROOT
TORSDOF 0
ENDMDL
