MODEL 1
REMARK minimizedAffinity 21.8144073
REMARK minimizedRMSD -1
REMARK  0 active torsions:
REMARK  status: ('A' for Active; 'I' for Inactive)
ROOT
ATOM      1  C   UNL d   1       2.247  -2.167  -3.640  0.00  0.00     0.124 A 
ATOM      2  C1  UNL d   1       2.716  -2.666  -2.433  0.00  0.00     0.062 A 
ATOM      3  C2  UNL d   1       3.738  -3.610  -2.416  0.00  0.00     0.162 A 
ATOM      4  C3  UNL d   1       4.300  -4.061  -3.610  0.00  0.00    -0.034 A 
ATOM      5  C4  UNL d   1       3.822  -3.555  -4.820  0.00  0.00     0.162 A 
ATOM      6  C5  UNL d   1       2.800  -2.612  -4.832  0.00  0.00     0.062 A 
ATOM      7  F   UNL d   1       2.348  -2.131  -6.000  0.00  0.00    -0.097 F 
ATOM      8  F1  UNL d   1       4.340  -3.967  -5.987  0.00  0.00    -0.096 F 
ATOM      9  I   UNL d   1       5.829  -5.473  -3.589  0.00  0.00    -0.060 I 
ATOM     10  F2  UNL d   1       4.172  -4.075  -1.234  0.00  0.00    -0.096 F 
ATOM     11  F3  UNL d   1       2.182  -2.239  -1.280  0.00  0.00    -0.097 F 
ATOM     12  F4  UNL d   1       1.262  -1.259  -3.654  0.00  0.00    -0.092 F 
ENDROOT
TORSDOF 0
ENDMDL
