MODEL 1
REMARK minimizedAffinity 10.3239355
REMARK minimizedRMSD -1
REMARK  0 active torsions:
REMARK  status: ('A' for Active; 'I' for Inactive)
ROOT
ATOM      1  C   UNL d   1       3.076  -3.302  -0.373  0.00  0.00     0.124 A 
ATOM      2  C1  UNL d   1       4.121  -2.418  -0.143  0.00  0.00     0.062 A 
ATOM      3  C2  UNL d   1       3.984  -1.072  -0.469  0.00  0.00     0.162 A 
ATOM      4  C3  UNL d   1       2.795  -0.601  -1.027  0.00  0.00    -0.034 A 
ATOM      5  C4  UNL d   1       1.749  -1.496  -1.256  0.00  0.00     0.162 A 
ATOM      6  C5  UNL d   1       1.892  -2.841  -0.929  0.00  0.00     0.062 A 
ATOM      7  F   UNL d   1       0.881  -3.694  -1.152  0.00  0.00    -0.097 F 
ATOM      8  F1  UNL d   1       0.593  -1.077  -1.791  0.00  0.00    -0.096 F 
ATOM      9  I   UNL d   1       2.585   1.411  -1.515  0.00  0.00    -0.060 I 
ATOM     10  F2  UNL d   1       5.010  -0.240  -0.236  0.00  0.00    -0.096 F 
ATOM     11  F3  UNL d   1       5.268  -2.862   0.393  0.00  0.00    -0.097 F 
ATOM     12  F4  UNL d   1       3.212  -4.597  -0.060  0.00  0.00    -0.092 F 
ENDROOT
TORSDOF 0
ENDMDL
