MODEL 1
REMARK minimizedAffinity 24.4114571
REMARK minimizedRMSD -1
REMARK  0 active torsions:
REMARK  status: ('A' for Active; 'I' for Inactive)
ROOT
ATOM      1  C   UNL d   1      -4.350  -5.832   0.419  0.00  0.00     0.124 A 
ATOM      2  C1  UNL d   1      -4.714  -5.832  -0.920  0.00  0.00     0.062 A 
ATOM      3  C2  UNL d   1      -3.750  -5.656  -1.908  0.00  0.00     0.162 A 
ATOM      4  C3  UNL d   1      -2.411  -5.481  -1.561  0.00  0.00    -0.034 A 
ATOM      5  C4  UNL d   1      -2.051  -5.481  -0.212  0.00  0.00     0.162 A 
ATOM      6  C5  UNL d   1      -3.019  -5.657   0.772  0.00  0.00     0.062 A 
ATOM      7  F   UNL d   1      -2.664  -5.657   2.065  0.00  0.00    -0.097 F 
ATOM      8  F1  UNL d   1      -0.772  -5.315   0.157  0.00  0.00    -0.096 F 
ATOM      9  I   UNL d   1      -0.966  -5.219  -3.036  0.00  0.00    -0.060 I 
ATOM     10  F2  UNL d   1      -4.131  -5.661  -3.194  0.00  0.00    -0.096 F 
ATOM     11  F3  UNL d   1      -6.000  -6.000  -1.263  0.00  0.00    -0.097 F 
ATOM     12  F4  UNL d   1      -5.280  -6.000   1.368  0.00  0.00    -0.092 F 
ENDROOT
TORSDOF 0
ENDMDL
