MODEL 1
REMARK minimizedAffinity 19.4872513
REMARK minimizedRMSD -1
REMARK  0 active torsions:
REMARK  status: ('A' for Active; 'I' for Inactive)
ROOT
ATOM      1  C   UNL d   1       3.816  -1.619  -0.256  0.00  0.00     0.124 A 
ATOM      2  C1  UNL d   1       3.957  -0.265  -0.529  0.00  0.00     0.062 A 
ATOM      3  C2  UNL d   1       3.021   0.390  -1.324  0.00  0.00     0.162 A 
ATOM      4  C3  UNL d   1       1.935  -0.307  -1.852  0.00  0.00    -0.034 A 
ATOM      5  C4  UNL d   1       1.801  -1.669  -1.574  0.00  0.00     0.162 A 
ATOM      6  C5  UNL d   1       2.739  -2.319  -0.779  0.00  0.00     0.062 A 
ATOM      7  F   UNL d   1       2.601  -3.627  -0.517  0.00  0.00    -0.097 F 
ATOM      8  F1  UNL d   1       0.768  -2.370  -2.066  0.00  0.00    -0.096 F 
ATOM      9  I   UNL d   1       0.533   0.669  -3.041  0.00  0.00    -0.060 I 
ATOM     10  F2  UNL d   1       3.183   1.699  -1.570  0.00  0.00    -0.096 F 
ATOM     11  F3  UNL d   1       4.998   0.414  -0.025  0.00  0.00    -0.097 F 
ATOM     12  F4  UNL d   1       4.719  -2.247   0.508  0.00  0.00    -0.092 F 
ENDROOT
TORSDOF 0
ENDMDL
