MODEL 1
REMARK minimizedAffinity 11.3271303
REMARK minimizedRMSD -1
REMARK  0 active torsions:
REMARK  status: ('A' for Active; 'I' for Inactive)
ROOT
ATOM      1  C   UNL d   1       2.309  -3.417  -1.383  0.00  0.00     0.124 A 
ATOM      2  C1  UNL d   1       1.516  -2.402  -1.900  0.00  0.00     0.062 A 
ATOM      3  C2  UNL d   1       0.446  -1.904  -1.161  0.00  0.00     0.162 A 
ATOM      4  C3  UNL d   1       0.164  -2.420   0.104  0.00  0.00    -0.034 A 
ATOM      5  C4  UNL d   1       0.966  -3.441   0.617  0.00  0.00     0.162 A 
ATOM      6  C5  UNL d   1       2.034  -3.935  -0.126  0.00  0.00     0.062 A 
ATOM      7  F   UNL d   1       2.799  -4.916   0.375  0.00  0.00    -0.097 F 
ATOM      8  F1  UNL d   1       0.723  -3.960   1.829  0.00  0.00    -0.096 F 
ATOM      9  I   UNL d   1      -1.434  -1.678   1.212  0.00  0.00    -0.060 I 
ATOM     10  F2  UNL d   1      -0.303  -0.923  -1.685  0.00  0.00    -0.096 F 
ATOM     11  F3  UNL d   1       1.779  -1.900  -3.115  0.00  0.00    -0.097 F 
ATOM     12  F4  UNL d   1       3.337  -3.894  -2.097  0.00  0.00    -0.092 F 
ENDROOT
TORSDOF 0
ENDMDL
