MODEL 1
REMARK minimizedAffinity 23.7260742
REMARK minimizedRMSD -1
REMARK  0 active torsions:
REMARK  status: ('A' for Active; 'I' for Inactive)
ROOT
ATOM      1  C   UNL d   1       2.983  -0.989  -0.873  0.00  0.00     0.124 A 
ATOM      2  C1  UNL d   1       3.112   0.385  -1.020  0.00  0.00     0.062 A 
ATOM      3  C2  UNL d   1       2.185   1.098  -1.775  0.00  0.00     0.162 A 
ATOM      4  C3  UNL d   1       1.121   0.439  -2.389  0.00  0.00    -0.034 A 
ATOM      5  C4  UNL d   1       0.998  -0.944  -2.237  0.00  0.00     0.162 A 
ATOM      6  C5  UNL d   1       1.927  -1.652  -1.482  0.00  0.00     0.062 A 
ATOM      7  F   UNL d   1       1.800  -2.980  -1.341  0.00  0.00    -0.097 F 
ATOM      8  F1  UNL d   1      -0.014  -1.610  -2.814  0.00  0.00    -0.096 F 
ATOM      9  I   UNL d   1      -0.267   1.501  -3.519  0.00  0.00    -0.060 I 
ATOM     10  F2  UNL d   1       2.335   2.425  -1.900  0.00  0.00    -0.096 F 
ATOM     11  F3  UNL d   1       4.132   1.028  -0.434  0.00  0.00    -0.097 F 
ATOM     12  F4  UNL d   1       3.876  -1.673  -0.147  0.00  0.00    -0.092 F 
ENDROOT
TORSDOF 0
ENDMDL
