MODEL 1
REMARK minimizedAffinity 18.8193932
REMARK minimizedRMSD -1
REMARK  0 active torsions:
REMARK  status: ('A' for Active; 'I' for Inactive)
ROOT
ATOM      1  C   UNL d   1      -3.158   0.596   2.612  0.00  0.00     0.124 A 
ATOM      2  C1  UNL d   1      -3.748   1.262   3.677  0.00  0.00     0.062 A 
ATOM      3  C2  UNL d   1      -2.957   1.873   4.646  0.00  0.00     0.162 A 
ATOM      4  C3  UNL d   1      -1.566   1.821   4.553  0.00  0.00    -0.034 A 
ATOM      5  C4  UNL d   1      -0.979   1.148   3.480  0.00  0.00     0.162 A 
ATOM      6  C5  UNL d   1      -1.775   0.539   2.515  0.00  0.00     0.062 A 
ATOM      7  F   UNL d   1      -1.203  -0.105   1.486  0.00  0.00    -0.097 F 
ATOM      8  F1  UNL d   1       0.355   1.079   3.361  0.00  0.00    -0.096 F 
ATOM      9  I   UNL d   1      -0.379   2.733   6.000  0.00  0.00    -0.060 I 
ATOM     10  F2  UNL d   1      -3.554   2.510   5.664  0.00  0.00    -0.096 F 
ATOM     11  F3  UNL d   1      -5.084   1.318   3.774  0.00  0.00    -0.097 F 
ATOM     12  F4  UNL d   1      -3.922   0.008   1.682  0.00  0.00    -0.092 F 
ENDROOT
TORSDOF 0
ENDMDL
