MODEL 1
REMARK minimizedAffinity 19.2545891
REMARK minimizedRMSD -1
REMARK  0 active torsions:
REMARK  status: ('A' for Active; 'I' for Inactive)
ROOT
ATOM      1  C   UNL d   1      -4.658  -3.689  -5.513  0.00  0.00     0.124 A 
ATOM      2  C1  UNL d   1      -3.911  -4.859  -5.548  0.00  0.00     0.062 A 
ATOM      3  C2  UNL d   1      -2.581  -4.852  -5.136  0.00  0.00     0.162 A 
ATOM      4  C3  UNL d   1      -1.990  -3.671  -4.685  0.00  0.00    -0.034 A 
ATOM      5  C4  UNL d   1      -2.748  -2.499  -4.655  0.00  0.00     0.162 A 
ATOM      6  C5  UNL d   1      -4.076  -2.511  -5.067  0.00  0.00     0.062 A 
ATOM      7  F   UNL d   1      -4.797  -1.381  -5.033  0.00  0.00    -0.097 F 
ATOM      8  F1  UNL d   1      -2.211  -1.347  -4.227  0.00  0.00    -0.096 F 
ATOM      9  I   UNL d   1      -0.002  -3.657  -4.069  0.00  0.00    -0.060 I 
ATOM     10  F2  UNL d   1      -1.883  -5.996  -5.180  0.00  0.00    -0.096 F 
ATOM     11  F3  UNL d   1      -4.470  -5.998  -5.979  0.00  0.00    -0.097 F 
ATOM     12  F4  UNL d   1      -5.937  -3.699  -5.911  0.00  0.00    -0.092 F 
ENDROOT
TORSDOF 0
ENDMDL
