MODEL 1
REMARK minimizedAffinity 20.8692112
REMARK minimizedRMSD -1
REMARK  0 active torsions:
REMARK  status: ('A' for Active; 'I' for Inactive)
ROOT
ATOM      1  C   UNL d   1       2.665   1.063  -0.209  0.00  0.00     0.124 A 
ATOM      2  C1  UNL d   1       2.887  -0.227  -0.671  0.00  0.00     0.062 A 
ATOM      3  C2  UNL d   1       2.565  -0.566  -1.982  0.00  0.00     0.162 A 
ATOM      4  C3  UNL d   1       2.018   0.388  -2.841  0.00  0.00    -0.034 A 
ATOM      5  C4  UNL d   1       1.796   1.682  -2.369  0.00  0.00     0.162 A 
ATOM      6  C5  UNL d   1       2.120   2.016  -1.057  0.00  0.00     0.062 A 
ATOM      7  F   UNL d   1       1.904   3.262  -0.612  0.00  0.00    -0.097 F 
ATOM      8  F1  UNL d   1       1.272   2.623  -3.168  0.00  0.00    -0.096 F 
ATOM      9  I   UNL d   1       1.536  -0.115  -4.803  0.00  0.00    -0.060 I 
ATOM     10  F2  UNL d   1       2.791  -1.819  -2.403  0.00  0.00    -0.096 F 
ATOM     11  F3  UNL d   1       3.413  -1.150   0.147  0.00  0.00    -0.097 F 
ATOM     12  F4  UNL d   1       2.974   1.385   1.054  0.00  0.00    -0.092 F 
ENDROOT
TORSDOF 0
ENDMDL
