MODEL 1
REMARK minimizedAffinity 13.0553818
REMARK minimizedRMSD -1
REMARK  0 active torsions:
REMARK  status: ('A' for Active; 'I' for Inactive)
ROOT
ATOM      1  C   UNL d   1       2.893  -2.678  -0.647  0.00  0.00     0.124 A 
ATOM      2  C1  UNL d   1       1.933  -1.742  -1.007  0.00  0.00     0.062 A 
ATOM      3  C2  UNL d   1       0.695  -2.159  -1.488  0.00  0.00     0.162 A 
ATOM      4  C3  UNL d   1       0.408  -3.518  -1.610  0.00  0.00    -0.034 A 
ATOM      5  C4  UNL d   1       1.379  -4.454  -1.247  0.00  0.00     0.162 A 
ATOM      6  C5  UNL d   1       2.615  -4.033  -0.768  0.00  0.00     0.062 A 
ATOM      7  F   UNL d   1       3.541  -4.938  -0.420  0.00  0.00    -0.097 F 
ATOM      8  F1  UNL d   1       1.137  -5.769  -1.352  0.00  0.00    -0.096 F 
ATOM      9  I   UNL d   1      -1.442  -4.145  -2.328  0.00  0.00    -0.060 I 
ATOM     10  F2  UNL d   1      -0.214  -1.232  -1.828  0.00  0.00    -0.096 F 
ATOM     11  F3  UNL d   1       2.199  -0.433  -0.893  0.00  0.00    -0.097 F 
ATOM     12  F4  UNL d   1       4.084  -2.275  -0.187  0.00  0.00    -0.092 F 
ENDROOT
TORSDOF 0
ENDMDL
