MODEL 1
REMARK minimizedAffinity 17.5030117
REMARK minimizedRMSD -1
REMARK  0 active torsions:
REMARK  status: ('A' for Active; 'I' for Inactive)
ROOT
ATOM      1  C   UNL d   1       0.787  -1.791  -2.609  0.00  0.00     0.124 A 
ATOM      2  C1  UNL d   1       1.172  -2.401  -1.424  0.00  0.00     0.062 A 
ATOM      3  C2  UNL d   1       2.035  -1.748  -0.549  0.00  0.00     0.162 A 
ATOM      4  C3  UNL d   1       2.519  -0.476  -0.855  0.00  0.00    -0.034 A 
ATOM      5  C4  UNL d   1       2.128   0.131  -2.050  0.00  0.00     0.162 A 
ATOM      6  C5  UNL d   1       1.265  -0.526  -2.921  0.00  0.00     0.062 A 
ATOM      7  F   UNL d   1       0.894   0.065  -4.066  0.00  0.00    -0.097 F 
ATOM      8  F1  UNL d   1       2.574   1.353  -2.376  0.00  0.00    -0.096 F 
ATOM      9  I   UNL d   1       3.810   0.503   0.451  0.00  0.00    -0.060 I 
ATOM     10  F2  UNL d   1       2.391  -2.362   0.590  0.00  0.00    -0.096 F 
ATOM     11  F3  UNL d   1       0.712  -3.624  -1.120  0.00  0.00    -0.097 F 
ATOM     12  F4  UNL d   1      -0.043  -2.422  -3.450  0.00  0.00    -0.092 F 
ENDROOT
TORSDOF 0
ENDMDL
