MODEL 1
REMARK minimizedAffinity 18.1940041
REMARK minimizedRMSD -1
REMARK  0 active torsions:
REMARK  status: ('A' for Active; 'I' for Inactive)
ROOT
ATOM      1  C   UNL d   1       2.762  -2.956  -0.442  0.00  0.00     0.124 A 
ATOM      2  C1  UNL d   1       1.971  -1.886  -0.835  0.00  0.00     0.062 A 
ATOM      3  C2  UNL d   1       0.725  -2.112  -1.412  0.00  0.00     0.162 A 
ATOM      4  C3  UNL d   1       0.261  -3.414  -1.600  0.00  0.00    -0.034 A 
ATOM      5  C4  UNL d   1       1.063  -4.485  -1.203  0.00  0.00     0.162 A 
ATOM      6  C5  UNL d   1       2.308  -4.255  -0.626  0.00  0.00     0.062 A 
ATOM      7  F   UNL d   1       3.071  -5.290  -0.247  0.00  0.00    -0.097 F 
ATOM      8  F1  UNL d   1       0.648  -5.750  -1.368  0.00  0.00    -0.096 F 
ATOM      9  I   UNL d   1      -1.601  -3.755  -2.463  0.00  0.00    -0.060 I 
ATOM     10  F2  UNL d   1      -0.019  -1.058  -1.783  0.00  0.00    -0.096 F 
ATOM     11  F3  UNL d   1       2.408  -0.631  -0.659  0.00  0.00    -0.097 F 
ATOM     12  F4  UNL d   1       3.962  -2.736   0.112  0.00  0.00    -0.092 F 
ENDROOT
TORSDOF 0
ENDMDL
