MODEL 1
REMARK minimizedAffinity 11.7717857
REMARK minimizedRMSD -1
REMARK  0 active torsions:
REMARK  status: ('A' for Active; 'I' for Inactive)
ROOT
ATOM      1  C   UNL d   1       2.971  -2.421  -0.350  0.00  0.00     0.124 A 
ATOM      2  C1  UNL d   1       2.701  -3.758  -0.610  0.00  0.00     0.062 A 
ATOM      3  C2  UNL d   1       1.493  -4.127  -1.194  0.00  0.00     0.162 A 
ATOM      4  C3  UNL d   1       0.545  -3.158  -1.524  0.00  0.00    -0.034 A 
ATOM      5  C4  UNL d   1       0.823  -1.816  -1.258  0.00  0.00     0.162 A 
ATOM      6  C5  UNL d   1       2.032  -1.452  -0.674  0.00  0.00     0.062 A 
ATOM      7  F   UNL d   1       2.290  -0.160  -0.424  0.00  0.00    -0.097 F 
ATOM      8  F1  UNL d   1      -0.066  -0.859  -1.562  0.00  0.00    -0.096 F 
ATOM      9  I   UNL d   1      -1.262  -3.707  -2.398  0.00  0.00    -0.060 I 
ATOM     10  F2  UNL d   1       1.259  -5.426  -1.434  0.00  0.00    -0.096 F 
ATOM     11  F3  UNL d   1       3.606  -4.696  -0.297  0.00  0.00    -0.097 F 
ATOM     12  F4  UNL d   1       4.133  -2.068   0.213  0.00  0.00    -0.092 F 
ENDROOT
TORSDOF 0
ENDMDL
