MODEL 1
REMARK minimizedAffinity 6.39982986
REMARK minimizedRMSD -1
REMARK  1 active torsions:
REMARK  status: ('A' for Active; 'I' for Inactive)
REMARK    1  A    between atoms: C1_2  and  C2_3 
ROOT
ATOM      1  C2  UNL d   1      -3.137   3.701   3.377  0.00  0.00    -0.073 A 
ATOM      2  C3  UNL d   1      -3.592   4.799   4.116  0.00  0.00    -0.002 A 
ATOM      3  C4  UNL d   1      -4.054   5.943   3.465  0.00  0.00     0.004 A 
ATOM      4  C5  UNL d   1      -4.073   6.000   2.072  0.00  0.00    -0.004 A 
ATOM      5  C6  UNL d   1      -3.633   4.908   1.316  0.00  0.00    -0.075 A 
ATOM      6  C7  UNL d   1      -3.644   4.954  -0.184  0.00  0.00     0.076 C 
ATOM      7  C8  UNL d   1      -3.168   3.763   1.976  0.00  0.00     0.001 A 
ENDROOT
BRANCH   1   8
ATOM      8  C1  UNL d   1      -2.643   2.460   4.075  0.00  0.00     0.053 C 
ATOM      9  C   UNL d   1      -3.700   1.368   4.114  0.00  0.00     0.018 C 
ENDBRANCH   1   8
TORSDOF 1
ENDMDL
