MODEL 1
REMARK minimizedAffinity 6.71886778
REMARK minimizedRMSD -1
REMARK  1 active torsions:
REMARK  status: ('A' for Active; 'I' for Inactive)
REMARK    1  A    between atoms: C1_2  and  C2_3 
ROOT
ATOM      1  C2  UNL d   1       0.510  -3.881   0.961  0.00  0.00    -0.073 A 
ATOM      2  C3  UNL d   1       1.655  -3.131   1.255  0.00  0.00    -0.002 A 
ATOM      3  C4  UNL d   1       1.902  -1.931   0.587  0.00  0.00     0.004 A 
ATOM      4  C5  UNL d   1       1.005  -1.465  -0.375  0.00  0.00    -0.004 A 
ATOM      5  C6  UNL d   1      -0.151  -2.195  -0.673  0.00  0.00    -0.075 A 
ATOM      6  C7  UNL d   1      -1.125  -1.709  -1.706  0.00  0.00     0.076 C 
ATOM      7  C8  UNL d   1      -0.390  -3.400  -0.000  0.00  0.00     0.001 A 
ENDROOT
BRANCH   1   8
ATOM      8  C1  UNL d   1       0.237  -5.174   1.685  0.00  0.00     0.053 C 
ATOM      9  C   UNL d   1       1.499  -6.000   1.873  0.00  0.00     0.018 C 
ENDBRANCH   1   8
TORSDOF 1
ENDMDL
