MODEL 1
REMARK minimizedAffinity 6.93108845
REMARK minimizedRMSD -1
REMARK  1 active torsions:
REMARK  status: ('A' for Active; 'I' for Inactive)
REMARK    1  A    between atoms: C1_2  and  C2_3 
ROOT
ATOM      1  C2  UNL d   1      -3.893   1.128   4.953  0.00  0.00    -0.073 A 
ATOM      2  C3  UNL d   1      -2.714   0.375   4.915  0.00  0.00    -0.002 A 
ATOM      3  C4  UNL d   1      -2.537  -0.607   3.940  0.00  0.00     0.004 A 
ATOM      4  C5  UNL d   1      -3.531  -0.842   2.990  0.00  0.00    -0.004 A 
ATOM      5  C6  UNL d   1      -4.711  -0.091   3.005  0.00  0.00    -0.075 A 
ATOM      6  C7  UNL d   1      -5.792  -0.333   1.992  0.00  0.00     0.076 C 
ATOM      7  C8  UNL d   1      -4.883   0.892   3.989  0.00  0.00     0.001 A 
ENDROOT
BRANCH   1   8
ATOM      8  C1  UNL d   1      -4.087   2.195   6.000  0.00  0.00     0.053 C 
ATOM      9  C   UNL d   1      -4.396   3.550   5.383  0.00  0.00     0.018 C 
ENDBRANCH   1   8
TORSDOF 1
ENDMDL
