MODEL 1
REMARK minimizedAffinity 1.34121597
REMARK minimizedRMSD -1
REMARK  1 active torsions:
REMARK  status: ('A' for Active; 'I' for Inactive)
REMARK    1  A    between atoms: C1_2  and  C2_3 
ROOT
ATOM      1  C2  UNL d   1       1.703   0.747  -3.816  0.00  0.00    -0.073 A 
ATOM      2  C3  UNL d   1       1.027   1.907  -3.421  0.00  0.00    -0.002 A 
ATOM      3  C4  UNL d   1       0.393   1.966  -2.179  0.00  0.00     0.004 A 
ATOM      4  C5  UNL d   1       0.435   0.870  -1.317  0.00  0.00    -0.004 A 
ATOM      5  C6  UNL d   1       1.116  -0.294  -1.689  0.00  0.00    -0.075 A 
ATOM      6  C7  UNL d   1       1.168  -1.482  -0.774  0.00  0.00     0.076 C 
ATOM      7  C8  UNL d   1       1.748  -0.346  -2.938  0.00  0.00     0.001 A 
ENDROOT
BRANCH   1   8
ATOM      8  C1  UNL d   1       2.395   0.682  -5.153  0.00  0.00     0.053 C 
ATOM      9  C   UNL d   1       3.837   1.156  -5.073  0.00  0.00     0.018 C 
ENDBRANCH   1   8
TORSDOF 1
ENDMDL
