MODEL 1
REMARK minimizedAffinity 2.86271811
REMARK minimizedRMSD -1
REMARK  1 active torsions:
REMARK  status: ('A' for Active; 'I' for Inactive)
REMARK    1  A    between atoms: C1_2  and  C2_3 
ROOT
ATOM      1  C2  UNL d   1       0.987  -0.577  -1.935  0.00  0.00    -0.073 A 
ATOM      2  C3  UNL d   1       0.979  -1.875  -1.410  0.00  0.00    -0.002 A 
ATOM      3  C4  UNL d   1       1.186  -2.974  -2.244  0.00  0.00     0.004 A 
ATOM      4  C5  UNL d   1       1.409  -2.788  -3.609  0.00  0.00    -0.004 A 
ATOM      5  C6  UNL d   1       1.432  -1.499  -4.150  0.00  0.00    -0.075 A 
ATOM      6  C7  UNL d   1       1.669  -1.282  -5.616  0.00  0.00     0.076 C 
ATOM      7  C8  UNL d   1       1.221  -0.400  -3.306  0.00  0.00     0.001 A 
ENDROOT
BRANCH   1   8
ATOM      8  C1  UNL d   1       0.770   0.613  -1.037  0.00  0.00     0.053 C 
ATOM      9  C   UNL d   1       0.331   1.843  -1.817  0.00  0.00     0.018 C 
ENDBRANCH   1   8
TORSDOF 1
ENDMDL
