MODEL 1
REMARK minimizedAffinity -0.760434985
REMARK minimizedRMSD -1
REMARK  1 active torsions:
REMARK  status: ('A' for Active; 'I' for Inactive)
REMARK    1  A    between atoms: C1_2  and  C2_3 
ROOT
ATOM      1  C2  UNL d   1       0.514  -1.205  -1.261  0.00  0.00    -0.073 A 
ATOM      2  C3  UNL d   1       0.021  -0.035  -0.672  0.00  0.00    -0.002 A 
ATOM      3  C4  UNL d   1       0.361   1.214  -1.194  0.00  0.00     0.004 A 
ATOM      4  C5  UNL d   1       1.189   1.306  -2.312  0.00  0.00    -0.004 A 
ATOM      5  C6  UNL d   1       1.682   0.148  -2.922  0.00  0.00    -0.075 A 
ATOM      6  C7  UNL d   1       2.576   0.229  -4.125  0.00  0.00     0.076 C 
ATOM      7  C8  UNL d   1       1.338  -1.103  -2.391  0.00  0.00     0.001 A 
ENDROOT
BRANCH   1   8
ATOM      8  C1  UNL d   1       0.144  -2.556  -0.705  0.00  0.00     0.053 C 
ATOM      9  C   UNL d   1      -0.987  -2.466   0.306  0.00  0.00     0.018 C 
ENDBRANCH   1   8
TORSDOF 1
ENDMDL
