MODEL 1
REMARK minimizedAffinity 9.15218544
REMARK minimizedRMSD -1
REMARK  1 active torsions:
REMARK  status: ('A' for Active; 'I' for Inactive)
REMARK    1  A    between atoms: C1_2  and  C2_3 
ROOT
ATOM      1  C2  UNL d   1       5.098   2.693  -4.812  0.00  0.00    -0.073 A 
ATOM      2  C3  UNL d   1       4.515   3.149  -6.000  0.00  0.00    -0.002 A 
ATOM      3  C4  UNL d   1       3.685   4.271  -5.992  0.00  0.00     0.004 A 
ATOM      4  C5  UNL d   1       3.436   4.952  -4.801  0.00  0.00    -0.004 A 
ATOM      5  C6  UNL d   1       4.019   4.519  -3.606  0.00  0.00    -0.075 A 
ATOM      6  C7  UNL d   1       3.760   5.239  -2.315  0.00  0.00     0.076 C 
ATOM      7  C8  UNL d   1       4.849   3.390  -3.621  0.00  0.00     0.001 A 
ENDROOT
BRANCH   1   8
ATOM      8  C1  UNL d   1       6.000   1.486  -4.817  0.00  0.00     0.053 C 
ATOM      9  C   UNL d   1       5.650   0.518  -5.935  0.00  0.00     0.018 C 
ENDBRANCH   1   8
TORSDOF 1
ENDMDL
