MODEL 1
REMARK minimizedAffinity 5.28513718
REMARK minimizedRMSD -1
REMARK  1 active torsions:
REMARK  status: ('A' for Active; 'I' for Inactive)
REMARK    1  A    between atoms: C1_2  and  C2_3 
ROOT
ATOM      1  C2  UNL d   1       5.207   3.133  -5.271  0.00  0.00    -0.073 A 
ATOM      2  C3  UNL d   1       5.710   3.754  -4.122  0.00  0.00    -0.002 A 
ATOM      3  C4  UNL d   1       4.971   4.745  -3.475  0.00  0.00     0.004 A 
ATOM      4  C5  UNL d   1       3.719   5.119  -3.965  0.00  0.00    -0.004 A 
ATOM      5  C6  UNL d   1       3.194   4.501  -5.104  0.00  0.00    -0.075 A 
ATOM      6  C7  UNL d   1       1.850   4.894  -5.645  0.00  0.00     0.076 C 
ATOM      7  C8  UNL d   1       3.944   3.509  -5.750  0.00  0.00     0.001 A 
ENDROOT
BRANCH   1   8
ATOM      8  C1  UNL d   1       5.999   2.058  -5.969  0.00  0.00     0.053 C 
ATOM      9  C   UNL d   1       6.000   0.753  -5.189  0.00  0.00     0.018 C 
ENDBRANCH   1   8
TORSDOF 1
ENDMDL
