MODEL 1
REMARK minimizedAffinity -1.09312296
REMARK minimizedRMSD -1
REMARK  1 active torsions:
REMARK  status: ('A' for Active; 'I' for Inactive)
REMARK    1  A    between atoms: C1_2  and  C2_3 
ROOT
ATOM      1  C2  UNL d   1       3.354   2.878  -5.598  0.00  0.00    -0.073 A 
ATOM      2  C3  UNL d   1       4.112   3.808  -4.877  0.00  0.00    -0.002 A 
ATOM      3  C4  UNL d   1       5.427   3.516  -4.513  0.00  0.00     0.004 A 
ATOM      4  C5  UNL d   1       6.000   2.296  -4.872  0.00  0.00    -0.004 A 
ATOM      5  C6  UNL d   1       5.263   1.359  -5.603  0.00  0.00    -0.075 A 
ATOM      6  C7  UNL d   1       5.864   0.041  -5.995  0.00  0.00     0.076 C 
ATOM      7  C8  UNL d   1       3.942   1.659  -5.962  0.00  0.00     0.001 A 
ENDROOT
BRANCH   1   8
ATOM      8  C1  UNL d   1       1.936   3.192  -5.999  0.00  0.00     0.053 C 
ATOM      9  C   UNL d   1       1.661   4.688  -6.000  0.00  0.00     0.018 C 
ENDBRANCH   1   8
TORSDOF 1
ENDMDL
