MODEL 1
REMARK minimizedAffinity 6.02235365
REMARK minimizedRMSD -1
REMARK  1 active torsions:
REMARK  status: ('A' for Active; 'I' for Inactive)
REMARK    1  A    between atoms: C1_2  and  C2_3 
ROOT
ATOM      1  C2  UNL d   1       0.396  -0.897  -0.623  0.00  0.00    -0.073 A 
ATOM      2  C3  UNL d   1       0.420   0.423  -1.087  0.00  0.00    -0.002 A 
ATOM      3  C4  UNL d   1       0.773   0.700  -2.409  0.00  0.00     0.004 A 
ATOM      4  C5  UNL d   1       1.098  -0.339  -3.281  0.00  0.00    -0.004 A 
ATOM      5  C6  UNL d   1       1.069  -1.666  -2.839  0.00  0.00    -0.075 A 
ATOM      6  C7  UNL d   1       1.419  -2.794  -3.764  0.00  0.00     0.076 C 
ATOM      7  C8  UNL d   1       0.716  -1.935  -1.510  0.00  0.00     0.001 A 
ENDROOT
BRANCH   1   8
ATOM      8  C1  UNL d   1       0.010  -1.201   0.801  0.00  0.00     0.053 C 
ATOM      9  C   UNL d   1      -0.958  -2.371   0.892  0.00  0.00     0.018 C 
ENDBRANCH   1   8
TORSDOF 1
ENDMDL
