MODEL 1
REMARK minimizedAffinity -1.55628896
REMARK minimizedRMSD -1
REMARK  1 active torsions:
REMARK  status: ('A' for Active; 'I' for Inactive)
REMARK    1  A    between atoms: C1_2  and  C2_3 
ROOT
ATOM      1  C2  UNL d   1       2.351   0.810  -3.672  0.00  0.00    -0.073 A 
ATOM      2  C3  UNL d   1       1.532   1.922  -3.444  0.00  0.00    -0.002 A 
ATOM      3  C4  UNL d   1       0.573   1.896  -2.431  0.00  0.00     0.004 A 
ATOM      4  C5  UNL d   1       0.428   0.762  -1.632  0.00  0.00    -0.004 A 
ATOM      5  C6  UNL d   1       1.245  -0.355  -1.836  0.00  0.00    -0.075 A 
ATOM      6  C7  UNL d   1       1.100  -1.583  -0.986  0.00  0.00     0.076 C 
ATOM      7  C8  UNL d   1       2.204  -0.321  -2.857  0.00  0.00     0.001 A 
ENDROOT
BRANCH   1   8
ATOM      8  C1  UNL d   1       3.392   0.837  -4.761  0.00  0.00     0.053 C 
ATOM      9  C   UNL d   1       4.805   0.863  -4.199  0.00  0.00     0.018 C 
ENDBRANCH   1   8
TORSDOF 1
ENDMDL
