MODEL 1
REMARK minimizedAffinity 1.43981624
REMARK minimizedRMSD -1
REMARK  1 active torsions:
REMARK  status: ('A' for Active; 'I' for Inactive)
REMARK    1  A    between atoms: C1_2  and  C2_3 
ROOT
ATOM      1  C2  UNL d   1       1.000   1.551  -2.654  0.00  0.00    -0.073 A 
ATOM      2  C3  UNL d   1       0.818   1.469  -1.269  0.00  0.00    -0.002 A 
ATOM      3  C4  UNL d   1       0.761   0.226  -0.637  0.00  0.00     0.004 A 
ATOM      4  C5  UNL d   1       0.893  -0.946  -1.382  0.00  0.00    -0.004 A 
ATOM      5  C6  UNL d   1       1.087  -0.885  -2.765  0.00  0.00    -0.075 A 
ATOM      6  C7  UNL d   1       1.227  -2.137  -3.581  0.00  0.00     0.076 C 
ATOM      7  C8  UNL d   1       1.140   0.367  -3.393  0.00  0.00     0.001 A 
ENDROOT
BRANCH   1   8
ATOM      8  C1  UNL d   1       1.068   2.891  -3.340  0.00  0.00     0.053 C 
ATOM      9  C   UNL d   1       1.939   2.851  -4.585  0.00  0.00     0.018 C 
ENDBRANCH   1   8
TORSDOF 1
ENDMDL
