MODEL 1
REMARK minimizedAffinity 5.21678543
REMARK minimizedRMSD -1
REMARK  1 active torsions:
REMARK  status: ('A' for Active; 'I' for Inactive)
REMARK    1  A    between atoms: C1_2  and  C2_3 
ROOT
ATOM      1  C2  UNL d   1       1.102  -0.629  -2.072  0.00  0.00    -0.073 A 
ATOM      2  C3  UNL d   1       0.602  -1.898  -2.388  0.00  0.00    -0.002 A 
ATOM      3  C4  UNL d   1       0.989  -2.533  -3.569  0.00  0.00     0.004 A 
ATOM      4  C5  UNL d   1       1.884  -1.912  -4.440  0.00  0.00    -0.004 A 
ATOM      5  C6  UNL d   1       2.403  -0.650  -4.135  0.00  0.00    -0.075 A 
ATOM      6  C7  UNL d   1       3.365   0.033  -5.063  0.00  0.00     0.076 C 
ATOM      7  C8  UNL d   1       2.008  -0.017  -2.949  0.00  0.00     0.001 A 
ENDROOT
BRANCH   1   8
ATOM      8  C1  UNL d   1       0.692   0.058  -0.795  0.00  0.00     0.053 C 
ATOM      9  C   UNL d   1       0.263   1.497  -1.035  0.00  0.00     0.018 C 
ENDBRANCH   1   8
TORSDOF 1
ENDMDL
