MODEL 1
REMARK minimizedAffinity -3.78404331
REMARK minimizedRMSD -1
REMARK  0 active torsions:
REMARK  status: ('A' for Active; 'I' for Inactive)
ROOT
ATOM      1  C   UNL d   1      -1.497  -2.411   1.193  0.00  0.00     0.020 A 
ATOM      2  C1  UNL d   1      -2.504  -2.198   0.252  0.00  0.00     0.020 A 
ATOM      3  C2  UNL d   1      -2.366  -1.187  -0.701  0.00  0.00     0.034 A 
ATOM      4  C3  UNL d   1      -1.218  -0.386  -0.717  0.00  0.00     0.017 A 
ATOM      5  C4  UNL d   1      -0.208  -0.601   0.228  0.00  0.00     0.017 A 
ATOM      6  C5  UNL d   1      -0.352  -1.614   1.181  0.00  0.00     0.034 A 
ATOM      7 Cl   UNL d   1       1.237   0.347   0.272  0.00  0.00    -0.070 Cl
ATOM      8 Cl1  UNL d   1      -1.113   0.845  -1.925  0.00  0.00    -0.070 Cl
ENDROOT
TORSDOF 0
ENDMDL
