MODEL 1
REMARK minimizedAffinity -3.82611871
REMARK minimizedRMSD -1
REMARK  0 active torsions:
REMARK  status: ('A' for Active; 'I' for Inactive)
ROOT
ATOM      1  C   UNL d   1      -2.447  -2.540   0.609  0.00  0.00     0.020 A 
ATOM      2  C1  UNL d   1      -1.459  -2.698   1.580  0.00  0.00     0.020 A 
ATOM      3  C2  UNL d   1      -0.374  -1.820   1.622  0.00  0.00     0.034 A 
ATOM      4  C3  UNL d   1      -0.274  -0.780   0.692  0.00  0.00     0.017 A 
ATOM      5  C4  UNL d   1      -1.266  -0.621  -0.283  0.00  0.00     0.017 A 
ATOM      6  C5  UNL d   1      -2.351  -1.503  -0.321  0.00  0.00     0.034 A 
ATOM      7 Cl   UNL d   1      -1.212   0.639  -1.465  0.00  0.00    -0.070 Cl
ATOM      8 Cl1  UNL d   1       1.094   0.269   0.803  0.00  0.00    -0.070 Cl
ENDROOT
TORSDOF 0
ENDMDL
