MODEL 1
REMARK minimizedAffinity -1.0559994
REMARK minimizedRMSD -1
REMARK  0 active torsions:
REMARK  status: ('A' for Active; 'I' for Inactive)
ROOT
ATOM      1  C   UNL d   1      -3.489  -1.821  -0.098  0.00  0.00     0.020 A 
ATOM      2  C1  UNL d   1      -3.234  -2.968   0.652  0.00  0.00     0.020 A 
ATOM      3  C2  UNL d   1      -2.042  -3.081   1.371  0.00  0.00     0.034 A 
ATOM      4  C3  UNL d   1      -1.100  -2.046   1.340  0.00  0.00     0.017 A 
ATOM      5  C4  UNL d   1      -1.357  -0.895   0.586  0.00  0.00     0.017 A 
ATOM      6  C5  UNL d   1      -2.553  -0.787  -0.132  0.00  0.00     0.034 A 
ATOM      7 Cl   UNL d   1      -0.244   0.424   0.498  0.00  0.00    -0.070 Cl
ATOM      8 Cl1  UNL d   1       0.352  -2.253   2.252  0.00  0.00    -0.070 Cl
ENDROOT
TORSDOF 0
ENDMDL
