MODEL 1
REMARK minimizedAffinity -2.60384083
REMARK minimizedRMSD -1
REMARK  0 active torsions:
REMARK  status: ('A' for Active; 'I' for Inactive)
ROOT
ATOM      1  C   UNL d   1      -0.353   0.722   1.071  0.00  0.00     0.020 A 
ATOM      2  C1  UNL d   1       0.122   0.105  -0.086  0.00  0.00     0.020 A 
ATOM      3  C2  UNL d   1       1.406   0.392  -0.553  0.00  0.00     0.034 A 
ATOM      4  C3  UNL d   1       2.220   1.298   0.137  0.00  0.00     0.017 A 
ATOM      5  C4  UNL d   1       1.743   1.916   1.298  0.00  0.00     0.017 A 
ATOM      6  C5  UNL d   1       0.456   1.625   1.762  0.00  0.00     0.034 A 
ATOM      7 Cl   UNL d   1       2.689   3.044   2.204  0.00  0.00    -0.070 Cl
ATOM      8 Cl1  UNL d   1       3.797   1.605  -0.498  0.00  0.00    -0.070 Cl
ENDROOT
TORSDOF 0
ENDMDL
