MODEL 1
REMARK minimizedAffinity -4.33938026
REMARK minimizedRMSD -1
REMARK  0 active torsions:
REMARK  status: ('A' for Active; 'I' for Inactive)
ROOT
ATOM      1  C   UNL d   1      -2.142  -2.457   0.592  0.00  0.00     0.020 A 
ATOM      2  C1  UNL d   1      -3.019  -2.000  -0.392  0.00  0.00     0.020 A 
ATOM      3  C2  UNL d   1      -2.657  -0.925  -1.205  0.00  0.00     0.034 A 
ATOM      4  C3  UNL d   1      -1.415  -0.302  -1.037  0.00  0.00     0.017 A 
ATOM      5  C4  UNL d   1      -0.535  -0.760  -0.050  0.00  0.00     0.017 A 
ATOM      6  C5  UNL d   1      -0.903  -1.838   0.762  0.00  0.00     0.034 A 
ATOM      7 Cl   UNL d   1       1.014  -0.042   0.217  0.00  0.00    -0.070 Cl
ATOM      8 Cl1  UNL d   1      -1.033   1.023  -2.079  0.00  0.00    -0.070 Cl
ENDROOT
TORSDOF 0
ENDMDL
