MODEL 1
REMARK minimizedAffinity -4.57887602
REMARK minimizedRMSD -1
REMARK  0 active torsions:
REMARK  status: ('A' for Active; 'I' for Inactive)
ROOT
ATOM      1  C   UNL d   1      -3.273  -1.233   0.164  0.00  0.00     0.020 A 
ATOM      2  C1  UNL d   1      -2.952  -2.475   0.710  0.00  0.00     0.020 A 
ATOM      3  C2  UNL d   1      -1.669  -2.708   1.210  0.00  0.00     0.034 A 
ATOM      4  C3  UNL d   1      -0.703  -1.697   1.165  0.00  0.00     0.017 A 
ATOM      5  C4  UNL d   1      -1.026  -0.450   0.617  0.00  0.00     0.017 A 
ATOM      6  C5  UNL d   1      -2.312  -0.223   0.117  0.00  0.00     0.034 A 
ATOM      7 Cl   UNL d   1       0.114   0.846   0.527  0.00  0.00    -0.070 Cl
ATOM      8 Cl1  UNL d   1       0.863  -2.054   1.802  0.00  0.00    -0.070 Cl
ENDROOT
TORSDOF 0
ENDMDL
