MODEL 1
REMARK minimizedAffinity -2.90515947
REMARK minimizedRMSD -1
REMARK  0 active torsions:
REMARK  status: ('A' for Active; 'I' for Inactive)
ROOT
ATOM      1  C   UNL d   1      -2.966  -0.489  -0.647  0.00  0.00     0.020 A 
ATOM      2  C1  UNL d   1      -2.510  -0.584   0.667  0.00  0.00     0.020 A 
ATOM      3  C2  UNL d   1      -1.146  -0.474   0.942  0.00  0.00     0.034 A 
ATOM      4  C3  UNL d   1      -0.232  -0.268  -0.098  0.00  0.00     0.017 A 
ATOM      5  C4  UNL d   1      -0.691  -0.172  -1.417  0.00  0.00     0.017 A 
ATOM      6  C5  UNL d   1      -2.058  -0.283  -1.687  0.00  0.00     0.034 A 
ATOM      7 Cl   UNL d   1       0.376   0.082  -2.753  0.00  0.00    -0.070 Cl
ATOM      8 Cl1  UNL d   1       1.441  -0.141   0.315  0.00  0.00    -0.070 Cl
ENDROOT
TORSDOF 0
ENDMDL
