MODEL 1
REMARK minimizedAffinity -2.38802838
REMARK minimizedRMSD -1
REMARK  0 active torsions:
REMARK  status: ('A' for Active; 'I' for Inactive)
ROOT
ATOM      1  C   UNL d   1      -2.662  -0.631  -0.789  0.00  0.00     0.020 A 
ATOM      2  C1  UNL d   1      -2.139   0.578  -1.248  0.00  0.00     0.020 A 
ATOM      3  C2  UNL d   1      -0.843   0.958  -0.892  0.00  0.00     0.034 A 
ATOM      4  C3  UNL d   1      -0.066   0.129  -0.074  0.00  0.00     0.017 A 
ATOM      5  C4  UNL d   1      -0.592  -1.083   0.386  0.00  0.00     0.017 A 
ATOM      6  C5  UNL d   1      -1.890  -1.459   0.026  0.00  0.00     0.034 A 
ATOM      7 Cl   UNL d   1       0.306  -2.159   1.398  0.00  0.00    -0.070 Cl
ATOM      8 Cl1  UNL d   1       1.528   0.662   0.326  0.00  0.00    -0.070 Cl
ENDROOT
TORSDOF 0
ENDMDL
