MODEL 1
REMARK minimizedAffinity -3.29751706
REMARK minimizedRMSD -1
REMARK  0 active torsions:
REMARK  status: ('A' for Active; 'I' for Inactive)
ROOT
ATOM      1  C   UNL d   1      -2.117   0.161  -1.709  0.00  0.00     0.020 A 
ATOM      2  C1  UNL d   1      -2.974  -0.849  -1.274  0.00  0.00     0.020 A 
ATOM      3  C2  UNL d   1      -2.561  -1.731  -0.273  0.00  0.00     0.034 A 
ATOM      4  C3  UNL d   1      -1.289  -1.604   0.296  0.00  0.00     0.017 A 
ATOM      5  C4  UNL d   1      -0.430  -0.590  -0.141  0.00  0.00     0.017 A 
ATOM      6  C5  UNL d   1      -0.848   0.291  -1.144  0.00  0.00     0.034 A 
ATOM      7 Cl   UNL d   1       1.154  -0.370   0.514  0.00  0.00    -0.070 Cl
ATOM      8 Cl1  UNL d   1      -0.845  -2.730   1.530  0.00  0.00    -0.070 Cl
ENDROOT
TORSDOF 0
ENDMDL
