MODEL 1
REMARK minimizedAffinity 3.4076333
REMARK minimizedRMSD -1
REMARK  0 active torsions:
REMARK  status: ('A' for Active; 'I' for Inactive)
ROOT
ATOM      1  C   UNL d   1       3.016   2.996   1.199  0.00  0.00     0.020 A 
ATOM      2  C1  UNL d   1       1.941   3.624   0.572  0.00  0.00     0.020 A 
ATOM      3  C2  UNL d   1       0.906   2.860   0.029  0.00  0.00     0.034 A 
ATOM      4  C3  UNL d   1       0.944   1.463   0.111  0.00  0.00     0.017 A 
ATOM      5  C4  UNL d   1       2.024   0.833   0.741  0.00  0.00     0.017 A 
ATOM      6  C5  UNL d   1       3.057   1.603   1.284  0.00  0.00     0.034 A 
ATOM      7 Cl   UNL d   1       2.141  -0.885   0.882  0.00  0.00    -0.070 Cl
ATOM      8 Cl1  UNL d   1      -0.370   0.581  -0.582  0.00  0.00    -0.070 Cl
ENDROOT
TORSDOF 0
ENDMDL
