MODEL 1
REMARK minimizedAffinity -1.70520723
REMARK minimizedRMSD -1
REMARK  0 active torsions:
REMARK  status: ('A' for Active; 'I' for Inactive)
ROOT
ATOM      1  C   UNL d   1      -1.830   0.386  -1.645  0.00  0.00     0.020 A 
ATOM      2  C1  UNL d   1      -2.651  -0.499  -0.946  0.00  0.00     0.020 A 
ATOM      3  C2  UNL d   1      -2.201  -1.078   0.242  0.00  0.00     0.034 A 
ATOM      4  C3  UNL d   1      -0.927  -0.773   0.735  0.00  0.00     0.017 A 
ATOM      5  C4  UNL d   1      -0.104   0.114   0.033  0.00  0.00     0.017 A 
ATOM      6  C5  UNL d   1      -0.559   0.691  -1.156  0.00  0.00     0.034 A 
ATOM      7 Cl   UNL d   1       1.481   0.539   0.579  0.00  0.00    -0.070 Cl
ATOM      8 Cl1  UNL d   1      -0.436  -1.526   2.211  0.00  0.00    -0.070 Cl
ENDROOT
TORSDOF 0
ENDMDL
