MODEL 1
REMARK minimizedAffinity -3.23633766
REMARK minimizedRMSD -1
REMARK  0 active torsions:
REMARK  status: ('A' for Active; 'I' for Inactive)
ROOT
ATOM      1  C   UNL d   1      -2.996  -0.528  -0.228  0.00  0.00     0.020 A 
ATOM      2  C1  UNL d   1      -2.387  -0.514   1.026  0.00  0.00     0.020 A 
ATOM      3  C2  UNL d   1      -1.032  -0.199   1.141  0.00  0.00     0.034 A 
ATOM      4  C3  UNL d   1      -0.280   0.102  -0.001  0.00  0.00     0.017 A 
ATOM      5  C4  UNL d   1      -0.892   0.087  -1.260  0.00  0.00     0.017 A 
ATOM      6  C5  UNL d   1      -2.249  -0.229  -1.369  0.00  0.00     0.034 A 
ATOM      7 Cl   UNL d   1      -0.030   0.448  -2.714  0.00  0.00    -0.070 Cl
ATOM      8 Cl1  UNL d   1       1.392   0.483   0.215  0.00  0.00    -0.070 Cl
ENDROOT
TORSDOF 0
ENDMDL
