MODEL 1
REMARK minimizedAffinity -1.18294942
REMARK minimizedRMSD -1
REMARK  0 active torsions:
REMARK  status: ('A' for Active; 'I' for Inactive)
ROOT
ATOM      1  C   UNL d   1      -3.109  -1.396  -0.530  0.00  0.00     0.020 A 
ATOM      2  C1  UNL d   1      -2.869  -1.183   0.826  0.00  0.00     0.020 A 
ATOM      3  C2  UNL d   1      -1.696  -0.545   1.236  0.00  0.00     0.034 A 
ATOM      4  C3  UNL d   1      -0.759  -0.118   0.289  0.00  0.00     0.017 A 
ATOM      5  C4  UNL d   1      -1.001  -0.332  -1.073  0.00  0.00     0.017 A 
ATOM      6  C5  UNL d   1      -2.177  -0.971  -1.478  0.00  0.00     0.034 A 
ATOM      7 Cl   UNL d   1       0.109   0.166  -2.301  0.00  0.00    -0.070 Cl
ATOM      8 Cl1  UNL d   1       0.669   0.664   0.867  0.00  0.00    -0.070 Cl
ENDROOT
TORSDOF 0
ENDMDL
