MODEL 1
REMARK minimizedAffinity -3.79378343
REMARK minimizedRMSD -1
REMARK  0 active torsions:
REMARK  status: ('A' for Active; 'I' for Inactive)
ROOT
ATOM      1  C   UNL d   1       2.526   3.011   0.889  0.00  0.00     0.020 A 
ATOM      2  C1  UNL d   1       1.217   3.477   0.778  0.00  0.00     0.020 A 
ATOM      3  C2  UNL d   1       0.183   2.590   0.469  0.00  0.00     0.034 A 
ATOM      4  C3  UNL d   1       0.457   1.232   0.271  0.00  0.00     0.017 A 
ATOM      5  C4  UNL d   1       1.772   0.764   0.384  0.00  0.00     0.017 A 
ATOM      6  C5  UNL d   1       2.803   1.657   0.693  0.00  0.00     0.034 A 
ATOM      7 Cl   UNL d   1       2.188  -0.897   0.154  0.00  0.00    -0.070 Cl
ATOM      8 Cl1  UNL d   1      -0.869   0.191  -0.107  0.00  0.00    -0.070 Cl
ENDROOT
TORSDOF 0
ENDMDL
