MODEL 1
REMARK minimizedAffinity -4.65492344
REMARK minimizedRMSD -1
REMARK  0 active torsions:
REMARK  status: ('A' for Active; 'I' for Inactive)
ROOT
ATOM      1  C   UNL d   1       1.421  -0.260  -0.055  0.00  0.00     0.020 A 
ATOM      2  C1  UNL d   1       0.589   0.269  -1.041  0.00  0.00     0.020 A 
ATOM      3  C2  UNL d   1      -0.784   0.019  -1.004  0.00  0.00     0.034 A 
ATOM      4  C3  UNL d   1      -1.330  -0.763   0.021  0.00  0.00     0.017 A 
ATOM      5  C4  UNL d   1      -0.494  -1.294   1.010  0.00  0.00     0.017 A 
ATOM      6  C5  UNL d   1       0.881  -1.040   0.968  0.00  0.00     0.034 A 
ATOM      7 Cl   UNL d   1      -1.094  -2.268   2.305  0.00  0.00    -0.070 Cl
ATOM      8 Cl1  UNL d   1      -3.036  -1.032   0.004  0.00  0.00    -0.070 Cl
ENDROOT
TORSDOF 0
ENDMDL
