MODEL 1
REMARK minimizedAffinity -4.19012547
REMARK minimizedRMSD -1
REMARK  0 active torsions:
REMARK  status: ('A' for Active; 'I' for Inactive)
ROOT
ATOM      1  C   UNL d   1      -2.380  -0.258  -1.280  0.00  0.00     0.020 A 
ATOM      2  C1  UNL d   1      -1.454   0.692  -1.711  0.00  0.00     0.020 A 
ATOM      3  C2  UNL d   1      -0.189   0.751  -1.122  0.00  0.00     0.034 A 
ATOM      4  C3  UNL d   1       0.154  -0.141  -0.100  0.00  0.00     0.017 A 
ATOM      5  C4  UNL d   1      -0.775  -1.094   0.332  0.00  0.00     0.017 A 
ATOM      6  C5  UNL d   1      -2.041  -1.149  -0.261  0.00  0.00     0.034 A 
ATOM      7 Cl   UNL d   1      -0.425  -2.228   1.588  0.00  0.00    -0.070 Cl
ATOM      8 Cl1  UNL d   1       1.736  -0.011   0.582  0.00  0.00    -0.070 Cl
ENDROOT
TORSDOF 0
ENDMDL
