MODEL 1
REMARK minimizedAffinity -4.59627676
REMARK minimizedRMSD -1
REMARK  0 active torsions:
REMARK  status: ('A' for Active; 'I' for Inactive)
ROOT
ATOM      1  C   UNL d   1      -0.591   0.703  -1.068  0.00  0.00     0.020 A 
ATOM      2  C1  UNL d   1       0.463   0.257  -0.272  0.00  0.00     0.020 A 
ATOM      3  C2  UNL d   1       0.237  -0.714   0.706  0.00  0.00     0.034 A 
ATOM      4  C3  UNL d   1      -1.046  -1.242   0.890  0.00  0.00     0.017 A 
ATOM      5  C4  UNL d   1      -2.103  -0.794   0.090  0.00  0.00     0.017 A 
ATOM      6  C5  UNL d   1      -1.871   0.179  -0.888  0.00  0.00     0.034 A 
ATOM      7 Cl   UNL d   1      -3.714  -1.399   0.257  0.00  0.00    -0.070 Cl
ATOM      8 Cl1  UNL d   1      -1.254  -2.441   2.117  0.00  0.00    -0.070 Cl
ENDROOT
TORSDOF 0
ENDMDL
