MODEL 1
REMARK minimizedAffinity -0.234151915
REMARK minimizedRMSD -1
REMARK  0 active torsions:
REMARK  status: ('A' for Active; 'I' for Inactive)
ROOT
ATOM      1  C   UNL d   1       0.612   1.045  -0.731  0.00  0.00     0.020 A 
ATOM      2  C1  UNL d   1       1.308   0.570   0.379  0.00  0.00     0.020 A 
ATOM      3  C2  UNL d   1       0.789  -0.488   1.129  0.00  0.00     0.034 A 
ATOM      4  C3  UNL d   1      -0.431  -1.073   0.770  0.00  0.00     0.017 A 
ATOM      5  C4  UNL d   1      -1.129  -0.595  -0.345  0.00  0.00     0.017 A 
ATOM      6  C5  UNL d   1      -0.604   0.464  -1.092  0.00  0.00     0.034 A 
ATOM      7 Cl   UNL d   1      -2.639  -1.266  -0.850  0.00  0.00    -0.070 Cl
ATOM      8 Cl1  UNL d   1      -1.014  -2.377   1.742  0.00  0.00    -0.070 Cl
ENDROOT
TORSDOF 0
ENDMDL
