MODEL 1
REMARK minimizedAffinity -4.37799549
REMARK minimizedRMSD -1
REMARK  0 active torsions:
REMARK  status: ('A' for Active; 'I' for Inactive)
ROOT
ATOM      1  C   UNL d   1      -2.875  -2.798   0.734  0.00  0.00     0.020 A 
ATOM      2  C1  UNL d   1      -1.751  -2.881   1.555  0.00  0.00     0.020 A 
ATOM      3  C2  UNL d   1      -0.697  -1.980   1.389  0.00  0.00     0.034 A 
ATOM      4  C3  UNL d   1      -0.764  -0.992   0.401  0.00  0.00     0.017 A 
ATOM      5  C4  UNL d   1      -1.893  -0.909  -0.423  0.00  0.00     0.017 A 
ATOM      6  C5  UNL d   1      -2.946  -1.813  -0.252  0.00  0.00     0.034 A 
ATOM      7 Cl   UNL d   1      -2.049   0.284  -1.664  0.00  0.00    -0.070 Cl
ATOM      8 Cl1  UNL d   1       0.576   0.089   0.252  0.00  0.00    -0.070 Cl
ENDROOT
TORSDOF 0
ENDMDL
