MODEL 1
REMARK minimizedAffinity 20.2191601
REMARK minimizedRMSD -1
REMARK  1 active torsions:
REMARK  status: ('A' for Active; 'I' for Inactive)
REMARK    1  A    between atoms: C1_2  and  C2_3 
ROOT
ATOM      1  C2  UNL d   1      -0.237  -0.617  -1.448  0.00  0.00    -0.076 A 
ATOM      2  C3  UNL d   1       0.623   0.363  -0.921  0.00  0.00     0.004 A 
ATOM      3  C4  UNL d   1       1.782   0.739  -1.598  0.00  0.00    -0.003 A 
ATOM      4  C5  UNL d   1       2.099   0.143  -2.813  0.00  0.00     0.000 A 
ATOM      5  C6  UNL d   1       1.249  -0.818  -3.359  0.00  0.00     0.000 A 
ATOM      6  C7  UNL d   1       0.068  -1.197  -2.698  0.00  0.00    -0.073 A 
ATOM      7  C8  UNL d   1      -0.809  -2.243  -3.329  0.00  0.00     0.078 C 
ENDROOT
BRANCH   1   8
ATOM      8  C1  UNL d   1      -1.465  -1.004  -0.656  0.00  0.00     0.053 C 
ATOM      9  C   UNL d   1      -1.225  -2.211   0.238  0.00  0.00     0.018 C 
ENDBRANCH   1   8
TORSDOF 1
ENDMDL
