MODEL 1
REMARK minimizedAffinity 17.4182892
REMARK minimizedRMSD -1
REMARK  1 active torsions:
REMARK  status: ('A' for Active; 'I' for Inactive)
REMARK    1  A    between atoms: C1_2  and  C2_3 
ROOT
ATOM      1  C2  UNL d   1       2.628   1.892   0.330  0.00  0.00    -0.076 A 
ATOM      2  C3  UNL d   1       1.700   0.883   0.017  0.00  0.00     0.004 A 
ATOM      3  C4  UNL d   1       1.545   0.431  -1.292  0.00  0.00    -0.003 A 
ATOM      4  C5  UNL d   1       2.317   0.981  -2.310  0.00  0.00     0.000 A 
ATOM      5  C6  UNL d   1       3.254   1.970  -2.016  0.00  0.00     0.000 A 
ATOM      6  C7  UNL d   1       3.434   2.425  -0.699  0.00  0.00    -0.073 A 
ATOM      7  C8  UNL d   1       4.455   3.499  -0.439  0.00  0.00     0.078 C 
ENDROOT
BRANCH   1   8
ATOM      8  C1  UNL d   1       2.732   2.362   1.763  0.00  0.00     0.053 C 
ATOM      9  C   UNL d   1       3.911   1.739   2.496  0.00  0.00     0.018 C 
ENDBRANCH   1   8
TORSDOF 1
ENDMDL
