MODEL 1
REMARK minimizedAffinity 9.31977463
REMARK minimizedRMSD -1
REMARK  1 active torsions:
REMARK  status: ('A' for Active; 'I' for Inactive)
REMARK    1  A    between atoms: C1_2  and  C2_3 
ROOT
ATOM      1  C2  UNL d   1      -4.813   4.867  -0.676  0.00  0.00    -0.076 A 
ATOM      2  C3  UNL d   1      -4.084   3.773  -1.174  0.00  0.00     0.004 A 
ATOM      3  C4  UNL d   1      -3.722   2.714  -0.342  0.00  0.00    -0.003 A 
ATOM      4  C5  UNL d   1      -4.083   2.732   1.000  0.00  0.00     0.000 A 
ATOM      5  C6  UNL d   1      -4.821   3.801   1.507  0.00  0.00     0.000 A 
ATOM      6  C7  UNL d   1      -5.208   4.868   0.679  0.00  0.00    -0.073 A 
ATOM      7  C8  UNL d   1      -5.999   5.998   1.280  0.00  0.00     0.078 C 
ENDROOT
BRANCH   1   8
ATOM      8  C1  UNL d   1      -5.154   5.999  -1.618  0.00  0.00     0.053 C 
ATOM      9  C   UNL d   1      -4.547   5.810  -3.000  0.00  0.00     0.018 C 
ENDBRANCH   1   8
TORSDOF 1
ENDMDL
