MODEL 1
REMARK minimizedAffinity 14.2230501
REMARK minimizedRMSD -1
REMARK  1 active torsions:
REMARK  status: ('A' for Active; 'I' for Inactive)
REMARK    1  A    between atoms: C1_2  and  C2_3 
ROOT
ATOM      1  C2  UNL d   1      -3.835   3.923  -4.430  0.00  0.00    -0.076 A 
ATOM      2  C3  UNL d   1      -4.087   5.223  -3.957  0.00  0.00     0.004 A 
ATOM      3  C4  UNL d   1      -5.107   6.000  -4.502  0.00  0.00    -0.003 A 
ATOM      4  C5  UNL d   1      -5.894   5.490  -5.529  0.00  0.00     0.000 A 
ATOM      5  C6  UNL d   1      -5.670   4.196  -5.998  0.00  0.00     0.000 A 
ATOM      6  C7  UNL d   1      -4.656   3.393  -5.449  0.00  0.00    -0.073 A 
ATOM      7  C8  UNL d   1      -4.455   2.007  -5.997  0.00  0.00     0.078 C 
ENDROOT
BRANCH   1   8
ATOM      8  C1  UNL d   1      -2.697   3.137  -3.819  0.00  0.00     0.053 C 
ATOM      9  C   UNL d   1      -2.756   1.658  -4.169  0.00  0.00     0.018 C 
ENDBRANCH   1   8
TORSDOF 1
ENDMDL
