MODEL 1
REMARK minimizedAffinity 17.7791271
REMARK minimizedRMSD -1
REMARK  1 active torsions:
REMARK  status: ('A' for Active; 'I' for Inactive)
REMARK    1  A    between atoms: C1_2  and  C2_3 
ROOT
ATOM      1  C2  UNL d   1      -4.677   3.852  -5.417  0.00  0.00    -0.076 A 
ATOM      2  C3  UNL d   1      -4.462   2.510  -5.774  0.00  0.00     0.004 A 
ATOM      3  C4  UNL d   1      -3.363   1.805  -5.287  0.00  0.00    -0.003 A 
ATOM      4  C5  UNL d   1      -2.460   2.431  -4.435  0.00  0.00     0.000 A 
ATOM      5  C6  UNL d   1      -2.667   3.757  -4.056  0.00  0.00     0.000 A 
ATOM      6  C7  UNL d   1      -3.779   4.477  -4.525  0.00  0.00    -0.073 A 
ATOM      7  C8  UNL d   1      -3.950   5.906  -4.089  0.00  0.00     0.078 C 
ENDROOT
BRANCH   1   8
ATOM      8  C1  UNL d   1      -5.872   4.574  -5.998  0.00  0.00     0.053 C 
ATOM      9  C   UNL d   1      -5.998   6.000  -5.483  0.00  0.00     0.018 C 
ENDBRANCH   1   8
TORSDOF 1
ENDMDL
