MODEL 1
REMARK minimizedAffinity 15.2994432
REMARK minimizedRMSD -1
REMARK  1 active torsions:
REMARK  status: ('A' for Active; 'I' for Inactive)
REMARK    1  A    between atoms: C1_2  and  C2_3 
ROOT
ATOM      1  C2  UNL d   1      -2.181  -2.358   1.533  0.00  0.00    -0.076 A 
ATOM      2  C3  UNL d   1      -1.069  -3.218   1.539  0.00  0.00     0.004 A 
ATOM      3  C4  UNL d   1      -0.198  -3.272   0.453  0.00  0.00    -0.003 A 
ATOM      4  C5  UNL d   1      -0.424  -2.467  -0.658  0.00  0.00     0.000 A 
ATOM      5  C6  UNL d   1      -1.512  -1.595  -0.675  0.00  0.00     0.000 A 
ATOM      6  C7  UNL d   1      -2.391  -1.516   0.419  0.00  0.00    -0.073 A 
ATOM      7  C8  UNL d   1      -3.552  -0.563   0.345  0.00  0.00     0.078 C 
ENDROOT
BRANCH   1   8
ATOM      8  C1  UNL d   1      -3.107  -2.361   2.728  0.00  0.00     0.053 C 
ATOM      9  C   UNL d   1      -2.387  -2.018   4.023  0.00  0.00     0.018 C 
ENDBRANCH   1   8
TORSDOF 1
ENDMDL
