MODEL 1
REMARK minimizedAffinity 10.2431583
REMARK minimizedRMSD -1
REMARK  1 active torsions:
REMARK  status: ('A' for Active; 'I' for Inactive)
REMARK    1  A    between atoms: C1_2  and  C2_3 
ROOT
ATOM      1  C2  UNL d   1      -4.086   4.642  -4.395  0.00  0.00    -0.076 A 
ATOM      2  C3  UNL d   1      -3.139   3.705  -3.946  0.00  0.00     0.004 A 
ATOM      3  C4  UNL d   1      -3.067   2.431  -4.509  0.00  0.00    -0.003 A 
ATOM      4  C5  UNL d   1      -3.940   2.074  -5.530  0.00  0.00     0.000 A 
ATOM      5  C6  UNL d   1      -4.874   2.997  -6.000  0.00  0.00     0.000 A 
ATOM      6  C7  UNL d   1      -4.949   4.290  -5.455  0.00  0.00    -0.073 A 
ATOM      7  C8  UNL d   1      -5.980   5.243  -5.996  0.00  0.00     0.078 C 
ENDROOT
BRANCH   1   8
ATOM      8  C1  UNL d   1      -4.135   5.998  -3.729  0.00  0.00     0.053 C 
ATOM      9  C   UNL d   1      -4.972   5.994  -2.459  0.00  0.00     0.018 C 
ENDBRANCH   1   8
TORSDOF 1
ENDMDL
