MODEL 1
REMARK minimizedAffinity 17.433136
REMARK minimizedRMSD -1
REMARK  1 active torsions:
REMARK  status: ('A' for Active; 'I' for Inactive)
REMARK    1  A    between atoms: C1_2  and  C2_3 
ROOT
ATOM      1  C2  UNL d   1      -1.508  -0.743  -3.209  0.00  0.00    -0.076 A 
ATOM      2  C3  UNL d   1      -2.797  -0.254  -3.482  0.00  0.00     0.004 A 
ATOM      3  C4  UNL d   1      -2.980   0.913  -4.222  0.00  0.00    -0.003 A 
ATOM      4  C5  UNL d   1      -1.877   1.609  -4.702  0.00  0.00     0.000 A 
ATOM      5  C6  UNL d   1      -0.591   1.129  -4.456  0.00  0.00     0.000 A 
ATOM      6  C7  UNL d   1      -0.390  -0.055  -3.726  0.00  0.00    -0.073 A 
ATOM      7  C8  UNL d   1       1.019  -0.524  -3.485  0.00  0.00     0.078 C 
ENDROOT
BRANCH   1   8
ATOM      8  C1  UNL d   1      -1.371  -1.998  -2.378  0.00  0.00     0.053 C 
ATOM      9  C   UNL d   1      -1.335  -1.708  -0.885  0.00  0.00     0.018 C 
ENDBRANCH   1   8
TORSDOF 1
ENDMDL
