MODEL 1
REMARK minimizedAffinity 19.9178562
REMARK minimizedRMSD -1
REMARK  1 active torsions:
REMARK  status: ('A' for Active; 'I' for Inactive)
REMARK    1  A    between atoms: C1_2  and  C2_3 
ROOT
ATOM      1  C2  UNL d   1       3.088   0.769   0.311  0.00  0.00    -0.076 A 
ATOM      2  C3  UNL d   1       3.024  -0.570   0.736  0.00  0.00     0.004 A 
ATOM      3  C4  UNL d   1       3.653  -0.980   1.911  0.00  0.00    -0.003 A 
ATOM      4  C5  UNL d   1       4.355  -0.059   2.679  0.00  0.00     0.000 A 
ATOM      5  C6  UNL d   1       4.414   1.277   2.281  0.00  0.00     0.000 A 
ATOM      6  C7  UNL d   1       3.772   1.710   1.109  0.00  0.00    -0.073 A 
ATOM      7  C8  UNL d   1       3.874   3.161   0.724  0.00  0.00     0.078 C 
ENDROOT
BRANCH   1   8
ATOM      8  C1  UNL d   1       2.409   1.150  -0.985  0.00  0.00     0.053 C 
ATOM      9  C   UNL d   1       2.211  -0.040  -1.911  0.00  0.00     0.018 C 
ENDBRANCH   1   8
TORSDOF 1
ENDMDL
