MODEL 1
REMARK minimizedAffinity 12.4440289
REMARK minimizedRMSD -1
REMARK  1 active torsions:
REMARK  status: ('A' for Active; 'I' for Inactive)
REMARK    1  A    between atoms: C1_2  and  C2_3 
ROOT
ATOM      1  C2  UNL d   1      -3.790   3.801  -4.605  0.00  0.00    -0.076 A 
ATOM      2  C3  UNL d   1      -3.843   5.138  -4.175  0.00  0.00     0.004 A 
ATOM      3  C4  UNL d   1      -4.838   6.000  -4.633  0.00  0.00    -0.003 A 
ATOM      4  C5  UNL d   1      -5.796   5.538  -5.529  0.00  0.00     0.000 A 
ATOM      5  C6  UNL d   1      -5.769   4.210  -5.952  0.00  0.00     0.000 A 
ATOM      6  C7  UNL d   1      -4.782   3.324  -5.487  0.00  0.00    -0.073 A 
ATOM      7  C8  UNL d   1      -4.797   1.903  -5.981  0.00  0.00     0.078 C 
ENDROOT
BRANCH   1   8
ATOM      8  C1  UNL d   1      -2.671   2.920  -4.094  0.00  0.00     0.053 C 
ATOM      9  C   UNL d   1      -2.485   1.668  -4.937  0.00  0.00     0.018 C 
ENDBRANCH   1   8
TORSDOF 1
ENDMDL
