MODEL 1
REMARK minimizedAffinity 20.4784222
REMARK minimizedRMSD -1
REMARK  1 active torsions:
REMARK  status: ('A' for Active; 'I' for Inactive)
REMARK    1  A    between atoms: C1_2  and  C2_3 
ROOT
ATOM      1  C2  UNL d   1      -0.742   0.723  -4.226  0.00  0.00    -0.076 A 
ATOM      2  C3  UNL d   1       0.060   1.797  -4.647  0.00  0.00     0.004 A 
ATOM      3  C4  UNL d   1      -0.477   3.073  -4.812  0.00  0.00    -0.003 A 
ATOM      4  C5  UNL d   1      -1.826   3.294  -4.558  0.00  0.00     0.000 A 
ATOM      5  C6  UNL d   1      -2.633   2.244  -4.123  0.00  0.00     0.000 A 
ATOM      6  C7  UNL d   1      -2.104   0.955  -3.936  0.00  0.00    -0.073 A 
ATOM      7  C8  UNL d   1      -3.021  -0.142  -3.471  0.00  0.00     0.078 C 
ENDROOT
BRANCH   1   8
ATOM      8  C1  UNL d   1      -0.110  -0.644  -4.091  0.00  0.00     0.053 C 
ATOM      9  C   UNL d   1       1.363  -0.570  -3.718  0.00  0.00     0.018 C 
ENDBRANCH   1   8
TORSDOF 1
ENDMDL
