MODEL 1
REMARK minimizedAffinity 6.32699347
REMARK minimizedRMSD -1
REMARK  0 active torsions:
REMARK  status: ('A' for Active; 'I' for Inactive)
ROOT
ATOM      1  C1  BNZ d   1      -0.201  -0.576  -0.440  0.00  0.00     0.000 A 
ATOM      2  C2  BNZ d   1      -0.097  -1.890  -0.068  0.00  0.00     0.000 A 
ATOM      3  C3  BNZ d   1       0.702  -2.753  -0.765  0.00  0.00     0.000 A 
ATOM      4  C4  BNZ d   1       1.363  -2.312  -1.855  0.00  0.00     0.000 A 
ATOM      5  C5  BNZ d   1       1.261  -0.993  -2.248  0.00  0.00     0.000 A 
ATOM      6  C6  BNZ d   1       0.487  -0.117  -1.521  0.00  0.00     0.000 A 
ENDROOT
TORSDOF 0
ENDMDL
