MODEL 1
REMARK minimizedAffinity 4.1616354
REMARK minimizedRMSD -1
REMARK  0 active torsions:
REMARK  status: ('A' for Active; 'I' for Inactive)
ROOT
ATOM      1  C1  BNZ d   1       1.679   2.978  -0.004  0.00  0.00     0.000 A 
ATOM      2  C2  BNZ d   1       1.444   2.077  -1.007  0.00  0.00     0.000 A 
ATOM      3  C3  BNZ d   1       0.232   1.455  -1.120  0.00  0.00     0.000 A 
ATOM      4  C4  BNZ d   1      -0.729   1.705  -0.207  0.00  0.00     0.000 A 
ATOM      5  C5  BNZ d   1      -0.504   2.605   0.816  0.00  0.00     0.000 A 
ATOM      6  C6  BNZ d   1       0.704   3.258   0.903  0.00  0.00     0.000 A 
ENDROOT
TORSDOF 0
ENDMDL
