MODEL 1
REMARK minimizedAffinity -3.21840525
REMARK minimizedRMSD -1
REMARK  0 active torsions:
REMARK  status: ('A' for Active; 'I' for Inactive)
ROOT
ATOM      1  C1  BNZ d   1       1.052   0.540  -1.872  0.00  0.00     0.000 A 
ATOM      2  C2  BNZ d   1       1.128   0.815  -3.211  0.00  0.00     0.000 A 
ATOM      3  C3  BNZ d   1       1.428  -0.168  -4.112  0.00  0.00     0.000 A 
ATOM      4  C4  BNZ d   1       1.690  -1.415  -3.670  0.00  0.00     0.000 A 
ATOM      5  C5  BNZ d   1       1.626  -1.707  -2.322  0.00  0.00     0.000 A 
ATOM      6  C6  BNZ d   1       1.286  -0.723  -1.421  0.00  0.00     0.000 A 
ENDROOT
TORSDOF 0
ENDMDL
