MODEL 1
REMARK minimizedAffinity 5.25080919
REMARK minimizedRMSD -1
REMARK  0 active torsions:
REMARK  status: ('A' for Active; 'I' for Inactive)
ROOT
ATOM      1  C1  BNZ d   1       1.917  -2.360  -0.837  0.00  0.00     0.000 A 
ATOM      2  C2  BNZ d   1       1.134  -3.324  -0.261  0.00  0.00     0.000 A 
ATOM      3  C3  BNZ d   1      -0.166  -3.064   0.071  0.00  0.00     0.000 A 
ATOM      4  C4  BNZ d   1      -0.670  -1.830  -0.137  0.00  0.00     0.000 A 
ATOM      5  C5  BNZ d   1       0.110  -0.845  -0.708  0.00  0.00     0.000 A 
ATOM      6  C6  BNZ d   1       1.406  -1.121  -1.077  0.00  0.00     0.000 A 
ENDROOT
TORSDOF 0
ENDMDL
