MODEL 1
REMARK minimizedAffinity -0.93070358
REMARK minimizedRMSD -1
REMARK  0 active torsions:
REMARK  status: ('A' for Active; 'I' for Inactive)
ROOT
ATOM      1  C1  BNZ d   1       3.702   1.151   5.294  0.00  0.00     0.000 A 
ATOM      2  C2  BNZ d   1       3.765  -0.217   5.258  0.00  0.00     0.000 A 
ATOM      3  C3  BNZ d   1       4.909  -0.875   5.614  0.00  0.00     0.000 A 
ATOM      4  C4  BNZ d   1       6.000  -0.164   5.967  0.00  0.00     0.000 A 
ATOM      5  C5  BNZ d   1       5.955   1.215   5.999  0.00  0.00     0.000 A 
ATOM      6  C6  BNZ d   1       4.790   1.873   5.678  0.00  0.00     0.000 A 
ENDROOT
TORSDOF 0
ENDMDL
