MODEL 1
REMARK minimizedAffinity 3.37474561
REMARK minimizedRMSD -1
REMARK  0 active torsions:
REMARK  status: ('A' for Active; 'I' for Inactive)
ROOT
ATOM      1  C1  BNZ d   1       1.317  -2.823  -0.559  0.00  0.00     0.000 A 
ATOM      2  C2  BNZ d   1       0.067  -2.817   0.001  0.00  0.00     0.000 A 
ATOM      3  C3  BNZ d   1      -0.667  -1.666   0.062  0.00  0.00     0.000 A 
ATOM      4  C4  BNZ d   1      -0.136  -0.515  -0.398  0.00  0.00     0.000 A 
ATOM      5  C5  BNZ d   1       1.127  -0.503  -0.957  0.00  0.00     0.000 A 
ATOM      6  C6  BNZ d   1       1.848  -1.671  -1.052  0.00  0.00     0.000 A 
ENDROOT
TORSDOF 0
ENDMDL
