MODEL 1
REMARK minimizedAffinity -0.762349784
REMARK minimizedRMSD -1
REMARK  0 active torsions:
REMARK  status: ('A' for Active; 'I' for Inactive)
ROOT
ATOM      1  C1  BNZ d   1       0.422   1.054  -0.993  0.00  0.00     0.000 A 
ATOM      2  C2  BNZ d   1       1.568   1.438  -0.348  0.00  0.00     0.000 A 
ATOM      3  C3  BNZ d   1       1.617   2.609   0.356  0.00  0.00     0.000 A 
ATOM      4  C4  BNZ d   1       0.534   3.412   0.381  0.00  0.00     0.000 A 
ATOM      5  C5  BNZ d   1      -0.626   3.044  -0.271  0.00  0.00     0.000 A 
ATOM      6  C6  BNZ d   1      -0.683   1.846  -0.946  0.00  0.00     0.000 A 
ENDROOT
TORSDOF 0
ENDMDL
