MODEL 1
REMARK minimizedAffinity 1.63702118
REMARK minimizedRMSD -1
REMARK  0 active torsions:
REMARK  status: ('A' for Active; 'I' for Inactive)
ROOT
ATOM      1  C1  BNZ d   1       3.775   1.047   5.157  0.00  0.00     0.000 A 
ATOM      2  C2  BNZ d   1       4.894   0.368   5.560  0.00  0.00     0.000 A 
ATOM      3  C3  BNZ d   1       6.000   1.040   6.000  0.00  0.00     0.000 A 
ATOM      4  C4  BNZ d   1       6.000   2.389   5.999  0.00  0.00     0.000 A 
ATOM      5  C5  BNZ d   1       4.882   3.088   5.587  0.00  0.00     0.000 A 
ATOM      6  C6  BNZ d   1       3.757   2.407   5.182  0.00  0.00     0.000 A 
ENDROOT
TORSDOF 0
ENDMDL
