MODEL 1
REMARK minimizedAffinity 3.21880555
REMARK minimizedRMSD -1
REMARK  0 active torsions:
REMARK  status: ('A' for Active; 'I' for Inactive)
ROOT
ATOM      1  C1  BNZ d   1       4.123   2.749   4.254  0.00  0.00     0.000 A 
ATOM      2  C2  BNZ d   1       4.133   1.428   4.614  0.00  0.00     0.000 A 
ATOM      3  C3  BNZ d   1       5.056   0.952   5.503  0.00  0.00     0.000 A 
ATOM      4  C4  BNZ d   1       5.991   1.788   5.999  0.00  0.00     0.000 A 
ATOM      5  C5  BNZ d   1       6.000   3.120   5.638  0.00  0.00     0.000 A 
ATOM      6  C6  BNZ d   1       5.045   3.604   4.773  0.00  0.00     0.000 A 
ENDROOT
TORSDOF 0
ENDMDL
