MODEL 1
REMARK minimizedAffinity -1.41420281
REMARK minimizedRMSD -1
REMARK  0 active torsions:
REMARK  status: ('A' for Active; 'I' for Inactive)
ROOT
ATOM      1  C1  BNZ d   1       0.792   0.330  -1.141  0.00  0.00     0.000 A 
ATOM      2  C2  BNZ d   1       1.069   0.755  -2.413  0.00  0.00     0.000 A 
ATOM      3  C3  BNZ d   1       1.766  -0.039  -3.280  0.00  0.00     0.000 A 
ATOM      4  C4  BNZ d   1       2.221  -1.238  -2.862  0.00  0.00     0.000 A 
ATOM      5  C5  BNZ d   1       1.958  -1.677  -1.580  0.00  0.00     0.000 A 
ATOM      6  C6  BNZ d   1       1.222  -0.892  -0.722  0.00  0.00     0.000 A 
ENDROOT
TORSDOF 0
ENDMDL
