MODEL 1
REMARK minimizedAffinity -0.307400525
REMARK minimizedRMSD -1
REMARK  0 active torsions:
REMARK  status: ('A' for Active; 'I' for Inactive)
ROOT
ATOM      1  C1  BNZ d   1       1.975  -1.384  -2.042  0.00  0.00     0.000 A 
ATOM      2  C2  BNZ d   1       1.958  -0.467  -3.058  0.00  0.00     0.000 A 
ATOM      3  C3  BNZ d   1       1.484  -0.802  -4.296  0.00  0.00     0.000 A 
ATOM      4  C4  BNZ d   1       1.067  -2.064  -4.526  0.00  0.00     0.000 A 
ATOM      5  C5  BNZ d   1       1.086  -3.003  -3.514  0.00  0.00     0.000 A 
ATOM      6  C6  BNZ d   1       1.527  -2.650  -2.259  0.00  0.00     0.000 A 
ENDROOT
TORSDOF 0
ENDMDL
