MODEL 1
REMARK minimizedAffinity 1.29173493
REMARK minimizedRMSD -1
REMARK  0 active torsions:
REMARK  status: ('A' for Active; 'I' for Inactive)
ROOT
ATOM      1  C1  BNZ d   1       5.810   1.519   5.997  0.00  0.00     0.000 A 
ATOM      2  C2  BNZ d   1       5.749   2.887   5.999  0.00  0.00     0.000 A 
ATOM      3  C3  BNZ d   1       5.283   3.568   4.910  0.00  0.00     0.000 A 
ATOM      4  C4  BNZ d   1       4.917   2.885   3.807  0.00  0.00     0.000 A 
ATOM      5  C5  BNZ d   1       4.981   1.506   3.786  0.00  0.00     0.000 A 
ATOM      6  C6  BNZ d   1       5.414   0.821   4.898  0.00  0.00     0.000 A 
ENDROOT
TORSDOF 0
ENDMDL
