MODEL 1
REMARK minimizedAffinity -1.08198106
REMARK minimizedRMSD -1
REMARK  0 active torsions:
REMARK  status: ('A' for Active; 'I' for Inactive)
ROOT
ATOM      1  C1  BNZ d   1       5.270   3.719   3.752  0.00  0.00     0.000 A 
ATOM      2  C2  BNZ d   1       5.263   2.350   3.767  0.00  0.00     0.000 A 
ATOM      3  C3  BNZ d   1       5.598   1.661   4.898  0.00  0.00     0.000 A 
ATOM      4  C4  BNZ d   1       5.978   2.340   6.000  0.00  0.00     0.000 A 
ATOM      5  C5  BNZ d   1       6.000   3.720   5.998  0.00  0.00     0.000 A 
ATOM      6  C6  BNZ d   1       5.624   4.411   4.869  0.00  0.00     0.000 A 
ENDROOT
TORSDOF 0
ENDMDL
