MODEL 1
REMARK minimizedAffinity -1.54993021
REMARK minimizedRMSD -1
REMARK  0 active torsions:
REMARK  status: ('A' for Active; 'I' for Inactive)
ROOT
ATOM      1  C1  BNZ d   1       5.965  -1.580   3.902  0.00  0.00     0.000 A 
ATOM      2  C2  BNZ d   1       5.989  -0.211   3.919  0.00  0.00     0.000 A 
ATOM      3  C3  BNZ d   1       5.478   0.485   4.979  0.00  0.00     0.000 A 
ATOM      4  C4  BNZ d   1       4.908  -0.186   6.000  0.00  0.00     0.000 A 
ATOM      5  C5  BNZ d   1       4.868  -1.566   5.993  0.00  0.00     0.000 A 
ATOM      6  C6  BNZ d   1       5.418  -2.265   4.943  0.00  0.00     0.000 A 
ENDROOT
TORSDOF 0
ENDMDL
