MODEL 1
REMARK minimizedAffinity -4.4211297
REMARK minimizedRMSD -1
REMARK  0 active torsions:
REMARK  status: ('A' for Active; 'I' for Inactive)
ROOT
ATOM      1  C1  BNZ d   1       1.779  -1.238  -2.623  0.00  0.00     0.000 A 
ATOM      2  C2  BNZ d   1       1.682  -2.107  -1.569  0.00  0.00     0.000 A 
ATOM      3  C3  BNZ d   1       0.939  -1.789  -0.466  0.00  0.00     0.000 A 
ATOM      4  C4  BNZ d   1       0.328  -0.588  -0.402  0.00  0.00     0.000 A 
ATOM      5  C5  BNZ d   1       0.424   0.302  -1.453  0.00  0.00     0.000 A 
ATOM      6  C6  BNZ d   1       1.141  -0.037  -2.577  0.00  0.00     0.000 A 
ENDROOT
TORSDOF 0
ENDMDL
