MODEL 1
REMARK minimizedAffinity 0.339461833
REMARK minimizedRMSD -1
REMARK  0 active torsions:
REMARK  status: ('A' for Active; 'I' for Inactive)
ROOT
ATOM      1  C1  BNZ d   1       5.999  -2.323   3.717  0.00  0.00     0.000 A 
ATOM      2  C2  BNZ d   1       5.984  -0.954   3.735  0.00  0.00     0.000 A 
ATOM      3  C3  BNZ d   1       5.691  -0.273   4.883  0.00  0.00     0.000 A 
ATOM      4  C4  BNZ d   1       5.375  -0.960   6.000  0.00  0.00     0.000 A 
ATOM      5  C5  BNZ d   1       5.378  -2.341   5.995  0.00  0.00     0.000 A 
ATOM      6  C6  BNZ d   1       5.711  -3.023   4.848  0.00  0.00     0.000 A 
ENDROOT
TORSDOF 0
ENDMDL
