MODEL 1
REMARK minimizedAffinity 0.913309157
REMARK minimizedRMSD -1
REMARK  0 active torsions:
REMARK  status: ('A' for Active; 'I' for Inactive)
ROOT
ATOM      1  C1  BNZ d   1       1.342  -0.207  -3.563  0.00  0.00     0.000 A 
ATOM      2  C2  BNZ d   1       1.806  -0.489  -2.305  0.00  0.00     0.000 A 
ATOM      3  C3  BNZ d   1       1.820  -1.772  -1.836  0.00  0.00     0.000 A 
ATOM      4  C4  BNZ d   1       1.333  -2.766  -2.607  0.00  0.00     0.000 A 
ATOM      5  C5  BNZ d   1       0.854  -2.497  -3.873  0.00  0.00     0.000 A 
ATOM      6  C6  BNZ d   1       0.877  -1.209  -4.358  0.00  0.00     0.000 A 
ENDROOT
TORSDOF 0
ENDMDL
