MODEL 1
REMARK minimizedAffinity -0.329995513
REMARK minimizedRMSD -1
REMARK  0 active torsions:
REMARK  status: ('A' for Active; 'I' for Inactive)
ROOT
ATOM      1  C1  BNZ d   1       1.077  -2.832  -0.753  0.00  0.00     0.000 A 
ATOM      2  C2  BNZ d   1       0.044  -2.567   0.107  0.00  0.00     0.000 A 
ATOM      3  C3  BNZ d   1      -0.356  -1.282   0.345  0.00  0.00     0.000 A 
ATOM      4  C4  BNZ d   1       0.302  -0.263  -0.244  0.00  0.00     0.000 A 
ATOM      5  C5  BNZ d   1       1.351  -0.513  -1.106  0.00  0.00     0.000 A 
ATOM      6  C6  BNZ d   1       1.726  -1.810  -1.373  0.00  0.00     0.000 A 
ENDROOT
TORSDOF 0
ENDMDL
