MODEL 1
REMARK minimizedAffinity -2.33781719
REMARK minimizedRMSD -1
REMARK  1 active torsions:
REMARK  status: ('A' for Active; 'I' for Inactive)
REMARK    1  A    between atoms: C1_2  and  C2_3 
ROOT
ATOM      1  C2  UNL d   1       0.329   0.466   0.217  0.00  0.00    -0.077 A 
ATOM      2  C3  UNL d   1      -0.490   1.554   0.551  0.00  0.00     0.002 A 
ATOM      3  C4  UNL d   1      -1.854   1.366   0.784  0.00  0.00     0.002 A 
ATOM      4  C5  UNL d   1      -2.409   0.091   0.690  0.00  0.00    -0.004 A 
ATOM      5  C6  UNL d   1      -1.603  -0.997   0.357  0.00  0.00     0.002 A 
ATOM      6  C7  UNL d   1      -0.240  -0.811   0.123  0.00  0.00     0.002 A 
ENDROOT
BRANCH   1   7
ATOM      7  C1  UNL d   1       1.809   0.658   0.014  0.00  0.00     0.055 C 
ATOM      8  C   UNL d   1       2.588  -0.590   0.400  0.00  0.00     0.019 C 
ENDBRANCH   1   7
TORSDOF 1
ENDMDL
