MODEL 1
REMARK minimizedAffinity -5.07472324
REMARK minimizedRMSD -1
REMARK  1 active torsions:
REMARK  status: ('A' for Active; 'I' for Inactive)
REMARK    1  A    between atoms: C1_2  and  C2_3 
ROOT
ATOM      1  C2  UNL d   1      -0.403  -0.660   0.729  0.00  0.00    -0.077 A 
ATOM      2  C3  UNL d   1       0.684   0.102   0.281  0.00  0.00     0.002 A 
ATOM      3  C4  UNL d   1       0.638   1.497   0.333  0.00  0.00     0.002 A 
ATOM      4  C5  UNL d   1      -0.491   2.140   0.836  0.00  0.00    -0.004 A 
ATOM      5  C6  UNL d   1      -1.578   1.390   1.283  0.00  0.00     0.002 A 
ATOM      6  C7  UNL d   1      -1.534  -0.004   1.230  0.00  0.00     0.002 A 
ENDROOT
BRANCH   1   7
ATOM      7  C1  UNL d   1      -0.336  -2.165   0.719  0.00  0.00     0.055 C 
ATOM      8  C   UNL d   1      -1.696  -2.779   0.420  0.00  0.00     0.019 C 
ENDBRANCH   1   7
TORSDOF 1
ENDMDL
