MODEL 1
REMARK minimizedAffinity -4.80156088
REMARK minimizedRMSD -1
REMARK  1 active torsions:
REMARK  status: ('A' for Active; 'I' for Inactive)
REMARK    1  A    between atoms: C1_2  and  C2_3 
ROOT
ATOM      1  C2  UNL d   1       0.572   1.337  -1.248  0.00  0.00    -0.077 A 
ATOM      2  C3  UNL d   1      -0.299   1.805  -2.242  0.00  0.00     0.002 A 
ATOM      3  C4  UNL d   1       0.207   2.332  -3.432  0.00  0.00     0.002 A 
ATOM      4  C5  UNL d   1       1.583   2.392  -3.640  0.00  0.00    -0.004 A 
ATOM      5  C6  UNL d   1       2.457   1.931  -2.656  0.00  0.00     0.002 A 
ATOM      6  C7  UNL d   1       1.954   1.405  -1.466  0.00  0.00     0.002 A 
ENDROOT
BRANCH   1   7
ATOM      7  C1  UNL d   1       0.028   0.723   0.016  0.00  0.00     0.055 C 
ATOM      8  C   UNL d   1       0.049  -0.797  -0.053  0.00  0.00     0.019 C 
ENDBRANCH   1   7
TORSDOF 1
ENDMDL
