MODEL 1
REMARK minimizedAffinity -4.89443541
REMARK minimizedRMSD -1
REMARK  1 active torsions:
REMARK  status: ('A' for Active; 'I' for Inactive)
REMARK    1  A    between atoms: C1_2  and  C2_3 
ROOT
ATOM      1  C2  UNL d   1       0.019   0.100   0.102  0.00  0.00    -0.077 A 
ATOM      2  C3  UNL d   1       0.643  -1.081   0.530  0.00  0.00     0.002 A 
ATOM      3  C4  UNL d   1      -0.121  -2.160   0.977  0.00  0.00     0.002 A 
ATOM      4  C5  UNL d   1      -1.512  -2.071   0.998  0.00  0.00    -0.004 A 
ATOM      5  C6  UNL d   1      -2.141  -0.900   0.576  0.00  0.00     0.002 A 
ATOM      6  C7  UNL d   1      -1.379   0.180   0.130  0.00  0.00     0.002 A 
ENDROOT
BRANCH   1   7
ATOM      7  C1  UNL d   1       0.839   1.248  -0.427  0.00  0.00     0.055 C 
ATOM      8  C   UNL d   1       0.670   1.402  -1.931  0.00  0.00     0.019 C 
ENDBRANCH   1   7
TORSDOF 1
ENDMDL
