MODEL 1
REMARK minimizedAffinity -4.49976683
REMARK minimizedRMSD -1
REMARK  1 active torsions:
REMARK  status: ('A' for Active; 'I' for Inactive)
REMARK    1  A    between atoms: C1_2  and  C2_3 
ROOT
ATOM      1  C2  UNL d   1       0.316   0.028  -0.213  0.00  0.00    -0.077 A 
ATOM      2  C3  UNL d   1      -1.044   0.302  -0.013  0.00  0.00     0.002 A 
ATOM      3  C4  UNL d   1      -1.902  -0.691   0.465  0.00  0.00     0.002 A 
ATOM      4  C5  UNL d   1      -1.408  -1.962   0.750  0.00  0.00    -0.004 A 
ATOM      5  C6  UNL d   1      -0.057  -2.245   0.553  0.00  0.00     0.002 A 
ATOM      6  C7  UNL d   1       0.802  -1.254   0.074  0.00  0.00     0.002 A 
ENDROOT
BRANCH   1   7
ATOM      7  C1  UNL d   1       1.252   1.112  -0.681  0.00  0.00     0.055 C 
ATOM      8  C   UNL d   1       0.954   1.520  -2.116  0.00  0.00     0.019 C 
ENDBRANCH   1   7
TORSDOF 1
ENDMDL
