MODEL 1
REMARK minimizedAffinity -5.3859992
REMARK minimizedRMSD -1
REMARK  1 active torsions:
REMARK  status: ('A' for Active; 'I' for Inactive)
REMARK    1  A    between atoms: C1_2  and  C2_3 
ROOT
ATOM      1  C2  UNL d   1      -1.347  -0.318   0.714  0.00  0.00    -0.077 A 
ATOM      2  C3  UNL d   1      -2.485  -0.241   1.529  0.00  0.00     0.002 A 
ATOM      3  C4  UNL d   1      -3.035  -1.396   2.087  0.00  0.00     0.002 A 
ATOM      4  C5  UNL d   1      -2.451  -2.637   1.839  0.00  0.00    -0.004 A 
ATOM      5  C6  UNL d   1      -1.321  -2.725   1.028  0.00  0.00     0.002 A 
ATOM      6  C7  UNL d   1      -0.771  -1.571   0.469  0.00  0.00     0.002 A 
ENDROOT
BRANCH   1   7
ATOM      7  C1  UNL d   1      -0.724   0.932   0.151  0.00  0.00     0.055 C 
ATOM      8  C   UNL d   1       0.772   0.756  -0.067  0.00  0.00     0.019 C 
ENDBRANCH   1   7
TORSDOF 1
ENDMDL
