MODEL 1
REMARK minimizedAffinity -4.12149715
REMARK minimizedRMSD -1
REMARK  1 active torsions:
REMARK  status: ('A' for Active; 'I' for Inactive)
REMARK    1  A    between atoms: C1_2  and  C2_3 
ROOT
ATOM      1  C2  UNL d   1       0.086  -0.628  -0.157  0.00  0.00    -0.077 A 
ATOM      2  C3  UNL d   1      -1.024  -1.096  -0.874  0.00  0.00     0.002 A 
ATOM      3  C4  UNL d   1      -1.819  -2.120  -0.355  0.00  0.00     0.002 A 
ATOM      4  C5  UNL d   1      -1.515  -2.681   0.883  0.00  0.00    -0.004 A 
ATOM      5  C6  UNL d   1      -0.412  -2.224   1.603  0.00  0.00     0.002 A 
ATOM      6  C7  UNL d   1       0.385  -1.202   1.086  0.00  0.00     0.002 A 
ENDROOT
BRANCH   1   7
ATOM      7  C1  UNL d   1       0.916   0.509  -0.692  0.00  0.00     0.055 C 
ATOM      8  C   UNL d   1       0.359   1.029  -2.009  0.00  0.00     0.019 C 
ENDBRANCH   1   7
TORSDOF 1
ENDMDL
