MODEL 1
REMARK minimizedAffinity -6.22134399
REMARK minimizedRMSD -1
REMARK  1 active torsions:
REMARK  status: ('A' for Active; 'I' for Inactive)
REMARK    1  A    between atoms: C1_2  and  C2_3 
ROOT
ATOM      1  C2  UNL d   1      -0.672   0.016   0.959  0.00  0.00    -0.077 A 
ATOM      2  C3  UNL d   1      -1.913  -0.013   1.611  0.00  0.00     0.002 A 
ATOM      3  C4  UNL d   1      -2.489  -1.231   1.979  0.00  0.00     0.002 A 
ATOM      4  C5  UNL d   1      -1.831  -2.427   1.702  0.00  0.00    -0.004 A 
ATOM      5  C6  UNL d   1      -0.597  -2.408   1.052  0.00  0.00     0.002 A 
ATOM      6  C7  UNL d   1      -0.020  -1.192   0.683  0.00  0.00     0.002 A 
ENDROOT
BRANCH   1   7
ATOM      7  C1  UNL d   1      -0.026   1.330   0.606  0.00  0.00     0.055 C 
ATOM      8  C   UNL d   1       0.624   1.276  -0.769  0.00  0.00     0.019 C 
ENDBRANCH   1   7
TORSDOF 1
ENDMDL
