MODEL 1
REMARK minimizedAffinity -0.188869387
REMARK minimizedRMSD -1
REMARK  0 active torsions:
REMARK  status: ('A' for Active; 'I' for Inactive)
ROOT
ATOM      1  C1  BNZ d   1       1.048  -0.180  -1.023  0.00  0.00     0.000 A 
ATOM      2  C2  BNZ d   1       1.057   0.282   0.266  0.00  0.00     0.000 A 
ATOM      3  C3  BNZ d   1      -0.015   0.962   0.773  0.00  0.00     0.000 A 
ATOM      4  C4  BNZ d   1      -1.076   1.215  -0.020  0.00  0.00     0.000 A 
ATOM      5  C5  BNZ d   1      -1.096   0.764  -1.325  0.00  0.00     0.000 A 
ATOM      6  C6  BNZ d   1      -0.032   0.045  -1.820  0.00  0.00     0.000 A 
ENDROOT
TORSDOF 0
ENDMDL
