MODEL 1
REMARK minimizedAffinity -2.17158031
REMARK minimizedRMSD -1
REMARK  0 active torsions:
REMARK  status: ('A' for Active; 'I' for Inactive)
ROOT
ATOM      1  C1  BNZ d   1      -1.553   3.870  -5.991  0.00  0.00     0.000 A 
ATOM      2  C2  BNZ d   1      -2.775   3.252  -5.985  0.00  0.00     0.000 A 
ATOM      3  C3  BNZ d   1      -3.929   3.983  -5.999  0.00  0.00     0.000 A 
ATOM      4  C4  BNZ d   1      -3.861   5.330  -5.978  0.00  0.00     0.000 A 
ATOM      5  C5  BNZ d   1      -2.637   5.968  -5.974  0.00  0.00     0.000 A 
ATOM      6  C6  BNZ d   1      -1.477   5.229  -6.000  0.00  0.00     0.000 A 
ENDROOT
TORSDOF 0
ENDMDL
