MODEL 1
REMARK minimizedAffinity -3.24380898
REMARK minimizedRMSD -1
REMARK  0 active torsions:
REMARK  status: ('A' for Active; 'I' for Inactive)
ROOT
ATOM      1  C1  BNZ d   1       0.080   3.634  -5.995  0.00  0.00     0.000 A 
ATOM      2  C2  BNZ d   1      -1.038   2.844  -6.000  0.00  0.00     0.000 A 
ATOM      3  C3  BNZ d   1      -2.287   3.399  -5.998  0.00  0.00     0.000 A 
ATOM      4  C4  BNZ d   1      -2.417   4.740  -5.950  0.00  0.00     0.000 A 
ATOM      5  C5  BNZ d   1      -1.299   5.551  -5.936  0.00  0.00     0.000 A 
ATOM      6  C6  BNZ d   1      -0.043   4.990  -5.978  0.00  0.00     0.000 A 
ENDROOT
TORSDOF 0
ENDMDL
