MODEL 1
REMARK minimizedAffinity -0.944549143
REMARK minimizedRMSD -1
REMARK  0 active torsions:
REMARK  status: ('A' for Active; 'I' for Inactive)
ROOT
ATOM      1  C1  BNZ d   1      -2.532   3.350  -5.987  0.00  0.00     0.000 A 
ATOM      2  C2  BNZ d   1      -1.408   2.568  -5.999  0.00  0.00     0.000 A 
ATOM      3  C3  BNZ d   1      -0.162   3.131  -5.984  0.00  0.00     0.000 A 
ATOM      4  C4  BNZ d   1      -0.043   4.475  -5.999  0.00  0.00     0.000 A 
ATOM      5  C5  BNZ d   1      -1.166   5.277  -5.997  0.00  0.00     0.000 A 
ATOM      6  C6  BNZ d   1      -2.418   4.706  -5.972  0.00  0.00     0.000 A 
ENDROOT
TORSDOF 0
ENDMDL
