MODEL 1
REMARK minimizedAffinity -1.039253
REMARK minimizedRMSD -1
REMARK  0 active torsions:
REMARK  status: ('A' for Active; 'I' for Inactive)
ROOT
ATOM      1  C1  BNZ d   1      -0.834   3.714  -5.968  0.00  0.00     0.000 A 
ATOM      2  C2  BNZ d   1      -2.033   3.052  -5.960  0.00  0.00     0.000 A 
ATOM      3  C3  BNZ d   1      -3.213   3.742  -5.996  0.00  0.00     0.000 A 
ATOM      4  C4  BNZ d   1      -3.192   5.091  -5.998  0.00  0.00     0.000 A 
ATOM      5  C5  BNZ d   1      -1.992   5.772  -5.996  0.00  0.00     0.000 A 
ATOM      6  C6  BNZ d   1      -0.806   5.074  -6.000  0.00  0.00     0.000 A 
ENDROOT
TORSDOF 0
ENDMDL
