MODEL 1
REMARK minimizedAffinity -1.32189226
REMARK minimizedRMSD -1
REMARK  0 active torsions:
REMARK  status: ('A' for Active; 'I' for Inactive)
ROOT
ATOM      1  C1  BNZ d   1       0.082   2.585  -5.964  0.00  0.00     0.000 A 
ATOM      2  C2  BNZ d   1      -1.208   3.044  -5.957  0.00  0.00     0.000 A 
ATOM      3  C3  BNZ d   1      -1.473   4.384  -5.995  0.00  0.00     0.000 A 
ATOM      4  C4  BNZ d   1      -0.450   5.263  -6.000  0.00  0.00     0.000 A 
ATOM      5  C5  BNZ d   1       0.856   4.816  -5.998  0.00  0.00     0.000 A 
ATOM      6  C6  BNZ d   1       1.119   3.465  -5.999  0.00  0.00     0.000 A 
ENDROOT
TORSDOF 0
ENDMDL
