MODEL 1
REMARK minimizedAffinity -0.697185814
REMARK minimizedRMSD -1
REMARK  0 active torsions:
REMARK  status: ('A' for Active; 'I' for Inactive)
ROOT
ATOM      1  C1  BNZ d   1       2.192   2.843  -5.985  0.00  0.00     0.000 A 
ATOM      2  C2  BNZ d   1       3.419   3.450  -6.000  0.00  0.00     0.000 A 
ATOM      3  C3  BNZ d   1       3.526   4.813  -5.987  0.00  0.00     0.000 A 
ATOM      4  C4  BNZ d   1       2.407   5.565  -6.000  0.00  0.00     0.000 A 
ATOM      5  C5  BNZ d   1       1.162   4.968  -5.994  0.00  0.00     0.000 A 
ATOM      6  C6  BNZ d   1       1.059   3.596  -5.968  0.00  0.00     0.000 A 
ENDROOT
TORSDOF 0
ENDMDL
