MODEL 1
REMARK minimizedAffinity -2.12039924
REMARK minimizedRMSD -1
REMARK  0 active torsions:
REMARK  status: ('A' for Active; 'I' for Inactive)
ROOT
ATOM      1  C1  BNZ d   1       3.915   2.792  -5.991  0.00  0.00     0.000 A 
ATOM      2  C2  BNZ d   1       3.268   3.999  -5.993  0.00  0.00     0.000 A 
ATOM      3  C3  BNZ d   1       3.972   5.170  -6.000  0.00  0.00     0.000 A 
ATOM      4  C4  BNZ d   1       5.320   5.134  -5.963  0.00  0.00     0.000 A 
ATOM      5  C5  BNZ d   1       5.987   3.925  -5.951  0.00  0.00     0.000 A 
ATOM      6  C6  BNZ d   1       5.275   2.748  -5.984  0.00  0.00     0.000 A 
ENDROOT
TORSDOF 0
ENDMDL
