MODEL 1
REMARK minimizedAffinity -1.47666597
REMARK minimizedRMSD -1
REMARK  0 active torsions:
REMARK  status: ('A' for Active; 'I' for Inactive)
ROOT
ATOM      1  C1  BNZ d   1      -3.171   3.816  -5.998  0.00  0.00     0.000 A 
ATOM      2  C2  BNZ d   1      -3.819   5.022  -6.000  0.00  0.00     0.000 A 
ATOM      3  C3  BNZ d   1      -3.506   5.986  -5.082  0.00  0.00     0.000 A 
ATOM      4  C4  BNZ d   1      -2.576   5.727  -4.140  0.00  0.00     0.000 A 
ATOM      5  C5  BNZ d   1      -1.920   4.512  -4.120  0.00  0.00     0.000 A 
ATOM      6  C6  BNZ d   1      -2.210   3.559  -5.069  0.00  0.00     0.000 A 
ENDROOT
TORSDOF 0
ENDMDL
