MODEL 1
REMARK minimizedAffinity -1.87490726
REMARK minimizedRMSD -1
REMARK  0 active torsions:
REMARK  status: ('A' for Active; 'I' for Inactive)
ROOT
ATOM      1  C1  BNZ d   1      -1.875   5.631  -4.877  0.00  0.00     0.000 A 
ATOM      2  C2  BNZ d   1      -1.087   5.579  -5.996  0.00  0.00     0.000 A 
ATOM      3  C3  BNZ d   1       0.106   4.912  -5.980  0.00  0.00     0.000 A 
ATOM      4  C4  BNZ d   1       0.528   4.333  -4.838  0.00  0.00     0.000 A 
ATOM      5  C5  BNZ d   1      -0.251   4.385  -3.699  0.00  0.00     0.000 A 
ATOM      6  C6  BNZ d   1      -1.470   5.024  -3.729  0.00  0.00     0.000 A 
ENDROOT
TORSDOF 0
ENDMDL
