MODEL 1
REMARK minimizedAffinity -1.37820578
REMARK minimizedRMSD -1
REMARK  0 active torsions:
REMARK  status: ('A' for Active; 'I' for Inactive)
ROOT
ATOM      1  C1  BNZ d   1      -3.463  -5.983  -2.973  0.00  0.00     0.000 A 
ATOM      2  C2  BNZ d   1      -3.320  -5.989  -1.611  0.00  0.00     0.000 A 
ATOM      3  C3  BNZ d   1      -3.709  -4.914  -0.861  0.00  0.00     0.000 A 
ATOM      4  C4  BNZ d   1      -4.203  -3.821  -1.477  0.00  0.00     0.000 A 
ATOM      5  C5  BNZ d   1      -4.344  -3.795  -2.850  0.00  0.00     0.000 A 
ATOM      6  C6  BNZ d   1      -3.987  -4.894  -3.598  0.00  0.00     0.000 A 
ENDROOT
TORSDOF 0
ENDMDL
