MODEL 1
REMARK minimizedAffinity 1.28688431
REMARK minimizedRMSD -1
REMARK  0 active torsions:
REMARK  status: ('A' for Active; 'I' for Inactive)
ROOT
ATOM      1  C1  BNZ d   1      -3.117  -0.006   2.090  0.00  0.00     0.000 A 
ATOM      2  C2  BNZ d   1      -1.879  -0.415   1.670  0.00  0.00     0.000 A 
ATOM      3  C3  BNZ d   1      -1.442  -1.687   1.914  0.00  0.00     0.000 A 
ATOM      4  C4  BNZ d   1      -2.225  -2.535   2.611  0.00  0.00     0.000 A 
ATOM      5  C5  BNZ d   1      -3.472  -2.135   3.049  0.00  0.00     0.000 A 
ATOM      6  C6  BNZ d   1      -3.925  -0.866   2.768  0.00  0.00     0.000 A 
ENDROOT
TORSDOF 0
ENDMDL
