MODEL 1
REMARK minimizedAffinity -0.404694289
REMARK minimizedRMSD -1
REMARK  0 active torsions:
REMARK  status: ('A' for Active; 'I' for Inactive)
ROOT
ATOM      1  C1  BNZ d   1      -3.625   3.639  -5.824  0.00  0.00     0.000 A 
ATOM      2  C2  BNZ d   1      -2.260   3.656  -5.933  0.00  0.00     0.000 A 
ATOM      3  C3  BNZ d   1      -1.577   4.838  -6.000  0.00  0.00     0.000 A 
ATOM      4  C4  BNZ d   1      -2.262   6.000  -5.997  0.00  0.00     0.000 A 
ATOM      5  C5  BNZ d   1      -3.639   6.000  -5.897  0.00  0.00     0.000 A 
ATOM      6  C6  BNZ d   1      -4.320   4.809  -5.791  0.00  0.00     0.000 A 
ENDROOT
TORSDOF 0
ENDMDL
