MODEL 1
REMARK minimizedAffinity 1.64993894
REMARK minimizedRMSD -1
REMARK  0 active torsions:
REMARK  status: ('A' for Active; 'I' for Inactive)
ROOT
ATOM      1  C1  BNZ d   1       2.992  -2.143  -1.775  0.00  0.00     0.000 A 
ATOM      2  C2  BNZ d   1       2.928  -2.374  -3.124  0.00  0.00     0.000 A 
ATOM      3  C3  BNZ d   1       2.215  -1.544  -3.943  0.00  0.00     0.000 A 
ATOM      4  C4  BNZ d   1       1.534  -0.509  -3.409  0.00  0.00     0.000 A 
ATOM      5  C5  BNZ d   1       1.581  -0.269  -2.050  0.00  0.00     0.000 A 
ATOM      6  C6  BNZ d   1       2.331  -1.083  -1.234  0.00  0.00     0.000 A 
ENDROOT
TORSDOF 0
ENDMDL
