MODEL 1
REMARK minimizedAffinity 3.43427992
REMARK minimizedRMSD -1
REMARK  0 active torsions:
REMARK  status: ('A' for Active; 'I' for Inactive)
ROOT
ATOM      1  C1  BNZ d   1      -3.692  -2.240   3.407  0.00  0.00     0.000 A 
ATOM      2  C2  BNZ d   1      -4.856  -1.519   3.378  0.00  0.00     0.000 A 
ATOM      3  C3  BNZ d   1      -4.969  -0.402   2.598  0.00  0.00     0.000 A 
ATOM      4  C4  BNZ d   1      -3.906   0.016   1.881  0.00  0.00     0.000 A 
ATOM      5  C5  BNZ d   1      -2.722  -0.694   1.907  0.00  0.00     0.000 A 
ATOM      6  C6  BNZ d   1      -2.625  -1.840   2.663  0.00  0.00     0.000 A 
ENDROOT
TORSDOF 0
ENDMDL
