MODEL 1
REMARK minimizedAffinity 0.169602826
REMARK minimizedRMSD -1
REMARK  0 active torsions:
REMARK  status: ('A' for Active; 'I' for Inactive)
ROOT
ATOM      1  C1  BNZ d   1       0.829   2.855  -1.156  0.00  0.00     0.000 A 
ATOM      2  C2  BNZ d   1      -0.030   2.801  -0.092  0.00  0.00     0.000 A 
ATOM      3  C3  BNZ d   1      -0.443   1.601   0.416  0.00  0.00     0.000 A 
ATOM      4  C4  BNZ d   1      -0.028   0.457  -0.167  0.00  0.00     0.000 A 
ATOM      5  C5  BNZ d   1       0.831   0.495  -1.247  0.00  0.00     0.000 A 
ATOM      6  C6  BNZ d   1       1.275   1.704  -1.730  0.00  0.00     0.000 A 
ENDROOT
TORSDOF 0
ENDMDL
