MODEL 1
REMARK minimizedAffinity 4.51623964
REMARK minimizedRMSD -1
REMARK  1 active torsions:
REMARK  status: ('A' for Active; 'I' for Inactive)
REMARK    1  A    between atoms: C3_4  and  O_7 
ROOT
ATOM      1  C   UNL d   1       2.695  -1.508   3.599  0.00  0.00    -0.033 A 
ATOM      2  C1  UNL d   1       1.822  -1.441   4.685  0.00  0.00     0.039 A 
ATOM      3  C2  UNL d   1       0.443  -1.519   4.481  0.00  0.00    -0.080 A 
ATOM      4  C3  UNL d   1      -0.049  -1.666   3.187  0.00  0.00     0.150 A 
ATOM      5  C4  UNL d   1       0.816  -1.738   2.100  0.00  0.00    -0.007 A 
ATOM      6  C5  UNL d   1       2.193  -1.659   2.306  0.00  0.00     0.039 A 
ENDROOT
BRANCH   4   7
ATOM      7  O   UNL d   1      -1.387  -1.743   2.937  0.00  0.00    -0.526 OA
ATOM      8  H5  UNL d   1      -1.863  -1.650   3.779  0.00  0.00     0.418 HD
ENDBRANCH   4   7
TORSDOF 1
ENDMDL
