MODEL 1
REMARK minimizedAffinity -1.42165375
REMARK minimizedRMSD -1
REMARK  1 active torsions:
REMARK  status: ('A' for Active; 'I' for Inactive)
REMARK    1  A    between atoms: C3_4  and  O_7 
ROOT
ATOM      1  C   UNL d   1      -0.108  -1.307  -4.175  0.00  0.00    -0.033 A 
ATOM      2  C1  UNL d   1      -0.074  -0.686  -5.425  0.00  0.00     0.039 A 
ATOM      3  C2  UNL d   1       1.145  -0.284  -5.975  0.00  0.00    -0.080 A 
ATOM      4  C3  UNL d   1       2.322  -0.510  -5.265  0.00  0.00     0.150 A 
ATOM      5  C4  UNL d   1       2.295  -1.132  -4.021  0.00  0.00    -0.007 A 
ATOM      6  C5  UNL d   1       1.077  -1.531  -3.474  0.00  0.00     0.039 A 
ENDROOT
BRANCH   4   7
ATOM      7  O   UNL d   1       3.535  -0.132  -5.758  0.00  0.00    -0.526 OA
ATOM      8  H5  UNL d   1       3.396   0.311  -6.612  0.00  0.00     0.418 HD
ENDBRANCH   4   7
TORSDOF 1
ENDMDL
