MODEL 1
REMARK minimizedAffinity 8.14253807
REMARK minimizedRMSD -1
REMARK  1 active torsions:
REMARK  status: ('A' for Active; 'I' for Inactive)
REMARK    1  A    between atoms: C3_4  and  O_7 
ROOT
ATOM      1  C   UNL d   1       3.728  -0.743  -4.955  0.00  0.00    -0.033 A 
ATOM      2  C1  UNL d   1       3.085  -1.440  -3.931  0.00  0.00     0.039 A 
ATOM      3  C2  UNL d   1       1.695  -1.569  -3.936  0.00  0.00    -0.080 A 
ATOM      4  C3  UNL d   1       0.960  -0.997  -4.971  0.00  0.00     0.150 A 
ATOM      5  C4  UNL d   1       1.594  -0.304  -5.997  0.00  0.00    -0.007 A 
ATOM      6  C5  UNL d   1       2.983  -0.176  -5.990  0.00  0.00     0.039 A 
ENDROOT
BRANCH   4   7
ATOM      7  O   UNL d   1      -0.399  -1.091  -5.017  0.00  0.00    -0.526 OA
ATOM      8  H5  UNL d   1      -0.701  -1.572  -4.229  0.00  0.00     0.418 HD
ENDBRANCH   4   7
TORSDOF 1
ENDMDL
