MODEL 1
REMARK minimizedAffinity 0.100231037
REMARK minimizedRMSD -1
REMARK  1 active torsions:
REMARK  status: ('A' for Active; 'I' for Inactive)
REMARK    1  A    between atoms: C3_4  and  O_7 
ROOT
ATOM      1  C   UNL d   1       3.226  -0.744  -4.853  0.00  0.00    -0.033 A 
ATOM      2  C1  UNL d   1       2.526  -1.163  -3.720  0.00  0.00     0.039 A 
ATOM      3  C2  UNL d   1       1.130  -1.173  -3.725  0.00  0.00    -0.080 A 
ATOM      4  C3  UNL d   1       0.447  -0.763  -4.866  0.00  0.00     0.150 A 
ATOM      5  C4  UNL d   1       1.138  -0.348  -6.000  0.00  0.00    -0.007 A 
ATOM      6  C5  UNL d   1       2.532  -0.337  -5.993  0.00  0.00     0.039 A 
ENDROOT
BRANCH   4   7
ATOM      7  O   UNL d   1      -0.915  -0.752  -4.916  0.00  0.00    -0.526 OA
ATOM      8  H5  UNL d   1      -1.257  -1.036  -4.052  0.00  0.00     0.418 HD
ENDBRANCH   4   7
TORSDOF 1
ENDMDL
