MODEL 1
REMARK minimizedAffinity -2.35011125
REMARK minimizedRMSD -1
REMARK  1 active torsions:
REMARK  status: ('A' for Active; 'I' for Inactive)
REMARK    1  A    between atoms: C3_4  and  O_7 
ROOT
ATOM      1  C   UNL d   1       0.406  -6.000  -5.998  0.00  0.00    -0.033 A 
ATOM      2  C1  UNL d   1      -0.364  -5.995  -4.834  0.00  0.00     0.039 A 
ATOM      3  C2  UNL d   1       0.258  -5.993  -3.584  0.00  0.00    -0.080 A 
ATOM      4  C3  UNL d   1       1.648  -5.995  -3.512  0.00  0.00     0.150 A 
ATOM      5  C4  UNL d   1       2.421  -5.995  -4.668  0.00  0.00    -0.007 A 
ATOM      6  C5  UNL d   1       1.798  -5.998  -5.916  0.00  0.00     0.039 A 
ENDROOT
BRANCH   4   7
ATOM      7  O   UNL d   1       2.300  -5.998  -2.315  0.00  0.00    -0.526 OA
ATOM      8  H5  UNL d   1       1.638  -6.026  -1.604  0.00  0.00     0.418 HD
ENDBRANCH   4   7
TORSDOF 1
ENDMDL
