MODEL 1
REMARK minimizedAffinity -0.531614184
REMARK minimizedRMSD -1
REMARK  1 active torsions:
REMARK  status: ('A' for Active; 'I' for Inactive)
REMARK    1  A    between atoms: C3_4  and  O_7 
ROOT
ATOM      1  C   UNL d   1       1.158   0.200   2.744  0.00  0.00    -0.033 A 
ATOM      2  C1  UNL d   1      -0.145   0.591   2.429  0.00  0.00     0.039 A 
ATOM      3  C2  UNL d   1      -1.172  -0.354   2.402  0.00  0.00    -0.080 A 
ATOM      4  C3  UNL d   1      -0.884  -1.685   2.694  0.00  0.00     0.150 A 
ATOM      5  C4  UNL d   1       0.411  -2.080   3.013  0.00  0.00    -0.007 A 
ATOM      6  C5  UNL d   1       1.436  -1.135   3.038  0.00  0.00     0.039 A 
ENDROOT
BRANCH   4   7
ATOM      7  O   UNL d   1      -1.853  -2.644   2.676  0.00  0.00    -0.526 OA
ATOM      8  H5  UNL d   1      -2.691  -2.230   2.412  0.00  0.00     0.418 HD
ENDBRANCH   4   7
TORSDOF 1
ENDMDL
