MODEL 1
REMARK minimizedAffinity 0.165207878
REMARK minimizedRMSD -1
REMARK  1 active torsions:
REMARK  status: ('A' for Active; 'I' for Inactive)
REMARK    1  A    between atoms: C3_4  and  O_7 
ROOT
ATOM      1  C   UNL d   1       3.751  -1.125  -4.589  0.00  0.00    -0.033 A 
ATOM      2  C1  UNL d   1       3.301  -0.515  -5.762  0.00  0.00     0.039 A 
ATOM      3  C2  UNL d   1       1.932  -0.379  -6.000  0.00  0.00    -0.080 A 
ATOM      4  C3  UNL d   1       1.024  -0.855  -5.058  0.00  0.00     0.150 A 
ATOM      5  C4  UNL d   1       1.465  -1.461  -3.886  0.00  0.00    -0.007 A 
ATOM      6  C5  UNL d   1       2.832  -1.597  -3.650  0.00  0.00     0.039 A 
ENDROOT
BRANCH   4   7
ATOM      7  O   UNL d   1      -0.321  -0.749  -5.248  0.00  0.00    -0.526 OA
ATOM      8  H5  UNL d   1      -0.478  -0.336  -6.114  0.00  0.00     0.418 HD
ENDBRANCH   4   7
TORSDOF 1
ENDMDL
