MODEL 1
REMARK minimizedAffinity 3.25819182
REMARK minimizedRMSD -1
REMARK  1 active torsions:
REMARK  status: ('A' for Active; 'I' for Inactive)
REMARK    1  A    between atoms: C3_4  and  O_7 
ROOT
ATOM      1  C   UNL d   1       5.998  -0.233  -3.954  0.00  0.00    -0.033 A 
ATOM      2  C1  UNL d   1       4.798  -0.373  -3.254  0.00  0.00     0.039 A 
ATOM      3  C2  UNL d   1       3.579  -0.261  -3.926  0.00  0.00    -0.080 A 
ATOM      4  C3  UNL d   1       3.574  -0.010  -5.295  0.00  0.00     0.150 A 
ATOM      5  C4  UNL d   1       4.766   0.127  -5.999  0.00  0.00    -0.007 A 
ATOM      6  C5  UNL d   1       5.982   0.016  -5.326  0.00  0.00     0.039 A 
ENDROOT
BRANCH   4   7
ATOM      7  O   UNL d   1       2.409   0.113  -5.993  0.00  0.00    -0.526 OA
ATOM      8  H5  UNL d   1       1.668   0.024  -5.372  0.00  0.00     0.418 HD
ENDBRANCH   4   7
TORSDOF 1
ENDMDL
