MODEL 1
REMARK minimizedAffinity 8.33443928
REMARK minimizedRMSD -1
REMARK  1 active torsions:
REMARK  status: ('A' for Active; 'I' for Inactive)
REMARK    1  A    between atoms: C3_4  and  O_7 
ROOT
ATOM      1  C   UNL d   1       2.117  -0.843   3.756  0.00  0.00    -0.033 A 
ATOM      2  C1  UNL d   1       1.960  -1.741   2.698  0.00  0.00     0.039 A 
ATOM      3  C2  UNL d   1       0.690  -2.218   2.368  0.00  0.00    -0.080 A 
ATOM      4  C3  UNL d   1      -0.413  -1.790   3.101  0.00  0.00     0.150 A 
ATOM      5  C4  UNL d   1      -0.264  -0.893   4.154  0.00  0.00    -0.007 A 
ATOM      6  C5  UNL d   1       1.004  -0.418   4.483  0.00  0.00     0.039 A 
ENDROOT
BRANCH   4   7
ATOM      7  O   UNL d   1      -1.672  -2.232   2.819  0.00  0.00    -0.526 OA
ATOM      8  H5  UNL d   1      -1.617  -2.868   2.087  0.00  0.00     0.418 HD
ENDBRANCH   4   7
TORSDOF 1
ENDMDL
