MODEL 1
REMARK minimizedAffinity 6.48222494
REMARK minimizedRMSD -1
REMARK  1 active torsions:
REMARK  status: ('A' for Active; 'I' for Inactive)
REMARK    1  A    between atoms: C3_4  and  O_7 
ROOT
ATOM      1  C   UNL d   1       2.684  -1.500   4.578  0.00  0.00    -0.033 A 
ATOM      2  C1  UNL d   1       2.594  -1.991   3.274  0.00  0.00     0.039 A 
ATOM      3  C2  UNL d   1       1.398  -1.874   2.563  0.00  0.00    -0.080 A 
ATOM      4  C3  UNL d   1       0.302  -1.264   3.166  0.00  0.00     0.150 A 
ATOM      5  C4  UNL d   1       0.385  -0.769   4.464  0.00  0.00    -0.007 A 
ATOM      6  C5  UNL d   1       1.580  -0.888   5.172  0.00  0.00     0.039 A 
ENDROOT
BRANCH   4   7
ATOM      7  O   UNL d   1      -0.888  -1.131   2.514  0.00  0.00    -0.526 OA
ATOM      8  H5  UNL d   1      -0.806  -1.543   1.638  0.00  0.00     0.418 HD
ENDBRANCH   4   7
TORSDOF 1
ENDMDL
