MODEL 1
REMARK minimizedAffinity 3.41621804
REMARK minimizedRMSD -1
REMARK  1 active torsions:
REMARK  status: ('A' for Active; 'I' for Inactive)
REMARK    1  A    between atoms: C3_4  and  O_7 
ROOT
ATOM      1  C   UNL d   1       4.863  -0.710  -4.167  0.00  0.00    -0.033 A 
ATOM      2  C1  UNL d   1       3.719  -1.125  -3.483  0.00  0.00     0.039 A 
ATOM      3  C2  UNL d   1       2.458  -0.946  -4.055  0.00  0.00    -0.080 A 
ATOM      4  C3  UNL d   1       2.355  -0.351  -5.310  0.00  0.00     0.150 A 
ATOM      5  C4  UNL d   1       3.490   0.062  -5.998  0.00  0.00    -0.007 A 
ATOM      6  C5  UNL d   1       4.749  -0.117  -5.425  0.00  0.00     0.039 A 
ENDROOT
BRANCH   4   7
ATOM      7  O   UNL d   1       1.145  -0.150  -5.906  0.00  0.00    -0.526 OA
ATOM      8  H5  UNL d   1       0.449  -0.459  -5.302  0.00  0.00     0.418 HD
ENDBRANCH   4   7
TORSDOF 1
ENDMDL
