MODEL 1
REMARK minimizedAffinity -3.2095437
REMARK minimizedRMSD -1
REMARK  0 active torsions:
REMARK  status: ('A' for Active; 'I' for Inactive)
ROOT
ATOM      1  C   UNL d   1       1.131  -1.274  -0.785  0.00  0.00     0.172 C 
ATOM      2  N   UNL d   1       1.176  -0.644  -2.084  0.00  0.00    -0.070 N 
ATOM      3  C1  UNL d   1       0.162  -0.638  -3.003  0.00  0.00    -0.004 A 
ATOM      4  C2  UNL d   1       0.597   0.065  -4.107  0.00  0.00    -0.047 A 
ATOM      5  C3  UNL d   1       1.919   0.494  -3.841  0.00  0.00    -0.047 A 
ATOM      6  C4  UNL d   1       2.253   0.042  -2.582  0.00  0.00    -0.004 A 
ENDROOT
TORSDOF 0
ENDMDL
