MODEL 1
REMARK minimizedAffinity -2.55891728
REMARK minimizedRMSD -1
REMARK  0 active torsions:
REMARK  status: ('A' for Active; 'I' for Inactive)
ROOT
ATOM      1  C   UNL d   1       1.041  -0.426   3.987  0.00  0.00     0.172 C 
ATOM      2  N   UNL d   1       0.705  -0.263   2.592  0.00  0.00    -0.070 N 
ATOM      3  C1  UNL d   1      -0.498   0.176   2.106  0.00  0.00    -0.004 A 
ATOM      4  C2  UNL d   1      -0.417   0.192   0.730  0.00  0.00    -0.047 A 
ATOM      5  C3  UNL d   1       0.879  -0.253   0.377  0.00  0.00    -0.047 A 
ATOM      6  C4  UNL d   1       1.553  -0.528   1.548  0.00  0.00    -0.004 A 
ENDROOT
TORSDOF 0
ENDMDL
