MODEL 1
REMARK minimizedAffinity -3.07564902
REMARK minimizedRMSD -1
REMARK  0 active torsions:
REMARK  status: ('A' for Active; 'I' for Inactive)
ROOT
ATOM      1  C   UNL d   1       0.692  -0.467  -0.659  0.00  0.00     0.172 C 
ATOM      2  N   UNL d   1       0.034   0.016   0.532  0.00  0.00    -0.070 N 
ATOM      3  C1  UNL d   1       0.643   0.272   1.732  0.00  0.00    -0.004 A 
ATOM      4  C2  UNL d   1      -0.323   0.716   2.609  0.00  0.00    -0.047 A 
ATOM      5  C3  UNL d   1      -1.555   0.727   1.912  0.00  0.00    -0.047 A 
ATOM      6  C4  UNL d   1      -1.305   0.289   0.629  0.00  0.00    -0.004 A 
ENDROOT
TORSDOF 0
ENDMDL
