MODEL 1
REMARK minimizedAffinity -3.81296396
REMARK minimizedRMSD -1
REMARK  0 active torsions:
REMARK  status: ('A' for Active; 'I' for Inactive)
ROOT
ATOM      1  C   UNL d   1       0.732   0.199  -0.429  0.00  0.00     0.172 C 
ATOM      2  N   UNL d   1       0.064   0.514   0.812  0.00  0.00    -0.070 N 
ATOM      3  C1  UNL d   1      -1.212   0.147   1.147  0.00  0.00    -0.004 A 
ATOM      4  C2  UNL d   1      -1.475   0.638   2.408  0.00  0.00    -0.047 A 
ATOM      5  C3  UNL d   1      -0.317   1.325   2.844  0.00  0.00    -0.047 A 
ATOM      6  C4  UNL d   1       0.620   1.232   1.837  0.00  0.00    -0.004 A 
ENDROOT
TORSDOF 0
ENDMDL
