MODEL 1
REMARK minimizedAffinity -2.65240908
REMARK minimizedRMSD -1
REMARK  0 active torsions:
REMARK  status: ('A' for Active; 'I' for Inactive)
ROOT
ATOM      1  C   UNL d   1       1.139  -0.480   2.929  0.00  0.00     0.172 C 
ATOM      2  N   UNL d   1       0.117  -0.215   1.944  0.00  0.00    -0.070 N 
ATOM      3  C1  UNL d   1       0.251  -0.380   0.591  0.00  0.00    -0.004 A 
ATOM      4  C2  UNL d   1      -0.942  -0.022   0.002  0.00  0.00    -0.047 A 
ATOM      5  C3  UNL d   1      -1.824   0.372   1.037  0.00  0.00    -0.047 A 
ATOM      6  C4  UNL d   1      -1.142   0.242   2.228  0.00  0.00    -0.004 A 
ENDROOT
TORSDOF 0
ENDMDL
