MODEL 1
REMARK minimizedAffinity -1.83538938
REMARK minimizedRMSD -1
REMARK  0 active torsions:
REMARK  status: ('A' for Active; 'I' for Inactive)
ROOT
ATOM      1  C   UNL d   1       2.062   0.594  -3.426  0.00  0.00     0.172 C 
ATOM      2  N   UNL d   1       0.707   0.219  -3.755  0.00  0.00    -0.070 N 
ATOM      3  C1  UNL d   1       0.037  -0.869  -3.262  0.00  0.00    -0.004 A 
ATOM      4  C2  UNL d   1      -1.224  -0.875  -3.817  0.00  0.00    -0.047 A 
ATOM      5  C3  UNL d   1      -1.316   0.248  -4.673  0.00  0.00    -0.047 A 
ATOM      6  C4  UNL d   1      -0.106   0.908  -4.616  0.00  0.00    -0.004 A 
ENDROOT
TORSDOF 0
ENDMDL
