MODEL 1
REMARK minimizedAffinity -1.00156105
REMARK minimizedRMSD -1
REMARK  0 active torsions:
REMARK  status: ('A' for Active; 'I' for Inactive)
ROOT
ATOM      1  C   UNL d   1      -0.214   0.374   0.554  0.00  0.00     0.172 C 
ATOM      2  N   UNL d   1      -0.052   0.333   1.988  0.00  0.00    -0.070 N 
ATOM      3  C1  UNL d   1      -0.335   1.356   2.853  0.00  0.00    -0.004 A 
ATOM      4  C2  UNL d   1      -0.047   0.921   4.129  0.00  0.00    -0.047 A 
ATOM      5  C3  UNL d   1       0.427  -0.408   4.027  0.00  0.00    -0.047 A 
ATOM      6  C4  UNL d   1       0.414  -0.747   2.691  0.00  0.00    -0.004 A 
ENDROOT
TORSDOF 0
ENDMDL
