MODEL 1
REMARK minimizedAffinity -2.90154791
REMARK minimizedRMSD -1
REMARK  0 active torsions:
REMARK  status: ('A' for Active; 'I' for Inactive)
ROOT
ATOM      1  C   UNL d   1       0.762  -0.016   1.538  0.00  0.00     0.172 C 
ATOM      2  N   UNL d   1       0.533   0.027   2.963  0.00  0.00    -0.070 N 
ATOM      3  C1  UNL d   1      -0.289   0.908   3.613  0.00  0.00    -0.004 A 
ATOM      4  C2  UNL d   1      -0.233   0.623   4.960  0.00  0.00    -0.047 A 
ATOM      5  C3  UNL d   1       0.654  -0.467   5.126  0.00  0.00    -0.047 A 
ATOM      6  C4  UNL d   1       1.114  -0.816   3.873  0.00  0.00    -0.004 A 
ENDROOT
TORSDOF 0
ENDMDL
