MODEL 1
REMARK minimizedAffinity 0.429143339
REMARK minimizedRMSD -1
REMARK  0 active torsions:
REMARK  status: ('A' for Active; 'I' for Inactive)
ROOT
ATOM      1  O1  BZF d   1      -0.139   2.097   2.385  0.00  0.00    -0.204 OA
ATOM      2  C2  BZF d   1      -1.215   2.886   2.025  0.00  0.00     0.174 A 
ATOM      3  C3  BZF d   1      -1.744   2.470   0.857  0.00  0.00    -0.012 A 
ATOM      4  C3A BZF d   1      -1.008   1.294   0.508  0.00  0.00    -0.107 A 
ATOM      5  C4  BZF d   1      -1.077   0.419  -0.538  0.00  0.00     0.055 A 
ATOM      6  C5  BZF d   1      -0.164  -0.585  -0.621  0.00  0.00    -0.016 A 
ATOM      7  C6  BZF d   1       0.832  -0.740   0.320  0.00  0.00     0.022 A 
ATOM      8  C7  BZF d   1       0.938   0.100   1.378  0.00  0.00     0.029 A 
ATOM      9  C7A BZF d   1      -0.003   1.096   1.483  0.00  0.00     0.058 A 
ENDROOT
TORSDOF 0
ENDMDL
