MODEL 1
REMARK minimizedAffinity -1.70302749
REMARK minimizedRMSD -1
REMARK  0 active torsions:
REMARK  status: ('A' for Active; 'I' for Inactive)
ROOT
ATOM      1  O1  BZF d   1       0.042   1.767   2.344  0.00  0.00    -0.204 OA
ATOM      2  C2  BZF d   1      -1.035   2.618   2.190  0.00  0.00     0.174 A 
ATOM      3  C3  BZF d   1      -1.587   2.474   0.968  0.00  0.00    -0.012 A 
ATOM      4  C3A BZF d   1      -0.863   1.405   0.352  0.00  0.00    -0.107 A 
ATOM      5  C4  BZF d   1      -0.955   0.785  -0.862  0.00  0.00     0.055 A 
ATOM      6  C5  BZF d   1      -0.050  -0.176  -1.183  0.00  0.00    -0.016 A 
ATOM      7  C6  BZF d   1       0.962  -0.539  -0.319  0.00  0.00     0.022 A 
ATOM      8  C7  BZF d   1       1.091   0.044   0.898  0.00  0.00     0.029 A 
ATOM      9  C7A BZF d   1       0.158   0.992   1.239  0.00  0.00     0.058 A 
ENDROOT
TORSDOF 0
ENDMDL
