MODEL 1
REMARK minimizedAffinity 3.8501842
REMARK minimizedRMSD -1
REMARK  0 active torsions:
REMARK  status: ('A' for Active; 'I' for Inactive)
ROOT
ATOM      1  O1  BZF d   1       0.405   1.676   2.477  0.00  0.00    -0.204 OA
ATOM      2  C2  BZF d   1      -0.384   2.661   1.916  0.00  0.00     0.174 A 
ATOM      3  C3  BZF d   1      -0.783   2.307   0.677  0.00  0.00    -0.012 A 
ATOM      4  C3A BZF d   1      -0.283   0.980   0.486  0.00  0.00    -0.107 A 
ATOM      5  C4  BZF d   1      -0.366   0.084  -0.541  0.00  0.00     0.055 A 
ATOM      6  C5  BZF d   1       0.295  -1.099  -0.441  0.00  0.00    -0.016 A 
ATOM      7  C6  BZF d   1       1.051  -1.417   0.668  0.00  0.00     0.022 A 
ATOM      8  C7  BZF d   1       1.159  -0.563   1.715  0.00  0.00     0.029 A 
ATOM      9  C7A BZF d   1       0.465   0.620   1.631  0.00  0.00     0.058 A 
ENDROOT
TORSDOF 0
ENDMDL
