MODEL 1
REMARK minimizedAffinity 7.39680767
REMARK minimizedRMSD -1
REMARK  0 active torsions:
REMARK  status: ('A' for Active; 'I' for Inactive)
ROOT
ATOM      1  O1  BZF d   1      -0.082   1.893   2.974  0.00  0.00    -0.204 OA
ATOM      2  C2  BZF d   1       0.185   3.021   2.222  0.00  0.00     0.174 A 
ATOM      3  C3  BZF d   1       0.751   2.688   1.044  0.00  0.00    -0.012 A 
ATOM      4  C3A BZF d   1       0.758   1.257   1.022  0.00  0.00    -0.107 A 
ATOM      5  C4  BZF d   1       1.179   0.334   0.107  0.00  0.00     0.055 A 
ATOM      6  C5  BZF d   1       1.112  -0.986   0.422  0.00  0.00    -0.016 A 
ATOM      7  C6  BZF d   1       0.636  -1.418   1.643  0.00  0.00     0.022 A 
ATOM      8  C7  BZF d   1       0.203  -0.540   2.580  0.00  0.00     0.029 A 
ATOM      9  C7A BZF d   1       0.238   0.793   2.252  0.00  0.00     0.058 A 
ENDROOT
TORSDOF 0
ENDMDL
