MODEL 1
REMARK minimizedAffinity 9.22802544
REMARK minimizedRMSD -1
REMARK  0 active torsions:
REMARK  status: ('A' for Active; 'I' for Inactive)
ROOT
ATOM      1  O1  BZF d   1      -0.239   2.478   0.046  0.00  0.00    -0.204 OA
ATOM      2  C2  BZF d   1      -0.632   1.471   0.906  0.00  0.00     0.174 A 
ATOM      3  C3  BZF d   1      -0.098   1.652   2.131  0.00  0.00    -0.012 A 
ATOM      4  C3A BZF d   1       0.602   2.898   2.056  0.00  0.00    -0.107 A 
ATOM      5  C4  BZF d   1       1.324   3.626   2.959  0.00  0.00     0.055 A 
ATOM      6  C5  BZF d   1       1.940   4.764   2.547  0.00  0.00    -0.016 A 
ATOM      7  C6  BZF d   1       1.861   5.202   1.241  0.00  0.00     0.022 A 
ATOM      8  C7  BZF d   1       1.152   4.516   0.311  0.00  0.00     0.029 A 
ATOM      9  C7A BZF d   1       0.501   3.383   0.731  0.00  0.00     0.058 A 
ENDROOT
TORSDOF 0
ENDMDL
