MODEL 1
REMARK minimizedAffinity 3.83716488
REMARK minimizedRMSD -1
REMARK  0 active torsions:
REMARK  status: ('A' for Active; 'I' for Inactive)
ROOT
ATOM      1  O1  BZF d   1      -0.520  -1.257  -1.740  0.00  0.00    -0.204 OA
ATOM      2  C2  BZF d   1      -1.649  -0.983  -2.488  0.00  0.00     0.174 A 
ATOM      3  C3  BZF d   1      -2.152  -2.114  -3.025  0.00  0.00    -0.012 A 
ATOM      4  C3A BZF d   1      -1.336  -3.170  -2.511  0.00  0.00    -0.107 A 
ATOM      5  C4  BZF d   1      -1.347  -4.527  -2.668  0.00  0.00     0.055 A 
ATOM      6  C5  BZF d   1      -0.367  -5.267  -2.086  0.00  0.00    -0.016 A 
ATOM      7  C6  BZF d   1       0.640  -4.685  -1.346  0.00  0.00     0.022 A 
ATOM      8  C7  BZF d   1       0.690  -3.344  -1.157  0.00  0.00     0.029 A 
ATOM      9  C7A BZF d   1      -0.317  -2.596  -1.716  0.00  0.00     0.058 A 
ENDROOT
TORSDOF 0
ENDMDL
