MODEL 1
REMARK minimizedAffinity 5.63034534
REMARK minimizedRMSD -1
REMARK  0 active torsions:
REMARK  status: ('A' for Active; 'I' for Inactive)
ROOT
ATOM      1  O1  BZF d   1       4.844  -2.744  -0.750  0.00  0.00    -0.204 OA
ATOM      2  C2  BZF d   1       5.840  -2.022  -1.379  0.00  0.00     0.174 A 
ATOM      3  C3  BZF d   1       5.999  -2.436  -2.653  0.00  0.00    -0.012 A 
ATOM      4  C3A BZF d   1       4.980  -3.419  -2.859  0.00  0.00    -0.107 A 
ATOM      5  C4  BZF d   1       4.616  -4.183  -3.931  0.00  0.00     0.055 A 
ATOM      6  C5  BZF d   1       3.624  -5.100  -3.781  0.00  0.00    -0.016 A 
ATOM      7  C6  BZF d   1       2.979  -5.282  -2.576  0.00  0.00     0.022 A 
ATOM      8  C7  BZF d   1       3.302  -4.544  -1.486  0.00  0.00     0.029 A 
ATOM      9  C7A BZF d   1       4.281  -3.594  -1.642  0.00  0.00     0.058 A 
ENDROOT
TORSDOF 0
ENDMDL
