MODEL 1
REMARK minimizedAffinity 5.04085302
REMARK minimizedRMSD -1
REMARK  0 active torsions:
REMARK  status: ('A' for Active; 'I' for Inactive)
ROOT
ATOM      1  O1  BZF d   1      -0.383   1.694   3.530  0.00  0.00    -0.204 OA
ATOM      2  C2  BZF d   1       0.640   0.787   3.328  0.00  0.00     0.174 A 
ATOM      3  C3  BZF d   1       0.924   0.671   2.014  0.00  0.00    -0.012 A 
ATOM      4  C3A BZF d   1       0.086   1.630   1.362  0.00  0.00    -0.107 A 
ATOM      5  C4  BZF d   1      -0.078   2.000   0.058  0.00  0.00     0.055 A 
ATOM      6  C5  BZF d   1      -1.032   2.917  -0.254  0.00  0.00    -0.016 A 
ATOM      7  C6  BZF d   1      -1.841   3.480   0.712  0.00  0.00     0.022 A 
ATOM      8  C7  BZF d   1      -1.712   3.148   2.020  0.00  0.00     0.029 A 
ATOM      9  C7A BZF d   1      -0.727   2.246   2.341  0.00  0.00     0.058 A 
ENDROOT
TORSDOF 0
ENDMDL
