MODEL 1
REMARK minimizedAffinity 0.491349518
REMARK minimizedRMSD -1
REMARK  0 active torsions:
REMARK  status: ('A' for Active; 'I' for Inactive)
ROOT
ATOM      1  O1  BZF d   1      -0.228   2.267   2.951  0.00  0.00    -0.204 OA
ATOM      2  C2  BZF d   1      -0.196   2.622   1.616  0.00  0.00     0.174 A 
ATOM      3  C3  BZF d   1       0.266   1.604   0.862  0.00  0.00    -0.012 A 
ATOM      4  C3A BZF d   1       0.452   0.515   1.772  0.00  0.00    -0.107 A 
ATOM      5  C4  BZF d   1       0.877  -0.773   1.620  0.00  0.00     0.055 A 
ATOM      6  C5  BZF d   1       1.016  -1.557   2.721  0.00  0.00    -0.016 A 
ATOM      7  C6  BZF d   1       0.744  -1.084   3.988  0.00  0.00     0.022 A 
ATOM      8  C7  BZF d   1       0.315   0.186   4.188  0.00  0.00     0.029 A 
ATOM      9  C7A BZF d   1       0.142   0.970   3.074  0.00  0.00     0.058 A 
ENDROOT
TORSDOF 0
ENDMDL
