MODEL 1
REMARK minimizedAffinity 5.44731092
REMARK minimizedRMSD -1
REMARK  1 active torsions:
REMARK  status: ('A' for Active; 'I' for Inactive)
REMARK    1  A    between atoms: N_2  and  C1_3 
ROOT
ATOM      1  C1  UNL d   1      -3.818   2.214  -3.195  0.00  0.00     0.143 A 
ATOM      2  C2  UNL d   1      -4.440   3.197  -2.416  0.00  0.00    -0.057 A 
ATOM      3  C3  UNL d   1      -4.756   4.452  -2.948  0.00  0.00     0.033 A 
ATOM      4  C4  UNL d   1      -4.429   4.759  -4.265  0.00  0.00    -0.042 A 
ATOM      5  C5  UNL d   1      -3.789   3.807  -5.050  0.00  0.00     0.033 A 
ATOM      6  C6  UNL d   1      -3.481   2.552  -4.515  0.00  0.00    -0.057 A 
ENDROOT
BRANCH   1   7
ATOM      7  N   UNL d   1      -3.388   0.982  -2.695  0.00  0.00    -0.732 N 
ATOM      8  C   UNL d   1      -2.323   0.914  -1.718  0.00  0.00     0.284 C 
ATOM      9  H3  UNL d   1      -4.161   0.347  -2.512  0.00  0.00     0.395 HD
ENDBRANCH   1   7
TORSDOF 1
ENDMDL
