MODEL 1
REMARK minimizedAffinity 7.96528912
REMARK minimizedRMSD -1
REMARK  1 active torsions:
REMARK  status: ('A' for Active; 'I' for Inactive)
REMARK    1  A    between atoms: N_2  and  C1_3 
ROOT
ATOM      1  C1  UNL d   1       1.698  -1.738   3.915  0.00  0.00     0.143 A 
ATOM      2  C2  UNL d   1       1.362  -0.593   3.184  0.00  0.00    -0.057 A 
ATOM      3  C3  UNL d   1       1.666  -0.487   1.821  0.00  0.00     0.033 A 
ATOM      4  C4  UNL d   1       2.339  -1.515   1.170  0.00  0.00    -0.042 A 
ATOM      5  C5  UNL d   1       2.704  -2.652   1.882  0.00  0.00     0.033 A 
ATOM      6  C6  UNL d   1       2.392  -2.755   3.241  0.00  0.00    -0.057 A 
ENDROOT
BRANCH   1   7
ATOM      7  N   UNL d   1       1.511  -1.862   5.293  0.00  0.00    -0.732 N 
ATOM      8  C   UNL d   1       1.991  -3.031   6.000  0.00  0.00     0.284 C 
ATOM      9  H3  UNL d   1       1.664  -0.986   5.787  0.00  0.00     0.395 HD
ENDBRANCH   1   7
TORSDOF 1
ENDMDL
