MODEL 1
REMARK minimizedAffinity 13.0654011
REMARK minimizedRMSD -1
REMARK  1 active torsions:
REMARK  status: ('A' for Active; 'I' for Inactive)
REMARK    1  A    between atoms: N_2  and  C1_3 
ROOT
ATOM      1  C1  UNL d   1      -4.148   2.876  -3.816  0.00  0.00     0.143 A 
ATOM      2  C2  UNL d   1      -5.249   3.352  -3.095  0.00  0.00    -0.057 A 
ATOM      3  C3  UNL d   1      -5.932   4.508  -3.493  0.00  0.00     0.033 A 
ATOM      4  C4  UNL d   1      -5.507   5.227  -4.605  0.00  0.00    -0.042 A 
ATOM      5  C5  UNL d   1      -4.400   4.787  -5.321  0.00  0.00     0.033 A 
ATOM      6  C6  UNL d   1      -3.726   3.628  -4.923  0.00  0.00    -0.057 A 
ENDROOT
BRANCH   1   7
ATOM      7  N   UNL d   1      -3.367   1.789  -3.415  0.00  0.00    -0.732 N 
ATOM      8  C   UNL d   1      -3.982   0.520  -3.091  0.00  0.00     0.284 C 
ATOM      9  H3  UNL d   1      -2.507   1.710  -3.953  0.00  0.00     0.395 HD
ENDBRANCH   1   7
TORSDOF 1
ENDMDL
