MODEL 1
REMARK minimizedAffinity 10.11724
REMARK minimizedRMSD -1
REMARK  1 active torsions:
REMARK  status: ('A' for Active; 'I' for Inactive)
REMARK    1  A    between atoms: N_2  and  C1_3 
ROOT
ATOM      1  C1  UNL d   1       3.571  -4.841  -1.507  0.00  0.00     0.143 A 
ATOM      2  C2  UNL d   1       4.842  -5.210  -1.960  0.00  0.00    -0.057 A 
ATOM      3  C3  UNL d   1       5.999  -4.818  -1.276  0.00  0.00     0.033 A 
ATOM      4  C4  UNL d   1       5.906  -4.022  -0.139  0.00  0.00    -0.042 A 
ATOM      5  C5  UNL d   1       4.654  -3.623   0.315  0.00  0.00     0.033 A 
ATOM      6  C6  UNL d   1       3.502  -4.023  -0.368  0.00  0.00    -0.057 A 
ENDROOT
BRANCH   1   7
ATOM      7  N   UNL d   1       2.389  -5.117  -2.198  0.00  0.00    -0.732 N 
ATOM      8  C   UNL d   1       1.144  -4.492  -1.807  0.00  0.00     0.284 C 
ATOM      9  H3  UNL d   1       2.530  -5.169  -3.204  0.00  0.00     0.395 HD
ENDBRANCH   1   7
TORSDOF 1
ENDMDL
