MODEL 1
REMARK minimizedAffinity 10.6524677
REMARK minimizedRMSD -1
REMARK  1 active torsions:
REMARK  status: ('A' for Active; 'I' for Inactive)
REMARK    1  A    between atoms: N_2  and  C1_3 
ROOT
ATOM      1  C1  UNL d   1      -0.597  -2.999   0.845  0.00  0.00     0.143 A 
ATOM      2  C2  UNL d   1      -1.905  -3.317   0.463  0.00  0.00    -0.057 A 
ATOM      3  C3  UNL d   1      -2.185  -4.472  -0.277  0.00  0.00     0.033 A 
ATOM      4  C4  UNL d   1      -1.155  -5.318  -0.673  0.00  0.00    -0.042 A 
ATOM      5  C5  UNL d   1       0.156  -5.009  -0.326  0.00  0.00     0.033 A 
ATOM      6  C6  UNL d   1       0.428  -3.857   0.418  0.00  0.00    -0.057 A 
ENDROOT
BRANCH   1   7
ATOM      7  N   UNL d   1      -0.243  -1.815   1.496  0.00  0.00    -0.732 N 
ATOM      8  C   UNL d   1       1.147  -1.435   1.631  0.00  0.00     0.284 C 
ATOM      9  H3  UNL d   1      -0.863  -1.043   1.263  0.00  0.00     0.395 HD
ENDBRANCH   1   7
TORSDOF 1
ENDMDL
