MODEL 1
REMARK minimizedAffinity 4.17884779
REMARK minimizedRMSD -1
REMARK  0 active torsions:
REMARK  status: ('A' for Active; 'I' for Inactive)
ROOT
ATOM      1  C   UNL d   1       0.090   3.085   3.315  0.00  0.00     0.077 C 
ATOM      2  C1  UNL d   1       1.156   2.108   2.916  0.00  0.00    -0.074 A 
ATOM      3  C2  UNL d   1       2.371   2.548   2.382  0.00  0.00    -0.005 A 
ATOM      4  C3  UNL d   1       3.356   1.628   2.024  0.00  0.00     0.006 A 
ATOM      5  C4  UNL d   1       3.137   0.260   2.196  0.00  0.00    -0.005 A 
ATOM      6  C5  UNL d   1       1.928  -0.198   2.730  0.00  0.00    -0.074 A 
ATOM      7  C6  UNL d   1       1.680  -1.664   2.931  0.00  0.00     0.077 C 
ATOM      8  C7  UNL d   1       0.946   0.733   3.093  0.00  0.00    -0.001 A 
ENDROOT
TORSDOF 0
ENDMDL
