MODEL 1
REMARK minimizedAffinity 5.26473236
REMARK minimizedRMSD -1
REMARK  0 active torsions:
REMARK  status: ('A' for Active; 'I' for Inactive)
ROOT
ATOM      1  C   UNL d   1       1.669  -2.949   5.180  0.00  0.00     0.077 C 
ATOM      2  C1  UNL d   1       1.238  -1.734   4.415  0.00  0.00    -0.074 A 
ATOM      3  C2  UNL d   1       1.888  -0.507   4.588  0.00  0.00    -0.005 A 
ATOM      4  C3  UNL d   1       1.481   0.613   3.862  0.00  0.00     0.006 A 
ATOM      5  C4  UNL d   1       0.423   0.517   2.957  0.00  0.00    -0.005 A 
ATOM      6  C5  UNL d   1      -0.238  -0.701   2.770  0.00  0.00    -0.074 A 
ATOM      7  C6  UNL d   1      -1.370  -0.823   1.794  0.00  0.00     0.077 C 
ATOM      8  C7  UNL d   1       0.181  -1.823   3.498  0.00  0.00    -0.001 A 
ENDROOT
TORSDOF 0
ENDMDL
