MODEL 1
REMARK minimizedAffinity 13.7785845
REMARK minimizedRMSD -1
REMARK  0 active torsions:
REMARK  status: ('A' for Active; 'I' for Inactive)
ROOT
ATOM      1  C   UNL d   1       5.985   4.813   4.469  0.00  0.00     0.077 C 
ATOM      2  C1  UNL d   1       5.734   3.392   4.062  0.00  0.00    -0.074 A 
ATOM      3  C2  UNL d   1       6.000   2.959   2.759  0.00  0.00    -0.005 A 
ATOM      4  C3  UNL d   1       5.770   1.632   2.398  0.00  0.00     0.006 A 
ATOM      5  C4  UNL d   1       5.274   0.725   3.335  0.00  0.00    -0.005 A 
ATOM      6  C5  UNL d   1       5.003   1.138   4.643  0.00  0.00    -0.074 A 
ATOM      7  C6  UNL d   1       4.479   0.174   5.665  0.00  0.00     0.077 C 
ATOM      8  C7  UNL d   1       5.243   2.472   5.000  0.00  0.00    -0.001 A 
ENDROOT
TORSDOF 0
ENDMDL
