MODEL 1
REMARK minimizedAffinity 10.4806671
REMARK minimizedRMSD -1
REMARK  0 active torsions:
REMARK  status: ('A' for Active; 'I' for Inactive)
ROOT
ATOM      1  C   UNL d   1      -3.704  -1.766   2.988  0.00  0.00     0.077 C 
ATOM      2  C1  UNL d   1      -2.600  -0.757   2.876  0.00  0.00    -0.074 A 
ATOM      3  C2  UNL d   1      -2.857   0.542   2.427  0.00  0.00    -0.005 A 
ATOM      4  C3  UNL d   1      -1.822   1.473   2.336  0.00  0.00     0.006 A 
ATOM      5  C4  UNL d   1      -0.521   1.114   2.693  0.00  0.00    -0.005 A 
ATOM      6  C5  UNL d   1      -0.245  -0.181   3.144  0.00  0.00    -0.074 A 
ATOM      7  C6  UNL d   1       1.145  -0.580   3.541  0.00  0.00     0.077 C 
ATOM      8  C7  UNL d   1      -1.292  -1.108   3.239  0.00  0.00    -0.001 A 
ENDROOT
TORSDOF 0
ENDMDL
