MODEL 1
REMARK minimizedAffinity 12.8948307
REMARK minimizedRMSD -1
REMARK  0 active torsions:
REMARK  status: ('A' for Active; 'I' for Inactive)
ROOT
ATOM      1  C   UNL d   1       3.271   0.433   3.601  0.00  0.00     0.077 C 
ATOM      2  C1  UNL d   1       1.824   0.260   3.249  0.00  0.00    -0.074 A 
ATOM      3  C2  UNL d   1       1.246  -1.012   3.188  0.00  0.00    -0.005 A 
ATOM      4  C3  UNL d   1      -0.104  -1.157   2.868  0.00  0.00     0.006 A 
ATOM      5  C4  UNL d   1      -0.888  -0.033   2.606  0.00  0.00    -0.005 A 
ATOM      6  C5  UNL d   1      -0.328   1.247   2.663  0.00  0.00    -0.074 A 
ATOM      7  C6  UNL d   1      -1.159   2.466   2.394  0.00  0.00     0.077 C 
ATOM      8  C7  UNL d   1       1.027   1.385   2.992  0.00  0.00    -0.001 A 
ENDROOT
TORSDOF 0
ENDMDL
