MODEL 1
REMARK minimizedAffinity 3.86098886
REMARK minimizedRMSD -1
REMARK  0 active torsions:
REMARK  status: ('A' for Active; 'I' for Inactive)
ROOT
ATOM      1  C   UNL d   1       4.021   0.995   5.424  0.00  0.00     0.077 C 
ATOM      2  C1  UNL d   1       2.927   0.012   5.130  0.00  0.00    -0.074 A 
ATOM      3  C2  UNL d   1       2.820  -1.181   5.850  0.00  0.00    -0.005 A 
ATOM      4  C3  UNL d   1       1.791  -2.081   5.571  0.00  0.00     0.006 A 
ATOM      5  C4  UNL d   1       0.861  -1.797   4.571  0.00  0.00    -0.005 A 
ATOM      6  C5  UNL d   1       0.952  -0.608   3.841  0.00  0.00    -0.074 A 
ATOM      7  C6  UNL d   1      -0.046  -0.282   2.769  0.00  0.00     0.077 C 
ATOM      8  C7  UNL d   1       1.984   0.295   4.132  0.00  0.00    -0.001 A 
ENDROOT
TORSDOF 0
ENDMDL
