MODEL 1
REMARK minimizedAffinity 12.2487316
REMARK minimizedRMSD -1
REMARK  0 active torsions:
REMARK  status: ('A' for Active; 'I' for Inactive)
ROOT
ATOM      1  C   UNL d   1       2.931  -0.269  -4.303  0.00  0.00     0.077 C 
ATOM      2  C1  UNL d   1       1.500  -0.716  -4.261  0.00  0.00    -0.074 A 
ATOM      3  C2  UNL d   1       0.773  -0.911  -5.440  0.00  0.00    -0.005 A 
ATOM      4  C3  UNL d   1      -0.555  -1.335  -5.386  0.00  0.00     0.006 A 
ATOM      5  C4  UNL d   1      -1.168  -1.569  -4.155  0.00  0.00    -0.005 A 
ATOM      6  C5  UNL d   1      -0.457  -1.381  -2.965  0.00  0.00    -0.074 A 
ATOM      7  C6  UNL d   1      -1.097  -1.637  -1.634  0.00  0.00     0.077 C 
ATOM      8  C7  UNL d   1       0.879  -0.960  -3.028  0.00  0.00    -0.001 A 
ENDROOT
TORSDOF 0
ENDMDL
