MODEL 1
REMARK minimizedAffinity 11.8634777
REMARK minimizedRMSD -1
REMARK  0 active torsions:
REMARK  status: ('A' for Active; 'I' for Inactive)
ROOT
ATOM      1  C   UNL d   1       5.999  -5.931   5.308  0.00  0.00     0.077 C 
ATOM      2  C1  UNL d   1       5.320  -4.594   5.344  0.00  0.00    -0.074 A 
ATOM      3  C2  UNL d   1       6.000  -3.453   5.782  0.00  0.00    -0.005 A 
ATOM      4  C3  UNL d   1       5.358  -2.215   5.801  0.00  0.00     0.006 A 
ATOM      5  C4  UNL d   1       4.031  -2.106   5.382  0.00  0.00    -0.005 A 
ATOM      6  C5  UNL d   1       3.335  -3.235   4.941  0.00  0.00    -0.074 A 
ATOM      7  C6  UNL d   1       1.912  -3.133   4.479  0.00  0.00     0.077 C 
ATOM      8  C7  UNL d   1       3.989  -4.474   4.918  0.00  0.00    -0.001 A 
ENDROOT
TORSDOF 0
ENDMDL
