MODEL 1
REMARK minimizedAffinity 16.5318756
REMARK minimizedRMSD -1
REMARK  0 active torsions:
REMARK  status: ('A' for Active; 'I' for Inactive)
ROOT
ATOM      1  C   UNL d   1      -1.065  -5.618  -5.999  0.00  0.00     0.077 C 
ATOM      2  C1  UNL d   1      -1.093  -4.904  -4.681  0.00  0.00    -0.074 A 
ATOM      3  C2  UNL d   1      -1.060  -5.616  -3.477  0.00  0.00    -0.005 A 
ATOM      4  C3  UNL d   1      -1.077  -4.938  -2.258  0.00  0.00     0.006 A 
ATOM      5  C4  UNL d   1      -1.126  -3.544  -2.230  0.00  0.00    -0.005 A 
ATOM      6  C5  UNL d   1      -1.158  -2.815  -3.424  0.00  0.00    -0.074 A 
ATOM      7  C6  UNL d   1      -1.201  -1.316  -3.411  0.00  0.00     0.077 C 
ATOM      8  C7  UNL d   1      -1.134  -3.503  -4.644  0.00  0.00    -0.001 A 
ENDROOT
TORSDOF 0
ENDMDL
