MODEL 1
REMARK minimizedAffinity 0.326587766
REMARK minimizedRMSD -1
REMARK  0 active torsions:
REMARK  status: ('A' for Active; 'I' for Inactive)
ROOT
ATOM      1  N1  IND d   1       0.295  -2.177  -0.984  0.00  0.00    -0.196 N 
ATOM      2  C2  IND d   1       1.556  -2.537  -0.600  0.00  0.00     0.054 A 
ATOM      3  C3  IND d   1       2.168  -1.509   0.028  0.00  0.00    -0.031 A 
ATOM      4  C4  IND d   1       1.251   0.821   0.627  0.00  0.00     0.051 A 
ATOM      5  C5  IND d   1       0.161   1.627   0.452  0.00  0.00    -0.031 A 
ATOM      6  C6  IND d   1      -0.964   1.196  -0.221  0.00  0.00     0.015 A 
ATOM      7  C7  IND d   1      -1.045  -0.066  -0.738  0.00  0.00    -0.016 A 
ATOM      8  C8  IND d   1       0.062  -0.885  -0.569  0.00  0.00    -0.047 A 
ATOM      9  C9  IND d   1       1.223  -0.439   0.077  0.00  0.00    -0.096 A 
ATOM     10  HN1 IND d   1      -0.260  -2.675  -1.413  0.00  0.00     0.298 HD
ENDROOT
TORSDOF 0
ENDMDL
