MODEL 1
REMARK minimizedAffinity -4.5076499
REMARK minimizedRMSD -1
REMARK  0 active torsions:
REMARK  status: ('A' for Active; 'I' for Inactive)
ROOT
ATOM      1  N1  IND d   1      -0.061   0.890   1.131  0.00  0.00    -0.196 N 
ATOM      2  C2  IND d   1      -0.855   1.215   0.067  0.00  0.00     0.054 A 
ATOM      3  C3  IND d   1      -0.657   0.348  -0.950  0.00  0.00    -0.031 A 
ATOM      4  C4  IND d   1       0.848  -1.739  -1.051  0.00  0.00     0.051 A 
ATOM      5  C5  IND d   1       1.791  -2.422  -0.336  0.00  0.00    -0.031 A 
ATOM      6  C6  IND d   1       2.171  -2.030   0.932  0.00  0.00     0.015 A 
ATOM      7  C7  IND d   1       1.610  -0.942   1.538  0.00  0.00    -0.016 A 
ATOM      8  C8  IND d   1       0.658  -0.241   0.812  0.00  0.00    -0.047 A 
ATOM      9  C9  IND d   1       0.300  -0.609  -0.491  0.00  0.00    -0.096 A 
ATOM     10  HN1 IND d   1      -0.017   1.320   1.874  0.00  0.00     0.298 HD
ENDROOT
TORSDOF 0
ENDMDL
