MODEL 1
REMARK minimizedAffinity -3.23406768
REMARK minimizedRMSD -1
REMARK  0 active torsions:
REMARK  status: ('A' for Active; 'I' for Inactive)
ROOT
ATOM      1  N1  IND d   1      -0.199   0.800   1.116  0.00  0.00    -0.196 N 
ATOM      2  C2  IND d   1      -1.185   1.050   0.202  0.00  0.00     0.054 A 
ATOM      3  C3  IND d   1      -1.018   0.276  -0.894  0.00  0.00    -0.031 A 
ATOM      4  C4  IND d   1       0.743  -1.544  -1.358  0.00  0.00     0.051 A 
ATOM      5  C5  IND d   1       1.873  -2.107  -0.836  0.00  0.00    -0.031 A 
ATOM      6  C6  IND d   1       2.379  -1.725   0.390  0.00  0.00     0.015 A 
ATOM      7  C7  IND d   1       1.764  -0.768   1.147  0.00  0.00    -0.016 A 
ATOM      8  C8  IND d   1       0.620  -0.189   0.617  0.00  0.00    -0.047 A 
ATOM      9  C9  IND d   1       0.126  -0.542  -0.645  0.00  0.00    -0.096 A 
ATOM     10  HN1 IND d   1      -0.107   1.194   1.875  0.00  0.00     0.298 HD
ENDROOT
TORSDOF 0
ENDMDL
