MODEL 1
REMARK minimizedAffinity -1.99962878
REMARK minimizedRMSD -1
REMARK  0 active torsions:
REMARK  status: ('A' for Active; 'I' for Inactive)
ROOT
ATOM      1  N1  IND d   1      -1.833   0.041  -0.963  0.00  0.00    -0.196 N 
ATOM      2  C2  IND d   1      -2.069   1.259  -0.390  0.00  0.00     0.054 A 
ATOM      3  C3  IND d   1      -0.972   1.685   0.277  0.00  0.00    -0.031 A 
ATOM      4  C4  IND d   1       1.350   0.591   0.473  0.00  0.00     0.051 A 
ATOM      5  C5  IND d   1       2.036  -0.546   0.150  0.00  0.00    -0.031 A 
ATOM      6  C6  IND d   1       1.456  -1.565  -0.578  0.00  0.00     0.015 A 
ATOM      7  C7  IND d   1       0.167  -1.479  -1.021  0.00  0.00    -0.016 A 
ATOM      8  C8  IND d   1      -0.535  -0.329  -0.689  0.00  0.00    -0.047 A 
ATOM      9  C9  IND d   1       0.034   0.689   0.086  0.00  0.00    -0.096 A 
ATOM     10  HN1 IND d   1      -2.401  -0.417  -1.418  0.00  0.00     0.298 HD
ENDROOT
TORSDOF 0
ENDMDL
