MODEL 1
REMARK minimizedAffinity -4.6885457
REMARK minimizedRMSD -1
REMARK  0 active torsions:
REMARK  status: ('A' for Active; 'I' for Inactive)
ROOT
ATOM      1  N1  IND d   1       3.009  -0.147   0.304  0.00  0.00    -0.196 N 
ATOM      2  C2  IND d   1       3.225  -1.496   0.270  0.00  0.00     0.054 A 
ATOM      3  C3  IND d   1       2.085  -2.147  -0.054  0.00  0.00    -0.031 A 
ATOM      4  C4  IND d   1      -0.225  -1.193  -0.669  0.00  0.00     0.051 A 
ATOM      5  C5  IND d   1      -0.921  -0.019  -0.742  0.00  0.00    -0.031 A 
ATOM      6  C6  IND d   1      -0.330   1.198  -0.467  0.00  0.00     0.015 A 
ATOM      7  C7  IND d   1       0.988   1.286  -0.118  0.00  0.00    -0.016 A 
ATOM      8  C8  IND d   1       1.696   0.095  -0.036  0.00  0.00    -0.047 A 
ATOM      9  C9  IND d   1       1.091  -1.146  -0.273  0.00  0.00    -0.096 A 
ATOM     10  HN1 IND d   1       3.594   0.450   0.505  0.00  0.00     0.298 HD
ENDROOT
TORSDOF 0
ENDMDL
