MODEL 1
REMARK minimizedAffinity 15.1927776
REMARK minimizedRMSD -1
REMARK  0 active torsions:
REMARK  status: ('A' for Active; 'I' for Inactive)
ROOT
ATOM      1  N1  IND d   1       2.950  -4.198   0.237  0.00  0.00    -0.196 N 
ATOM      2  C2  IND d   1       2.971  -5.176   1.192  0.00  0.00     0.054 A 
ATOM      3  C3  IND d   1       2.291  -4.776   2.290  0.00  0.00    -0.031 A 
ATOM      4  C4  IND d   1       0.977  -2.600   2.698  0.00  0.00     0.051 A 
ATOM      5  C5  IND d   1       0.698  -1.388   2.131  0.00  0.00    -0.031 A 
ATOM      6  C6  IND d   1       1.162  -1.045   0.878  0.00  0.00     0.015 A 
ATOM      7  C7  IND d   1       1.917  -1.909   0.136  0.00  0.00    -0.016 A 
ATOM      8  C8  IND d   1       2.208  -3.138   0.711  0.00  0.00    -0.047 A 
ATOM      9  C9  IND d   1       1.775  -3.475   2.000  0.00  0.00    -0.096 A 
ATOM     10  HN1 IND d   1       3.335  -4.238  -0.531  0.00  0.00     0.298 HD
ENDROOT
TORSDOF 0
ENDMDL
