MODEL 1
REMARK minimizedAffinity 8.49084187
REMARK minimizedRMSD -1
REMARK  0 active torsions:
REMARK  status: ('A' for Active; 'I' for Inactive)
ROOT
ATOM      1  N1  IND d   1      -0.941  -0.588   3.530  0.00  0.00    -0.196 N 
ATOM      2  C2  IND d   1       0.089  -1.415   3.178  0.00  0.00     0.054 A 
ATOM      3  C3  IND d   1      -0.076  -1.860   1.912  0.00  0.00    -0.031 A 
ATOM      4  C4  IND d   1      -1.908  -1.276   0.200  0.00  0.00     0.051 A 
ATOM      5  C5  IND d   1      -3.084  -0.591   0.072  0.00  0.00    -0.031 A 
ATOM      6  C6  IND d   1      -3.614   0.148   1.109  0.00  0.00     0.015 A 
ATOM      7  C7  IND d   1      -2.980   0.238   2.316  0.00  0.00    -0.016 A 
ATOM      8  C8  IND d   1      -1.790  -0.463   2.453  0.00  0.00    -0.047 A 
ATOM      9  C9  IND d   1      -1.269  -1.248   1.417  0.00  0.00    -0.096 A 
ATOM     10  HN1 IND d   1      -1.041  -0.209   4.295  0.00  0.00     0.298 HD
ENDROOT
TORSDOF 0
ENDMDL
