MODEL 1
REMARK minimizedAffinity 3.76111984
REMARK minimizedRMSD -1
REMARK  0 active torsions:
REMARK  status: ('A' for Active; 'I' for Inactive)
ROOT
ATOM      1  N1  IND d   1       3.371   3.425   3.324  0.00  0.00    -0.196 N 
ATOM      2  C2  IND d   1       2.071   3.021   3.201  0.00  0.00     0.054 A 
ATOM      3  C3  IND d   1       1.972   2.023   2.295  0.00  0.00    -0.031 A 
ATOM      4  C4  IND d   1       3.828   0.828   0.969  0.00  0.00     0.051 A 
ATOM      5  C5  IND d   1       5.170   0.871   0.718  0.00  0.00    -0.031 A 
ATOM      6  C6  IND d   1       5.999   1.784   1.338  0.00  0.00     0.015 A 
ATOM      7  C7  IND d   1       5.515   2.685   2.244  0.00  0.00    -0.016 A 
ATOM      8  C8  IND d   1       4.151   2.649   2.496  0.00  0.00    -0.047 A 
ATOM      9  C9  IND d   1       3.299   1.753   1.838  0.00  0.00    -0.096 A 
ATOM     10  HN1 IND d   1       3.653   4.058   3.833  0.00  0.00     0.298 HD
ENDROOT
TORSDOF 0
ENDMDL
