MODEL 1
REMARK minimizedAffinity 11.963172
REMARK minimizedRMSD -1
REMARK  0 active torsions:
REMARK  status: ('A' for Active; 'I' for Inactive)
ROOT
ATOM      1  N1  IND d   1       5.998  -0.946  -0.090  0.00  0.00    -0.196 N 
ATOM      2  C2  IND d   1       5.948  -0.548  -1.397  0.00  0.00     0.054 A 
ATOM      3  C3  IND d   1       5.875   0.799  -1.475  0.00  0.00    -0.031 A 
ATOM      4  C4  IND d   1       5.929   2.553   0.409  0.00  0.00     0.051 A 
ATOM      5  C5  IND d   1       5.932   2.672   1.770  0.00  0.00    -0.031 A 
ATOM      6  C6  IND d   1       5.960   1.568   2.598  0.00  0.00     0.015 A 
ATOM      7  C7  IND d   1       5.999   0.299   2.093  0.00  0.00    -0.016 A 
ATOM      8  C8  IND d   1       5.989   0.175   0.711  0.00  0.00    -0.047 A 
ATOM      9  C9  IND d   1       5.917   1.290  -0.134  0.00  0.00    -0.096 A 
ATOM     10  HN1 IND d   1       6.031  -1.760   0.186  0.00  0.00     0.298 HD
ENDROOT
TORSDOF 0
ENDMDL
