MODEL 1
REMARK minimizedAffinity 6.75460768
REMARK minimizedRMSD -1
REMARK  0 active torsions:
REMARK  status: ('A' for Active; 'I' for Inactive)
ROOT
ATOM      1  N1  IND d   1      -2.708   2.711  -2.610  0.00  0.00    -0.196 N 
ATOM      2  C2  IND d   1      -1.622   3.373  -3.112  0.00  0.00     0.054 A 
ATOM      3  C3  IND d   1      -0.513   2.606  -3.006  0.00  0.00    -0.031 A 
ATOM      4  C4  IND d   1      -0.270   0.195  -2.136  0.00  0.00     0.051 A 
ATOM      5  C5  IND d   1      -0.976  -0.811  -1.539  0.00  0.00    -0.031 A 
ATOM      6  C6  IND d   1      -2.324  -0.694  -1.266  0.00  0.00     0.015 A 
ATOM      7  C7  IND d   1      -3.021   0.436  -1.591  0.00  0.00    -0.016 A 
ATOM      8  C8  IND d   1      -2.305   1.462  -2.191  0.00  0.00    -0.047 A 
ATOM      9  C9  IND d   1      -0.929   1.365  -2.432  0.00  0.00    -0.096 A 
ATOM     10  HN1 IND d   1      -3.508   3.023  -2.564  0.00  0.00     0.298 HD
ENDROOT
TORSDOF 0
ENDMDL
