MODEL 1
REMARK minimizedAffinity 11.453619
REMARK minimizedRMSD -1
REMARK  0 active torsions:
REMARK  status: ('A' for Active; 'I' for Inactive)
ROOT
ATOM      1  N1  IND d   1      -3.808   0.772   1.658  0.00  0.00    -0.196 N 
ATOM      2  C2  IND d   1      -4.276   1.439   2.756  0.00  0.00     0.054 A 
ATOM      3  C3  IND d   1      -3.451   1.247   3.810  0.00  0.00    -0.031 A 
ATOM      4  C4  IND d   1      -1.226  -0.041   3.933  0.00  0.00     0.051 A 
ATOM      5  C5  IND d   1      -0.406  -0.848   3.194  0.00  0.00    -0.031 A 
ATOM      6  C6  IND d   1      -0.682  -1.159   1.878  0.00  0.00     0.015 A 
ATOM      7  C7  IND d   1      -1.788  -0.665   1.246  0.00  0.00    -0.016 A 
ATOM      8  C8  IND d   1      -2.626   0.149   1.995  0.00  0.00    -0.047 A 
ATOM      9  C9  IND d   1      -2.373   0.434   3.343  0.00  0.00    -0.096 A 
ATOM     10  HN1 IND d   1      -4.187   0.747   0.887  0.00  0.00     0.298 HD
ENDROOT
TORSDOF 0
ENDMDL
