MODEL 1
REMARK minimizedAffinity 2.96024394
REMARK minimizedRMSD -1
REMARK  0 active torsions:
REMARK  status: ('A' for Active; 'I' for Inactive)
ROOT
ATOM      1  N1  IND d   1       4.817   1.994   0.425  0.00  0.00    -0.196 N 
ATOM      2  C2  IND d   1       6.000   1.958   1.109  0.00  0.00     0.054 A 
ATOM      3  C3  IND d   1       5.796   2.238   2.416  0.00  0.00    -0.031 A 
ATOM      4  C4  IND d   1       3.591   2.685   3.668  0.00  0.00     0.051 A 
ATOM      5  C5  IND d   1       2.251   2.858   3.461  0.00  0.00    -0.031 A 
ATOM      6  C6  IND d   1       1.686   2.747   2.207  0.00  0.00     0.015 A 
ATOM      7  C7  IND d   1       2.442   2.446   1.110  0.00  0.00    -0.016 A 
ATOM      8  C8  IND d   1       3.804   2.277   1.314  0.00  0.00    -0.047 A 
ATOM      9  C9  IND d   1       4.389   2.430   2.578  0.00  0.00    -0.096 A 
ATOM     10  HN1 IND d   1       4.722   1.862  -0.420  0.00  0.00     0.298 HD
ENDROOT
TORSDOF 0
ENDMDL
