MODEL 1
REMARK minimizedAffinity 1.97649443
REMARK minimizedRMSD -1
REMARK  0 active torsions:
REMARK  status: ('A' for Active; 'I' for Inactive)
ROOT
ATOM      1  N1  IND d   1       2.412   0.122  -0.069  0.00  0.00    -0.196 N 
ATOM      2  C2  IND d   1       1.576   1.204  -0.047  0.00  0.00     0.054 A 
ATOM      3  C3  IND d   1       2.266   2.325   0.263  0.00  0.00    -0.031 A 
ATOM      4  C4  IND d   1       4.789   2.633   0.671  0.00  0.00     0.051 A 
ATOM      5  C5  IND d   1       5.954   1.929   0.794  0.00  0.00    -0.031 A 
ATOM      6  C6  IND d   1       5.999   0.560   0.629  0.00  0.00     0.015 A 
ATOM      7  C7  IND d   1       4.878  -0.158   0.323  0.00  0.00    -0.016 A 
ATOM      8  C8  IND d   1       3.692   0.552   0.204  0.00  0.00    -0.047 A 
ATOM      9  C9  IND d   1       3.632   1.936   0.413  0.00  0.00    -0.096 A 
ATOM     10  HN1 IND d   1       2.178  -0.690  -0.228  0.00  0.00     0.298 HD
ENDROOT
TORSDOF 0
ENDMDL
