MODEL 1
REMARK minimizedAffinity 0.929858506
REMARK minimizedRMSD -1
REMARK  0 active torsions:
REMARK  status: ('A' for Active; 'I' for Inactive)
ROOT
ATOM      1  N1  IND d   1       6.000   2.420  -2.918  0.00  0.00    -0.196 N 
ATOM      2  C2  IND d   1       5.948   1.338  -3.752  0.00  0.00     0.054 A 
ATOM      3  C3  IND d   1       5.872   0.194  -3.034  0.00  0.00    -0.031 A 
ATOM      4  C4  IND d   1       5.715  -0.129  -0.485  0.00  0.00     0.051 A 
ATOM      5  C5  IND d   1       5.761   0.562   0.694  0.00  0.00    -0.031 A 
ATOM      6  C6  IND d   1       5.889   1.935   0.729  0.00  0.00     0.015 A 
ATOM      7  C7  IND d   1       5.964   2.674  -0.418  0.00  0.00    -0.016 A 
ATOM      8  C8  IND d   1       5.925   1.975  -1.617  0.00  0.00    -0.047 A 
ATOM      9  C9  IND d   1       5.838   0.577  -1.658  0.00  0.00    -0.096 A 
ATOM     10  HN1 IND d   1       6.067   3.241  -3.165  0.00  0.00     0.298 HD
ENDROOT
TORSDOF 0
ENDMDL
