MODEL 1
REMARK minimizedAffinity -0.123261169
REMARK minimizedRMSD -1
REMARK  0 active torsions:
REMARK  status: ('A' for Active; 'I' for Inactive)
ROOT
ATOM      1  N1  IND d   1       5.992   1.747   1.162  0.00  0.00    -0.196 N 
ATOM      2  C2  IND d   1       5.987   3.114   1.151  0.00  0.00     0.054 A 
ATOM      3  C3  IND d   1       5.999   3.574  -0.120  0.00  0.00    -0.031 A 
ATOM      4  C4  IND d   1       5.923   2.264  -2.335  0.00  0.00     0.051 A 
ATOM      5  C5  IND d   1       5.955   0.992  -2.836  0.00  0.00    -0.031 A 
ATOM      6  C6  IND d   1       5.998  -0.115  -2.013  0.00  0.00     0.015 A 
ATOM      7  C7  IND d   1       6.000   0.009  -0.652  0.00  0.00    -0.016 A 
ATOM      8  C8  IND d   1       5.976   1.298  -0.140  0.00  0.00    -0.047 A 
ATOM      9  C9  IND d   1       5.975   2.426  -0.970  0.00  0.00    -0.096 A 
ATOM     10  HN1 IND d   1       6.002   1.251   1.864  0.00  0.00     0.298 HD
ENDROOT
TORSDOF 0
ENDMDL
