MODEL 1
REMARK minimizedAffinity 6.77084303
REMARK minimizedRMSD -1
REMARK  0 active torsions:
REMARK  status: ('A' for Active; 'I' for Inactive)
ROOT
ATOM      1  N1  IND d   1      -0.667  -2.882   3.407  0.00  0.00    -0.196 N 
ATOM      2  C2  IND d   1      -0.932  -1.551   3.572  0.00  0.00     0.054 A 
ATOM      3  C3  IND d   1      -0.102  -0.808   2.806  0.00  0.00    -0.031 A 
ATOM      4  C4  IND d   1       1.696  -1.570   1.129  0.00  0.00     0.051 A 
ATOM      5  C5  IND d   1       2.328  -2.688   0.660  0.00  0.00    -0.031 A 
ATOM      6  C6  IND d   1       1.985  -3.953   1.090  0.00  0.00     0.015 A 
ATOM      7  C7  IND d   1       0.985  -4.150   2.000  0.00  0.00    -0.016 A 
ATOM      8  C8  IND d   1       0.346  -3.017   2.483  0.00  0.00    -0.047 A 
ATOM      9  C9  IND d   1       0.719  -1.727   2.083  0.00  0.00    -0.096 A 
ATOM     10  HN1 IND d   1      -1.066  -3.527   3.813  0.00  0.00     0.298 HD
ENDROOT
TORSDOF 0
ENDMDL
