MODEL 1
REMARK minimizedAffinity 9.55070019
REMARK minimizedRMSD -1
REMARK  0 active torsions:
REMARK  status: ('A' for Active; 'I' for Inactive)
ROOT
ATOM      1  C   UNL d   1       2.053  -0.110  -5.150  0.00  0.00     0.124 A 
ATOM      2  C1  UNL d   1       1.089  -1.064  -5.448  0.00  0.00     0.062 A 
ATOM      3  C2  UNL d   1       1.461  -2.382  -5.692  0.00  0.00     0.162 A 
ATOM      4  C3  UNL d   1       2.804  -2.757  -5.637  0.00  0.00    -0.034 A 
ATOM      5  C4  UNL d   1       3.767  -1.792  -5.337  0.00  0.00     0.162 A 
ATOM      6  C5  UNL d   1       3.391  -0.475  -5.095  0.00  0.00     0.062 A 
ATOM      7  F   UNL d   1       4.323   0.445  -4.807  0.00  0.00    -0.097 F 
ATOM      8  F1  UNL d   1       5.067  -2.117  -5.276  0.00  0.00    -0.096 F 
ATOM      9  I   UNL d   1       3.364  -4.728  -6.000  0.00  0.00    -0.060 I 
ATOM     10  F2  UNL d   1       0.509  -3.283  -5.978  0.00  0.00    -0.096 F 
ATOM     11  F3  UNL d   1      -0.204  -0.713  -5.503  0.00  0.00    -0.097 F 
ATOM     12  F4  UNL d   1       1.692   1.159  -4.918  0.00  0.00    -0.092 F 
ENDROOT
TORSDOF 0
ENDMDL
