MODEL 1
REMARK minimizedAffinity 26.1264172
REMARK minimizedRMSD -1
REMARK  0 active torsions:
REMARK  status: ('A' for Active; 'I' for Inactive)
ROOT
ATOM      1  C   UNL d   1      -0.568   2.075   2.948  0.00  0.00     0.124 A 
ATOM      2  C1  UNL d   1      -0.038   2.252   4.219  0.00  0.00     0.062 A 
ATOM      3  C2  UNL d   1       0.800   1.286   4.769  0.00  0.00     0.162 A 
ATOM      4  C3  UNL d   1       1.114   0.135   4.048  0.00  0.00    -0.034 A 
ATOM      5  C4  UNL d   1       0.577  -0.037   2.771  0.00  0.00     0.162 A 
ATOM      6  C5  UNL d   1      -0.260   0.931   2.226  0.00  0.00     0.062 A 
ATOM      7  F   UNL d   1      -0.770   0.758   0.998  0.00  0.00    -0.097 F 
ATOM      8  F1  UNL d   1       0.859  -1.133   2.050  0.00  0.00    -0.096 F 
ATOM      9  I   UNL d   1       2.367  -1.312   4.867  0.00  0.00    -0.060 I 
ATOM     10  F2  UNL d   1       1.297   1.484   5.999  0.00  0.00    -0.096 F 
ATOM     11  F3  UNL d   1      -0.335   3.356   4.919  0.00  0.00    -0.097 F 
ATOM     12  F4  UNL d   1      -1.374   3.005   2.422  0.00  0.00    -0.092 F 
ENDROOT
TORSDOF 0
ENDMDL
