MODEL 1
REMARK minimizedAffinity 20.2008629
REMARK minimizedRMSD -1
REMARK  0 active torsions:
REMARK  status: ('A' for Active; 'I' for Inactive)
ROOT
ATOM      1  C   UNL d   1      -0.937  -2.121  -2.460  0.00  0.00     0.124 A 
ATOM      2  C1  UNL d   1      -1.793  -3.177  -2.180  0.00  0.00     0.062 A 
ATOM      3  C2  UNL d   1      -2.169  -4.059  -3.189  0.00  0.00     0.162 A 
ATOM      4  C3  UNL d   1      -1.689  -3.888  -4.488  0.00  0.00    -0.034 A 
ATOM      5  C4  UNL d   1      -0.830  -2.823  -4.761  0.00  0.00     0.162 A 
ATOM      6  C5  UNL d   1      -0.456  -1.945  -3.749  0.00  0.00     0.062 A 
ATOM      7  F   UNL d   1       0.371  -0.925  -4.021  0.00  0.00    -0.097 F 
ATOM      8  F1  UNL d   1      -0.349  -2.630  -5.999  0.00  0.00    -0.096 F 
ATOM      9  I   UNL d   1      -2.250  -5.204  -6.000  0.00  0.00    -0.060 I 
ATOM     10  F2  UNL d   1      -2.998  -5.071  -2.891  0.00  0.00    -0.096 F 
ATOM     11  F3  UNL d   1      -2.259  -3.349  -0.935  0.00  0.00    -0.097 F 
ATOM     12  F4  UNL d   1      -0.577  -1.274  -1.487  0.00  0.00    -0.092 F 
ENDROOT
TORSDOF 0
ENDMDL
