MODEL 1
REMARK minimizedAffinity 23.8896408
REMARK minimizedRMSD -1
REMARK  0 active torsions:
REMARK  status: ('A' for Active; 'I' for Inactive)
ROOT
ATOM      1  C   UNL d   1      -0.610  -0.967   0.802  0.00  0.00     0.124 A 
ATOM      2  C1  UNL d   1       0.579  -1.662   0.628  0.00  0.00     0.062 A 
ATOM      3  C2  UNL d   1       1.665  -1.412   1.461  0.00  0.00     0.162 A 
ATOM      4  C3  UNL d   1       1.567  -0.462   2.479  0.00  0.00    -0.034 A 
ATOM      5  C4  UNL d   1       0.369   0.233   2.647  0.00  0.00     0.162 A 
ATOM      6  C5  UNL d   1      -0.714  -0.021   1.811  0.00  0.00     0.062 A 
ATOM      7  F   UNL d   1      -1.862   0.651   1.981  0.00  0.00    -0.097 F 
ATOM      8  F1  UNL d   1       0.240   1.153   3.615  0.00  0.00    -0.096 F 
ATOM      9  I   UNL d   1       3.189  -0.085   3.728  0.00  0.00    -0.060 I 
ATOM     10  F2  UNL d   1       2.802  -2.098   1.270  0.00  0.00    -0.096 F 
ATOM     11  F3  UNL d   1       0.683  -2.577  -0.347  0.00  0.00    -0.097 F 
ATOM     12  F4  UNL d   1      -1.652  -1.210  -0.002  0.00  0.00    -0.092 F 
ENDROOT
TORSDOF 0
ENDMDL
