MODEL 1
REMARK minimizedAffinity 19.1601734
REMARK minimizedRMSD -1
REMARK  0 active torsions:
REMARK  status: ('A' for Active; 'I' for Inactive)
ROOT
ATOM      1  C   UNL d   1       2.499  -0.550   3.603  0.00  0.00     0.124 A 
ATOM      2  C1  UNL d   1       2.244  -1.887   3.327  0.00  0.00     0.062 A 
ATOM      3  C2  UNL d   1       2.987  -2.884   3.952  0.00  0.00     0.162 A 
ATOM      4  C3  UNL d   1       3.991  -2.550   4.860  0.00  0.00    -0.034 A 
ATOM      5  C4  UNL d   1       4.242  -1.204   5.132  0.00  0.00     0.162 A 
ATOM      6  C5  UNL d   1       3.497  -0.210   4.505  0.00  0.00     0.062 A 
ATOM      7  F   UNL d   1       3.745   1.080   4.773  0.00  0.00    -0.097 F 
ATOM      8  F1  UNL d   1       5.201  -0.847   6.000  0.00  0.00    -0.096 F 
ATOM      9  I   UNL d   1       5.104  -4.039   5.796  0.00  0.00    -0.060 I 
ATOM     10  F2  UNL d   1       2.719  -4.167   3.666  0.00  0.00    -0.096 F 
ATOM     11  F3  UNL d   1       1.280  -2.218   2.456  0.00  0.00    -0.097 F 
ATOM     12  F4  UNL d   1       1.783   0.408   3.000  0.00  0.00    -0.092 F 
ENDROOT
TORSDOF 0
ENDMDL
