MODEL 1
REMARK minimizedAffinity 2.59455132
REMARK minimizedRMSD -1
REMARK  1 active torsions:
REMARK  status: ('A' for Active; 'I' for Inactive)
REMARK    1  A    between atoms: C1_2  and  C2_3 
ROOT
ATOM      1  C2  UNL d   1       1.180  -1.313   1.615  0.00  0.00    -0.076 A 
ATOM      2  C3  UNL d   1       0.977  -1.504   0.237  0.00  0.00     0.004 A 
ATOM      3  C4  UNL d   1       2.025  -1.355  -0.670  0.00  0.00    -0.003 A 
ATOM      4  C5  UNL d   1       3.294  -1.014  -0.213  0.00  0.00     0.000 A 
ATOM      5  C6  UNL d   1       3.517  -0.838   1.152  0.00  0.00     0.000 A 
ATOM      6  C7  UNL d   1       2.475  -1.000   2.081  0.00  0.00    -0.073 A 
ATOM      7  C8  UNL d   1       2.771  -0.793   3.541  0.00  0.00     0.078 C 
ENDROOT
BRANCH   1   8
ATOM      8  C1  UNL d   1       0.000  -1.461   2.548  0.00  0.00     0.053 C 
ATOM      9  C   UNL d   1      -0.851  -0.203   2.615  0.00  0.00     0.018 C 
ENDBRANCH   1   8
TORSDOF 1
ENDMDL
