MODEL 1
REMARK minimizedAffinity 8.39930248
REMARK minimizedRMSD -1
REMARK  1 active torsions:
REMARK  status: ('A' for Active; 'I' for Inactive)
REMARK    1  A    between atoms: C1_2  and  C2_3 
ROOT
ATOM      1  C2  UNL d   1       0.991  -0.952   0.787  0.00  0.00    -0.076 A 
ATOM      2  C3  UNL d   1      -0.168  -0.530   1.462  0.00  0.00     0.004 A 
ATOM      3  C4  UNL d   1      -0.332  -0.771   2.825  0.00  0.00    -0.003 A 
ATOM      4  C5  UNL d   1       0.660  -1.438   3.536  0.00  0.00     0.000 A 
ATOM      5  C6  UNL d   1       1.823  -1.848   2.886  0.00  0.00     0.000 A 
ATOM      6  C7  UNL d   1       2.012  -1.599   1.516  0.00  0.00    -0.073 A 
ATOM      7  C8  UNL d   1       3.284  -2.069   0.865  0.00  0.00     0.078 C 
ENDROOT
BRANCH   1   8
ATOM      8  C1  UNL d   1       1.101  -0.687  -0.697  0.00  0.00     0.053 C 
ATOM      9  C   UNL d   1       1.474   0.755  -1.005  0.00  0.00     0.018 C 
ENDBRANCH   1   8
TORSDOF 1
ENDMDL
