MODEL 1
REMARK minimizedAffinity 4.89199638
REMARK minimizedRMSD -1
REMARK  1 active torsions:
REMARK  status: ('A' for Active; 'I' for Inactive)
REMARK    1  A    between atoms: C1_2  and  C2_3 
ROOT
ATOM      1  C2  UNL d   1       1.364  -1.546   2.088  0.00  0.00    -0.076 A 
ATOM      2  C3  UNL d   1       0.721  -1.143   0.905  0.00  0.00     0.004 A 
ATOM      3  C4  UNL d   1       1.253  -1.458  -0.344  0.00  0.00    -0.003 A 
ATOM      4  C5  UNL d   1       2.437  -2.183  -0.430  0.00  0.00     0.000 A 
ATOM      5  C6  UNL d   1       3.079  -2.606   0.733  0.00  0.00     0.000 A 
ATOM      6  C7  UNL d   1       2.547  -2.310   2.000  0.00  0.00    -0.073 A 
ATOM      7  C8  UNL d   1       3.284  -2.786   3.222  0.00  0.00     0.078 C 
ENDROOT
BRANCH   1   8
ATOM      8  C1  UNL d   1       0.754  -1.152   3.414  0.00  0.00     0.053 C 
ATOM      9  C   UNL d   1      -0.344  -0.110   3.264  0.00  0.00     0.018 C 
ENDBRANCH   1   8
TORSDOF 1
ENDMDL
