MODEL 1
REMARK minimizedAffinity 9.21433067
REMARK minimizedRMSD -1
REMARK  1 active torsions:
REMARK  status: ('A' for Active; 'I' for Inactive)
REMARK    1  A    between atoms: C1_2  and  C2_3 
ROOT
ATOM      1  C2  UNL d   1       0.990  -1.520   1.026  0.00  0.00    -0.076 A 
ATOM      2  C3  UNL d   1       0.207  -1.174  -0.089  0.00  0.00     0.004 A 
ATOM      3  C4  UNL d   1       0.746  -1.184  -1.375  0.00  0.00    -0.003 A 
ATOM      4  C5  UNL d   1       2.076  -1.541  -1.566  0.00  0.00     0.000 A 
ATOM      5  C6  UNL d   1       2.862  -1.904  -0.473  0.00  0.00     0.000 A 
ATOM      6  C7  UNL d   1       2.330  -1.915   0.828  0.00  0.00    -0.073 A 
ATOM      7  C8  UNL d   1       3.225  -2.310   1.970  0.00  0.00     0.078 C 
ENDROOT
BRANCH   1   8
ATOM      8  C1  UNL d   1       0.359  -1.465   2.399  0.00  0.00     0.053 C 
ATOM      9  C   UNL d   1       0.802  -0.248   3.196  0.00  0.00     0.018 C 
ENDBRANCH   1   8
TORSDOF 1
ENDMDL
