MODEL 1
REMARK minimizedAffinity 6.72618628
REMARK minimizedRMSD -1
REMARK  1 active torsions:
REMARK  status: ('A' for Active; 'I' for Inactive)
REMARK    1  A    between atoms: C1_2  and  C2_3 
ROOT
ATOM      1  C2  UNL d   1       1.537  -0.079  -0.578  0.00  0.00    -0.076 A 
ATOM      2  C3  UNL d   1       1.155  -0.499  -1.864  0.00  0.00     0.004 A 
ATOM      3  C4  UNL d   1       1.344   0.324  -2.973  0.00  0.00    -0.003 A 
ATOM      4  C5  UNL d   1       1.920   1.579  -2.814  0.00  0.00     0.000 A 
ATOM      5  C6  UNL d   1       2.322   2.005  -1.548  0.00  0.00     0.000 A 
ATOM      6  C7  UNL d   1       2.153   1.181  -0.422  0.00  0.00    -0.073 A 
ATOM      7  C8  UNL d   1       2.598   1.693   0.920  0.00  0.00     0.078 C 
ENDROOT
BRANCH   1   8
ATOM      8  C1  UNL d   1       1.281  -1.003   0.591  0.00  0.00     0.053 C 
ATOM      9  C   UNL d   1      -0.202  -1.195   0.869  0.00  0.00     0.018 C 
ENDBRANCH   1   8
TORSDOF 1
ENDMDL
