MODEL 1
REMARK minimizedAffinity 1.10185146
REMARK minimizedRMSD -1
REMARK  1 active torsions:
REMARK  status: ('A' for Active; 'I' for Inactive)
REMARK    1  A    between atoms: C1_2  and  C2_3 
ROOT
ATOM      1  C2  UNL d   1       2.686  -0.013  -0.496  0.00  0.00    -0.076 A 
ATOM      2  C3  UNL d   1       2.426   1.312  -0.105  0.00  0.00     0.004 A 
ATOM      3  C4  UNL d   1       2.256   2.320  -1.052  0.00  0.00    -0.003 A 
ATOM      4  C5  UNL d   1       2.343   2.020  -2.407  0.00  0.00     0.000 A 
ATOM      5  C6  UNL d   1       2.583   0.707  -2.814  0.00  0.00     0.000 A 
ATOM      6  C7  UNL d   1       2.740  -0.323  -1.872  0.00  0.00    -0.073 A 
ATOM      7  C8  UNL d   1       3.003  -1.719  -2.367  0.00  0.00     0.078 C 
ENDROOT
BRANCH   1   8
ATOM      8  C1  UNL d   1       2.889  -1.058   0.577  0.00  0.00     0.053 C 
ATOM      9  C   UNL d   1       1.581  -1.499   1.215  0.00  0.00     0.018 C 
ENDBRANCH   1   8
TORSDOF 1
ENDMDL
