MODEL 1
REMARK minimizedAffinity -0.125029102
REMARK minimizedRMSD -1
REMARK  0 active torsions:
REMARK  status: ('A' for Active; 'I' for Inactive)
ROOT
ATOM      1  C   UNL d   1       0.822   1.525  -2.891  0.00  0.00     0.023 A 
ATOM      2  C1  UNL d   1      -0.077   0.648  -2.284  0.00  0.00     0.003 A 
ATOM      3  C2  UNL d   1      -1.414   1.016  -2.124  0.00  0.00     0.048 A 
ATOM      4  C3  UNL d   1      -1.847   2.263  -2.574  0.00  0.00     0.023 A 
ATOM      5  C4  UNL d   1      -0.951   3.144  -3.183  0.00  0.00     0.048 A 
ATOM      6  C5  UNL d   1       0.385   2.772  -3.340  0.00  0.00     0.003 A 
ATOM      7  I   UNL d   1      -3.837   2.813  -2.338  0.00  0.00    -0.146 I 
ENDROOT
TORSDOF 0
ENDMDL
