MODEL 1
REMARK minimizedAffinity -4.38906479
REMARK minimizedRMSD -1
REMARK  0 active torsions:
REMARK  status: ('A' for Active; 'I' for Inactive)
ROOT
ATOM      1  C   UNL d   1       2.450  -1.349   3.098  0.00  0.00     0.023 A 
ATOM      2  C1  UNL d   1       1.516  -0.384   3.476  0.00  0.00     0.003 A 
ATOM      3  C2  UNL d   1       0.599   0.105   2.543  0.00  0.00     0.048 A 
ATOM      4  C3  UNL d   1       0.621  -0.376   1.234  0.00  0.00     0.023 A 
ATOM      5  C4  UNL d   1       1.553  -1.341   0.852  0.00  0.00     0.048 A 
ATOM      6  C5  UNL d   1       2.469  -1.827   1.788  0.00  0.00     0.003 A 
ATOM      7  I   UNL d   1      -0.742   0.351  -0.156  0.00  0.00    -0.146 I 
ENDROOT
TORSDOF 0
ENDMDL
