MODEL 1
REMARK minimizedAffinity -3.80982637
REMARK minimizedRMSD -1
REMARK  0 active torsions:
REMARK  status: ('A' for Active; 'I' for Inactive)
ROOT
ATOM      1  C   UNL d   1       0.012  -0.766   2.384  0.00  0.00     0.023 A 
ATOM      2  C1  UNL d   1      -1.273  -0.418   1.969  0.00  0.00     0.003 A 
ATOM      3  C2  UNL d   1      -1.472   0.142   0.705  0.00  0.00     0.048 A 
ATOM      4  C3  UNL d   1      -0.382   0.350  -0.139  0.00  0.00     0.023 A 
ATOM      5  C4  UNL d   1       0.906   0.002   0.272  0.00  0.00     0.048 A 
ATOM      6  C5  UNL d   1       1.100  -0.557   1.536  0.00  0.00     0.003 A 
ATOM      7  I   UNL d   1      -0.676   1.183  -2.020  0.00  0.00    -0.146 I 
ENDROOT
TORSDOF 0
ENDMDL
