MODEL 1
REMARK minimizedAffinity -3.87154841
REMARK minimizedRMSD -1
REMARK  0 active torsions:
REMARK  status: ('A' for Active; 'I' for Inactive)
ROOT
ATOM      1  C   UNL d   1       0.147  -0.662   2.659  0.00  0.00     0.023 A 
ATOM      2  C1  UNL d   1      -1.103  -0.084   2.440  0.00  0.00     0.003 A 
ATOM      3  C2  UNL d   1      -1.414   0.458   1.191  0.00  0.00     0.048 A 
ATOM      4  C3  UNL d   1      -0.470   0.418   0.166  0.00  0.00     0.023 A 
ATOM      5  C4  UNL d   1       0.783  -0.160   0.380  0.00  0.00     0.048 A 
ATOM      6  C5  UNL d   1       1.089  -0.700   1.631  0.00  0.00     0.003 A 
ATOM      7  I   UNL d   1      -0.930   1.224  -1.694  0.00  0.00    -0.146 I 
ENDROOT
TORSDOF 0
ENDMDL
