MODEL 1
REMARK minimizedAffinity -4.41888571
REMARK minimizedRMSD -1
REMARK  0 active torsions:
REMARK  status: ('A' for Active; 'I' for Inactive)
ROOT
ATOM      1  C   UNL d   1       1.027  -0.817   2.587  0.00  0.00     0.023 A 
ATOM      2  C1  UNL d   1       1.966  -0.601   1.578  0.00  0.00     0.003 A 
ATOM      3  C2  UNL d   1       1.546  -0.222   0.301  0.00  0.00     0.048 A 
ATOM      4  C3  UNL d   1       0.186  -0.059   0.040  0.00  0.00     0.023 A 
ATOM      5  C4  UNL d   1      -0.757  -0.273   1.047  0.00  0.00     0.048 A 
ATOM      6  C5  UNL d   1      -0.333  -0.653   2.321  0.00  0.00     0.003 A 
ATOM      7  I   UNL d   1      -0.441   0.506  -1.859  0.00  0.00    -0.146 I 
ENDROOT
TORSDOF 0
ENDMDL
