MODEL 1
REMARK minimizedAffinity -4.02513981
REMARK minimizedRMSD -1
REMARK  0 active torsions:
REMARK  status: ('A' for Active; 'I' for Inactive)
ROOT
ATOM      1  C   UNL d   1       1.941  -1.649   2.348  0.00  0.00     0.023 A 
ATOM      2  C1  UNL d   1       0.781  -0.884   2.465  0.00  0.00     0.003 A 
ATOM      3  C2  UNL d   1       0.240  -0.257   1.341  0.00  0.00     0.048 A 
ATOM      4  C3  UNL d   1       0.863  -0.401   0.102  0.00  0.00     0.023 A 
ATOM      5  C4  UNL d   1       2.024  -1.167  -0.021  0.00  0.00     0.048 A 
ATOM      6  C5  UNL d   1       2.562  -1.791   1.106  0.00  0.00     0.003 A 
ATOM      7  I   UNL d   1       0.060   0.531  -1.573  0.00  0.00    -0.146 I 
ENDROOT
TORSDOF 0
ENDMDL
