MODEL 1
REMARK minimizedAffinity -2.8510673
REMARK minimizedRMSD -1
REMARK  0 active torsions:
REMARK  status: ('A' for Active; 'I' for Inactive)
ROOT
ATOM      1  C   UNL d   1      -0.183  -1.168   1.516  0.00  0.00     0.023 A 
ATOM      2  C1  UNL d   1       0.468  -0.878   0.317  0.00  0.00     0.003 A 
ATOM      3  C2  UNL d   1      -0.267  -0.467  -0.797  0.00  0.00     0.048 A 
ATOM      4  C3  UNL d   1      -1.653  -0.346  -0.704  0.00  0.00     0.023 A 
ATOM      5  C4  UNL d   1      -2.309  -0.635   0.494  0.00  0.00     0.048 A 
ATOM      6  C5  UNL d   1      -1.570  -1.046   1.604  0.00  0.00     0.003 A 
ATOM      7  I   UNL d   1      -2.749   0.265  -2.361  0.00  0.00    -0.146 I 
ENDROOT
TORSDOF 0
ENDMDL
