MODEL 1
REMARK minimizedAffinity -4.75848722
REMARK minimizedRMSD -1
REMARK  1 active torsions:
REMARK  status: ('A' for Active; 'I' for Inactive)
REMARK    1  A    between atoms: C1_2  and  C2_3 
ROOT
ATOM      1  C2  UNL d   1       0.545  -0.902   2.324  0.00  0.00    -0.077 A 
ATOM      2  C3  UNL d   1       0.738   0.154   1.422  0.00  0.00     0.002 A 
ATOM      3  C4  UNL d   1      -0.352   0.729   0.765  0.00  0.00     0.002 A 
ATOM      4  C5  UNL d   1      -1.641   0.257   1.006  0.00  0.00    -0.004 A 
ATOM      5  C6  UNL d   1      -1.842  -0.794   1.899  0.00  0.00     0.002 A 
ATOM      6  C7  UNL d   1      -0.754  -1.370   2.556  0.00  0.00     0.002 A 
ENDROOT
BRANCH   1   7
ATOM      7  C1  UNL d   1       1.714  -1.491   3.070  0.00  0.00     0.055 C 
ATOM      8  C   UNL d   1       1.682  -1.104   4.542  0.00  0.00     0.019 C 
ENDBRANCH   1   7
TORSDOF 1
ENDMDL
