MODEL 1
REMARK minimizedAffinity 0.839165688
REMARK minimizedRMSD -1
REMARK  1 active torsions:
REMARK  status: ('A' for Active; 'I' for Inactive)
REMARK    1  A    between atoms: C1_2  and  C2_3 
ROOT
ATOM      1  C2  UNL d   1       0.371  -0.913  -4.874  0.00  0.00    -0.077 A 
ATOM      2  C3  UNL d   1       1.031  -0.401  -6.000  0.00  0.00     0.002 A 
ATOM      3  C4  UNL d   1       2.419  -0.253  -5.997  0.00  0.00     0.002 A 
ATOM      4  C5  UNL d   1       3.159  -0.619  -4.875  0.00  0.00    -0.004 A 
ATOM      5  C6  UNL d   1       2.511  -1.128  -3.750  0.00  0.00     0.002 A 
ATOM      6  C7  UNL d   1       1.123  -1.275  -3.750  0.00  0.00     0.002 A 
ENDROOT
BRANCH   1   7
ATOM      7  C1  UNL d   1      -1.121  -1.120  -4.893  0.00  0.00     0.055 C 
ATOM      8  C   UNL d   1      -1.845   0.001  -4.160  0.00  0.00     0.019 C 
ENDBRANCH   1   7
TORSDOF 1
ENDMDL
