MODEL 1
REMARK minimizedAffinity 1.48224974
REMARK minimizedRMSD -1
REMARK  1 active torsions:
REMARK  status: ('A' for Active; 'I' for Inactive)
REMARK    1  A    between atoms: C1_2  and  C2_3 
ROOT
ATOM      1  C2  UNL d   1       2.794  -0.175  -5.318  0.00  0.00    -0.077 A 
ATOM      2  C3  UNL d   1       2.887  -0.654  -4.004  0.00  0.00     0.002 A 
ATOM      3  C4  UNL d   1       4.133  -0.782  -3.386  0.00  0.00     0.002 A 
ATOM      4  C5  UNL d   1       5.293  -0.429  -4.072  0.00  0.00    -0.004 A 
ATOM      5  C6  UNL d   1       5.210   0.046  -5.380  0.00  0.00     0.002 A 
ATOM      6  C7  UNL d   1       3.967   0.174  -6.000  0.00  0.00     0.002 A 
ENDROOT
BRANCH   1   7
ATOM      7  C1  UNL d   1       1.448   0.010  -5.969  0.00  0.00     0.055 C 
ATOM      8  C   UNL d   1       0.375  -0.807  -5.265  0.00  0.00     0.019 C 
ENDBRANCH   1   7
TORSDOF 1
ENDMDL
