MODEL 1
REMARK minimizedAffinity -1.62957406
REMARK minimizedRMSD -1
REMARK  1 active torsions:
REMARK  status: ('A' for Active; 'I' for Inactive)
REMARK    1  A    between atoms: C1_2  and  C2_3 
ROOT
ATOM      1  C2  UNL d   1       2.094  -0.714  -5.292  0.00  0.00    -0.077 A 
ATOM      2  C3  UNL d   1       2.204  -1.423  -4.089  0.00  0.00     0.002 A 
ATOM      3  C4  UNL d   1       1.067  -1.952  -3.474  0.00  0.00     0.002 A 
ATOM      4  C5  UNL d   1      -0.186  -1.781  -4.058  0.00  0.00    -0.004 A 
ATOM      5  C6  UNL d   1      -0.306  -1.074  -5.254  0.00  0.00     0.002 A 
ATOM      6  C7  UNL d   1       0.829  -0.544  -5.869  0.00  0.00     0.002 A 
ENDROOT
BRANCH   1   7
ATOM      7  C1  UNL d   1       3.324  -0.185  -5.982  0.00  0.00     0.055 C 
ATOM      8  C   UNL d   1       4.517  -1.107  -5.771  0.00  0.00     0.019 C 
ENDBRANCH   1   7
TORSDOF 1
ENDMDL
