MODEL 1
REMARK minimizedAffinity 5.48696661
REMARK minimizedRMSD -1
REMARK  0 active torsions:
REMARK  status: ('A' for Active; 'I' for Inactive)
ROOT
ATOM      1  C   UNL d   1       2.562   5.251  -1.872  0.00  0.00     0.124 A 
ATOM      2  C1  UNL d   1       2.033   4.947  -0.625  0.00  0.00     0.062 A 
ATOM      3  C2  UNL d   1       2.840   4.995   0.508  0.00  0.00     0.162 A 
ATOM      4  C3  UNL d   1       4.185   5.350   0.399  0.00  0.00    -0.034 A 
ATOM      5  C4  UNL d   1       4.710   5.653  -0.858  0.00  0.00     0.162 A 
ATOM      6  C5  UNL d   1       3.899   5.603  -1.987  0.00  0.00     0.062 A 
ATOM      7  F   UNL d   1       4.412   5.897  -3.191  0.00  0.00    -0.097 F 
ATOM      8  F1  UNL d   1       5.999   5.997  -0.998  0.00  0.00    -0.096 F 
ATOM      9  I   UNL d   1       5.395   5.423   2.091  0.00  0.00    -0.060 I 
ATOM     10  F2  UNL d   1       2.303   4.697   1.700  0.00  0.00    -0.096 F 
ATOM     11  F3  UNL d   1       0.742   4.605  -0.511  0.00  0.00    -0.097 F 
ATOM     12  F4  UNL d   1       1.783   5.203  -2.961  0.00  0.00    -0.092 F 
ENDROOT
TORSDOF 0
ENDMDL
