MODEL 1
REMARK minimizedAffinity 23.0046978
REMARK minimizedRMSD -1
REMARK  0 active torsions:
REMARK  status: ('A' for Active; 'I' for Inactive)
ROOT
ATOM      1  C   UNL d   1       1.276  -5.607   0.972  0.00  0.00     0.124 A 
ATOM      2  C1  UNL d   1       0.811  -5.577   2.280  0.00  0.00     0.062 A 
ATOM      3  C2  UNL d   1       1.703  -5.690   3.342  0.00  0.00     0.162 A 
ATOM      4  C3  UNL d   1       3.070  -5.832   3.102  0.00  0.00    -0.034 A 
ATOM      5  C4  UNL d   1       3.530  -5.861   1.784  0.00  0.00     0.162 A 
ATOM      6  C5  UNL d   1       2.634  -5.748   0.726  0.00  0.00     0.062 A 
ATOM      7  F   UNL d   1       3.085  -5.777  -0.537  0.00  0.00    -0.097 F 
ATOM      8  F1  UNL d   1       4.837  -5.996   1.517  0.00  0.00    -0.096 F 
ATOM      9  I   UNL d   1       4.407  -6.000   4.688  0.00  0.00    -0.060 I 
ATOM     10  F2  UNL d   1       1.226  -5.658   4.596  0.00  0.00    -0.096 F 
ATOM     11  F3  UNL d   1      -0.501  -5.441   2.521  0.00  0.00    -0.097 F 
ATOM     12  F4  UNL d   1       0.415  -5.499  -0.048  0.00  0.00    -0.092 F 
ENDROOT
TORSDOF 0
ENDMDL
