MODEL 1
REMARK minimizedAffinity 9.45600128
REMARK minimizedRMSD -1
REMARK  0 active torsions:
REMARK  status: ('A' for Active; 'I' for Inactive)
ROOT
ATOM      1  C   UNL d   1       1.193   1.333  -3.574  0.00  0.00     0.124 A 
ATOM      2  C1  UNL d   1       1.040   0.065  -4.116  0.00  0.00     0.062 A 
ATOM      3  C2  UNL d   1       1.303  -1.063  -3.343  0.00  0.00     0.162 A 
ATOM      4  C3  UNL d   1       1.720  -0.927  -2.019  0.00  0.00    -0.034 A 
ATOM      5  C4  UNL d   1       1.873   0.353  -1.482  0.00  0.00     0.162 A 
ATOM      6  C5  UNL d   1       1.609   1.476  -2.258  0.00  0.00     0.062 A 
ATOM      7  F   UNL d   1       1.757   2.701  -1.733  0.00  0.00    -0.097 F 
ATOM      8  F1  UNL d   1       2.272   0.520  -0.212  0.00  0.00    -0.096 F 
ATOM      9  I   UNL d   1       2.114  -2.610  -0.860  0.00  0.00    -0.060 I 
ATOM     10  F2  UNL d   1       1.147  -2.276  -3.893  0.00  0.00    -0.096 F 
ATOM     11  F3  UNL d   1       0.639  -0.076  -5.388  0.00  0.00    -0.097 F 
ATOM     12  F4  UNL d   1       0.940   2.416  -4.321  0.00  0.00    -0.092 F 
ENDROOT
TORSDOF 0
ENDMDL
