MODEL 1
REMARK minimizedAffinity 8.09883404
REMARK minimizedRMSD -1
REMARK  0 active torsions:
REMARK  status: ('A' for Active; 'I' for Inactive)
ROOT
ATOM      1  C   UNL d   1       2.854   3.102  -2.994  0.00  0.00     0.124 A 
ATOM      2  C1  UNL d   1       4.005   3.751  -3.418  0.00  0.00     0.062 A 
ATOM      3  C2  UNL d   1       4.895   3.110  -4.276  0.00  0.00     0.162 A 
ATOM      4  C3  UNL d   1       4.636   1.812  -4.717  0.00  0.00    -0.034 A 
ATOM      5  C4  UNL d   1       3.476   1.166  -4.286  0.00  0.00     0.162 A 
ATOM      6  C5  UNL d   1       2.590   1.810  -3.428  0.00  0.00     0.062 A 
ATOM      7  F   UNL d   1       1.478   1.182  -3.020  0.00  0.00    -0.097 F 
ATOM      8  F1  UNL d   1       3.196  -0.082  -4.690  0.00  0.00    -0.096 F 
ATOM      9  I   UNL d   1       5.963   0.851  -6.000  0.00  0.00    -0.060 I 
ATOM     10  F2  UNL d   1       5.999   3.761  -4.669  0.00  0.00    -0.096 F 
ATOM     11  F3  UNL d   1       4.263   4.998  -2.999  0.00  0.00    -0.097 F 
ATOM     12  F4  UNL d   1       2.000   3.720  -2.168  0.00  0.00    -0.092 F 
ENDROOT
TORSDOF 0
ENDMDL
