MODEL 1
REMARK minimizedAffinity 21.1585979
REMARK minimizedRMSD -1
REMARK  0 active torsions:
REMARK  status: ('A' for Active; 'I' for Inactive)
ROOT
ATOM      1  C   UNL d   1      -0.850   2.599  -0.837  0.00  0.00     0.124 A 
ATOM      2  C1  UNL d   1       0.247   1.953  -1.389  0.00  0.00     0.062 A 
ATOM      3  C2  UNL d   1       1.402   1.767  -0.635  0.00  0.00     0.162 A 
ATOM      4  C3  UNL d   1       1.465   2.227   0.680  0.00  0.00    -0.034 A 
ATOM      5  C4  UNL d   1       0.358   2.877   1.228  0.00  0.00     0.162 A 
ATOM      6  C5  UNL d   1      -0.794   3.061   0.470  0.00  0.00     0.062 A 
ATOM      7  F   UNL d   1      -1.853   3.685   1.005  0.00  0.00    -0.097 F 
ATOM      8  F1  UNL d   1       0.385   3.332   2.490  0.00  0.00    -0.096 F 
ATOM      9  I   UNL d   1       3.190   1.951   1.811  0.00  0.00    -0.060 I 
ATOM     10  F2  UNL d   1       2.447   1.139  -1.194  0.00  0.00    -0.096 F 
ATOM     11  F3  UNL d   1       0.195   1.507  -2.653  0.00  0.00    -0.097 F 
ATOM     12  F4  UNL d   1      -1.960   2.778  -1.565  0.00  0.00    -0.092 F 
ENDROOT
TORSDOF 0
ENDMDL
