MODEL 1
REMARK minimizedAffinity 15.3052311
REMARK minimizedRMSD -1
REMARK  0 active torsions:
REMARK  status: ('A' for Active; 'I' for Inactive)
ROOT
ATOM      1  C   UNL d   1       1.373  -1.940  -0.372  0.00  0.00     0.124 A 
ATOM      2  C1  UNL d   1       1.808  -3.012   0.395  0.00  0.00     0.062 A 
ATOM      3  C2  UNL d   1       2.732  -2.814   1.416  0.00  0.00     0.162 A 
ATOM      4  C3  UNL d   1       3.227  -1.536   1.679  0.00  0.00    -0.034 A 
ATOM      5  C4  UNL d   1       2.785  -0.463   0.903  0.00  0.00     0.162 A 
ATOM      6  C5  UNL d   1       1.861  -0.667  -0.117  0.00  0.00     0.062 A 
ATOM      7  F   UNL d   1       1.442   0.371  -0.856  0.00  0.00    -0.097 F 
ATOM      8  F1  UNL d   1       3.240   0.779   1.129  0.00  0.00    -0.096 F 
ATOM      9  I   UNL d   1       4.608  -1.234   3.206  0.00  0.00    -0.060 I 
ATOM     10  F2  UNL d   1       3.135  -3.868   2.141  0.00  0.00    -0.096 F 
ATOM     11  F3  UNL d   1       1.338  -4.244   0.150  0.00  0.00    -0.097 F 
ATOM     12  F4  UNL d   1       0.484  -2.134  -1.355  0.00  0.00    -0.092 F 
ENDROOT
TORSDOF 0
ENDMDL
