MODEL 1
REMARK minimizedAffinity 16.653553
REMARK minimizedRMSD -1
REMARK  0 active torsions:
REMARK  status: ('A' for Active; 'I' for Inactive)
ROOT
ATOM      1  C   UNL d   1       2.329  -0.023  -1.849  0.00  0.00     0.124 A 
ATOM      2  C1  UNL d   1       1.831  -1.215  -1.343  0.00  0.00     0.062 A 
ATOM      3  C2  UNL d   1       0.495  -1.311  -0.963  0.00  0.00     0.162 A 
ATOM      4  C3  UNL d   1      -0.353  -0.211  -1.088  0.00  0.00    -0.034 A 
ATOM      5  C4  UNL d   1       0.155   0.986  -1.596  0.00  0.00     0.162 A 
ATOM      6  C5  UNL d   1       1.491   1.076  -1.975  0.00  0.00     0.062 A 
ATOM      7  F   UNL d   1       1.970   2.230  -2.464  0.00  0.00    -0.097 F 
ATOM      8  F1  UNL d   1      -0.632   2.063  -1.730  0.00  0.00    -0.096 F 
ATOM      9  I   UNL d   1      -2.350  -0.350  -0.520  0.00  0.00    -0.060 I 
ATOM     10  F2  UNL d   1       0.041  -2.476  -0.477  0.00  0.00    -0.096 F 
ATOM     11  F3  UNL d   1       2.638  -2.279  -1.219  0.00  0.00    -0.097 F 
ATOM     12  F4  UNL d   1       3.614   0.067  -2.213  0.00  0.00    -0.092 F 
ENDROOT
TORSDOF 0
ENDMDL
