MODEL 1
REMARK minimizedAffinity 8.33503914
REMARK minimizedRMSD -1
REMARK  0 active torsions:
REMARK  status: ('A' for Active; 'I' for Inactive)
ROOT
ATOM      1  C   UNL d   1       0.405   1.711  -0.842  0.00  0.00     0.124 A 
ATOM      2  C1  UNL d   1       1.243   0.755  -1.398  0.00  0.00     0.062 A 
ATOM      3  C2  UNL d   1       2.276   0.206  -0.644  0.00  0.00     0.162 A 
ATOM      4  C3  UNL d   1       2.476   0.611   0.676  0.00  0.00    -0.034 A 
ATOM      5  C4  UNL d   1       1.629   1.574   1.228  0.00  0.00     0.162 A 
ATOM      6  C5  UNL d   1       0.598   2.119   0.471  0.00  0.00     0.062 A 
ATOM      7  F   UNL d   1      -0.211   3.043   1.010  0.00  0.00    -0.097 F 
ATOM      8  F1  UNL d   1       1.793   1.985   2.494  0.00  0.00    -0.096 F 
ATOM      9  I   UNL d   1       4.019  -0.208   1.807  0.00  0.00    -0.060 I 
ATOM     10  F2  UNL d   1       3.071  -0.716  -1.207  0.00  0.00    -0.096 F 
ATOM     11  F3  UNL d   1       1.058   0.360  -2.666  0.00  0.00    -0.097 F 
ATOM     12  F4  UNL d   1      -0.588   2.239  -1.570  0.00  0.00    -0.092 F 
ENDROOT
TORSDOF 0
ENDMDL
