MODEL 1
REMARK minimizedAffinity 16.4636574
REMARK minimizedRMSD -1
REMARK  0 active torsions:
REMARK  status: ('A' for Active; 'I' for Inactive)
ROOT
ATOM      1  C   UNL d   1       1.207  -0.723  -1.850  0.00  0.00     0.124 A 
ATOM      2  C1  UNL d   1      -0.132  -0.830  -1.501  0.00  0.00     0.062 A 
ATOM      3  C2  UNL d   1      -0.749   0.185  -0.775  0.00  0.00     0.162 A 
ATOM      4  C3  UNL d   1      -0.028   1.317  -0.395  0.00  0.00    -0.034 A 
ATOM      5  C4  UNL d   1       1.318   1.417  -0.750  0.00  0.00     0.162 A 
ATOM      6  C5  UNL d   1       1.931   0.400  -1.475  0.00  0.00     0.062 A 
ATOM      7  F   UNL d   1       3.225   0.505  -1.811  0.00  0.00    -0.097 F 
ATOM      8  F1  UNL d   1       2.041   2.491  -0.400  0.00  0.00    -0.096 F 
ATOM      9  I   UNL d   1      -0.948   2.837   0.689  0.00  0.00    -0.060 I 
ATOM     10  F2  UNL d   1      -2.044   0.055  -0.452  0.00  0.00    -0.096 F 
ATOM     11  F3  UNL d   1      -0.833  -1.915  -1.862  0.00  0.00    -0.097 F 
ATOM     12  F4  UNL d   1       1.799  -1.702  -2.547  0.00  0.00    -0.092 F 
ENDROOT
TORSDOF 0
ENDMDL
