MODEL 1
REMARK minimizedAffinity 19.681448
REMARK minimizedRMSD -1
REMARK  0 active torsions:
REMARK  status: ('A' for Active; 'I' for Inactive)
ROOT
ATOM      1  C   UNL d   1       1.539  -0.053  -1.647  0.00  0.00     0.124 A 
ATOM      2  C1  UNL d   1       1.019   0.940  -0.829  0.00  0.00     0.062 A 
ATOM      3  C2  UNL d   1      -0.320   0.906  -0.451  0.00  0.00     0.162 A 
ATOM      4  C3  UNL d   1      -1.149  -0.127  -0.889  0.00  0.00    -0.034 A 
ATOM      5  C4  UNL d   1      -0.619  -1.122  -1.712  0.00  0.00     0.162 A 
ATOM      6  C5  UNL d   1       0.720  -1.083  -2.088  0.00  0.00     0.062 A 
ATOM      7  F   UNL d   1       1.220  -2.044  -2.878  0.00  0.00    -0.097 F 
ATOM      8  F1  UNL d   1      -1.388  -2.130  -2.151  0.00  0.00    -0.096 F 
ATOM      9  I   UNL d   1      -3.152  -0.182  -0.325  0.00  0.00    -0.060 I 
ATOM     10  F2  UNL d   1      -0.796   1.879   0.340  0.00  0.00    -0.096 F 
ATOM     11  F3  UNL d   1       1.808   1.937  -0.403  0.00  0.00    -0.097 F 
ATOM     12  F4  UNL d   1       2.827  -0.017  -2.011  0.00  0.00    -0.092 F 
ENDROOT
TORSDOF 0
ENDMDL
