MODEL 1
REMARK minimizedAffinity 19.3063622
REMARK minimizedRMSD -1
REMARK  0 active torsions:
REMARK  status: ('A' for Active; 'I' for Inactive)
ROOT
ATOM      1  C   UNL d   1       0.707  -2.277  -2.959  0.00  0.00     0.124 A 
ATOM      2  C1  UNL d   1       2.049  -2.241  -2.605  0.00  0.00     0.062 A 
ATOM      3  C2  UNL d   1       2.438  -1.682  -1.392  0.00  0.00     0.162 A 
ATOM      4  C3  UNL d   1       1.484  -1.153  -0.522  0.00  0.00    -0.034 A 
ATOM      5  C4  UNL d   1       0.137  -1.192  -0.885  0.00  0.00     0.162 A 
ATOM      6  C5  UNL d   1      -0.247  -1.753  -2.099  0.00  0.00     0.062 A 
ATOM      7  F   UNL d   1      -1.544  -1.786  -2.439  0.00  0.00    -0.097 F 
ATOM      8  F1  UNL d   1      -0.807  -0.693  -0.073  0.00  0.00    -0.096 F 
ATOM      9  I   UNL d   1       2.062  -0.315   1.293  0.00  0.00    -0.060 I 
ATOM     10  F2  UNL d   1       3.742  -1.661  -1.076  0.00  0.00    -0.096 F 
ATOM     11  F3  UNL d   1       2.973  -2.747  -3.435  0.00  0.00    -0.097 F 
ATOM     12  F4  UNL d   1       0.336  -2.816  -4.128  0.00  0.00    -0.092 F 
ENDROOT
TORSDOF 0
ENDMDL
