MODEL 1
REMARK minimizedAffinity 22.1231556
REMARK minimizedRMSD -1
REMARK  0 active torsions:
REMARK  status: ('A' for Active; 'I' for Inactive)
ROOT
ATOM      1  C   UNL d   1       3.135   3.064   1.138  0.00  0.00     0.124 A 
ATOM      2  C1  UNL d   1       2.855   3.204  -0.215  0.00  0.00     0.062 A 
ATOM      3  C2  UNL d   1       3.635   4.040  -1.008  0.00  0.00     0.162 A 
ATOM      4  C3  UNL d   1       4.704   4.742  -0.452  0.00  0.00    -0.034 A 
ATOM      5  C4  UNL d   1       4.979   4.597   0.909  0.00  0.00     0.162 A 
ATOM      6  C5  UNL d   1       4.197   3.761   1.698  0.00  0.00     0.062 A 
ATOM      7  F   UNL d   1       4.469   3.627   3.004  0.00  0.00    -0.097 F 
ATOM      8  F1  UNL d   1       6.000   5.258   1.476  0.00  0.00    -0.096 F 
ATOM      9  I   UNL d   1       5.873   5.993  -1.636  0.00  0.00    -0.060 I 
ATOM     10  F2  UNL d   1       3.341   4.156  -2.312  0.00  0.00    -0.096 F 
ATOM     11  F3  UNL d   1       1.829   2.533  -0.758  0.00  0.00    -0.097 F 
ATOM     12  F4  UNL d   1       2.382   2.260   1.899  0.00  0.00    -0.092 F 
ENDROOT
TORSDOF 0
ENDMDL
