MODEL 1
REMARK minimizedAffinity 13.286274
REMARK minimizedRMSD -1
REMARK  0 active torsions:
REMARK  status: ('A' for Active; 'I' for Inactive)
ROOT
ATOM      1  C   UNL d   1       2.445  -1.382  -1.950  0.00  0.00     0.124 A 
ATOM      2  C1  UNL d   1       1.179  -1.276  -1.392  0.00  0.00     0.062 A 
ATOM      3  C2  UNL d   1       0.564  -0.032  -1.283  0.00  0.00     0.162 A 
ATOM      4  C3  UNL d   1       1.215   1.117  -1.733  0.00  0.00    -0.034 A 
ATOM      5  C4  UNL d   1       2.489   1.003  -2.292  0.00  0.00     0.162 A 
ATOM      6  C5  UNL d   1       3.099  -0.243  -2.399  0.00  0.00     0.062 A 
ATOM      7  F   UNL d   1       4.323  -0.343  -2.938  0.00  0.00    -0.097 F 
ATOM      8  F1  UNL d   1       3.143   2.087  -2.735  0.00  0.00    -0.096 F 
ATOM      9  I   UNL d   1       0.298   2.979  -1.572  0.00  0.00    -0.060 I 
ATOM     10  F2  UNL d   1      -0.660   0.041  -0.740  0.00  0.00    -0.096 F 
ATOM     11  F3  UNL d   1       0.546  -2.374  -0.956  0.00  0.00    -0.097 F 
ATOM     12  F4  UNL d   1       3.035  -2.580  -2.053  0.00  0.00    -0.092 F 
ENDROOT
TORSDOF 0
ENDMDL
