MODEL 1
REMARK minimizedAffinity 16.5659332
REMARK minimizedRMSD -1
REMARK  0 active torsions:
REMARK  status: ('A' for Active; 'I' for Inactive)
ROOT
ATOM      1  C   UNL d   1       2.018  -2.730  -1.173  0.00  0.00     0.124 A 
ATOM      2  C1  UNL d   1       1.808  -2.048   0.017  0.00  0.00     0.062 A 
ATOM      3  C2  UNL d   1       1.402  -0.717  -0.001  0.00  0.00     0.162 A 
ATOM      4  C3  UNL d   1       1.202  -0.059  -1.215  0.00  0.00    -0.034 A 
ATOM      5  C4  UNL d   1       1.415  -0.752  -2.408  0.00  0.00     0.162 A 
ATOM      6  C5  UNL d   1       1.821  -2.082  -2.384  0.00  0.00     0.062 A 
ATOM      7  F   UNL d   1       2.023  -2.740  -3.535  0.00  0.00    -0.097 F 
ATOM      8  F1  UNL d   1       1.232  -0.150  -3.592  0.00  0.00    -0.096 F 
ATOM      9  I   UNL d   1       0.595   1.932  -1.247  0.00  0.00    -0.060 I 
ATOM     10  F2  UNL d   1       1.208  -0.082   1.164  0.00  0.00    -0.096 F 
ATOM     11  F3  UNL d   1       1.998  -2.672   1.189  0.00  0.00    -0.097 F 
ATOM     12  F4  UNL d   1       2.409  -4.011  -1.152  0.00  0.00    -0.092 F 
ENDROOT
TORSDOF 0
ENDMDL
