MODEL 1
REMARK minimizedAffinity 3.04528284
REMARK minimizedRMSD -1
REMARK  0 active torsions:
REMARK  status: ('A' for Active; 'I' for Inactive)
ROOT
ATOM      1  C   UNL d   1       0.752  -2.023  -0.745  0.00  0.00     0.124 A 
ATOM      2  C1  UNL d   1       1.886  -1.536  -1.381  0.00  0.00     0.062 A 
ATOM      3  C2  UNL d   1       1.918  -0.226  -1.849  0.00  0.00     0.162 A 
ATOM      4  C3  UNL d   1       0.813   0.609  -1.681  0.00  0.00    -0.034 A 
ATOM      5  C4  UNL d   1      -0.324   0.112  -1.042  0.00  0.00     0.162 A 
ATOM      6  C5  UNL d   1      -0.351  -1.199  -0.576  0.00  0.00     0.062 A 
ATOM      7  F   UNL d   1      -1.448  -1.667   0.038  0.00  0.00    -0.097 F 
ATOM      8  F1  UNL d   1      -1.404   0.887  -0.864  0.00  0.00    -0.096 F 
ATOM      9  I   UNL d   1       0.858   2.569  -2.379  0.00  0.00    -0.060 I 
ATOM     10  F2  UNL d   1       3.027   0.218  -2.460  0.00  0.00    -0.096 F 
ATOM     11  F3  UNL d   1       2.953  -2.331  -1.547  0.00  0.00    -0.097 F 
ATOM     12  F4  UNL d   1       0.723  -3.285  -0.297  0.00  0.00    -0.092 F 
ENDROOT
TORSDOF 0
ENDMDL
