MODEL 1
REMARK minimizedAffinity 18.6637478
REMARK minimizedRMSD -1
REMARK  0 active torsions:
REMARK  status: ('A' for Active; 'I' for Inactive)
ROOT
ATOM      1  C   UNL d   1       1.610  -1.103  -2.541  0.00  0.00     0.124 A 
ATOM      2  C1  UNL d   1       2.838  -1.227  -1.907  0.00  0.00     0.062 A 
ATOM      3  C2  UNL d   1       3.033  -2.213  -0.944  0.00  0.00     0.162 A 
ATOM      4  C3  UNL d   1       1.996  -3.084  -0.609  0.00  0.00    -0.034 A 
ATOM      5  C4  UNL d   1       0.763  -2.953  -1.250  0.00  0.00     0.162 A 
ATOM      6  C5  UNL d   1       0.573  -1.966  -2.212  0.00  0.00     0.062 A 
ATOM      7  F   UNL d   1      -0.614  -1.848  -2.824  0.00  0.00    -0.097 F 
ATOM      8  F1  UNL d   1      -0.255  -3.773  -0.952  0.00  0.00    -0.096 F 
ATOM      9  I   UNL d   1       2.283  -4.559   0.831  0.00  0.00    -0.060 I 
ATOM     10  F2  UNL d   1       4.230  -2.309  -0.348  0.00  0.00    -0.096 F 
ATOM     11  F3  UNL d   1       3.841  -0.394  -2.223  0.00  0.00    -0.097 F 
ATOM     12  F4  UNL d   1       1.425  -0.154  -3.467  0.00  0.00    -0.092 F 
ENDROOT
TORSDOF 0
ENDMDL
