MODEL 1
REMARK minimizedAffinity 1.54243577
REMARK minimizedRMSD -1
REMARK  0 active torsions:
REMARK  status: ('A' for Active; 'I' for Inactive)
ROOT
ATOM      1  C1  BNZ d   1      -0.999   1.650   1.706  0.00  0.00     0.000 A 
ATOM      2  C2  BNZ d   1      -0.516   1.525   2.981  0.00  0.00     0.000 A 
ATOM      3  C3  BNZ d   1       0.599   0.777   3.236  0.00  0.00     0.000 A 
ATOM      4  C4  BNZ d   1       1.205   0.124   2.224  0.00  0.00     0.000 A 
ATOM      5  C5  BNZ d   1       0.725   0.233   0.935  0.00  0.00     0.000 A 
ATOM      6  C6  BNZ d   1      -0.375   1.018   0.675  0.00  0.00     0.000 A 
ENDROOT
TORSDOF 0
ENDMDL
