MODEL 1
REMARK minimizedAffinity 1.7159152
REMARK minimizedRMSD -1
REMARK  0 active torsions:
REMARK  status: ('A' for Active; 'I' for Inactive)
ROOT
ATOM      1  C1  BNZ d   1       4.707  -4.695  -2.705  0.00  0.00     0.000 A 
ATOM      2  C2  BNZ d   1       3.820  -5.293  -1.851  0.00  0.00     0.000 A 
ATOM      3  C3  BNZ d   1       3.218  -4.577  -0.854  0.00  0.00     0.000 A 
ATOM      4  C4  BNZ d   1       3.534  -3.277  -0.687  0.00  0.00     0.000 A 
ATOM      5  C5  BNZ d   1       4.434  -2.662  -1.534  0.00  0.00     0.000 A 
ATOM      6  C6  BNZ d   1       5.008  -3.376  -2.561  0.00  0.00     0.000 A 
ENDROOT
TORSDOF 0
ENDMDL
