MODEL 1
REMARK minimizedAffinity 2.64913774
REMARK minimizedRMSD -1
REMARK  0 active torsions:
REMARK  status: ('A' for Active; 'I' for Inactive)
ROOT
ATOM      1  C1  BNZ d   1      -0.008   1.896  -0.416  0.00  0.00     0.000 A 
ATOM      2  C2  BNZ d   1       0.483   2.987  -1.082  0.00  0.00     0.000 A 
ATOM      3  C3  BNZ d   1       0.105   4.252  -0.729  0.00  0.00     0.000 A 
ATOM      4  C4  BNZ d   1      -0.793   4.423   0.262  0.00  0.00     0.000 A 
ATOM      5  C5  BNZ d   1      -1.305   3.333   0.937  0.00  0.00     0.000 A 
ATOM      6  C6  BNZ d   1      -0.893   2.063   0.605  0.00  0.00     0.000 A 
ENDROOT
TORSDOF 0
ENDMDL
