MODEL 1
REMARK minimizedAffinity -0.599973083
REMARK minimizedRMSD -1
REMARK  0 active torsions:
REMARK  status: ('A' for Active; 'I' for Inactive)
ROOT
ATOM      1  C1  BNZ d   1       0.182   1.883  -1.153  0.00  0.00     0.000 A 
ATOM      2  C2  BNZ d   1       0.331   3.196  -1.510  0.00  0.00     0.000 A 
ATOM      3  C3  BNZ d   1      -0.249   4.192  -0.774  0.00  0.00     0.000 A 
ATOM      4  C4  BNZ d   1      -1.009   3.871   0.293  0.00  0.00     0.000 A 
ATOM      5  C5  BNZ d   1      -1.176   2.551   0.660  0.00  0.00     0.000 A 
ATOM      6  C6  BNZ d   1      -0.559   1.554  -0.060  0.00  0.00     0.000 A 
ENDROOT
TORSDOF 0
ENDMDL
