MODEL 1
REMARK minimizedAffinity 1.13099635
REMARK minimizedRMSD -1
REMARK  0 active torsions:
REMARK  status: ('A' for Active; 'I' for Inactive)
ROOT
ATOM      1  C1  BNZ d   1      -0.739   2.131   0.476  0.00  0.00     0.000 A 
ATOM      2  C2  BNZ d   1       0.025   2.070  -0.658  0.00  0.00     0.000 A 
ATOM      3  C3  BNZ d   1       1.193   1.359  -0.678  0.00  0.00     0.000 A 
ATOM      4  C4  BNZ d   1       1.615   0.745   0.446  0.00  0.00     0.000 A 
ATOM      5  C5  BNZ d   1       0.860   0.805   1.600  0.00  0.00     0.000 A 
ATOM      6  C6  BNZ d   1      -0.334   1.488   1.606  0.00  0.00     0.000 A 
ENDROOT
TORSDOF 0
ENDMDL
