MODEL 1
REMARK minimizedAffinity -2.35731292
REMARK minimizedRMSD -1
REMARK  0 active torsions:
REMARK  status: ('A' for Active; 'I' for Inactive)
ROOT
ATOM      1  C1  BNZ d   1      -2.474   3.599   0.583  0.00  0.00     0.000 A 
ATOM      2  C2  BNZ d   1      -1.180   3.215   0.353  0.00  0.00     0.000 A 
ATOM      3  C3  BNZ d   1      -0.662   2.101   0.953  0.00  0.00     0.000 A 
ATOM      4  C4  BNZ d   1      -1.426   1.396   1.812  0.00  0.00     0.000 A 
ATOM      5  C5  BNZ d   1      -2.730   1.775   2.062  0.00  0.00     0.000 A 
ATOM      6  C6  BNZ d   1      -3.259   2.875   1.427  0.00  0.00     0.000 A 
ENDROOT
TORSDOF 0
ENDMDL
