MODEL 1
REMARK minimizedAffinity 1.29882216
REMARK minimizedRMSD -1
REMARK  0 active torsions:
REMARK  status: ('A' for Active; 'I' for Inactive)
ROOT
ATOM      1  C1  BNZ d   1      -1.478   2.237   0.974  0.00  0.00     0.000 A 
ATOM      2  C2  BNZ d   1      -2.463   1.434   1.484  0.00  0.00     0.000 A 
ATOM      3  C3  BNZ d   1      -2.151   0.308   2.194  0.00  0.00     0.000 A 
ATOM      4  C4  BNZ d   1      -0.857  -0.033   2.359  0.00  0.00     0.000 A 
ATOM      5  C5  BNZ d   1       0.148   0.761   1.843  0.00  0.00     0.000 A 
ATOM      6  C6  BNZ d   1      -0.170   1.914   1.162  0.00  0.00     0.000 A 
ENDROOT
TORSDOF 0
ENDMDL
