MODEL 1
REMARK minimizedAffinity -3.53262663
REMARK minimizedRMSD -1
REMARK  0 active torsions:
REMARK  status: ('A' for Active; 'I' for Inactive)
ROOT
ATOM      1  C1  BNZ d   1      -0.307   1.573   0.687  0.00  0.00     0.000 A 
ATOM      2  C2  BNZ d   1      -0.111   2.686  -0.087  0.00  0.00     0.000 A 
ATOM      3  C3  BNZ d   1      -1.109   3.605  -0.256  0.00  0.00     0.000 A 
ATOM      4  C4  BNZ d   1      -2.312   3.389   0.314  0.00  0.00     0.000 A 
ATOM      5  C5  BNZ d   1      -2.528   2.267   1.089  0.00  0.00     0.000 A 
ATOM      6  C6  BNZ d   1      -1.509   1.364   1.289  0.00  0.00     0.000 A 
ENDROOT
TORSDOF 0
ENDMDL
