MODEL 1
REMARK minimizedAffinity -1.6004622
REMARK minimizedRMSD -1
REMARK  0 active torsions:
REMARK  status: ('A' for Active; 'I' for Inactive)
ROOT
ATOM      1  C1  BNZ d   1      -0.559   1.850   0.382  0.00  0.00     0.000 A 
ATOM      2  C2  BNZ d   1      -0.982   3.058  -0.103  0.00  0.00     0.000 A 
ATOM      3  C3  BNZ d   1      -2.175   3.593   0.294  0.00  0.00     0.000 A 
ATOM      4  C4  BNZ d   1      -2.962   2.901   1.143  0.00  0.00     0.000 A 
ATOM      5  C5  BNZ d   1      -2.554   1.677   1.634  0.00  0.00     0.000 A 
ATOM      6  C6  BNZ d   1      -1.334   1.160   1.262  0.00  0.00     0.000 A 
ENDROOT
TORSDOF 0
ENDMDL
