MODEL 1
REMARK minimizedAffinity 3.47084761
REMARK minimizedRMSD -1
REMARK  0 active torsions:
REMARK  status: ('A' for Active; 'I' for Inactive)
ROOT
ATOM      1  C1  BNZ d   1      -0.411   3.927  -0.252  0.00  0.00     0.000 A 
ATOM      2  C2  BNZ d   1      -1.172   3.761   0.875  0.00  0.00     0.000 A 
ATOM      3  C3  BNZ d   1      -1.565   2.516   1.278  0.00  0.00     0.000 A 
ATOM      4  C4  BNZ d   1      -1.232   1.442   0.532  0.00  0.00     0.000 A 
ATOM      5  C5  BNZ d   1      -0.473   1.593  -0.611  0.00  0.00     0.000 A 
ATOM      6  C6  BNZ d   1      -0.047   2.845  -0.992  0.00  0.00     0.000 A 
ENDROOT
TORSDOF 0
ENDMDL
