MODEL 1
REMARK minimizedAffinity 0.81915015
REMARK minimizedRMSD -1
REMARK  0 active torsions:
REMARK  status: ('A' for Active; 'I' for Inactive)
ROOT
ATOM      1  C1  BNZ d   1      -0.819   3.023   0.722  0.00  0.00     0.000 A 
ATOM      2  C2  BNZ d   1      -0.236   3.207  -0.504  0.00  0.00     0.000 A 
ATOM      3  C3  BNZ d   1       0.332   2.160  -1.174  0.00  0.00     0.000 A 
ATOM      4  C4  BNZ d   1       0.352   0.939  -0.601  0.00  0.00     0.000 A 
ATOM      5  C5  BNZ d   1      -0.223   0.739   0.638  0.00  0.00     0.000 A 
ATOM      6  C6  BNZ d   1      -0.828   1.787   1.292  0.00  0.00     0.000 A 
ENDROOT
TORSDOF 0
ENDMDL
