MODEL 1
REMARK minimizedAffinity 1.77949774
REMARK minimizedRMSD -1
REMARK  0 active torsions:
REMARK  status: ('A' for Active; 'I' for Inactive)
ROOT
ATOM      1  C1  BNZ d   1      -0.960   3.912   0.182  0.00  0.00     0.000 A 
ATOM      2  C2  BNZ d   1      -1.351   2.863   0.970  0.00  0.00     0.000 A 
ATOM      3  C3  BNZ d   1      -1.033   1.577   0.633  0.00  0.00     0.000 A 
ATOM      4  C4  BNZ d   1      -0.359   1.339  -0.511  0.00  0.00     0.000 A 
ATOM      5  C5  BNZ d   1       0.034   2.386  -1.321  0.00  0.00     0.000 A 
ATOM      6  C6  BNZ d   1      -0.254   3.681  -0.958  0.00  0.00     0.000 A 
ENDROOT
TORSDOF 0
ENDMDL
