MODEL 1
REMARK minimizedAffinity 1.6307925
REMARK minimizedRMSD -1
REMARK  0 active torsions:
REMARK  status: ('A' for Active; 'I' for Inactive)
ROOT
ATOM      1  C1  BNZ d   1      -0.900  -4.093   5.375  0.00  0.00     0.000 A 
ATOM      2  C2  BNZ d   1      -0.615  -3.492   4.178  0.00  0.00     0.000 A 
ATOM      3  C3  BNZ d   1      -1.501  -2.626   3.601  0.00  0.00     0.000 A 
ATOM      4  C4  BNZ d   1      -2.687  -2.393   4.200  0.00  0.00     0.000 A 
ATOM      5  C5  BNZ d   1      -2.993  -2.999   5.403  0.00  0.00     0.000 A 
ATOM      6  C6  BNZ d   1      -2.082  -3.840   6.000  0.00  0.00     0.000 A 
ENDROOT
TORSDOF 0
ENDMDL
