MODEL 1
REMARK minimizedAffinity 2.84268641
REMARK minimizedRMSD -1
REMARK  0 active torsions:
REMARK  status: ('A' for Active; 'I' for Inactive)
ROOT
ATOM      1  C1  BNZ d   1      -2.210  -2.302   3.782  0.00  0.00     0.000 A 
ATOM      2  C2  BNZ d   1      -1.160  -3.126   4.092  0.00  0.00     0.000 A 
ATOM      3  C3  BNZ d   1      -1.209  -3.938   5.190  0.00  0.00     0.000 A 
ATOM      4  C4  BNZ d   1      -2.288  -3.897   5.997  0.00  0.00     0.000 A 
ATOM      5  C5  BNZ d   1      -3.350  -3.065   5.704  0.00  0.00     0.000 A 
ATOM      6  C6  BNZ d   1      -3.314  -2.277   4.576  0.00  0.00     0.000 A 
ENDROOT
TORSDOF 0
ENDMDL
