MODEL 1
REMARK minimizedAffinity 4.78635454
REMARK minimizedRMSD -1
REMARK  0 active torsions:
REMARK  status: ('A' for Active; 'I' for Inactive)
ROOT
ATOM      1  C1  BNZ d   1       1.439   0.320   2.215  0.00  0.00     0.000 A 
ATOM      2  C2  BNZ d   1       0.447   1.079   2.775  0.00  0.00     0.000 A 
ATOM      3  C3  BNZ d   1      -0.426   1.780   1.990  0.00  0.00     0.000 A 
ATOM      4  C4  BNZ d   1      -0.280   1.753   0.650  0.00  0.00     0.000 A 
ATOM      5  C5  BNZ d   1       0.721   0.999   0.070  0.00  0.00     0.000 A 
ATOM      6  C6  BNZ d   1       1.573   0.264   0.862  0.00  0.00     0.000 A 
ENDROOT
TORSDOF 0
ENDMDL
