MODEL 1
REMARK minimizedAffinity 3.98744464
REMARK minimizedRMSD -1
REMARK  0 active torsions:
REMARK  status: ('A' for Active; 'I' for Inactive)
ROOT
ATOM      1  C1  BNZ d   1      -0.418   2.561   3.500  0.00  0.00     0.000 A 
ATOM      2  C2  BNZ d   1       0.241   3.508   2.762  0.00  0.00     0.000 A 
ATOM      3  C3  BNZ d   1      -0.083   3.724   1.452  0.00  0.00     0.000 A 
ATOM      4  C4  BNZ d   1      -1.036   2.967   0.871  0.00  0.00     0.000 A 
ATOM      5  C5  BNZ d   1      -1.703   2.002   1.599  0.00  0.00     0.000 A 
ATOM      6  C6  BNZ d   1      -1.401   1.814   2.929  0.00  0.00     0.000 A 
ENDROOT
TORSDOF 0
ENDMDL
