MODEL 1
REMARK minimizedAffinity 3.87618995
REMARK minimizedRMSD -1
REMARK  0 active torsions:
REMARK  status: ('A' for Active; 'I' for Inactive)
ROOT
ATOM      1  C1  BNZ d   1       0.431   2.352   3.285  0.00  0.00     0.000 A 
ATOM      2  C2  BNZ d   1       1.180   1.459   2.566  0.00  0.00     0.000 A 
ATOM      3  C3  BNZ d   1       0.611   0.701   1.581  0.00  0.00     0.000 A 
ATOM      4  C4  BNZ d   1      -0.712   0.807   1.344  0.00  0.00     0.000 A 
ATOM      5  C5  BNZ d   1      -1.483   1.696   2.067  0.00  0.00     0.000 A 
ATOM      6  C6  BNZ d   1      -0.899   2.485   3.030  0.00  0.00     0.000 A 
ENDROOT
TORSDOF 0
ENDMDL
