MODEL 1
REMARK minimizedAffinity -4.48560095
REMARK minimizedRMSD -1
REMARK  0 active torsions:
REMARK  status: ('A' for Active; 'I' for Inactive)
ROOT
ATOM      1  C   UNL d   1      -0.821  -0.730   0.054  0.00  0.00     0.078 C 
ATOM      2  C1  UNL d   1       0.574  -0.888   0.580  0.00  0.00    -0.077 A 
ATOM      3  C2  UNL d   1       1.027  -2.121   1.065  0.00  0.00    -0.001 A 
ATOM      4  C3  UNL d   1       2.326  -2.251   1.560  0.00  0.00     0.003 A 
ATOM      5  C4  UNL d   1       3.181  -1.151   1.578  0.00  0.00    -0.005 A 
ATOM      6  C5  UNL d   1       2.738   0.081   1.100  0.00  0.00     0.003 A 
ATOM      7  C6  UNL d   1       1.440   0.213   0.604  0.00  0.00    -0.001 A 
ENDROOT
TORSDOF 0
ENDMDL
