MODEL 1
REMARK minimizedAffinity -5.48761082
REMARK minimizedRMSD -1
REMARK  0 active torsions:
REMARK  status: ('A' for Active; 'I' for Inactive)
ROOT
ATOM      1  C   UNL d   1       3.056  -0.279   0.950  0.00  0.00     0.078 C 
ATOM      2  C1  UNL d   1       1.567  -0.448   0.943  0.00  0.00    -0.077 A 
ATOM      3  C2  UNL d   1       0.974  -1.635   1.390  0.00  0.00    -0.001 A 
ATOM      4  C3  UNL d   1      -0.414  -1.783   1.368  0.00  0.00     0.003 A 
ATOM      5  C4  UNL d   1      -1.221  -0.748   0.899  0.00  0.00    -0.005 A 
ATOM      6  C5  UNL d   1      -0.640   0.436   0.450  0.00  0.00     0.003 A 
ATOM      7  C6  UNL d   1       0.748   0.586   0.471  0.00  0.00    -0.001 A 
ENDROOT
TORSDOF 0
ENDMDL
