MODEL 1
REMARK minimizedAffinity -3.6687448
REMARK minimizedRMSD -1
REMARK  0 active torsions:
REMARK  status: ('A' for Active; 'I' for Inactive)
ROOT
ATOM      1  C   UNL d   1       0.024   0.404  -0.321  0.00  0.00     0.078 C 
ATOM      2  C1  UNL d   1       0.834  -0.218   0.776  0.00  0.00    -0.077 A 
ATOM      3  C2  UNL d   1       0.389  -1.368   1.439  0.00  0.00    -0.001 A 
ATOM      4  C3  UNL d   1       1.150  -1.930   2.466  0.00  0.00     0.003 A 
ATOM      5  C4  UNL d   1       2.360  -1.348   2.839  0.00  0.00    -0.005 A 
ATOM      6  C5  UNL d   1       2.810  -0.203   2.187  0.00  0.00     0.003 A 
ATOM      7  C6  UNL d   1       2.051   0.361   1.160  0.00  0.00    -0.001 A 
ENDROOT
TORSDOF 0
ENDMDL
