MODEL 1
REMARK minimizedAffinity -6.18814611
REMARK minimizedRMSD -1
REMARK  0 active torsions:
REMARK  status: ('A' for Active; 'I' for Inactive)
ROOT
ATOM      1  C   UNL d   1      -0.681  -0.258   0.240  0.00  0.00     0.078 C 
ATOM      2  C1  UNL d   1       0.723  -0.503   0.707  0.00  0.00    -0.077 A 
ATOM      3  C2  UNL d   1       1.024  -1.578   1.553  0.00  0.00    -0.001 A 
ATOM      4  C3  UNL d   1       2.334  -1.788   1.988  0.00  0.00     0.003 A 
ATOM      5  C4  UNL d   1       3.352  -0.927   1.584  0.00  0.00    -0.005 A 
ATOM      6  C5  UNL d   1       3.061   0.147   0.744  0.00  0.00     0.003 A 
ATOM      7  C6  UNL d   1       1.752   0.358   0.308  0.00  0.00    -0.001 A 
ENDROOT
TORSDOF 0
ENDMDL
