MODEL 1
REMARK minimizedAffinity -4.90873623
REMARK minimizedRMSD -1
REMARK  0 active torsions:
REMARK  status: ('A' for Active; 'I' for Inactive)
ROOT
ATOM      1  C   UNL d   1      -1.111  -0.403  -0.119  0.00  0.00     0.078 C 
ATOM      2  C1  UNL d   1       0.077  -0.765   0.722  0.00  0.00    -0.077 A 
ATOM      3  C2  UNL d   1       0.086  -1.934   1.493  0.00  0.00    -0.001 A 
ATOM      4  C3  UNL d   1       1.194  -2.252   2.279  0.00  0.00     0.003 A 
ATOM      5  C4  UNL d   1       2.302  -1.407   2.302  0.00  0.00    -0.005 A 
ATOM      6  C5  UNL d   1       2.301  -0.241   1.539  0.00  0.00     0.003 A 
ATOM      7  C6  UNL d   1       1.193   0.080   0.753  0.00  0.00    -0.001 A 
ENDROOT
TORSDOF 0
ENDMDL
