MODEL 1
REMARK minimizedAffinity -3.31876826
REMARK minimizedRMSD -1
REMARK  0 active torsions:
REMARK  status: ('A' for Active; 'I' for Inactive)
ROOT
ATOM      1  C   UNL d   1       1.760   0.790  -0.443  0.00  0.00     0.077 C 
ATOM      2  C1  UNL d   1       0.864  -0.021   0.445  0.00  0.00    -0.074 A 
ATOM      3  C2  UNL d   1       1.363  -1.108   1.170  0.00  0.00    -0.005 A 
ATOM      4  C3  UNL d   1       0.519  -1.847   1.999  0.00  0.00     0.006 A 
ATOM      5  C4  UNL d   1      -0.830  -1.508   2.111  0.00  0.00    -0.005 A 
ATOM      6  C5  UNL d   1      -1.346  -0.424   1.394  0.00  0.00    -0.074 A 
ATOM      7  C6  UNL d   1      -2.791  -0.040   1.511  0.00  0.00     0.077 C 
ATOM      8  C7  UNL d   1      -0.491   0.318   0.569  0.00  0.00    -0.001 A 
ENDROOT
TORSDOF 0
ENDMDL
