MODEL 1
REMARK minimizedAffinity -0.686962962
REMARK minimizedRMSD -1
REMARK  0 active torsions:
REMARK  status: ('A' for Active; 'I' for Inactive)
ROOT
ATOM      1  C   UNL d   1      -2.415  -3.181  -0.114  0.00  0.00     0.077 C 
ATOM      2  C1  UNL d   1      -1.907  -1.849  -0.580  0.00  0.00    -0.074 A 
ATOM      3  C2  UNL d   1      -2.611  -1.105  -1.532  0.00  0.00    -0.005 A 
ATOM      4  C3  UNL d   1      -2.131   0.137  -1.949  0.00  0.00     0.006 A 
ATOM      5  C4  UNL d   1      -0.946   0.646  -1.418  0.00  0.00    -0.005 A 
ATOM      6  C5  UNL d   1      -0.229  -0.083  -0.464  0.00  0.00    -0.074 A 
ATOM      7  C6  UNL d   1       1.041   0.455   0.124  0.00  0.00     0.077 C 
ATOM      8  C7  UNL d   1      -0.721  -1.327  -0.045  0.00  0.00    -0.001 A 
ENDROOT
TORSDOF 0
ENDMDL
