MODEL 1
REMARK minimizedAffinity -2.56829882
REMARK minimizedRMSD -1
REMARK  0 active torsions:
REMARK  status: ('A' for Active; 'I' for Inactive)
ROOT
ATOM      1  C   UNL d   1       0.534   0.686   0.685  0.00  0.00     0.077 C 
ATOM      2  C1  UNL d   1      -0.540  -0.228   0.173  0.00  0.00    -0.074 A 
ATOM      3  C2  UNL d   1      -1.180   0.026  -1.044  0.00  0.00    -0.005 A 
ATOM      4  C3  UNL d   1      -2.170  -0.838  -1.512  0.00  0.00     0.006 A 
ATOM      5  C4  UNL d   1      -2.530  -1.962  -0.768  0.00  0.00    -0.005 A 
ATOM      6  C5  UNL d   1      -1.900  -2.233   0.451  0.00  0.00    -0.074 A 
ATOM      7  C6  UNL d   1      -2.268  -3.443   1.257  0.00  0.00     0.077 C 
ATOM      8  C7  UNL d   1      -0.901  -1.364   0.911  0.00  0.00    -0.001 A 
ENDROOT
TORSDOF 0
ENDMDL
