MODEL 1
REMARK minimizedAffinity -3.56986809
REMARK minimizedRMSD -1
REMARK  0 active torsions:
REMARK  status: ('A' for Active; 'I' for Inactive)
ROOT
ATOM      1  C   UNL d   1      -1.204   1.774  -3.430  0.00  0.00     0.077 C 
ATOM      2  C1  UNL d   1      -0.937   1.130  -2.101  0.00  0.00    -0.074 A 
ATOM      3  C2  UNL d   1      -1.784   0.137  -1.601  0.00  0.00    -0.005 A 
ATOM      4  C3  UNL d   1      -1.518  -0.460  -0.368  0.00  0.00     0.006 A 
ATOM      5  C4  UNL d   1      -0.403  -0.069   0.375  0.00  0.00    -0.005 A 
ATOM      6  C5  UNL d   1       0.456   0.922  -0.110  0.00  0.00    -0.074 A 
ATOM      7  C6  UNL d   1       1.664   1.346   0.671  0.00  0.00     0.077 C 
ATOM      8  C7  UNL d   1       0.185   1.511  -1.353  0.00  0.00    -0.001 A 
ENDROOT
TORSDOF 0
ENDMDL
