MODEL 1
REMARK minimizedAffinity -2.79465961
REMARK minimizedRMSD -1
REMARK  0 active torsions:
REMARK  status: ('A' for Active; 'I' for Inactive)
ROOT
ATOM      1  C   UNL d   1       2.872   1.404   0.280  0.00  0.00     0.077 C 
ATOM      2  C1  UNL d   1       1.577   0.686   0.041  0.00  0.00    -0.074 A 
ATOM      3  C2  UNL d   1       0.807   0.951  -1.096  0.00  0.00    -0.005 A 
ATOM      4  C3  UNL d   1      -0.390   0.267  -1.309  0.00  0.00     0.006 A 
ATOM      5  C4  UNL d   1      -0.828  -0.686  -0.389  0.00  0.00    -0.005 A 
ATOM      6  C5  UNL d   1      -0.071  -0.965   0.753  0.00  0.00    -0.074 A 
ATOM      7  C6  UNL d   1      -0.523  -1.993   1.747  0.00  0.00     0.077 C 
ATOM      8  C7  UNL d   1       1.134  -0.279   0.957  0.00  0.00    -0.001 A 
ENDROOT
TORSDOF 0
ENDMDL
