MODEL 1
REMARK minimizedAffinity 0.836121738
REMARK minimizedRMSD -1
REMARK  0 active torsions:
REMARK  status: ('A' for Active; 'I' for Inactive)
ROOT
ATOM      1  C   UNL d   1      -1.559  -1.411   1.489  0.00  0.00     0.077 C 
ATOM      2  C1  UNL d   1      -0.666  -0.632   0.570  0.00  0.00    -0.074 A 
ATOM      3  C2  UNL d   1      -0.863  -0.656  -0.815  0.00  0.00    -0.005 A 
ATOM      4  C3  UNL d   1      -0.030   0.081  -1.657  0.00  0.00     0.006 A 
ATOM      5  C4  UNL d   1       1.006   0.848  -1.123  0.00  0.00    -0.005 A 
ATOM      6  C5  UNL d   1       1.218   0.885   0.258  0.00  0.00    -0.074 A 
ATOM      7  C6  UNL d   1       2.321   1.712   0.848  0.00  0.00     0.077 C 
ATOM      8  C7  UNL d   1       0.373   0.147   1.098  0.00  0.00    -0.001 A 
ENDROOT
TORSDOF 0
ENDMDL
