MODEL 1
REMARK minimizedAffinity -2.84850979
REMARK minimizedRMSD -1
REMARK  0 active torsions:
REMARK  status: ('A' for Active; 'I' for Inactive)
ROOT
ATOM      1  C   UNL d   1       1.643   1.148  -0.398  0.00  0.00     0.077 C 
ATOM      2  C1  UNL d   1       0.708   0.047   0.006  0.00  0.00    -0.074 A 
ATOM      3  C2  UNL d   1       1.149  -1.013   0.804  0.00  0.00    -0.005 A 
ATOM      4  C3  UNL d   1       0.265  -2.025   1.179  0.00  0.00     0.006 A 
ATOM      5  C4  UNL d   1      -1.065  -1.988   0.760  0.00  0.00    -0.005 A 
ATOM      6  C5  UNL d   1      -1.524  -0.935  -0.038  0.00  0.00    -0.074 A 
ATOM      7  C6  UNL d   1      -2.953  -0.874  -0.489  0.00  0.00     0.077 C 
ATOM      8  C7  UNL d   1      -0.632   0.082  -0.405  0.00  0.00    -0.001 A 
ENDROOT
TORSDOF 0
ENDMDL
