MODEL 1
REMARK minimizedAffinity -2.62950182
REMARK minimizedRMSD -1
REMARK  0 active torsions:
REMARK  status: ('A' for Active; 'I' for Inactive)
ROOT
ATOM      1  C   UNL d   1      -2.286  -0.763   1.631  0.00  0.00     0.077 C 
ATOM      2  C1  UNL d   1      -1.262  -0.513   0.564  0.00  0.00    -0.074 A 
ATOM      3  C2  UNL d   1      -1.553  -0.752  -0.782  0.00  0.00    -0.005 A 
ATOM      4  C3  UNL d   1      -0.594  -0.505  -1.764  0.00  0.00     0.006 A 
ATOM      5  C4  UNL d   1       0.665  -0.017  -1.410  0.00  0.00    -0.005 A 
ATOM      6  C5  UNL d   1       0.974   0.229  -0.069  0.00  0.00    -0.074 A 
ATOM      7  C6  UNL d   1       2.319   0.762   0.328  0.00  0.00     0.077 C 
ATOM      8  C7  UNL d   1       0.002  -0.015   0.912  0.00  0.00    -0.001 A 
ENDROOT
TORSDOF 0
ENDMDL
