MODEL 1
REMARK minimizedAffinity -2.8638289
REMARK minimizedRMSD -1
REMARK  0 active torsions:
REMARK  status: ('A' for Active; 'I' for Inactive)
ROOT
ATOM      1  C   UNL d   1       0.405  -0.715   0.794  0.00  0.00     0.077 C 
ATOM      2  C1  UNL d   1      -0.486  -0.698  -0.413  0.00  0.00    -0.074 A 
ATOM      3  C2  UNL d   1      -1.714  -1.366  -0.409  0.00  0.00    -0.005 A 
ATOM      4  C3  UNL d   1      -2.536  -1.333  -1.535  0.00  0.00     0.006 A 
ATOM      5  C4  UNL d   1      -2.138  -0.633  -2.675  0.00  0.00    -0.005 A 
ATOM      6  C5  UNL d   1      -0.914   0.042  -2.697  0.00  0.00    -0.074 A 
ATOM      7  C6  UNL d   1      -0.476   0.807  -3.911  0.00  0.00     0.077 C 
ATOM      8  C7  UNL d   1      -0.097   0.010  -1.559  0.00  0.00    -0.001 A 
ENDROOT
TORSDOF 0
ENDMDL
