MODEL 1
REMARK minimizedAffinity -4.95683765
REMARK minimizedRMSD -1
REMARK  0 active torsions:
REMARK  status: ('A' for Active; 'I' for Inactive)
ROOT
ATOM      1  C   UNL d   1       1.546   0.617   0.740  0.00  0.00     0.077 C 
ATOM      2  C1  UNL d   1       0.351   0.286  -0.103  0.00  0.00    -0.074 A 
ATOM      3  C2  UNL d   1       0.130   0.933  -1.323  0.00  0.00    -0.005 A 
ATOM      4  C3  UNL d   1      -0.981   0.607  -2.101  0.00  0.00     0.006 A 
ATOM      5  C4  UNL d   1      -1.882  -0.367  -1.667  0.00  0.00    -0.005 A 
ATOM      6  C5  UNL d   1      -1.677  -1.025  -0.450  0.00  0.00    -0.074 A 
ATOM      7  C6  UNL d   1      -2.629  -2.081   0.026  0.00  0.00     0.077 C 
ATOM      8  C7  UNL d   1      -0.554  -0.697   0.322  0.00  0.00    -0.001 A 
ENDROOT
TORSDOF 0
ENDMDL
