MODEL 1
REMARK minimizedAffinity -2.6563642
REMARK minimizedRMSD -1
REMARK  0 active torsions:
REMARK  status: ('A' for Active; 'I' for Inactive)
ROOT
ATOM      1  C   UNL d   1      -3.736  -1.531  -0.523  0.00  0.00     0.077 C 
ATOM      2  C1  UNL d   1      -2.505  -0.734  -0.837  0.00  0.00    -0.074 A 
ATOM      3  C2  UNL d   1      -2.497   0.195  -1.882  0.00  0.00    -0.005 A 
ATOM      4  C3  UNL d   1      -1.348   0.936  -2.155  0.00  0.00     0.006 A 
ATOM      5  C4  UNL d   1      -0.196   0.756  -1.388  0.00  0.00    -0.005 A 
ATOM      6  C5  UNL d   1      -0.185  -0.168  -0.339  0.00  0.00    -0.074 A 
ATOM      7  C6  UNL d   1       1.041  -0.367   0.502  0.00  0.00     0.077 C 
ATOM      8  C7  UNL d   1      -1.347  -0.904  -0.065  0.00  0.00    -0.001 A 
ENDROOT
TORSDOF 0
ENDMDL
