MODEL 1
REMARK minimizedAffinity -0.144992471
REMARK minimizedRMSD -1
REMARK  0 active torsions:
REMARK  status: ('A' for Active; 'I' for Inactive)
ROOT
ATOM      1  C   UNL d   1      -0.187   1.493   0.338  0.00  0.00     0.077 C 
ATOM      2  C1  UNL d   1       0.838   2.310   1.068  0.00  0.00    -0.074 A 
ATOM      3  C2  UNL d   1       0.861   3.704   0.952  0.00  0.00    -0.005 A 
ATOM      4  C3  UNL d   1       1.814   4.451   1.645  0.00  0.00     0.006 A 
ATOM      5  C4  UNL d   1       2.751   3.813   2.459  0.00  0.00    -0.005 A 
ATOM      6  C5  UNL d   1       2.742   2.421   2.588  0.00  0.00    -0.074 A 
ATOM      7  C6  UNL d   1       3.735   1.720   3.467  0.00  0.00     0.077 C 
ATOM      8  C7  UNL d   1       1.777   1.678   1.894  0.00  0.00    -0.001 A 
ENDROOT
TORSDOF 0
ENDMDL
