MODEL 1
REMARK minimizedAffinity -2.66627479
REMARK minimizedRMSD -1
REMARK  0 active torsions:
REMARK  status: ('A' for Active; 'I' for Inactive)
ROOT
ATOM      1  C   UNL d   1      -0.985   0.346  -0.357  0.00  0.00     0.077 C 
ATOM      2  C1  UNL d   1       0.394   0.793   0.026  0.00  0.00    -0.074 A 
ATOM      3  C2  UNL d   1       1.520   0.050  -0.345  0.00  0.00    -0.005 A 
ATOM      4  C3  UNL d   1       2.797   0.483   0.011  0.00  0.00     0.006 A 
ATOM      5  C4  UNL d   1       2.962   1.661   0.740  0.00  0.00    -0.005 A 
ATOM      6  C5  UNL d   1       1.848   2.418   1.119  0.00  0.00    -0.074 A 
ATOM      7  C6  UNL d   1       2.008   3.692   1.894  0.00  0.00     0.077 C 
ATOM      8  C7  UNL d   1       0.569   1.980   0.752  0.00  0.00    -0.001 A 
ENDROOT
TORSDOF 0
ENDMDL
