MODEL 1
REMARK minimizedAffinity -2.00287008
REMARK minimizedRMSD -1
REMARK  0 active torsions:
REMARK  status: ('A' for Active; 'I' for Inactive)
ROOT
ATOM      1  C   UNL d   1      -2.613  -2.871   0.058  0.00  0.00     0.077 C 
ATOM      2  C1  UNL d   1      -1.956  -1.639  -0.488  0.00  0.00    -0.074 A 
ATOM      3  C2  UNL d   1      -2.467  -0.992  -1.618  0.00  0.00    -0.005 A 
ATOM      4  C3  UNL d   1      -1.850   0.159  -2.109  0.00  0.00     0.006 A 
ATOM      5  C4  UNL d   1      -0.718   0.674  -1.476  0.00  0.00    -0.005 A 
ATOM      6  C5  UNL d   1      -0.193   0.041  -0.345  0.00  0.00    -0.074 A 
ATOM      7  C6  UNL d   1       1.017   0.587   0.353  0.00  0.00     0.077 C 
ATOM      8  C7  UNL d   1      -0.822  -1.111   0.147  0.00  0.00    -0.001 A 
ENDROOT
TORSDOF 0
ENDMDL
