MODEL 1
REMARK minimizedAffinity -4.18734264
REMARK minimizedRMSD -1
REMARK  0 active torsions:
REMARK  status: ('A' for Active; 'I' for Inactive)
ROOT
ATOM      1  C   UNL d   1      -1.698  -3.155   1.178  0.00  0.00     0.077 C 
ATOM      2  C1  UNL d   1      -1.344  -1.965   0.337  0.00  0.00    -0.074 A 
ATOM      3  C2  UNL d   1      -2.138  -1.591  -0.751  0.00  0.00    -0.005 A 
ATOM      4  C3  UNL d   1      -1.801  -0.476  -1.518  0.00  0.00     0.006 A 
ATOM      5  C4  UNL d   1      -0.668   0.275  -1.205  0.00  0.00    -0.005 A 
ATOM      6  C5  UNL d   1       0.139  -0.083  -0.120  0.00  0.00    -0.074 A 
ATOM      7  C6  UNL d   1       1.355   0.720   0.237  0.00  0.00     0.077 C 
ATOM      8  C7  UNL d   1      -0.211  -1.201   0.650  0.00  0.00    -0.001 A 
ENDROOT
TORSDOF 0
ENDMDL
