MODEL 1
REMARK minimizedAffinity -3.04032516
REMARK minimizedRMSD -1
REMARK  0 active torsions:
REMARK  status: ('A' for Active; 'I' for Inactive)
ROOT
ATOM      1  C   UNL d   1      -1.591  -2.875   1.304  0.00  0.00     0.077 C 
ATOM      2  C1  UNL d   1      -1.316  -1.664   0.462  0.00  0.00    -0.074 A 
ATOM      3  C2  UNL d   1      -2.299  -1.138  -0.383  0.00  0.00    -0.005 A 
ATOM      4  C3  UNL d   1      -2.032  -0.006  -1.153  0.00  0.00     0.006 A 
ATOM      5  C4  UNL d   1      -0.782   0.610  -1.086  0.00  0.00    -0.005 A 
ATOM      6  C5  UNL d   1       0.213   0.098  -0.247  0.00  0.00    -0.074 A 
ATOM      7  C6  UNL d   1       1.559   0.754  -0.156  0.00  0.00     0.077 C 
ATOM      8  C7  UNL d   1      -0.065  -1.035   0.529  0.00  0.00    -0.001 A 
ENDROOT
TORSDOF 0
ENDMDL
