MODEL 1
REMARK minimizedAffinity -2.6730547
REMARK minimizedRMSD -1
REMARK  0 active torsions:
REMARK  status: ('A' for Active; 'I' for Inactive)
ROOT
ATOM      1  C   UNL d   1       2.007   3.272   0.544  0.00  0.00     0.077 C 
ATOM      2  C1  UNL d   1       1.461   1.893   0.320  0.00  0.00    -0.074 A 
ATOM      3  C2  UNL d   1       2.018   0.785   0.968  0.00  0.00    -0.005 A 
ATOM      4  C3  UNL d   1       1.494  -0.490   0.757  0.00  0.00     0.006 A 
ATOM      5  C4  UNL d   1       0.410  -0.671  -0.103  0.00  0.00    -0.005 A 
ATOM      6  C5  UNL d   1      -0.160   0.424  -0.759  0.00  0.00    -0.074 A 
ATOM      7  C6  UNL d   1      -1.332   0.249  -1.679  0.00  0.00     0.077 C 
ATOM      8  C7  UNL d   1       0.367   1.704  -0.536  0.00  0.00    -0.001 A 
ENDROOT
TORSDOF 0
ENDMDL
