MODEL 1
REMARK minimizedAffinity -3.74553084
REMARK minimizedRMSD -1
REMARK  0 active torsions:
REMARK  status: ('A' for Active; 'I' for Inactive)
ROOT
ATOM      1  C   UNL d   1       2.251   2.944   1.499  0.00  0.00     0.077 C 
ATOM      2  C1  UNL d   1       1.514   1.687   1.143  0.00  0.00    -0.074 A 
ATOM      3  C2  UNL d   1       1.183   0.746   2.122  0.00  0.00    -0.005 A 
ATOM      4  C3  UNL d   1       0.489  -0.414   1.777  0.00  0.00     0.006 A 
ATOM      5  C4  UNL d   1       0.121  -0.645   0.451  0.00  0.00    -0.005 A 
ATOM      6  C5  UNL d   1       0.443   0.285  -0.542  0.00  0.00    -0.074 A 
ATOM      7  C6  UNL d   1       0.047   0.058  -1.971  0.00  0.00     0.077 C 
ATOM      8  C7  UNL d   1       1.134   1.452  -0.186  0.00  0.00    -0.001 A 
ENDROOT
TORSDOF 0
ENDMDL
