MODEL 1
REMARK minimizedAffinity 7.20900965
REMARK minimizedRMSD -1
REMARK  0 active torsions:
REMARK  status: ('A' for Active; 'I' for Inactive)
ROOT
ATOM      1  C   UNL d   1       1.219   5.676  -1.078  0.00  0.00     0.020 A 
ATOM      2  C1  UNL d   1      -0.059   5.988  -1.537  0.00  0.00     0.020 A 
ATOM      3  C2  UNL d   1      -1.082   5.040  -1.455  0.00  0.00     0.034 A 
ATOM      4  C3  UNL d   1      -0.827   3.776  -0.912  0.00  0.00     0.017 A 
ATOM      5  C4  UNL d   1       0.457   3.463  -0.451  0.00  0.00     0.017 A 
ATOM      6  C5  UNL d   1       1.477   4.416  -0.535  0.00  0.00     0.034 A 
ATOM      7 Cl   UNL d   1       0.847   1.924   0.232  0.00  0.00    -0.070 Cl
ATOM      8 Cl1  UNL d   1      -2.139   2.653  -0.841  0.00  0.00    -0.070 Cl
ENDROOT
TORSDOF 0
ENDMDL
