MODEL 1
REMARK minimizedAffinity 0.205118105
REMARK minimizedRMSD -1
REMARK  0 active torsions:
REMARK  status: ('A' for Active; 'I' for Inactive)
ROOT
ATOM      1  C   UNL d   1       1.547   0.777   0.096  0.00  0.00     0.020 A 
ATOM      2  C1  UNL d   1       0.722   1.774   0.614  0.00  0.00     0.020 A 
ATOM      3  C2  UNL d   1      -0.364   2.239  -0.131  0.00  0.00     0.034 A 
ATOM      4  C3  UNL d   1      -0.628   1.706  -1.398  0.00  0.00     0.017 A 
ATOM      5  C4  UNL d   1       0.200   0.705  -1.917  0.00  0.00     0.017 A 
ATOM      6  C5  UNL d   1       1.286   0.243  -1.167  0.00  0.00     0.034 A 
ATOM      7 Cl   UNL d   1      -0.062  -0.002  -3.472  0.00  0.00    -0.070 Cl
ATOM      8 Cl1  UNL d   1      -1.989   2.327  -2.263  0.00  0.00    -0.070 Cl
ENDROOT
TORSDOF 0
ENDMDL
