MODEL 1
REMARK minimizedAffinity 11.0322523
REMARK minimizedRMSD -1
REMARK  0 active torsions:
REMARK  status: ('A' for Active; 'I' for Inactive)
ROOT
ATOM      1  C   UNL d   1       2.792  -0.012   3.004  0.00  0.00     0.020 A 
ATOM      2  C1  UNL d   1       2.775  -1.160   2.213  0.00  0.00     0.020 A 
ATOM      3  C2  UNL d   1       3.526  -2.276   2.585  0.00  0.00     0.034 A 
ATOM      4  C3  UNL d   1       4.298  -2.247   3.752  0.00  0.00     0.017 A 
ATOM      5  C4  UNL d   1       4.315  -1.095   4.546  0.00  0.00     0.017 A 
ATOM      6  C5  UNL d   1       3.561   0.020   4.168  0.00  0.00     0.034 A 
ATOM      7 Cl   UNL d   1       5.243  -0.984   6.000  0.00  0.00    -0.070 Cl
ATOM      8 Cl1  UNL d   1       5.202  -3.664   4.153  0.00  0.00    -0.070 Cl
ENDROOT
TORSDOF 0
ENDMDL
