MODEL 1
REMARK minimizedAffinity 7.41785622
REMARK minimizedRMSD -1
REMARK  0 active torsions:
REMARK  status: ('A' for Active; 'I' for Inactive)
ROOT
ATOM      1  C   UNL d   1      -2.384   3.020  -5.081  0.00  0.00     0.020 A 
ATOM      2  C1  UNL d   1      -1.568   2.151  -5.803  0.00  0.00     0.020 A 
ATOM      3  C2  UNL d   1      -0.757   1.234  -5.131  0.00  0.00     0.034 A 
ATOM      4  C3  UNL d   1      -0.760   1.184  -3.732  0.00  0.00     0.017 A 
ATOM      5  C4  UNL d   1      -1.580   2.057  -3.008  0.00  0.00     0.017 A 
ATOM      6  C5  UNL d   1      -2.390   2.973  -3.686  0.00  0.00     0.034 A 
ATOM      7 Cl   UNL d   1      -1.639   2.055  -1.281  0.00  0.00    -0.070 Cl
ATOM      8 Cl1  UNL d   1       0.267   0.025  -2.967  0.00  0.00    -0.070 Cl
ENDROOT
TORSDOF 0
ENDMDL
