MODEL 1
REMARK minimizedAffinity -1.51621306
REMARK minimizedRMSD -1
REMARK  0 active torsions:
REMARK  status: ('A' for Active; 'I' for Inactive)
ROOT
ATOM      1  C   UNL d   1      -5.236   1.517  -4.417  0.00  0.00     0.020 A 
ATOM      2  C1  UNL d   1      -5.999   1.884  -5.525  0.00  0.00     0.020 A 
ATOM      3  C2  UNL d   1      -5.959   3.197  -5.997  0.00  0.00     0.034 A 
ATOM      4  C3  UNL d   1      -5.154   4.150  -5.361  0.00  0.00     0.017 A 
ATOM      5  C4  UNL d   1      -4.389   3.781  -4.249  0.00  0.00     0.017 A 
ATOM      6  C5  UNL d   1      -4.432   2.464  -3.780  0.00  0.00     0.034 A 
ATOM      7 Cl   UNL d   1      -3.371   4.900  -3.412  0.00  0.00    -0.070 Cl
ATOM      8 Cl1  UNL d   1      -5.153   5.755  -5.998  0.00  0.00    -0.070 Cl
ENDROOT
TORSDOF 0
ENDMDL
