MODEL 1
REMARK minimizedAffinity 10.4302158
REMARK minimizedRMSD -1
REMARK  0 active torsions:
REMARK  status: ('A' for Active; 'I' for Inactive)
ROOT
ATOM      1  C   UNL d   1      -0.137   5.998  -1.501  0.00  0.00     0.020 A 
ATOM      2  C1  UNL d   1       1.215   5.696  -1.342  0.00  0.00     0.020 A 
ATOM      3  C2  UNL d   1       1.596   4.519  -0.694  0.00  0.00     0.034 A 
ATOM      4  C3  UNL d   1       0.624   3.640  -0.202  0.00  0.00     0.017 A 
ATOM      5  C4  UNL d   1      -0.733   3.945  -0.362  0.00  0.00     0.017 A 
ATOM      6  C5  UNL d   1      -1.108   5.124  -1.012  0.00  0.00     0.034 A 
ATOM      7 Cl   UNL d   1      -1.989   2.909   0.218  0.00  0.00    -0.070 Cl
ATOM      8 Cl1  UNL d   1       1.167   2.203   0.589  0.00  0.00    -0.070 Cl
ENDROOT
TORSDOF 0
ENDMDL
