MODEL 1
REMARK minimizedAffinity -0.680131435
REMARK minimizedRMSD -1
REMARK  0 active torsions:
REMARK  status: ('A' for Active; 'I' for Inactive)
ROOT
ATOM      1  C   UNL d   1      -4.539   5.049  -5.998  0.00  0.00     0.020 A 
ATOM      2  C1  UNL d   1      -5.792   4.437  -6.000  0.00  0.00     0.020 A 
ATOM      3  C2  UNL d   1      -6.000   3.270  -5.262  0.00  0.00     0.034 A 
ATOM      4  C3  UNL d   1      -4.953   2.710  -4.520  0.00  0.00     0.017 A 
ATOM      5  C4  UNL d   1      -3.696   3.325  -4.519  0.00  0.00     0.017 A 
ATOM      6  C5  UNL d   1      -3.493   4.494  -5.260  0.00  0.00     0.034 A 
ATOM      7 Cl   UNL d   1      -2.356   2.694  -3.628  0.00  0.00    -0.070 Cl
ATOM      8 Cl1  UNL d   1      -5.282   1.266  -3.631  0.00  0.00    -0.070 Cl
ENDROOT
TORSDOF 0
ENDMDL
