MODEL 1
REMARK minimizedAffinity 9.26905727
REMARK minimizedRMSD -1
REMARK  0 active torsions:
REMARK  status: ('A' for Active; 'I' for Inactive)
ROOT
ATOM      1  C   UNL d   1       0.732   2.439   0.336  0.00  0.00     0.020 A 
ATOM      2  C1  UNL d   1       1.715   2.086   1.260  0.00  0.00     0.020 A 
ATOM      3  C2  UNL d   1       2.791   2.943   1.497  0.00  0.00     0.034 A 
ATOM      4  C3  UNL d   1       2.888   4.158   0.809  0.00  0.00     0.017 A 
ATOM      5  C4  UNL d   1       1.901   4.512  -0.118  0.00  0.00     0.017 A 
ATOM      6  C5  UNL d   1       0.825   3.650  -0.352  0.00  0.00     0.034 A 
ATOM      7 Cl   UNL d   1       1.952   5.994  -1.006  0.00  0.00    -0.070 Cl
ATOM      8 Cl1  UNL d   1       4.246   5.170   1.152  0.00  0.00    -0.070 Cl
ENDROOT
TORSDOF 0
ENDMDL
