MODEL 1
REMARK minimizedAffinity 6.89369488
REMARK minimizedRMSD -1
REMARK  0 active torsions:
REMARK  status: ('A' for Active; 'I' for Inactive)
ROOT
ATOM      1  C   UNL d   1      -3.283   4.001  -5.909  0.00  0.00     0.020 A 
ATOM      2  C1  UNL d   1      -4.338   3.823  -5.016  0.00  0.00     0.020 A 
ATOM      3  C2  UNL d   1      -4.387   2.683  -4.211  0.00  0.00     0.034 A 
ATOM      4  C3  UNL d   1      -3.378   1.716  -4.297  0.00  0.00     0.017 A 
ATOM      5  C4  UNL d   1      -2.319   1.896  -5.194  0.00  0.00     0.017 A 
ATOM      6  C5  UNL d   1      -2.275   3.040  -5.998  0.00  0.00     0.034 A 
ATOM      7 Cl   UNL d   1      -1.037   0.748  -5.358  0.00  0.00    -0.070 Cl
ATOM      8 Cl1  UNL d   1      -3.502   0.332  -3.271  0.00  0.00    -0.070 Cl
ENDROOT
TORSDOF 0
ENDMDL
