MODEL 1
REMARK minimizedAffinity 0.213845983
REMARK minimizedRMSD -1
REMARK  0 active torsions:
REMARK  status: ('A' for Active; 'I' for Inactive)
ROOT
ATOM      1  C   UNL d   1      -5.615   5.281   1.485  0.00  0.00     0.020 A 
ATOM      2  C1  UNL d   1      -4.273   5.651   1.416  0.00  0.00     0.020 A 
ATOM      3  C2  UNL d   1      -3.312   4.721   1.014  0.00  0.00     0.034 A 
ATOM      4  C3  UNL d   1      -3.692   3.416   0.680  0.00  0.00     0.017 A 
ATOM      5  C4  UNL d   1      -5.039   3.045   0.749  0.00  0.00     0.017 A 
ATOM      6  C5  UNL d   1      -5.998   3.981   1.152  0.00  0.00     0.034 A 
ATOM      7 Cl   UNL d   1      -5.585   1.454   0.352  0.00  0.00    -0.070 Cl
ATOM      8 Cl1  UNL d   1      -2.450   2.318   0.191  0.00  0.00    -0.070 Cl
ENDROOT
TORSDOF 0
ENDMDL
