MODEL 1
REMARK minimizedAffinity -1.99025881
REMARK minimizedRMSD -1
REMARK  0 active torsions:
REMARK  status: ('A' for Active; 'I' for Inactive)
ROOT
ATOM      1  C   UNL d   1       1.795  -0.789  -1.395  0.00  0.00     0.124 A 
ATOM      2  C1  UNL d   1       0.975  -1.812  -0.939  0.00  0.00     0.062 A 
ATOM      3  C2  UNL d   1      -0.044  -1.541  -0.031  0.00  0.00     0.162 A 
ATOM      4  C3  UNL d   1      -0.251  -0.239   0.426  0.00  0.00    -0.034 A 
ATOM      5  C4  UNL d   1       0.578   0.785  -0.037  0.00  0.00     0.162 A 
ATOM      6  C5  UNL d   1       1.596   0.508  -0.944  0.00  0.00     0.062 A 
ATOM      7  F   UNL d   1       2.387   1.497  -1.384  0.00  0.00    -0.097 F 
ATOM      8  F1  UNL d   1       0.407   2.047   0.382  0.00  0.00    -0.096 F 
ATOM      9  I   UNL d   1      -1.774   0.172   1.784  0.00  0.00    -0.060 I 
ATOM     10  F2  UNL d   1      -0.821  -2.549   0.393  0.00  0.00    -0.096 F 
ATOM     11  F3  UNL d   1       1.166  -3.067  -1.373  0.00  0.00    -0.097 F 
ATOM     12  F4  UNL d   1       2.776  -1.054  -2.268  0.00  0.00    -0.092 F 
ENDROOT
TORSDOF 0
ENDMDL
