MODEL 1
REMARK minimizedAffinity 3.72297382
REMARK minimizedRMSD -1
REMARK  0 active torsions:
REMARK  status: ('A' for Active; 'I' for Inactive)
ROOT
ATOM      1  C   UNL d   1      -0.915  -0.613   0.345  0.00  0.00     0.124 A 
ATOM      2  C1  UNL d   1      -0.363  -1.880   0.212  0.00  0.00     0.062 A 
ATOM      3  C2  UNL d   1       0.921  -2.033  -0.303  0.00  0.00     0.162 A 
ATOM      4  C3  UNL d   1       1.663  -0.916  -0.688  0.00  0.00    -0.034 A 
ATOM      5  C4  UNL d   1       1.101   0.354  -0.552  0.00  0.00     0.162 A 
ATOM      6  C5  UNL d   1      -0.183   0.502  -0.037  0.00  0.00     0.062 A 
ATOM      7  F   UNL d   1      -0.715   1.727   0.091  0.00  0.00    -0.097 F 
ATOM      8  F1  UNL d   1       1.786   1.450  -0.912  0.00  0.00    -0.096 F 
ATOM      9  I   UNL d   1       3.583  -1.141  -1.458  0.00  0.00    -0.060 I 
ATOM     10  F2  UNL d   1       1.429  -3.269  -0.420  0.00  0.00    -0.096 F 
ATOM     11  F3  UNL d   1      -1.069  -2.959   0.579  0.00  0.00    -0.097 F 
ATOM     12  F4  UNL d   1      -2.151  -0.469   0.840  0.00  0.00    -0.092 F 
ENDROOT
TORSDOF 0
ENDMDL
