MODEL 1
REMARK minimizedAffinity -0.28991276
REMARK minimizedRMSD -1
REMARK  0 active torsions:
REMARK  status: ('A' for Active; 'I' for Inactive)
ROOT
ATOM      1  C   UNL d   1       2.288   0.247  -1.523  0.00  0.00     0.124 A 
ATOM      2  C1  UNL d   1       1.877  -0.937  -0.927  0.00  0.00     0.062 A 
ATOM      3  C2  UNL d   1       0.675  -0.989  -0.226  0.00  0.00     0.162 A 
ATOM      4  C3  UNL d   1      -0.126   0.148  -0.119  0.00  0.00    -0.034 A 
ATOM      5  C4  UNL d   1       0.294   1.336  -0.720  0.00  0.00     0.162 A 
ATOM      6  C5  UNL d   1       1.496   1.382  -1.419  0.00  0.00     0.062 A 
ATOM      7  F   UNL d   1       1.891   2.527  -1.994  0.00  0.00    -0.097 F 
ATOM      8  F1  UNL d   1      -0.452   2.447  -0.637  0.00  0.00    -0.096 F 
ATOM      9  I   UNL d   1      -1.924   0.075   0.927  0.00  0.00    -0.060 I 
ATOM     10  F2  UNL d   1       0.303  -2.147   0.339  0.00  0.00    -0.096 F 
ATOM     11  F3  UNL d   1       2.640  -2.035  -1.024  0.00  0.00    -0.097 F 
ATOM     12  F4  UNL d   1       3.445   0.294  -2.195  0.00  0.00    -0.092 F 
ENDROOT
TORSDOF 0
ENDMDL
