MODEL 1
REMARK minimizedAffinity -0.737125158
REMARK minimizedRMSD -1
REMARK  0 active torsions:
REMARK  status: ('A' for Active; 'I' for Inactive)
ROOT
ATOM      1  C   UNL d   1       2.246  -0.373  -1.237  0.00  0.00     0.124 A 
ATOM      2  C1  UNL d   1       1.591  -1.498  -0.756  0.00  0.00     0.062 A 
ATOM      3  C2  UNL d   1       0.323  -1.384  -0.195  0.00  0.00     0.162 A 
ATOM      4  C3  UNL d   1      -0.301  -0.138  -0.114  0.00  0.00    -0.034 A 
ATOM      5  C4  UNL d   1       0.364   0.989  -0.600  0.00  0.00     0.162 A 
ATOM      6  C5  UNL d   1       1.632   0.869  -1.159  0.00  0.00     0.062 A 
ATOM      7  F   UNL d   1       2.263   1.957  -1.624  0.00  0.00    -0.097 F 
ATOM      8  F1  UNL d   1      -0.206   2.201  -0.538  0.00  0.00    -0.096 F 
ATOM      9  I   UNL d   1      -2.198   0.037   0.723  0.00  0.00    -0.060 I 
ATOM     10  F2  UNL d   1      -0.287  -2.488   0.262  0.00  0.00    -0.096 F 
ATOM     11  F3  UNL d   1       2.183  -2.699  -0.829  0.00  0.00    -0.097 F 
ATOM     12  F4  UNL d   1       3.468  -0.487  -1.775  0.00  0.00    -0.092 F 
ENDROOT
TORSDOF 0
ENDMDL
