MODEL 1
REMARK minimizedAffinity -0.707916081
REMARK minimizedRMSD -1
REMARK  0 active torsions:
REMARK  status: ('A' for Active; 'I' for Inactive)
ROOT
ATOM      1  C   UNL d   1       1.589  -1.628  -0.707  0.00  0.00     0.124 A 
ATOM      2  C1  UNL d   1       2.106  -0.368  -0.974  0.00  0.00     0.062 A 
ATOM      3  C2  UNL d   1       1.321   0.765  -0.786  0.00  0.00     0.162 A 
ATOM      4  C3  UNL d   1       0.009   0.644  -0.328  0.00  0.00    -0.034 A 
ATOM      5  C4  UNL d   1      -0.505  -0.627  -0.062  0.00  0.00     0.162 A 
ATOM      6  C5  UNL d   1       0.285  -1.757  -0.251  0.00  0.00     0.062 A 
ATOM      7  F   UNL d   1      -0.216  -2.973   0.007  0.00  0.00    -0.097 F 
ATOM      8  F1  UNL d   1      -1.762  -0.780   0.380  0.00  0.00    -0.096 F 
ATOM      9  I   UNL d   1      -1.169   2.336  -0.045  0.00  0.00    -0.060 I 
ATOM     10  F2  UNL d   1       1.846   1.970  -1.052  0.00  0.00    -0.096 F 
ATOM     11  F3  UNL d   1       3.366  -0.242  -1.415  0.00  0.00    -0.097 F 
ATOM     12  F4  UNL d   1       2.347  -2.717  -0.890  0.00  0.00    -0.092 F 
ENDROOT
TORSDOF 0
ENDMDL
