MODEL 1
REMARK minimizedAffinity 1.7866466
REMARK minimizedRMSD -1
REMARK  0 active torsions:
REMARK  status: ('A' for Active; 'I' for Inactive)
ROOT
ATOM      1  C   UNL d   1       2.150  -0.334  -1.370  0.00  0.00     0.124 A 
ATOM      2  C1  UNL d   1       1.565  -1.517  -0.937  0.00  0.00     0.062 A 
ATOM      3  C2  UNL d   1       0.397  -1.484  -0.181  0.00  0.00     0.162 A 
ATOM      4  C3  UNL d   1      -0.195  -0.265   0.147  0.00  0.00    -0.034 A 
ATOM      5  C4  UNL d   1       0.399   0.920  -0.292  0.00  0.00     0.162 A 
ATOM      6  C5  UNL d   1       1.566   0.882  -1.047  0.00  0.00     0.062 A 
ATOM      7  F   UNL d   1       2.129   2.026  -1.465  0.00  0.00    -0.097 F 
ATOM      8  F1  UNL d   1      -0.145   2.110   0.005  0.00  0.00    -0.096 F 
ATOM      9  I   UNL d   1      -1.942  -0.212   1.277  0.00  0.00    -0.060 I 
ATOM     10  F2  UNL d   1      -0.145  -2.642   0.224  0.00  0.00    -0.096 F 
ATOM     11  F3  UNL d   1       2.128  -2.694  -1.247  0.00  0.00    -0.097 F 
ATOM     12  F4  UNL d   1       3.274  -0.368  -2.097  0.00  0.00    -0.092 F 
ENDROOT
TORSDOF 0
ENDMDL
