MODEL 1
REMARK minimizedAffinity -0.507361054
REMARK minimizedRMSD -1
REMARK  0 active torsions:
REMARK  status: ('A' for Active; 'I' for Inactive)
ROOT
ATOM      1  C   UNL d   1       2.287  -0.673  -1.122  0.00  0.00     0.124 A 
ATOM      2  C1  UNL d   1       1.942   0.585  -0.648  0.00  0.00     0.062 A 
ATOM      3  C2  UNL d   1       0.836   0.741   0.182  0.00  0.00     0.162 A 
ATOM      4  C3  UNL d   1       0.066  -0.364   0.545  0.00  0.00    -0.034 A 
ATOM      5  C4  UNL d   1       0.419  -1.626   0.063  0.00  0.00     0.162 A 
ATOM      6  C5  UNL d   1       1.526  -1.777  -0.766  0.00  0.00     0.062 A 
ATOM      7  F   UNL d   1       1.858  -2.994  -1.222  0.00  0.00    -0.097 F 
ATOM      8  F1  UNL d   1      -0.298  -2.711   0.393  0.00  0.00    -0.096 F 
ATOM      9  I   UNL d   1      -1.589  -0.135   1.785  0.00  0.00    -0.060 I 
ATOM     10  F2  UNL d   1       0.525   1.969   0.625  0.00  0.00    -0.096 F 
ATOM     11  F3  UNL d   1       2.676   1.654  -0.992  0.00  0.00    -0.097 F 
ATOM     12  F4  UNL d   1       3.352  -0.820  -1.921  0.00  0.00    -0.092 F 
ENDROOT
TORSDOF 0
ENDMDL
