MODEL 1
REMARK minimizedAffinity 1.63841271
REMARK minimizedRMSD -1
REMARK  0 active torsions:
REMARK  status: ('A' for Active; 'I' for Inactive)
ROOT
ATOM      1  C   UNL d   1      -1.241  -0.339   0.330  0.00  0.00     0.124 A 
ATOM      2  C1  UNL d   1      -0.517   0.843   0.263  0.00  0.00     0.062 A 
ATOM      3  C2  UNL d   1       0.826   0.822  -0.101  0.00  0.00     0.162 A 
ATOM      4  C3  UNL d   1       1.454  -0.386  -0.404  0.00  0.00    -0.034 A 
ATOM      5  C4  UNL d   1       0.720  -1.571  -0.334  0.00  0.00     0.162 A 
ATOM      6  C5  UNL d   1      -0.622  -1.545   0.031  0.00  0.00     0.062 A 
ATOM      7  F   UNL d   1      -1.320  -2.688   0.095  0.00  0.00    -0.097 F 
ATOM      8  F1  UNL d   1       1.293  -2.750  -0.618  0.00  0.00    -0.096 F 
ATOM      9  I   UNL d   1       3.462  -0.422  -0.949  0.00  0.00    -0.060 I 
ATOM     10  F2  UNL d   1       1.501   1.980  -0.157  0.00  0.00    -0.096 F 
ATOM     11  F3  UNL d   1      -1.112   2.009   0.552  0.00  0.00    -0.097 F 
ATOM     12  F4  UNL d   1      -2.533  -0.316   0.682  0.00  0.00    -0.092 F 
ENDROOT
TORSDOF 0
ENDMDL
