MODEL 1
REMARK minimizedAffinity -2.40032029
REMARK minimizedRMSD -1
REMARK  0 active torsions:
REMARK  status: ('A' for Active; 'I' for Inactive)
ROOT
ATOM      1  C   UNL d   1       1.114   1.342  -1.040  0.00  0.00     0.124 A 
ATOM      2  C1  UNL d   1      -0.144   1.028  -0.545  0.00  0.00     0.062 A 
ATOM      3  C2  UNL d   1      -0.443  -0.278  -0.169  0.00  0.00     0.162 A 
ATOM      4  C3  UNL d   1       0.519  -1.282  -0.286  0.00  0.00    -0.034 A 
ATOM      5  C4  UNL d   1       1.782  -0.959  -0.785  0.00  0.00     0.162 A 
ATOM      6  C5  UNL d   1       2.076   0.348  -1.160  0.00  0.00     0.062 A 
ATOM      7  F   UNL d   1       3.292   0.649  -1.638  0.00  0.00    -0.097 F 
ATOM      8  F1  UNL d   1       2.731  -1.899  -0.911  0.00  0.00    -0.096 F 
ATOM      9  I   UNL d   1       0.077  -3.236   0.275  0.00  0.00    -0.060 I 
ATOM     10  F2  UNL d   1      -1.667  -0.553   0.306  0.00  0.00    -0.096 F 
ATOM     11  F3  UNL d   1      -1.075   1.986  -0.429  0.00  0.00    -0.097 F 
ATOM     12  F4  UNL d   1       1.399   2.599  -1.402  0.00  0.00    -0.092 F 
ENDROOT
TORSDOF 0
ENDMDL
