MODEL 1
REMARK minimizedAffinity -6.21261168
REMARK minimizedRMSD -1
REMARK  0 active torsions:
REMARK  status: ('A' for Active; 'I' for Inactive)
ROOT
ATOM      1  C   UNL d   1       1.588   0.767  -1.006  0.00  0.00     0.124 A 
ATOM      2  C1  UNL d   1       0.376   1.207  -1.520  0.00  0.00     0.062 A 
ATOM      3  C2  UNL d   1      -0.805   0.987  -0.817  0.00  0.00     0.162 A 
ATOM      4  C3  UNL d   1      -0.780   0.323   0.409  0.00  0.00    -0.034 A 
ATOM      5  C4  UNL d   1       0.442  -0.118   0.920  0.00  0.00     0.162 A 
ATOM      6  C5  UNL d   1       1.620   0.104   0.213  0.00  0.00     0.062 A 
ATOM      7  F   UNL d   1       2.789  -0.322   0.712  0.00  0.00    -0.097 F 
ATOM      8  F1  UNL d   1       0.502  -0.760   2.096  0.00  0.00    -0.096 F 
ATOM      9  I   UNL d   1      -2.543  -0.009   1.464  0.00  0.00    -0.060 I 
ATOM     10  F2  UNL d   1      -1.961   1.424  -1.338  0.00  0.00    -0.096 F 
ATOM     11  F3  UNL d   1       0.343   1.847  -2.698  0.00  0.00    -0.097 F 
ATOM     12  F4  UNL d   1       2.722   0.979  -1.685  0.00  0.00    -0.092 F 
ENDROOT
TORSDOF 0
ENDMDL
