MODEL 1
REMARK minimizedAffinity -2.24971914
REMARK minimizedRMSD -1
REMARK  0 active torsions:
REMARK  status: ('A' for Active; 'I' for Inactive)
ROOT
ATOM      1  C   UNL d   1       2.242  -0.361  -1.179  0.00  0.00     0.124 A 
ATOM      2  C1  UNL d   1       1.611  -1.504  -0.707  0.00  0.00     0.062 A 
ATOM      3  C2  UNL d   1       0.433  -1.401   0.027  0.00  0.00     0.162 A 
ATOM      4  C3  UNL d   1      -0.123  -0.149   0.292  0.00  0.00    -0.034 A 
ATOM      5  C4  UNL d   1       0.517   0.995  -0.185  0.00  0.00     0.162 A 
ATOM      6  C5  UNL d   1       1.694   0.887  -0.918  0.00  0.00     0.062 A 
ATOM      7  F   UNL d   1       2.302   1.992  -1.374  0.00  0.00    -0.097 F 
ATOM      8  F1  UNL d   1       0.009   2.214   0.052  0.00  0.00    -0.096 F 
ATOM      9  I   UNL d   1      -1.885   0.009   1.389  0.00  0.00    -0.060 I 
ATOM     10  F2  UNL d   1      -0.154  -2.522   0.471  0.00  0.00    -0.096 F 
ATOM     11  F3  UNL d   1       2.139  -2.711  -0.957  0.00  0.00    -0.097 F 
ATOM     12  F4  UNL d   1       3.376  -0.463  -1.884  0.00  0.00    -0.092 F 
ENDROOT
TORSDOF 0
ENDMDL
