MODEL 1
REMARK minimizedAffinity -2.02246737
REMARK minimizedRMSD -1
REMARK  0 active torsions:
REMARK  status: ('A' for Active; 'I' for Inactive)
ROOT
ATOM      1  C   UNL d   1       1.534   0.505  -1.683  0.00  0.00     0.124 A 
ATOM      2  C1  UNL d   1       1.543  -0.447  -0.673  0.00  0.00     0.062 A 
ATOM      3  C2  UNL d   1       0.506  -0.493   0.254  0.00  0.00     0.162 A 
ATOM      4  C3  UNL d   1      -0.551   0.415   0.175  0.00  0.00    -0.034 A 
ATOM      5  C4  UNL d   1      -0.552   1.369  -0.844  0.00  0.00     0.162 A 
ATOM      6  C5  UNL d   1       0.487   1.412  -1.768  0.00  0.00     0.062 A 
ATOM      7  F   UNL d   1       0.476   2.332  -2.743  0.00  0.00    -0.097 F 
ATOM      8  F1  UNL d   1      -1.552   2.257  -0.949  0.00  0.00    -0.096 F 
ATOM      9  I   UNL d   1      -2.103   0.348   1.559  0.00  0.00    -0.060 I 
ATOM     10  F2  UNL d   1       0.540  -1.423   1.220  0.00  0.00    -0.096 F 
ATOM     11  F3  UNL d   1       2.554  -1.323  -0.588  0.00  0.00    -0.097 F 
ATOM     12  F4  UNL d   1       2.533   0.548  -2.573  0.00  0.00    -0.092 F 
ENDROOT
TORSDOF 0
ENDMDL
