MODEL 1
REMARK minimizedAffinity -3.19435859
REMARK minimizedRMSD -1
REMARK  0 active torsions:
REMARK  status: ('A' for Active; 'I' for Inactive)
ROOT
ATOM      1  C   UNL d   1       2.163  -0.315  -1.289  0.00  0.00     0.124 A 
ATOM      2  C1  UNL d   1       1.639   0.967  -1.195  0.00  0.00     0.062 A 
ATOM      3  C2  UNL d   1       0.443   1.186  -0.517  0.00  0.00     0.162 A 
ATOM      4  C3  UNL d   1      -0.236   0.121   0.074  0.00  0.00    -0.034 A 
ATOM      5  C4  UNL d   1       0.297  -1.166  -0.026  0.00  0.00     0.162 A 
ATOM      6  C5  UNL d   1       1.492  -1.380  -0.705  0.00  0.00     0.062 A 
ATOM      7  F   UNL d   1       1.996  -2.619  -0.795  0.00  0.00    -0.097 F 
ATOM      8  F1  UNL d   1      -0.331  -2.212   0.531  0.00  0.00    -0.096 F 
ATOM      9  I   UNL d   1      -2.024   0.445   1.089  0.00  0.00    -0.060 I 
ATOM     10  F2  UNL d   1      -0.040   2.435  -0.442  0.00  0.00    -0.096 F 
ATOM     11  F3  UNL d   1       2.285   1.997  -1.760  0.00  0.00    -0.097 F 
ATOM     12  F4  UNL d   1       3.313  -0.524  -1.944  0.00  0.00    -0.092 F 
ENDROOT
TORSDOF 0
ENDMDL
