MODEL 1
REMARK minimizedAffinity 0.665670633
REMARK minimizedRMSD -1
REMARK  0 active torsions:
REMARK  status: ('A' for Active; 'I' for Inactive)
ROOT
ATOM      1  C   UNL d   1       1.075  -0.341  -1.400  0.00  0.00     0.124 A 
ATOM      2  C1  UNL d   1       0.988  -1.328  -0.428  0.00  0.00     0.062 A 
ATOM      3  C2  UNL d   1       0.078  -1.203   0.617  0.00  0.00     0.162 A 
ATOM      4  C3  UNL d   1      -0.755  -0.087   0.696  0.00  0.00    -0.034 A 
ATOM      5  C4  UNL d   1      -0.661   0.903  -0.284  0.00  0.00     0.162 A 
ATOM      6  C5  UNL d   1       0.251   0.773  -1.327  0.00  0.00     0.062 A 
ATOM      7  F   UNL d   1       0.334   1.728  -2.265  0.00  0.00    -0.097 F 
ATOM      8  F1  UNL d   1      -1.446   1.989  -0.239  0.00  0.00    -0.096 F 
ATOM      9  I   UNL d   1      -2.118   0.104   2.257  0.00  0.00    -0.060 I 
ATOM     10  F2  UNL d   1       0.015  -2.173   1.542  0.00  0.00    -0.096 F 
ATOM     11  F3  UNL d   1       1.784  -2.405  -0.496  0.00  0.00    -0.097 F 
ATOM     12  F4  UNL d   1       1.953  -0.463  -2.404  0.00  0.00    -0.092 F 
ENDROOT
TORSDOF 0
ENDMDL
