MODEL 1
REMARK minimizedAffinity -1.40539765
REMARK minimizedRMSD -1
REMARK  0 active torsions:
REMARK  status: ('A' for Active; 'I' for Inactive)
ROOT
ATOM      1  C   UNL d   1      -2.149   0.878   2.365  0.00  0.00     0.124 A 
ATOM      2  C1  UNL d   1      -2.533  -0.184   1.558  0.00  0.00     0.062 A 
ATOM      3  C2  UNL d   1      -1.666  -0.674   0.586  0.00  0.00     0.162 A 
ATOM      4  C3  UNL d   1      -0.405  -0.103   0.415  0.00  0.00    -0.034 A 
ATOM      5  C4  UNL d   1      -0.026   0.965   1.230  0.00  0.00     0.162 A 
ATOM      6  C5  UNL d   1      -0.896   1.451   2.201  0.00  0.00     0.062 A 
ATOM      7  F   UNL d   1      -0.523   2.477   2.979  0.00  0.00    -0.097 F 
ATOM      8  F1  UNL d   1       1.179   1.538   1.093  0.00  0.00    -0.096 F 
ATOM      9  I   UNL d   1       0.894  -0.832  -1.038  0.00  0.00    -0.060 I 
ATOM     10  F2  UNL d   1      -2.064  -1.701  -0.180  0.00  0.00    -0.096 F 
ATOM     11  F3  UNL d   1      -3.744  -0.739   1.715  0.00  0.00    -0.097 F 
ATOM     12  F4  UNL d   1      -2.985   1.348   3.300  0.00  0.00    -0.092 F 
ENDROOT
TORSDOF 0
ENDMDL
