MODEL 1
REMARK minimizedAffinity -1.05269575
REMARK minimizedRMSD -1
REMARK  0 active torsions:
REMARK  status: ('A' for Active; 'I' for Inactive)
ROOT
ATOM      1  C   UNL d   1       0.917   0.813  -1.163  0.00  0.00     0.124 A 
ATOM      2  C1  UNL d   1       1.436   0.010  -0.157  0.00  0.00     0.062 A 
ATOM      3  C2  UNL d   1       0.714  -0.199   1.015  0.00  0.00     0.162 A 
ATOM      4  C3  UNL d   1      -0.535   0.396   1.187  0.00  0.00    -0.034 A 
ATOM      5  C4  UNL d   1      -1.050   1.204   0.172  0.00  0.00     0.162 A 
ATOM      6  C5  UNL d   1      -0.325   1.410  -0.998  0.00  0.00     0.062 A 
ATOM      7  F   UNL d   1      -0.828   2.186  -1.968  0.00  0.00    -0.097 F 
ATOM      8  F1  UNL d   1      -2.248   1.792   0.304  0.00  0.00    -0.096 F 
ATOM      9  I   UNL d   1      -1.618   0.087   2.938  0.00  0.00    -0.060 I 
ATOM     10  F2  UNL d   1       1.240  -0.980   1.970  0.00  0.00    -0.096 F 
ATOM     11  F3  UNL d   1       2.636  -0.567  -0.313  0.00  0.00    -0.097 F 
ATOM     12  F4  UNL d   1       1.614   1.013  -2.289  0.00  0.00    -0.092 F 
ENDROOT
TORSDOF 0
ENDMDL
