MODEL 1
REMARK minimizedAffinity 6.84618568
REMARK minimizedRMSD -1
REMARK  1 active torsions:
REMARK  status: ('A' for Active; 'I' for Inactive)
REMARK    1  A    between atoms: C1_2  and  C2_3 
ROOT
ATOM      1  C2  UNL d   1       4.000  -2.450   4.956  0.00  0.00    -0.081 A 
ATOM      2  C3  UNL d   1       3.002  -1.473   4.850  0.00  0.00     0.006 A 
ATOM      3  C4  UNL d   1       1.934  -1.645   3.966  0.00  0.00     0.002 A 
ATOM      4  C5  UNL d   1       1.842  -2.798   3.180  0.00  0.00    -0.080 A 
ATOM      5  C6  UNL d   1       0.685  -3.009   2.249  0.00  0.00     0.076 C 
ATOM      6  C7  UNL d   1       2.848  -3.766   3.273  0.00  0.00     0.002 A 
ATOM      7  C8  UNL d   1       3.916  -3.594   4.156  0.00  0.00     0.006 A 
ENDROOT
BRANCH   1   8
ATOM      8  C1  UNL d   1       5.118  -2.297   5.955  0.00  0.00     0.054 C 
ATOM      9  C   UNL d   1       5.994  -3.541   6.000  0.00  0.00     0.018 C 
ENDBRANCH   1   8
TORSDOF 1
ENDMDL
