MODEL 1
REMARK minimizedAffinity 6.99124908
REMARK minimizedRMSD -1
REMARK  1 active torsions:
REMARK  status: ('A' for Active; 'I' for Inactive)
REMARK    1  A    between atoms: C1_2  and  C2_3 
ROOT
ATOM      1  C2  UNL d   1       4.807   5.027  -2.143  0.00  0.00    -0.081 A 
ATOM      2  C3  UNL d   1       5.999   4.528  -2.681  0.00  0.00     0.006 A 
ATOM      3  C4  UNL d   1       5.975   3.675  -3.787  0.00  0.00     0.002 A 
ATOM      4  C5  UNL d   1       4.759   3.314  -4.378  0.00  0.00    -0.080 A 
ATOM      5  C6  UNL d   1       4.720   2.424  -5.584  0.00  0.00     0.076 C 
ATOM      6  C7  UNL d   1       3.567   3.799  -3.830  0.00  0.00     0.002 A 
ATOM      7  C8  UNL d   1       3.591   4.651  -2.723  0.00  0.00     0.006 A 
ENDROOT
BRANCH   1   8
ATOM      8  C1  UNL d   1       4.834   5.999  -0.990  0.00  0.00     0.054 C 
ATOM      9  C   UNL d   1       5.964   5.678  -0.023  0.00  0.00     0.018 C 
ENDBRANCH   1   8
TORSDOF 1
ENDMDL
