MODEL 1
REMARK minimizedAffinity 10.5132742
REMARK minimizedRMSD -1
REMARK  1 active torsions:
REMARK  status: ('A' for Active; 'I' for Inactive)
REMARK    1  A    between atoms: C1_2  and  C2_3 
ROOT
ATOM      1  C2  UNL d   1       2.388  -2.985  -3.469  0.00  0.00    -0.081 A 
ATOM      2  C3  UNL d   1       2.551  -2.585  -2.137  0.00  0.00     0.006 A 
ATOM      3  C4  UNL d   1       1.451  -2.178  -1.379  0.00  0.00     0.002 A 
ATOM      4  C5  UNL d   1       0.168  -2.171  -1.938  0.00  0.00    -0.080 A 
ATOM      5  C6  UNL d   1      -1.026  -1.764  -1.127  0.00  0.00     0.076 C 
ATOM      6  C7  UNL d   1       0.007  -2.553  -3.274  0.00  0.00     0.002 A 
ATOM      7  C8  UNL d   1       1.107  -2.960  -4.032  0.00  0.00     0.006 A 
ENDROOT
BRANCH   1   8
ATOM      8  C1  UNL d   1       3.563  -3.487  -4.268  0.00  0.00     0.054 C 
ATOM      9  C   UNL d   1       3.759  -4.985  -4.083  0.00  0.00     0.018 C 
ENDBRANCH   1   8
TORSDOF 1
ENDMDL
