MODEL 1
REMARK minimizedAffinity 10.2320004
REMARK minimizedRMSD -1
REMARK  1 active torsions:
REMARK  status: ('A' for Active; 'I' for Inactive)
REMARK    1  A    between atoms: C1_2  and  C2_3 
ROOT
ATOM      1  C2  UNL d   1       0.794  -2.299  -3.348  0.00  0.00    -0.081 A 
ATOM      2  C3  UNL d   1       0.731  -2.334  -4.746  0.00  0.00     0.006 A 
ATOM      3  C4  UNL d   1       1.899  -2.425  -5.506  0.00  0.00     0.002 A 
ATOM      4  C5  UNL d   1       3.149  -2.492  -4.881  0.00  0.00    -0.080 A 
ATOM      5  C6  UNL d   1       4.409  -2.621  -5.684  0.00  0.00     0.076 C 
ATOM      6  C7  UNL d   1       3.213  -2.440  -3.484  0.00  0.00     0.002 A 
ATOM      7  C8  UNL d   1       2.045  -2.348  -2.724  0.00  0.00     0.006 A 
ENDROOT
BRANCH   1   8
ATOM      8  C1  UNL d   1      -0.468  -2.266  -2.524  0.00  0.00     0.054 C 
ATOM      9  C   UNL d   1      -0.177  -1.882  -1.081  0.00  0.00     0.018 C 
ENDBRANCH   1   8
TORSDOF 1
ENDMDL
