MODEL 1
REMARK minimizedAffinity 13.3394861
REMARK minimizedRMSD -1
REMARK  1 active torsions:
REMARK  status: ('A' for Active; 'I' for Inactive)
REMARK    1  A    between atoms: C1_2  and  C2_3 
ROOT
ATOM      1  C2  UNL d   1      -0.343  -1.556  -1.806  0.00  0.00    -0.081 A 
ATOM      2  C3  UNL d   1       0.614  -1.156  -2.746  0.00  0.00     0.006 A 
ATOM      3  C4  UNL d   1       1.961  -1.063  -2.389  0.00  0.00     0.002 A 
ATOM      4  C5  UNL d   1       2.375  -1.377  -1.090  0.00  0.00    -0.080 A 
ATOM      5  C6  UNL d   1       3.822  -1.311  -0.703  0.00  0.00     0.076 C 
ATOM      6  C7  UNL d   1       1.416  -1.760  -0.146  0.00  0.00     0.002 A 
ATOM      7  C8  UNL d   1       0.069  -1.851  -0.502  0.00  0.00     0.006 A 
ENDROOT
BRANCH   1   8
ATOM      8  C1  UNL d   1      -1.788  -1.719  -2.204  0.00  0.00     0.054 C 
ATOM      9  C   UNL d   1      -1.935  -2.690  -3.367  0.00  0.00     0.018 C 
ENDBRANCH   1   8
TORSDOF 1
ENDMDL
