MODEL 1
REMARK minimizedAffinity 18.663887
REMARK minimizedRMSD -1
REMARK  1 active torsions:
REMARK  status: ('A' for Active; 'I' for Inactive)
REMARK    1  A    between atoms: C1_2  and  C2_3 
ROOT
ATOM      1  C2  UNL d   1       5.178   5.668  -2.215  0.00  0.00    -0.081 A 
ATOM      2  C3  UNL d   1       3.810   5.956  -2.292  0.00  0.00     0.006 A 
ATOM      3  C4  UNL d   1       3.142   5.895  -3.518  0.00  0.00     0.002 A 
ATOM      4  C5  UNL d   1       3.829   5.538  -4.683  0.00  0.00    -0.080 A 
ATOM      5  C6  UNL d   1       3.117   5.439  -6.000  0.00  0.00     0.076 C 
ATOM      6  C7  UNL d   1       5.199   5.267  -4.609  0.00  0.00     0.002 A 
ATOM      7  C8  UNL d   1       5.868   5.329  -3.384  0.00  0.00     0.006 A 
ENDROOT
BRANCH   1   8
ATOM      8  C1  UNL d   1       5.888   5.671  -0.885  0.00  0.00     0.054 C 
ATOM      9  C   UNL d   1       5.031   5.034   0.200  0.00  0.00     0.018 C 
ENDBRANCH   1   8
TORSDOF 1
ENDMDL
