MODEL 1
REMARK minimizedAffinity 6.30796957
REMARK minimizedRMSD -1
REMARK  1 active torsions:
REMARK  status: ('A' for Active; 'I' for Inactive)
REMARK    1  A    between atoms: C1_2  and  C2_3 
ROOT
ATOM      1  C2  UNL d   1       1.040  -3.228  -2.994  0.00  0.00    -0.081 A 
ATOM      2  C3  UNL d   1       0.626  -1.907  -2.781  0.00  0.00     0.006 A 
ATOM      3  C4  UNL d   1      -0.427  -1.627  -1.907  0.00  0.00     0.002 A 
ATOM      4  C5  UNL d   1      -1.079  -2.661  -1.227  0.00  0.00    -0.080 A 
ATOM      5  C6  UNL d   1      -2.191  -2.371  -0.263  0.00  0.00     0.076 C 
ATOM      6  C7  UNL d   1      -0.677  -3.982  -1.452  0.00  0.00     0.002 A 
ATOM      7  C8  UNL d   1       0.376  -4.262  -2.326  0.00  0.00     0.006 A 
ENDROOT
BRANCH   1   8
ATOM      8  C1  UNL d   1       2.218  -3.528  -3.885  0.00  0.00     0.054 C 
ATOM      9  C   UNL d   1       3.001  -4.731  -3.381  0.00  0.00     0.018 C 
ENDBRANCH   1   8
TORSDOF 1
ENDMDL
