MODEL 1
REMARK minimizedAffinity 5.30265999
REMARK minimizedRMSD -1
REMARK  1 active torsions:
REMARK  status: ('A' for Active; 'I' for Inactive)
REMARK    1  A    between atoms: C1_2  and  C2_3 
ROOT
ATOM      1  C2  UNL d   1       0.002  -2.507  -2.578  0.00  0.00    -0.081 A 
ATOM      2  C3  UNL d   1      -0.102  -1.515  -1.595  0.00  0.00     0.006 A 
ATOM      3  C4  UNL d   1      -0.582  -1.827  -0.321  0.00  0.00     0.002 A 
ATOM      4  C5  UNL d   1      -0.959  -3.137  -0.007  0.00  0.00    -0.080 A 
ATOM      5  C6  UNL d   1      -1.447  -3.492   1.366  0.00  0.00     0.076 C 
ATOM      6  C7  UNL d   1      -0.872  -4.125  -0.994  0.00  0.00     0.002 A 
ATOM      7  C8  UNL d   1      -0.393  -3.813  -2.268  0.00  0.00     0.006 A 
ENDROOT
BRANCH   1   8
ATOM      8  C1  UNL d   1       0.580  -2.186  -3.933  0.00  0.00     0.054 C 
ATOM      9  C   UNL d   1       2.099  -2.117  -3.884  0.00  0.00     0.018 C 
ENDBRANCH   1   8
TORSDOF 1
ENDMDL
