MODEL 1
REMARK minimizedAffinity 5.20085096
REMARK minimizedRMSD -1
REMARK  1 active torsions:
REMARK  status: ('A' for Active; 'I' for Inactive)
REMARK    1  A    between atoms: C1_2  and  C2_3 
ROOT
ATOM      1  C2  UNL d   1      -0.740  -1.945  -1.069  0.00  0.00    -0.081 A 
ATOM      2  C3  UNL d   1      -2.064  -2.145  -1.480  0.00  0.00     0.006 A 
ATOM      3  C4  UNL d   1      -3.000  -2.701  -0.606  0.00  0.00     0.002 A 
ATOM      4  C5  UNL d   1      -2.632  -3.060   0.695  0.00  0.00    -0.080 A 
ATOM      5  C6  UNL d   1      -3.634  -3.630   1.653  0.00  0.00     0.076 C 
ATOM      6  C7  UNL d   1      -1.305  -2.877   1.100  0.00  0.00     0.002 A 
ATOM      7  C8  UNL d   1      -0.368  -2.321   0.226  0.00  0.00     0.006 A 
ENDROOT
BRANCH   1   8
ATOM      8  C1  UNL d   1       0.256  -1.285  -1.988  0.00  0.00     0.054 C 
ATOM      9  C   UNL d   1       0.684  -2.225  -3.106  0.00  0.00     0.018 C 
ENDBRANCH   1   8
TORSDOF 1
ENDMDL
