MODEL 1
REMARK minimizedAffinity 1.00533795
REMARK minimizedRMSD -1
REMARK  1 active torsions:
REMARK  status: ('A' for Active; 'I' for Inactive)
REMARK    1  A    between atoms: C1_2  and  C2_3 
ROOT
ATOM      1  C2  UNL d   1       4.348  -2.365   4.056  0.00  0.00    -0.081 A 
ATOM      2  C3  UNL d   1       4.960  -3.357   3.280  0.00  0.00     0.006 A 
ATOM      3  C4  UNL d   1       4.896  -3.306   1.886  0.00  0.00     0.002 A 
ATOM      4  C5  UNL d   1       4.228  -2.258   1.244  0.00  0.00    -0.080 A 
ATOM      5  C6  UNL d   1       4.178  -2.175  -0.253  0.00  0.00     0.076 C 
ATOM      6  C7  UNL d   1       3.602  -1.276   2.019  0.00  0.00     0.002 A 
ATOM      7  C8  UNL d   1       3.665  -1.327   3.413  0.00  0.00     0.006 A 
ENDROOT
BRANCH   1   8
ATOM      8  C1  UNL d   1       4.470  -2.382   5.558  0.00  0.00     0.054 C 
ATOM      9  C   UNL d   1       5.792  -2.995   5.999  0.00  0.00     0.018 C 
ENDBRANCH   1   8
TORSDOF 1
ENDMDL
