MODEL 1
REMARK minimizedAffinity 3.24110365
REMARK minimizedRMSD -1
REMARK  1 active torsions:
REMARK  status: ('A' for Active; 'I' for Inactive)
REMARK    1  A    between atoms: C1_2  and  C2_3 
ROOT
ATOM      1  C2  UNL d   1      -0.217  -2.889  -1.295  0.00  0.00    -0.081 A 
ATOM      2  C3  UNL d   1      -0.012  -2.366  -2.577  0.00  0.00     0.006 A 
ATOM      3  C4  UNL d   1       0.137  -3.218  -3.674  0.00  0.00     0.002 A 
ATOM      4  C5  UNL d   1       0.075  -4.606  -3.509  0.00  0.00    -0.080 A 
ATOM      5  C6  UNL d   1       0.202  -5.531  -4.682  0.00  0.00     0.076 C 
ATOM      6  C7  UNL d   1      -0.113  -5.129  -2.225  0.00  0.00     0.002 A 
ATOM      7  C8  UNL d   1      -0.261  -4.278  -1.128  0.00  0.00     0.006 A 
ENDROOT
BRANCH   1   8
ATOM      8  C1  UNL d   1      -0.442  -1.972  -0.120  0.00  0.00     0.054 C 
ATOM      9  C   UNL d   1      -0.865  -2.751   1.117  0.00  0.00     0.018 C 
ENDBRANCH   1   8
TORSDOF 1
ENDMDL
