MODEL 1
REMARK minimizedAffinity 5.02189302
REMARK minimizedRMSD -1
REMARK  1 active torsions:
REMARK  status: ('A' for Active; 'I' for Inactive)
REMARK    1  A    between atoms: C1_2  and  C2_3 
ROOT
ATOM      1  C2  UNL d   1      -0.042  -1.819  -1.695  0.00  0.00    -0.081 A 
ATOM      2  C3  UNL d   1       0.367  -1.142  -0.540  0.00  0.00     0.006 A 
ATOM      3  C4  UNL d   1      -0.280  -1.365   0.678  0.00  0.00     0.002 A 
ATOM      4  C5  UNL d   1      -1.341  -2.273   0.762  0.00  0.00    -0.080 A 
ATOM      5  C6  UNL d   1      -2.025  -2.543   2.069  0.00  0.00     0.076 C 
ATOM      6  C7  UNL d   1      -1.761  -2.936  -0.396  0.00  0.00     0.002 A 
ATOM      7  C8  UNL d   1      -1.114  -2.714  -1.614  0.00  0.00     0.006 A 
ENDROOT
BRANCH   1   8
ATOM      8  C1  UNL d   1       0.696  -1.630  -2.996  0.00  0.00     0.054 C 
ATOM      9  C   UNL d   1       2.166  -2.000  -2.858  0.00  0.00     0.018 C 
ENDBRANCH   1   8
TORSDOF 1
ENDMDL
