MODEL 1
REMARK minimizedAffinity -1.59829843
REMARK minimizedRMSD -1
REMARK  1 active torsions:
REMARK  status: ('A' for Active; 'I' for Inactive)
REMARK    1  A    between atoms: C1_2  and  C2_3 
ROOT
ATOM      1  C2  UNL d   1      -1.072  -2.883  -0.208  0.00  0.00    -0.081 A 
ATOM      2  C3  UNL d   1      -0.604  -4.047  -0.829  0.00  0.00     0.006 A 
ATOM      3  C4  UNL d   1       0.118  -3.972  -2.022  0.00  0.00     0.002 A 
ATOM      4  C5  UNL d   1       0.392  -2.733  -2.610  0.00  0.00    -0.080 A 
ATOM      5  C6  UNL d   1       1.193  -2.636  -3.874  0.00  0.00     0.076 C 
ATOM      6  C7  UNL d   1      -0.090  -1.570  -1.998  0.00  0.00     0.002 A 
ATOM      7  C8  UNL d   1      -0.813  -1.645  -0.806  0.00  0.00     0.006 A 
ENDROOT
BRANCH   1   8
ATOM      8  C1  UNL d   1      -1.795  -2.956   1.112  0.00  0.00     0.054 C 
ATOM      9  C   UNL d   1      -3.295  -2.764   0.933  0.00  0.00     0.018 C 
ENDBRANCH   1   8
TORSDOF 1
ENDMDL
