MODEL 1
REMARK minimizedAffinity 7.48066378
REMARK minimizedRMSD -1
REMARK  1 active torsions:
REMARK  status: ('A' for Active; 'I' for Inactive)
REMARK    1  A    between atoms: C1_2  and  C2_3 
ROOT
ATOM      1  C2  UNL d   1      -1.266  -2.836  -0.242  0.00  0.00    -0.081 A 
ATOM      2  C3  UNL d   1      -1.515  -3.675  -1.335  0.00  0.00     0.006 A 
ATOM      3  C4  UNL d   1      -0.834  -3.488  -2.541  0.00  0.00     0.002 A 
ATOM      4  C5  UNL d   1       0.113  -2.466  -2.670  0.00  0.00    -0.080 A 
ATOM      5  C6  UNL d   1       0.873  -2.273  -3.948  0.00  0.00     0.076 C 
ATOM      6  C7  UNL d   1       0.349  -1.617  -1.583  0.00  0.00     0.002 A 
ATOM      7  C8  UNL d   1      -0.332  -1.803  -0.378  0.00  0.00     0.006 A 
ENDROOT
BRANCH   1   8
ATOM      8  C1  UNL d   1      -1.952  -3.076   1.079  0.00  0.00     0.054 C 
ATOM      9  C   UNL d   1      -1.232  -2.361   2.214  0.00  0.00     0.018 C 
ENDBRANCH   1   8
TORSDOF 1
ENDMDL
