MODEL 1
REMARK minimizedAffinity 0.0421662778
REMARK minimizedRMSD -1
REMARK  0 active torsions:
REMARK  status: ('A' for Active; 'I' for Inactive)
ROOT
ATOM      1  C   UNL d   1      -4.819   0.180  -0.460  0.00  0.00     0.078 C 
ATOM      2  C1  UNL d   1      -4.369   0.549  -1.842  0.00  0.00    -0.077 A 
ATOM      3  C2  UNL d   1      -3.315  -0.132  -2.464  0.00  0.00    -0.001 A 
ATOM      4  C3  UNL d   1      -2.901   0.230  -3.747  0.00  0.00     0.003 A 
ATOM      5  C4  UNL d   1      -3.534   1.274  -4.419  0.00  0.00    -0.005 A 
ATOM      6  C5  UNL d   1      -4.582   1.959  -3.807  0.00  0.00     0.003 A 
ATOM      7  C6  UNL d   1      -4.997   1.599  -2.524  0.00  0.00    -0.001 A 
ENDROOT
TORSDOF 0
ENDMDL
