MODEL 1
REMARK minimizedAffinity -2.06773686
REMARK minimizedRMSD -1
REMARK  0 active torsions:
REMARK  status: ('A' for Active; 'I' for Inactive)
ROOT
ATOM      1  C   UNL d   1       2.726  -1.242   1.678  0.00  0.00     0.078 C 
ATOM      2  C1  UNL d   1       3.027  -0.802   0.277  0.00  0.00    -0.077 A 
ATOM      3  C2  UNL d   1       2.659  -1.589  -0.821  0.00  0.00    -0.001 A 
ATOM      4  C3  UNL d   1       2.954  -1.172  -2.120  0.00  0.00     0.003 A 
ATOM      5  C4  UNL d   1       3.620   0.034  -2.333  0.00  0.00    -0.005 A 
ATOM      6  C5  UNL d   1       3.992   0.823  -1.247  0.00  0.00     0.003 A 
ATOM      7  C6  UNL d   1       3.698   0.407   0.053  0.00  0.00    -0.001 A 
ENDROOT
TORSDOF 0
ENDMDL
