MODEL 1
REMARK minimizedAffinity 0.242426723
REMARK minimizedRMSD -1
REMARK  0 active torsions:
REMARK  status: ('A' for Active; 'I' for Inactive)
ROOT
ATOM      1  C   UNL d   1      -5.983   4.758   5.947  0.00  0.00     0.078 C 
ATOM      2  C1  UNL d   1      -5.907   4.780   4.449  0.00  0.00    -0.077 A 
ATOM      3  C2  UNL d   1      -5.759   5.985   3.753  0.00  0.00    -0.001 A 
ATOM      4  C3  UNL d   1      -5.700   5.992   2.358  0.00  0.00     0.003 A 
ATOM      5  C4  UNL d   1      -5.789   4.796   1.648  0.00  0.00    -0.005 A 
ATOM      6  C5  UNL d   1      -5.938   3.592   2.333  0.00  0.00     0.003 A 
ATOM      7  C6  UNL d   1      -5.998   3.583   3.727  0.00  0.00    -0.001 A 
ENDROOT
TORSDOF 0
ENDMDL
