MODEL 1
REMARK minimizedAffinity 4.55293226
REMARK minimizedRMSD -1
REMARK  0 active torsions:
REMARK  status: ('A' for Active; 'I' for Inactive)
ROOT
ATOM      1  C   UNL d   1      -1.614  -0.491  -3.938  0.00  0.00     0.078 C 
ATOM      2  C1  UNL d   1      -2.823   0.396  -3.950  0.00  0.00    -0.077 A 
ATOM      3  C2  UNL d   1      -4.000   0.002  -4.598  0.00  0.00    -0.001 A 
ATOM      4  C3  UNL d   1      -5.115   0.842  -4.609  0.00  0.00     0.003 A 
ATOM      5  C4  UNL d   1      -5.063   2.082  -3.975  0.00  0.00    -0.005 A 
ATOM      6  C5  UNL d   1      -3.895   2.484  -3.330  0.00  0.00     0.003 A 
ATOM      7  C6  UNL d   1      -2.780   1.645  -3.317  0.00  0.00    -0.001 A 
ENDROOT
TORSDOF 0
ENDMDL
