MODEL 1
REMARK minimizedAffinity 0.190110147
REMARK minimizedRMSD -1
REMARK  0 active torsions:
REMARK  status: ('A' for Active; 'I' for Inactive)
ROOT
ATOM      1  C   UNL d   1      -5.987   2.949  -2.178  0.00  0.00     0.078 C 
ATOM      2  C1  UNL d   1      -5.290   1.913  -3.009  0.00  0.00    -0.077 A 
ATOM      3  C2  UNL d   1      -6.000   1.122  -3.920  0.00  0.00    -0.001 A 
ATOM      4  C3  UNL d   1      -5.340   0.155  -4.680  0.00  0.00     0.003 A 
ATOM      5  C4  UNL d   1      -3.966  -0.031  -4.535  0.00  0.00    -0.005 A 
ATOM      6  C5  UNL d   1      -3.252   0.750  -3.629  0.00  0.00     0.003 A 
ATOM      7  C6  UNL d   1      -3.910   1.717  -2.868  0.00  0.00    -0.001 A 
ENDROOT
TORSDOF 0
ENDMDL
