MODEL 1
REMARK minimizedAffinity 6.65715027
REMARK minimizedRMSD -1
REMARK  0 active torsions:
REMARK  status: ('A' for Active; 'I' for Inactive)
ROOT
ATOM      1  C   UNL d   1      -2.426  -5.241  -1.549  0.00  0.00     0.078 C 
ATOM      2  C1  UNL d   1      -2.998  -5.242  -2.935  0.00  0.00    -0.077 A 
ATOM      3  C2  UNL d   1      -2.412  -4.484  -3.957  0.00  0.00    -0.001 A 
ATOM      4  C3  UNL d   1      -2.961  -4.486  -5.240  0.00  0.00     0.003 A 
ATOM      5  C4  UNL d   1      -4.098  -5.244  -5.514  0.00  0.00    -0.005 A 
ATOM      6  C5  UNL d   1      -4.689  -5.999  -4.503  0.00  0.00     0.003 A 
ATOM      7  C6  UNL d   1      -4.142  -5.998  -3.219  0.00  0.00    -0.001 A 
ENDROOT
TORSDOF 0
ENDMDL
