MODEL 1
REMARK minimizedAffinity 5.29598141
REMARK minimizedRMSD -1
REMARK  0 active torsions:
REMARK  status: ('A' for Active; 'I' for Inactive)
ROOT
ATOM      1  O1  BZF d   1      -0.947   2.742   1.755  0.00  0.00    -0.204 OA
ATOM      2  C2  BZF d   1      -2.234   2.265   1.911  0.00  0.00     0.174 A 
ATOM      3  C3  BZF d   1      -2.270   0.926   1.752  0.00  0.00    -0.012 A 
ATOM      4  C3A BZF d   1      -0.907   0.532   1.570  0.00  0.00    -0.107 A 
ATOM      5  C4  BZF d   1      -0.296  -0.674   1.379  0.00  0.00     0.055 A 
ATOM      6  C5  BZF d   1       1.045  -0.709   1.163  0.00  0.00    -0.016 A 
ATOM      7  C6  BZF d   1       1.804   0.442   1.127  0.00  0.00     0.022 A 
ATOM      8  C7  BZF d   1       1.244   1.662   1.317  0.00  0.00     0.029 A 
ATOM      9  C7A BZF d   1      -0.106   1.697   1.568  0.00  0.00     0.058 A 
ENDROOT
TORSDOF 0
ENDMDL
