MODEL 1
REMARK minimizedAffinity -0.954059124
REMARK minimizedRMSD -1
REMARK  0 active torsions:
REMARK  status: ('A' for Active; 'I' for Inactive)
ROOT
ATOM      1  O1  BZF d   1      -1.553   3.092   2.151  0.00  0.00    -0.204 OA
ATOM      2  C2  BZF d   1      -0.463   2.696   1.401  0.00  0.00     0.174 A 
ATOM      3  C3  BZF d   1      -0.370   1.351   1.366  0.00  0.00    -0.012 A 
ATOM      4  C3A BZF d   1      -1.524   0.876   2.066  0.00  0.00    -0.107 A 
ATOM      5  C4  BZF d   1      -1.999  -0.372   2.355  0.00  0.00     0.055 A 
ATOM      6  C5  BZF d   1      -3.115  -0.492   3.120  0.00  0.00    -0.016 A 
ATOM      7  C6  BZF d   1      -3.777   0.611   3.618  0.00  0.00     0.022 A 
ATOM      8  C7  BZF d   1      -3.346   1.869   3.355  0.00  0.00     0.029 A 
ATOM      9  C7A BZF d   1      -2.237   1.995   2.554  0.00  0.00     0.058 A 
ENDROOT
TORSDOF 0
ENDMDL
