MODEL 1
REMARK minimizedAffinity -5.11141777
REMARK minimizedRMSD -1
REMARK  0 active torsions:
REMARK  status: ('A' for Active; 'I' for Inactive)
ROOT
ATOM      1  O1  BZF d   1      -1.446   2.495   2.182  0.00  0.00    -0.204 OA
ATOM      2  C2  BZF d   1      -0.293   2.731   1.459  0.00  0.00     0.174 A 
ATOM      3  C3  BZF d   1       0.230   1.575   1.003  0.00  0.00    -0.012 A 
ATOM      4  C3A BZF d   1      -0.701   0.561   1.392  0.00  0.00    -0.107 A 
ATOM      5  C4  BZF d   1      -0.744  -0.792   1.214  0.00  0.00     0.055 A 
ATOM      6  C5  BZF d   1      -1.755  -1.501   1.783  0.00  0.00    -0.016 A 
ATOM      7  C6  BZF d   1      -2.734  -0.891   2.539  0.00  0.00     0.022 A 
ATOM      8  C7  BZF d   1      -2.736   0.449   2.739  0.00  0.00     0.029 A 
ATOM      9  C7A BZF d   1      -1.734   1.173   2.139  0.00  0.00     0.058 A 
ENDROOT
TORSDOF 0
ENDMDL
