MODEL 1
REMARK minimizedAffinity 0.745595515
REMARK minimizedRMSD -1
REMARK  0 active torsions:
REMARK  status: ('A' for Active; 'I' for Inactive)
ROOT
ATOM      1  O1  BZF d   1      -1.285   3.797   2.077  0.00  0.00    -0.204 OA
ATOM      2  C2  BZF d   1      -2.356   3.511   2.901  0.00  0.00     0.174 A 
ATOM      3  C3  BZF d   1      -2.424   2.188   3.155  0.00  0.00    -0.012 A 
ATOM      4  C3A BZF d   1      -1.273   1.623   2.519  0.00  0.00    -0.107 A 
ATOM      5  C4  BZF d   1      -0.780   0.353   2.428  0.00  0.00     0.055 A 
ATOM      6  C5  BZF d   1       0.326   0.127   1.672  0.00  0.00    -0.016 A 
ATOM      7  C6  BZF d   1       0.960   1.145   0.991  0.00  0.00     0.022 A 
ATOM      8  C7  BZF d   1       0.511   2.422   1.055  0.00  0.00     0.029 A 
ATOM      9  C7A BZF d   1      -0.587   2.659   1.845  0.00  0.00     0.058 A 
ENDROOT
TORSDOF 0
ENDMDL
