MODEL 1
REMARK minimizedAffinity 0.718840241
REMARK minimizedRMSD -1
REMARK  0 active torsions:
REMARK  status: ('A' for Active; 'I' for Inactive)
ROOT
ATOM      1  O1  BZF d   1      -0.470  -1.967   3.728  0.00  0.00    -0.204 OA
ATOM      2  C2  BZF d   1      -1.818  -2.113   3.993  0.00  0.00     0.174 A 
ATOM      3  C3  BZF d   1      -2.533  -1.146   3.384  0.00  0.00    -0.012 A 
ATOM      4  C3A BZF d   1      -1.581  -0.400   2.619  0.00  0.00    -0.107 A 
ATOM      5  C4  BZF d   1      -1.683   0.677   1.786  0.00  0.00     0.055 A 
ATOM      6  C5  BZF d   1      -0.552   1.210   1.254  0.00  0.00    -0.016 A 
ATOM      7  C6  BZF d   1       0.696   0.696   1.537  0.00  0.00     0.022 A 
ATOM      8  C7  BZF d   1       0.848  -0.375   2.354  0.00  0.00     0.029 A 
ATOM      9  C7A BZF d   1      -0.296  -0.936   2.867  0.00  0.00     0.058 A 
ENDROOT
TORSDOF 0
ENDMDL
