MODEL 1
REMARK minimizedAffinity 1.22999644
REMARK minimizedRMSD -1
REMARK  0 active torsions:
REMARK  status: ('A' for Active; 'I' for Inactive)
ROOT
ATOM      1  O1  BZF d   1      -0.133   1.714   3.183  0.00  0.00    -0.204 OA
ATOM      2  C2  BZF d   1       0.799   1.000   2.456  0.00  0.00     0.174 A 
ATOM      3  C3  BZF d   1       0.239  -0.097   1.907  0.00  0.00    -0.012 A 
ATOM      4  C3A BZF d   1      -1.150  -0.017   2.241  0.00  0.00    -0.107 A 
ATOM      5  C4  BZF d   1      -2.229  -0.809   1.965  0.00  0.00     0.055 A 
ATOM      6  C5  BZF d   1      -3.436  -0.489   2.501  0.00  0.00    -0.016 A 
ATOM      7  C6  BZF d   1      -3.600   0.610   3.318  0.00  0.00     0.022 A 
ATOM      8  C7  BZF d   1      -2.560   1.427   3.616  0.00  0.00     0.029 A 
ATOM      9  C7A BZF d   1      -1.346   1.126   3.049  0.00  0.00     0.058 A 
ENDROOT
TORSDOF 0
ENDMDL
