MODEL 1
REMARK minimizedAffinity -0.938969791
REMARK minimizedRMSD -1
REMARK  0 active torsions:
REMARK  status: ('A' for Active; 'I' for Inactive)
ROOT
ATOM      1  O1  BZF d   1      -0.118  -0.837   1.733  0.00  0.00    -0.204 OA
ATOM      2  C2  BZF d   1       0.880  -0.039   1.210  0.00  0.00     0.174 A 
ATOM      3  C3  BZF d   1       0.465   1.241   1.108  0.00  0.00    -0.012 A 
ATOM      4  C3A BZF d   1      -0.844   1.259   1.684  0.00  0.00    -0.107 A 
ATOM      5  C4  BZF d   1      -1.766   2.245   1.888  0.00  0.00     0.055 A 
ATOM      6  C5  BZF d   1      -2.978   1.918   2.409  0.00  0.00    -0.016 A 
ATOM      7  C6  BZF d   1      -3.303   0.617   2.731  0.00  0.00     0.022 A 
ATOM      8  C7  BZF d   1      -2.420  -0.395   2.551  0.00  0.00     0.029 A 
ATOM      9  C7A BZF d   1      -1.182  -0.063   2.056  0.00  0.00     0.058 A 
ENDROOT
TORSDOF 0
ENDMDL
