MODEL 1
REMARK minimizedAffinity 4.84114313
REMARK minimizedRMSD -1
REMARK  0 active torsions:
REMARK  status: ('A' for Active; 'I' for Inactive)
ROOT
ATOM      1  O1  BZF d   1      -1.252   3.336   1.017  0.00  0.00    -0.204 OA
ATOM      2  C2  BZF d   1      -2.375   3.143   1.798  0.00  0.00     0.174 A 
ATOM      3  C3  BZF d   1      -2.293   1.979   2.474  0.00  0.00    -0.012 A 
ATOM      4  C3A BZF d   1      -0.999   1.453   2.163  0.00  0.00    -0.107 A 
ATOM      5  C4  BZF d   1      -0.326   0.327   2.544  0.00  0.00     0.055 A 
ATOM      6  C5  BZF d   1       0.893   0.071   2.002  0.00  0.00    -0.016 A 
ATOM      7  C6  BZF d   1       1.467   0.915   1.073  0.00  0.00     0.022 A 
ATOM      8  C7  BZF d   1       0.840   2.046   0.668  0.00  0.00     0.029 A 
ATOM      9  C7A BZF d   1      -0.378   2.325   1.239  0.00  0.00     0.058 A 
ENDROOT
TORSDOF 0
ENDMDL
