MODEL 1
REMARK minimizedAffinity 0.105850905
REMARK minimizedRMSD -1
REMARK  0 active torsions:
REMARK  status: ('A' for Active; 'I' for Inactive)
ROOT
ATOM      1  O1  BZF d   1      -1.900   2.250   4.130  0.00  0.00    -0.204 OA
ATOM      2  C2  BZF d   1      -1.767   1.470   2.997  0.00  0.00     0.174 A 
ATOM      3  C3  BZF d   1      -2.887   0.753   2.774  0.00  0.00    -0.012 A 
ATOM      4  C3A BZF d   1      -3.810   1.176   3.782  0.00  0.00    -0.107 A 
ATOM      5  C4  BZF d   1      -5.101   0.837   4.075  0.00  0.00     0.055 A 
ATOM      6  C5  BZF d   1      -5.694   1.379   5.171  0.00  0.00    -0.016 A 
ATOM      7  C6  BZF d   1      -5.025   2.258   5.998  0.00  0.00     0.022 A 
ATOM      8  C7  BZF d   1      -3.746   2.627   5.746  0.00  0.00     0.029 A 
ATOM      9  C7A BZF d   1      -3.155   2.107   4.621  0.00  0.00     0.058 A 
ENDROOT
TORSDOF 0
ENDMDL
