MODEL 1
REMARK minimizedAffinity -2.32224965
REMARK minimizedRMSD -1
REMARK  0 active torsions:
REMARK  status: ('A' for Active; 'I' for Inactive)
ROOT
ATOM      1  O1  BZF d   1      -3.192   1.090   3.263  0.00  0.00    -0.204 OA
ATOM      2  C2  BZF d   1      -3.019   2.446   3.066  0.00  0.00     0.174 A 
ATOM      3  C3  BZF d   1      -1.843   2.695   2.455  0.00  0.00    -0.012 A 
ATOM      4  C3A BZF d   1      -1.285   1.408   2.175  0.00  0.00    -0.107 A 
ATOM      5  C4  BZF d   1      -0.135   0.996   1.565  0.00  0.00     0.055 A 
ATOM      6  C5  BZF d   1       0.149  -0.333   1.517  0.00  0.00    -0.016 A 
ATOM      7  C6  BZF d   1      -0.692  -1.275   2.073  0.00  0.00     0.022 A 
ATOM      8  C7  BZF d   1      -1.847  -0.914   2.684  0.00  0.00     0.029 A 
ATOM      9  C7A BZF d   1      -2.152   0.425   2.704  0.00  0.00     0.058 A 
ENDROOT
TORSDOF 0
ENDMDL
