MODEL 1
REMARK minimizedAffinity -0.536124229
REMARK minimizedRMSD -1
REMARK  0 active torsions:
REMARK  status: ('A' for Active; 'I' for Inactive)
ROOT
ATOM      1  O1  BZF d   1       0.576   1.335   0.930  0.00  0.00    -0.204 OA
ATOM      2  C2  BZF d   1       0.716  -0.026   0.737  0.00  0.00     0.174 A 
ATOM      3  C3  BZF d   1      -0.302  -0.698   1.311  0.00  0.00    -0.012 A 
ATOM      4  C3A BZF d   1      -1.179   0.311   1.821  0.00  0.00    -0.107 A 
ATOM      5  C4  BZF d   1      -2.372   0.271   2.484  0.00  0.00     0.055 A 
ATOM      6  C5  BZF d   1      -2.933   1.435   2.907  0.00  0.00    -0.016 A 
ATOM      7  C6  BZF d   1      -2.326   2.654   2.688  0.00  0.00     0.022 A 
ATOM      8  C7  BZF d   1      -1.144   2.745   2.031  0.00  0.00     0.029 A 
ATOM      9  C7A BZF d   1      -0.592   1.574   1.573  0.00  0.00     0.058 A 
ENDROOT
TORSDOF 0
ENDMDL
