MODEL 1
REMARK minimizedAffinity -3.46372771
REMARK minimizedRMSD -1
REMARK  0 active torsions:
REMARK  status: ('A' for Active; 'I' for Inactive)
ROOT
ATOM      1  O1  BZF d   1      -2.430   1.293   2.657  0.00  0.00    -0.204 OA
ATOM      2  C2  BZF d   1      -2.094   2.629   2.550  0.00  0.00     0.174 A 
ATOM      3  C3  BZF d   1      -0.898   2.774   1.944  0.00  0.00    -0.012 A 
ATOM      4  C3A BZF d   1      -0.501   1.451   1.571  0.00  0.00    -0.107 A 
ATOM      5  C4  BZF d   1       0.588   0.945   0.923  0.00  0.00     0.055 A 
ATOM      6  C5  BZF d   1       0.707  -0.402   0.782  0.00  0.00    -0.016 A 
ATOM      7  C6  BZF d   1      -0.241  -1.270   1.283  0.00  0.00     0.022 A 
ATOM      8  C7  BZF d   1      -1.341  -0.815   1.929  0.00  0.00     0.029 A 
ATOM      9  C7A BZF d   1      -1.481   0.547   2.043  0.00  0.00     0.058 A 
ENDROOT
TORSDOF 0
ENDMDL
