MODEL 1
REMARK minimizedAffinity 2.82685566
REMARK minimizedRMSD -1
REMARK  0 active torsions:
REMARK  status: ('A' for Active; 'I' for Inactive)
ROOT
ATOM      1  O1  BZF d   1      -2.927  -3.858   4.472  0.00  0.00    -0.204 OA
ATOM      2  C2  BZF d   1      -4.263  -3.507   4.485  0.00  0.00     0.174 A 
ATOM      3  C3  BZF d   1      -4.464  -2.364   3.799  0.00  0.00    -0.012 A 
ATOM      4  C3A BZF d   1      -3.187  -2.025   3.250  0.00  0.00    -0.107 A 
ATOM      5  C4  BZF d   1      -2.747  -1.003   2.459  0.00  0.00     0.055 A 
ATOM      6  C5  BZF d   1      -1.423  -0.921   2.161  0.00  0.00    -0.016 A 
ATOM      7  C6  BZF d   1      -0.513  -1.839   2.641  0.00  0.00     0.022 A 
ATOM      8  C7  BZF d   1      -0.903  -2.874   3.425  0.00  0.00     0.029 A 
ATOM      9  C7A BZF d   1      -2.244  -2.978   3.701  0.00  0.00     0.058 A 
ENDROOT
TORSDOF 0
ENDMDL
