MODEL 1
REMARK minimizedAffinity 5.7545867
REMARK minimizedRMSD -1
REMARK  0 active torsions:
REMARK  status: ('A' for Active; 'I' for Inactive)
ROOT
ATOM      1  O1  BZF d   1      -4.000   3.386   5.139  0.00  0.00    -0.204 OA
ATOM      2  C2  BZF d   1      -5.013   2.755   5.834  0.00  0.00     0.174 A 
ATOM      3  C3  BZF d   1      -5.154   1.479   5.421  0.00  0.00    -0.012 A 
ATOM      4  C3A BZF d   1      -4.106   1.274   4.469  0.00  0.00    -0.107 A 
ATOM      5  C4  BZF d   1      -3.715   0.201   3.720  0.00  0.00     0.055 A 
ATOM      6  C5  BZF d   1      -2.697   0.351   2.832  0.00  0.00    -0.016 A 
ATOM      7  C6  BZF d   1      -2.053   1.559   2.663  0.00  0.00     0.022 A 
ATOM      8  C7  BZF d   1      -2.403   2.650   3.387  0.00  0.00     0.029 A 
ATOM      9  C7A BZF d   1      -3.408   2.493   4.309  0.00  0.00     0.058 A 
ENDROOT
TORSDOF 0
ENDMDL
