MODEL 1
REMARK minimizedAffinity 1.76765108
REMARK minimizedRMSD -1
REMARK  0 active torsions:
REMARK  status: ('A' for Active; 'I' for Inactive)
ROOT
ATOM      1  O1  BZF d   1      -2.633  -5.331  -2.710  0.00  0.00    -0.204 OA
ATOM      2  C2  BZF d   1      -2.769  -6.000  -1.508  0.00  0.00     0.174 A 
ATOM      3  C3  BZF d   1      -3.017  -5.134  -0.504  0.00  0.00    -0.012 A 
ATOM      4  C3A BZF d   1      -3.128  -3.853  -1.131  0.00  0.00    -0.107 A 
ATOM      5  C4  BZF d   1      -3.384  -2.596  -0.661  0.00  0.00     0.055 A 
ATOM      6  C5  BZF d   1      -3.352  -1.548  -1.525  0.00  0.00    -0.016 A 
ATOM      7  C6  BZF d   1      -3.063  -1.719  -2.864  0.00  0.00     0.022 A 
ATOM      8  C7  BZF d   1      -2.808  -2.947  -3.378  0.00  0.00     0.029 A 
ATOM      9  C7A BZF d   1      -2.872  -4.013  -2.513  0.00  0.00     0.058 A 
ENDROOT
TORSDOF 0
ENDMDL
