MODEL 1
REMARK minimizedAffinity 21.8757629
REMARK minimizedRMSD -1
REMARK  1 active torsions:
REMARK  status: ('A' for Active; 'I' for Inactive)
REMARK    1  A    between atoms: C1_2  and  C2_3 
ROOT
ATOM      1  C2  UNL d   1       1.795  -1.353   1.783  0.00  0.00    -0.076 A 
ATOM      2  C3  UNL d   1       1.021  -0.462   2.546  0.00  0.00     0.004 A 
ATOM      3  C4  UNL d   1      -0.296  -0.766   2.886  0.00  0.00    -0.003 A 
ATOM      4  C5  UNL d   1      -0.861  -1.967   2.468  0.00  0.00     0.000 A 
ATOM      5  C6  UNL d   1      -0.101  -2.870   1.725  0.00  0.00     0.000 A 
ATOM      6  C7  UNL d   1       1.234  -2.586   1.388  0.00  0.00    -0.073 A 
ATOM      7  C8  UNL d   1       2.004  -3.594   0.581  0.00  0.00     0.078 C 
ENDROOT
BRANCH   1   8
ATOM      8  C1  UNL d   1       3.210  -0.958   1.423  0.00  0.00     0.053 C 
ATOM      9  C   UNL d   1       3.577   0.426   1.936  0.00  0.00     0.018 C 
ENDBRANCH   1   8
TORSDOF 1
ENDMDL
