MODEL 1
REMARK minimizedAffinity 15.9204092
REMARK minimizedRMSD -1
REMARK  1 active torsions:
REMARK  status: ('A' for Active; 'I' for Inactive)
REMARK    1  A    between atoms: C1_2  and  C2_3 
ROOT
ATOM      1  C2  UNL d   1      -1.885   4.805  -3.070  0.00  0.00    -0.076 A 
ATOM      2  C3  UNL d   1      -1.707   3.658  -2.277  0.00  0.00     0.004 A 
ATOM      3  C4  UNL d   1      -1.088   2.520  -2.790  0.00  0.00    -0.003 A 
ATOM      4  C5  UNL d   1      -0.635   2.510  -4.105  0.00  0.00     0.000 A 
ATOM      5  C6  UNL d   1      -0.788   3.645  -4.901  0.00  0.00     0.000 A 
ATOM      6  C7  UNL d   1      -1.396   4.807  -4.394  0.00  0.00    -0.073 A 
ATOM      7  C8  UNL d   1      -1.540   6.000  -5.298  0.00  0.00     0.078 C 
ENDROOT
BRANCH   1   8
ATOM      8  C1  UNL d   1      -2.589   6.000  -2.467  0.00  0.00     0.053 C 
ATOM      9  C   UNL d   1      -3.599   5.605  -1.400  0.00  0.00     0.018 C 
ENDBRANCH   1   8
TORSDOF 1
ENDMDL
