MODEL 1
REMARK minimizedAffinity 8.06654072
REMARK minimizedRMSD -1
REMARK  1 active torsions:
REMARK  status: ('A' for Active; 'I' for Inactive)
REMARK    1  A    between atoms: C1_2  and  C2_3 
ROOT
ATOM      1  C2  UNL d   1       3.505  -4.392  -5.548  0.00  0.00    -0.076 A 
ATOM      2  C3  UNL d   1       2.918  -5.588  -5.997  0.00  0.00     0.004 A 
ATOM      3  C4  UNL d   1       1.631  -5.948  -5.602  0.00  0.00    -0.003 A 
ATOM      4  C5  UNL d   1       0.909  -5.117  -4.752  0.00  0.00     0.000 A 
ATOM      5  C6  UNL d   1       1.468  -3.918  -4.311  0.00  0.00     0.000 A 
ATOM      6  C7  UNL d   1       2.759  -3.533  -4.713  0.00  0.00    -0.073 A 
ATOM      7  C8  UNL d   1       3.316  -2.232  -4.202  0.00  0.00     0.078 C 
ENDROOT
BRANCH   1   8
ATOM      8  C1  UNL d   1       4.915  -4.067  -5.988  0.00  0.00     0.053 C 
ATOM      9  C   UNL d   1       5.817  -5.291  -6.000  0.00  0.00     0.018 C 
ENDBRANCH   1   8
TORSDOF 1
ENDMDL
