MODEL 1
REMARK minimizedAffinity 19.0001621
REMARK minimizedRMSD -1
REMARK  1 active torsions:
REMARK  status: ('A' for Active; 'I' for Inactive)
REMARK    1  A    between atoms: C1_2  and  C2_3 
ROOT
ATOM      1  C2  UNL d   1       0.863  -2.947   1.490  0.00  0.00    -0.076 A 
ATOM      2  C3  UNL d   1       2.065  -3.670   1.581  0.00  0.00     0.004 A 
ATOM      3  C4  UNL d   1       2.060  -5.061   1.677  0.00  0.00    -0.003 A 
ATOM      4  C5  UNL d   1       0.852  -5.751   1.683  0.00  0.00     0.000 A 
ATOM      5  C6  UNL d   1      -0.349  -5.051   1.576  0.00  0.00     0.000 A 
ATOM      6  C7  UNL d   1      -0.361  -3.650   1.462  0.00  0.00    -0.073 A 
ATOM      7  C8  UNL d   1      -1.686  -2.946   1.355  0.00  0.00     0.078 C 
ENDROOT
BRANCH   1   8
ATOM      8  C1  UNL d   1       0.929  -1.438   1.416  0.00  0.00     0.053 C 
ATOM      9  C   UNL d   1       2.350  -0.911   1.540  0.00  0.00     0.018 C 
ENDBRANCH   1   8
TORSDOF 1
ENDMDL
