MODEL 1
REMARK minimizedAffinity 18.5638962
REMARK minimizedRMSD -1
REMARK  1 active torsions:
REMARK  status: ('A' for Active; 'I' for Inactive)
REMARK    1  A    between atoms: C1_2  and  C2_3 
ROOT
ATOM      1  C2  UNL d   1       0.103  -3.953   0.721  0.00  0.00    -0.076 A 
ATOM      2  C3  UNL d   1       0.853  -4.553   1.747  0.00  0.00     0.004 A 
ATOM      3  C4  UNL d   1       2.081  -5.156   1.479  0.00  0.00    -0.003 A 
ATOM      4  C5  UNL d   1       2.579  -5.168   0.181  0.00  0.00     0.000 A 
ATOM      5  C6  UNL d   1       1.857  -4.561  -0.846  0.00  0.00     0.000 A 
ATOM      6  C7  UNL d   1       0.625  -3.935  -0.590  0.00  0.00    -0.073 A 
ATOM      7  C8  UNL d   1      -0.114  -3.301  -1.737  0.00  0.00     0.078 C 
ENDROOT
BRANCH   1   8
ATOM      8  C1  UNL d   1      -1.234  -3.338   1.066  0.00  0.00     0.053 C 
ATOM      9  C   UNL d   1      -2.394  -4.045   0.382  0.00  0.00     0.018 C 
ENDBRANCH   1   8
TORSDOF 1
ENDMDL
