MODEL 1
REMARK minimizedAffinity 8.81279278
REMARK minimizedRMSD -1
REMARK  1 active torsions:
REMARK  status: ('A' for Active; 'I' for Inactive)
REMARK    1  A    between atoms: C1_2  and  C2_3 
ROOT
ATOM      1  C2  UNL d   1       3.296  -3.818  -5.651  0.00  0.00    -0.076 A 
ATOM      2  C3  UNL d   1       2.053  -3.229  -5.361  0.00  0.00     0.004 A 
ATOM      3  C4  UNL d   1       0.917  -4.012  -5.162  0.00  0.00    -0.003 A 
ATOM      4  C5  UNL d   1       1.006  -5.397  -5.248  0.00  0.00     0.000 A 
ATOM      5  C6  UNL d   1       2.235  -5.999  -5.518  0.00  0.00     0.000 A 
ATOM      6  C7  UNL d   1       3.393  -5.225  -5.705  0.00  0.00    -0.073 A 
ATOM      7  C8  UNL d   1       4.690  -5.926  -5.999  0.00  0.00     0.078 C 
ENDROOT
BRANCH   1   8
ATOM      8  C1  UNL d   1       4.487  -2.917  -5.885  0.00  0.00     0.053 C 
ATOM      9  C   UNL d   1       5.791  -3.691  -5.995  0.00  0.00     0.018 C 
ENDBRANCH   1   8
TORSDOF 1
ENDMDL
