MODEL 1
REMARK minimizedAffinity 22.7417603
REMARK minimizedRMSD -1
REMARK  1 active torsions:
REMARK  status: ('A' for Active; 'I' for Inactive)
REMARK    1  A    between atoms: C1_2  and  C2_3 
ROOT
ATOM      1  C2  UNL d   1      -3.702  -2.545   3.706  0.00  0.00    -0.076 A 
ATOM      2  C3  UNL d   1      -3.273  -2.934   4.987  0.00  0.00     0.004 A 
ATOM      3  C4  UNL d   1      -4.192  -3.205   6.000  0.00  0.00    -0.003 A 
ATOM      4  C5  UNL d   1      -5.554  -3.091   5.748  0.00  0.00     0.000 A 
ATOM      5  C6  UNL d   1      -5.998  -2.723   4.478  0.00  0.00     0.000 A 
ATOM      6  C7  UNL d   1      -5.086  -2.463   3.442  0.00  0.00    -0.073 A 
ATOM      7  C8  UNL d   1      -5.620  -2.064   2.093  0.00  0.00     0.078 C 
ENDROOT
BRANCH   1   8
ATOM      8  C1  UNL d   1      -2.659  -2.238   2.656  0.00  0.00     0.053 C 
ATOM      9  C   UNL d   1      -1.808  -1.029   3.015  0.00  0.00     0.018 C 
ENDBRANCH   1   8
TORSDOF 1
ENDMDL
