MODEL 1
REMARK minimizedAffinity 7.72446012
REMARK minimizedRMSD -1
REMARK  1 active torsions:
REMARK  status: ('A' for Active; 'I' for Inactive)
REMARK    1  A    between atoms: C1_2  and  C2_3 
ROOT
ATOM      1  C2  UNL d   1       1.446   0.576   0.507  0.00  0.00    -0.076 A 
ATOM      2  C3  UNL d   1       0.400  -0.354   0.380  0.00  0.00     0.004 A 
ATOM      3  C4  UNL d   1       0.580  -1.689   0.735  0.00  0.00    -0.003 A 
ATOM      4  C5  UNL d   1       1.810  -2.117   1.224  0.00  0.00     0.000 A 
ATOM      5  C6  UNL d   1       2.853  -1.204   1.373  0.00  0.00     0.000 A 
ATOM      6  C7  UNL d   1       2.683   0.149   1.035  0.00  0.00    -0.073 A 
ATOM      7  C8  UNL d   1       3.845   1.089   1.210  0.00  0.00     0.078 C 
ENDROOT
BRANCH   1   8
ATOM      8  C1  UNL d   1       1.200   2.006   0.080  0.00  0.00     0.053 C 
ATOM      9  C   UNL d   1       0.811   2.118  -1.385  0.00  0.00     0.018 C 
ENDBRANCH   1   8
TORSDOF 1
ENDMDL
