MODEL 1
REMARK minimizedAffinity 5.4634223
REMARK minimizedRMSD -1
REMARK  1 active torsions:
REMARK  status: ('A' for Active; 'I' for Inactive)
REMARK    1  A    between atoms: C1_2  and  C2_3 
ROOT
ATOM      1  C2  UNL d   1       2.089  -4.746  -5.302  0.00  0.00    -0.076 A 
ATOM      2  C3  UNL d   1       1.206  -5.666  -5.894  0.00  0.00     0.004 A 
ATOM      3  C4  UNL d   1      -0.001  -5.998  -5.281  0.00  0.00    -0.003 A 
ATOM      4  C5  UNL d   1      -0.346  -5.414  -4.067  0.00  0.00     0.000 A 
ATOM      5  C6  UNL d   1       0.510  -4.486  -3.475  0.00  0.00     0.000 A 
ATOM      6  C7  UNL d   1       1.723  -4.128  -4.087  0.00  0.00    -0.073 A 
ATOM      7  C8  UNL d   1       2.610  -3.127  -3.400  0.00  0.00     0.078 C 
ENDROOT
BRANCH   1   8
ATOM      8  C1  UNL d   1       3.397  -4.446  -5.999  0.00  0.00     0.053 C 
ATOM      9  C   UNL d   1       4.344  -5.636  -5.997  0.00  0.00     0.018 C 
ENDBRANCH   1   8
TORSDOF 1
ENDMDL
