MODEL 1
REMARK minimizedAffinity 11.9294147
REMARK minimizedRMSD -1
REMARK  1 active torsions:
REMARK  status: ('A' for Active; 'I' for Inactive)
REMARK    1  A    between atoms: C1_2  and  C2_3 
ROOT
ATOM      1  C2  UNL d   1      -4.932  -2.779   4.176  0.00  0.00    -0.076 A 
ATOM      2  C3  UNL d   1      -5.360  -2.927   2.845  0.00  0.00     0.004 A 
ATOM      3  C4  UNL d   1      -4.454  -2.866   1.789  0.00  0.00    -0.003 A 
ATOM      4  C5  UNL d   1      -3.103  -2.656   2.046  0.00  0.00     0.000 A 
ATOM      5  C6  UNL d   1      -2.658  -2.525   3.361  0.00  0.00     0.000 A 
ATOM      6  C7  UNL d   1      -3.557  -2.600   4.438  0.00  0.00    -0.073 A 
ATOM      7  C8  UNL d   1      -3.023  -2.446   5.836  0.00  0.00     0.078 C 
ENDROOT
BRANCH   1   8
ATOM      8  C1  UNL d   1      -5.965  -2.827   5.279  0.00  0.00     0.053 C 
ATOM      9  C   UNL d   1      -5.999  -4.173   5.987  0.00  0.00     0.018 C 
ENDBRANCH   1   8
TORSDOF 1
ENDMDL
