MODEL 1
REMARK minimizedAffinity 21.025423
REMARK minimizedRMSD -1
REMARK  1 active torsions:
REMARK  status: ('A' for Active; 'I' for Inactive)
REMARK    1  A    between atoms: C1_2  and  C2_3 
ROOT
ATOM      1  C2  UNL d   1       1.665   1.222   0.433  0.00  0.00    -0.076 A 
ATOM      2  C3  UNL d   1       0.621   0.283   0.505  0.00  0.00     0.004 A 
ATOM      3  C4  UNL d   1       0.837  -0.991   1.026  0.00  0.00    -0.003 A 
ATOM      4  C5  UNL d   1       2.101  -1.347   1.485  0.00  0.00     0.000 A 
ATOM      5  C6  UNL d   1       3.144  -0.422   1.437  0.00  0.00     0.000 A 
ATOM      6  C7  UNL d   1       2.938   0.872   0.930  0.00  0.00    -0.073 A 
ATOM      7  C8  UNL d   1       4.100   1.827   0.896  0.00  0.00     0.078 C 
ENDROOT
BRANCH   1   8
ATOM      8  C1  UNL d   1       1.377   2.580  -0.168  0.00  0.00     0.053 C 
ATOM      9  C   UNL d   1       0.835   2.487  -1.585  0.00  0.00     0.018 C 
ENDBRANCH   1   8
TORSDOF 1
ENDMDL
