MODEL 1
REMARK minimizedAffinity 9.94455147
REMARK minimizedRMSD -1
REMARK  1 active torsions:
REMARK  status: ('A' for Active; 'I' for Inactive)
REMARK    1  A    between atoms: C1_2  and  C2_3 
ROOT
ATOM      1  C2  UNL d   1       2.017   0.978   0.722  0.00  0.00    -0.076 A 
ATOM      2  C3  UNL d   1       3.124   1.845   0.697  0.00  0.00     0.004 A 
ATOM      3  C4  UNL d   1       4.341   1.471   1.263  0.00  0.00    -0.003 A 
ATOM      4  C5  UNL d   1       4.473   0.224   1.863  0.00  0.00     0.000 A 
ATOM      5  C6  UNL d   1       3.391  -0.656   1.881  0.00  0.00     0.000 A 
ATOM      6  C7  UNL d   1       2.161  -0.301   1.301  0.00  0.00    -0.073 A 
ATOM      7  C8  UNL d   1       1.026  -1.287   1.356  0.00  0.00     0.078 C 
ENDROOT
BRANCH   1   8
ATOM      8  C1  UNL d   1       0.714   1.449   0.117  0.00  0.00     0.053 C 
ATOM      9  C   UNL d   1       0.910   2.577  -0.884  0.00  0.00     0.018 C 
ENDBRANCH   1   8
TORSDOF 1
ENDMDL
