MODEL 1
REMARK minimizedAffinity 21.0333786
REMARK minimizedRMSD -1
REMARK  1 active torsions:
REMARK  status: ('A' for Active; 'I' for Inactive)
REMARK    1  A    between atoms: C1_2  and  C2_3 
ROOT
ATOM      1  C2  UNL d   1      -2.726   4.800  -3.028  0.00  0.00    -0.076 A 
ATOM      2  C3  UNL d   1      -2.525   5.999  -3.734  0.00  0.00     0.004 A 
ATOM      3  C4  UNL d   1      -2.350   5.997  -5.117  0.00  0.00    -0.003 A 
ATOM      4  C5  UNL d   1      -2.373   4.795  -5.816  0.00  0.00     0.000 A 
ATOM      5  C6  UNL d   1      -2.589   3.598  -5.135  0.00  0.00     0.000 A 
ATOM      6  C7  UNL d   1      -2.784   3.585  -3.743  0.00  0.00    -0.073 A 
ATOM      7  C8  UNL d   1      -3.006   2.264  -3.058  0.00  0.00     0.078 C 
ENDROOT
BRANCH   1   8
ATOM      8  C1  UNL d   1      -2.883   4.862  -1.526  0.00  0.00     0.053 C 
ATOM      9  C   UNL d   1      -4.285   4.486  -1.070  0.00  0.00     0.018 C 
ENDBRANCH   1   8
TORSDOF 1
ENDMDL
