MODEL 1
REMARK minimizedAffinity 0.359505832
REMARK minimizedRMSD -1
REMARK  1 active torsions:
REMARK  status: ('A' for Active; 'I' for Inactive)
REMARK    1  A    between atoms: C1_2  and  C2_3 
ROOT
ATOM      1  C2  UNL d   1      -4.707  -4.135   3.587  0.00  0.00    -0.076 A 
ATOM      2  C3  UNL d   1      -4.521  -3.603   4.875  0.00  0.00     0.004 A 
ATOM      3  C4  UNL d   1      -5.035  -4.249   5.998  0.00  0.00    -0.003 A 
ATOM      4  C5  UNL d   1      -5.742  -5.437   5.852  0.00  0.00     0.000 A 
ATOM      5  C6  UNL d   1      -5.921  -5.988   4.583  0.00  0.00     0.000 A 
ATOM      6  C7  UNL d   1      -5.396  -5.358   3.442  0.00  0.00    -0.073 A 
ATOM      7  C8  UNL d   1      -5.624  -5.993   2.098  0.00  0.00     0.078 C 
ENDROOT
BRANCH   1   8
ATOM      8  C1  UNL d   1      -4.151  -3.376   2.403  0.00  0.00     0.053 C 
ATOM      9  C   UNL d   1      -5.227  -2.995   1.398  0.00  0.00     0.018 C 
ENDBRANCH   1   8
TORSDOF 1
ENDMDL
