MODEL 1
REMARK minimizedAffinity 0.516900897
REMARK minimizedRMSD -1
REMARK  0 active torsions:
REMARK  status: ('A' for Active; 'I' for Inactive)
ROOT
ATOM      1  C   UNL d   1      -5.399  -1.496   3.859  0.00  0.00     0.023 A 
ATOM      2  C1  UNL d   1      -4.511  -0.755   3.080  0.00  0.00     0.003 A 
ATOM      3  C2  UNL d   1      -3.534   0.034   3.691  0.00  0.00     0.048 A 
ATOM      4  C3  UNL d   1      -3.451   0.077   5.083  0.00  0.00     0.023 A 
ATOM      5  C4  UNL d   1      -4.338  -0.664   5.866  0.00  0.00     0.048 A 
ATOM      6  C5  UNL d   1      -5.313  -1.451   5.250  0.00  0.00     0.003 A 
ATOM      7  I   UNL d   1      -1.999   1.250   5.995  0.00  0.00    -0.146 I 
ENDROOT
TORSDOF 0
ENDMDL
