MODEL 1
REMARK minimizedAffinity 9.34113026
REMARK minimizedRMSD -1
REMARK  0 active torsions:
REMARK  status: ('A' for Active; 'I' for Inactive)
ROOT
ATOM      1  C   UNL d   1      -1.177  -1.396   1.100  0.00  0.00     0.023 A 
ATOM      2  C1  UNL d   1      -0.359  -0.518   1.812  0.00  0.00     0.003 A 
ATOM      3  C2  UNL d   1      -0.835   0.096   2.972  0.00  0.00     0.048 A 
ATOM      4  C3  UNL d   1      -2.130  -0.173   3.416  0.00  0.00     0.023 A 
ATOM      5  C4  UNL d   1      -2.951  -1.052   2.707  0.00  0.00     0.048 A 
ATOM      6  C5  UNL d   1      -2.471  -1.662   1.547  0.00  0.00     0.003 A 
ATOM      7  I   UNL d   1      -2.841   0.739   5.142  0.00  0.00    -0.146 I 
ENDROOT
TORSDOF 0
ENDMDL
