MODEL 1
REMARK minimizedAffinity 2.30397058
REMARK minimizedRMSD -1
REMARK  0 active torsions:
REMARK  status: ('A' for Active; 'I' for Inactive)
ROOT
ATOM      1  C   UNL d   1      -0.254   4.748  -4.992  0.00  0.00     0.023 A 
ATOM      2  C1  UNL d   1      -1.016   5.343  -5.998  0.00  0.00     0.003 A 
ATOM      3  C2  UNL d   1      -2.342   5.703  -5.750  0.00  0.00     0.048 A 
ATOM      4  C3  UNL d   1      -2.900   5.465  -4.495  0.00  0.00     0.023 A 
ATOM      5  C4  UNL d   1      -2.141   4.871  -3.485  0.00  0.00     0.048 A 
ATOM      6  C5  UNL d   1      -0.816   4.512  -3.738  0.00  0.00     0.003 A 
ATOM      7  I   UNL d   1      -4.874   6.000  -4.124  0.00  0.00    -0.146 I 
ENDROOT
TORSDOF 0
ENDMDL
