MODEL 1
REMARK minimizedAffinity 6.26865292
REMARK minimizedRMSD -1
REMARK  0 active torsions:
REMARK  status: ('A' for Active; 'I' for Inactive)
ROOT
ATOM      1  C   UNL d   1       5.998   4.128   1.010  0.00  0.00     0.023 A 
ATOM      2  C1  UNL d   1       4.908   4.243   1.872  0.00  0.00     0.003 A 
ATOM      3  C2  UNL d   1       3.816   3.383   1.738  0.00  0.00     0.048 A 
ATOM      4  C3  UNL d   1       3.821   2.409   0.741  0.00  0.00     0.023 A 
ATOM      5  C4  UNL d   1       4.911   2.288  -0.124  0.00  0.00     0.048 A 
ATOM      6  C5  UNL d   1       5.999   3.151   0.013  0.00  0.00     0.003 A 
ATOM      7  I   UNL d   1       2.198   1.127   0.540  0.00  0.00    -0.146 I 
ENDROOT
TORSDOF 0
ENDMDL
