MODEL 1
REMARK minimizedAffinity 9.94525242
REMARK minimizedRMSD -1
REMARK  0 active torsions:
REMARK  status: ('A' for Active; 'I' for Inactive)
ROOT
ATOM      1  C   UNL d   1       0.183  -2.704   4.600  0.00  0.00     0.023 A 
ATOM      2  C1  UNL d   1      -0.268  -1.674   5.426  0.00  0.00     0.003 A 
ATOM      3  C2  UNL d   1      -0.961  -0.592   4.879  0.00  0.00     0.048 A 
ATOM      4  C3  UNL d   1      -1.202  -0.547   3.506  0.00  0.00     0.023 A 
ATOM      5  C4  UNL d   1      -0.754  -1.576   2.677  0.00  0.00     0.048 A 
ATOM      6  C5  UNL d   1      -0.060  -2.655   3.227  0.00  0.00     0.003 A 
ATOM      7  I   UNL d   1      -2.234   1.062   2.691  0.00  0.00    -0.146 I 
ENDROOT
TORSDOF 0
ENDMDL
