MODEL 1
REMARK minimizedAffinity 13.3029013
REMARK minimizedRMSD -1
REMARK  0 active torsions:
REMARK  status: ('A' for Active; 'I' for Inactive)
ROOT
ATOM      1  C   UNL d   1       3.155  -0.025  -3.406  0.00  0.00     0.023 A 
ATOM      2  C1  UNL d   1       4.114   0.159  -2.410  0.00  0.00     0.003 A 
ATOM      3  C2  UNL d   1       4.143   1.348  -1.678  0.00  0.00     0.048 A 
ATOM      4  C3  UNL d   1       3.208   2.348  -1.946  0.00  0.00     0.023 A 
ATOM      5  C4  UNL d   1       2.246   2.167  -2.940  0.00  0.00     0.048 A 
ATOM      6  C5  UNL d   1       2.222   0.977  -3.670  0.00  0.00     0.003 A 
ATOM      7  I   UNL d   1       3.249   4.118  -0.857  0.00  0.00    -0.146 I 
ENDROOT
TORSDOF 0
ENDMDL
