MODEL 1
REMARK minimizedAffinity 3.95560169
REMARK minimizedRMSD -1
REMARK  0 active torsions:
REMARK  status: ('A' for Active; 'I' for Inactive)
ROOT
ATOM      1  C   UNL d   1       6.000  -5.116   0.048  0.00  0.00     0.023 A 
ATOM      2  C1  UNL d   1       4.917  -5.992   0.125  0.00  0.00     0.003 A 
ATOM      3  C2  UNL d   1       3.612  -5.499   0.045  0.00  0.00     0.048 A 
ATOM      4  C3  UNL d   1       3.399  -4.130  -0.112  0.00  0.00     0.023 A 
ATOM      5  C4  UNL d   1       4.479  -3.251  -0.190  0.00  0.00     0.048 A 
ATOM      6  C5  UNL d   1       5.782  -3.747  -0.109  0.00  0.00     0.003 A 
ATOM      7  I   UNL d   1       1.458  -3.395  -0.231  0.00  0.00    -0.146 I 
ENDROOT
TORSDOF 0
ENDMDL
