MODEL 1
REMARK minimizedAffinity 4.25185728
REMARK minimizedRMSD -1
REMARK  0 active torsions:
REMARK  status: ('A' for Active; 'I' for Inactive)
ROOT
ATOM      1  C   UNL d   1      -1.709   1.702   3.235  0.00  0.00     0.023 A 
ATOM      2  C1  UNL d   1      -2.146   2.786   2.473  0.00  0.00     0.003 A 
ATOM      3  C2  UNL d   1      -2.971   2.577   1.366  0.00  0.00     0.048 A 
ATOM      4  C3  UNL d   1      -3.356   1.280   1.027  0.00  0.00     0.023 A 
ATOM      5  C4  UNL d   1      -2.922   0.192   1.786  0.00  0.00     0.048 A 
ATOM      6  C5  UNL d   1      -2.097   0.407   2.891  0.00  0.00     0.003 A 
ATOM      7  I   UNL d   1      -4.584   0.965  -0.621  0.00  0.00    -0.146 I 
ENDROOT
TORSDOF 0
ENDMDL
