MODEL 1
REMARK minimizedAffinity 4.92774439
REMARK minimizedRMSD -1
REMARK  0 active torsions:
REMARK  status: ('A' for Active; 'I' for Inactive)
ROOT
ATOM      1  C   UNL d   1       1.639  -2.436   0.266  0.00  0.00     0.023 A 
ATOM      2  C1  UNL d   1       1.232  -3.760   0.105  0.00  0.00     0.003 A 
ATOM      3  C2  UNL d   1       2.181  -4.784   0.061  0.00  0.00     0.048 A 
ATOM      4  C3  UNL d   1       3.536  -4.475   0.179  0.00  0.00     0.023 A 
ATOM      5  C4  UNL d   1       3.948  -3.152   0.341  0.00  0.00     0.048 A 
ATOM      6  C5  UNL d   1       2.996  -2.132   0.384  0.00  0.00     0.003 A 
ATOM      7  I   UNL d   1       4.951  -5.997   0.114  0.00  0.00    -0.146 I 
ENDROOT
TORSDOF 0
ENDMDL
