MODEL 1
REMARK minimizedAffinity 9.18934536
REMARK minimizedRMSD -1
REMARK  0 active torsions:
REMARK  status: ('A' for Active; 'I' for Inactive)
ROOT
ATOM      1  C   UNL d   1       2.952  -1.599  -0.140  0.00  0.00     0.023 A 
ATOM      2  C1  UNL d   1       2.183  -2.737  -0.382  0.00  0.00     0.003 A 
ATOM      3  C2  UNL d   1       2.776  -4.001  -0.351  0.00  0.00     0.048 A 
ATOM      4  C3  UNL d   1       4.138  -4.119  -0.076  0.00  0.00     0.023 A 
ATOM      5  C4  UNL d   1       4.911  -2.983   0.167  0.00  0.00     0.048 A 
ATOM      6  C5  UNL d   1       4.314  -1.721   0.134  0.00  0.00     0.003 A 
ATOM      7  I   UNL d   1       5.023  -5.999  -0.029  0.00  0.00    -0.146 I 
ENDROOT
TORSDOF 0
ENDMDL
