MODEL 1
REMARK minimizedAffinity 4.33602142
REMARK minimizedRMSD -1
REMARK  0 active torsions:
REMARK  status: ('A' for Active; 'I' for Inactive)
ROOT
ATOM      1  C   UNL d   1       1.476  -2.565   0.617  0.00  0.00     0.023 A 
ATOM      2  C1  UNL d   1       2.784  -2.195   0.303  0.00  0.00     0.003 A 
ATOM      3  C2  UNL d   1       3.760  -3.175   0.107  0.00  0.00     0.048 A 
ATOM      4  C3  UNL d   1       3.421  -4.522   0.225  0.00  0.00     0.023 A 
ATOM      5  C4  UNL d   1       2.113  -4.897   0.539  0.00  0.00     0.048 A 
ATOM      6  C5  UNL d   1       1.141  -3.914   0.735  0.00  0.00     0.003 A 
ATOM      7  I   UNL d   1       4.871  -5.982  -0.066  0.00  0.00    -0.146 I 
ENDROOT
TORSDOF 0
ENDMDL
