MODEL 1
REMARK minimizedAffinity 3.82464147
REMARK minimizedRMSD -1
REMARK  0 active torsions:
REMARK  status: ('A' for Active; 'I' for Inactive)
ROOT
ATOM      1  C   UNL d   1       2.650  -2.458   0.157  0.00  0.00     0.023 A 
ATOM      2  C1  UNL d   1       4.003  -2.154   0.007  0.00  0.00     0.003 A 
ATOM      3  C2  UNL d   1       4.959  -3.170   0.074  0.00  0.00     0.048 A 
ATOM      4  C3  UNL d   1       4.555  -4.487   0.290  0.00  0.00     0.023 A 
ATOM      5  C4  UNL d   1       3.202  -4.795   0.440  0.00  0.00     0.048 A 
ATOM      6  C5  UNL d   1       2.250  -3.777   0.373  0.00  0.00     0.003 A 
ATOM      7  I   UNL d   1       5.977  -6.000   0.390  0.00  0.00    -0.146 I 
ENDROOT
TORSDOF 0
ENDMDL
