MODEL 1
REMARK minimizedAffinity 0.0561525561
REMARK minimizedRMSD -1
REMARK  0 active torsions:
REMARK  status: ('A' for Active; 'I' for Inactive)
ROOT
ATOM      1  C   UNL d   1      -5.389  -4.954   5.996  0.00  0.00     0.023 A 
ATOM      2  C1  UNL d   1      -5.743  -3.741   5.404  0.00  0.00     0.003 A 
ATOM      3  C2  UNL d   1      -5.613  -3.572   4.025  0.00  0.00     0.048 A 
ATOM      4  C3  UNL d   1      -5.129  -4.619   3.242  0.00  0.00     0.023 A 
ATOM      5  C4  UNL d   1      -4.774  -5.835   3.829  0.00  0.00     0.048 A 
ATOM      6  C5  UNL d   1      -4.905  -6.000   5.209  0.00  0.00     0.003 A 
ATOM      7  I   UNL d   1      -4.935  -4.370   1.188  0.00  0.00    -0.146 I 
ENDROOT
TORSDOF 0
ENDMDL
