MODEL 1
REMARK minimizedAffinity 5.07471275
REMARK minimizedRMSD -1
REMARK  0 active torsions:
REMARK  status: ('A' for Active; 'I' for Inactive)
ROOT
ATOM      1  C   UNL d   1       3.267   4.253   1.046  0.00  0.00     0.023 A 
ATOM      2  C1  UNL d   1       2.310   3.240   1.119  0.00  0.00     0.003 A 
ATOM      3  C2  UNL d   1       2.197   2.309   0.084  0.00  0.00     0.048 A 
ATOM      4  C3  UNL d   1       3.044   2.396  -1.020  0.00  0.00     0.023 A 
ATOM      5  C4  UNL d   1       4.004   3.407  -1.097  0.00  0.00     0.048 A 
ATOM      6  C5  UNL d   1       4.113   4.336  -0.060  0.00  0.00     0.003 A 
ATOM      7  I   UNL d   1       2.877   1.012  -2.562  0.00  0.00    -0.146 I 
ENDROOT
TORSDOF 0
ENDMDL
