MODEL 1
REMARK minimizedAffinity 1.65204215
REMARK minimizedRMSD -1
REMARK  0 active torsions:
REMARK  status: ('A' for Active; 'I' for Inactive)
ROOT
ATOM      1  C1  BNZ d   1      -1.793   0.389   3.768  0.00  0.00     0.000 A 
ATOM      2  C2  BNZ d   1      -0.571  -0.169   4.035  0.00  0.00     0.000 A 
ATOM      3  C3  BNZ d   1      -0.235  -1.392   3.527  0.00  0.00     0.000 A 
ATOM      4  C4  BNZ d   1      -1.133  -2.073   2.786  0.00  0.00     0.000 A 
ATOM      5  C5  BNZ d   1      -2.372  -1.527   2.516  0.00  0.00     0.000 A 
ATOM      6  C6  BNZ d   1      -2.693  -0.279   2.997  0.00  0.00     0.000 A 
ENDROOT
TORSDOF 0
ENDMDL
