MODEL 1
REMARK minimizedAffinity 1.06300902
REMARK minimizedRMSD -1
REMARK  0 active torsions:
REMARK  status: ('A' for Active; 'I' for Inactive)
ROOT
ATOM      1  C1  BNZ d   1       0.394  -3.357   2.503  0.00  0.00     0.000 A 
ATOM      2  C2  BNZ d   1       1.031  -4.567   2.565  0.00  0.00     0.000 A 
ATOM      3  C3  BNZ d   1       2.239  -4.755   1.954  0.00  0.00     0.000 A 
ATOM      4  C4  BNZ d   1       2.788  -3.745   1.248  0.00  0.00     0.000 A 
ATOM      5  C5  BNZ d   1       2.153  -2.522   1.167  0.00  0.00     0.000 A 
ATOM      6  C6  BNZ d   1       0.956  -2.325   1.817  0.00  0.00     0.000 A 
ENDROOT
TORSDOF 0
ENDMDL
