MODEL 1
REMARK minimizedAffinity 4.38942003
REMARK minimizedRMSD -1
REMARK  0 active torsions:
REMARK  status: ('A' for Active; 'I' for Inactive)
ROOT
ATOM      1  C1  BNZ d   1       4.549  -4.884  -0.452  0.00  0.00     0.000 A 
ATOM      2  C2  BNZ d   1       3.200  -4.883  -0.217  0.00  0.00     0.000 A 
ATOM      3  C3  BNZ d   1       2.660  -4.094   0.760  0.00  0.00     0.000 A 
ATOM      4  C4  BNZ d   1       3.473  -3.338   1.526  0.00  0.00     0.000 A 
ATOM      5  C5  BNZ d   1       4.837  -3.335   1.307  0.00  0.00     0.000 A 
ATOM      6  C6  BNZ d   1       5.372  -4.102   0.298  0.00  0.00     0.000 A 
ENDROOT
TORSDOF 0
ENDMDL
