MODEL 1
REMARK minimizedAffinity 1.10290408
REMARK minimizedRMSD -1
REMARK  0 active torsions:
REMARK  status: ('A' for Active; 'I' for Inactive)
ROOT
ATOM      1  C1  BNZ d   1       1.496  -3.875   1.490  0.00  0.00     0.000 A 
ATOM      2  C2  BNZ d   1       0.364  -3.119   1.643  0.00  0.00     0.000 A 
ATOM      3  C3  BNZ d   1       0.348  -2.046   2.490  0.00  0.00     0.000 A 
ATOM      4  C4  BNZ d   1       1.449  -1.755   3.211  0.00  0.00     0.000 A 
ATOM      5  C5  BNZ d   1       2.595  -2.513   3.076  0.00  0.00     0.000 A 
ATOM      6  C6  BNZ d   1       2.620  -3.569   2.194  0.00  0.00     0.000 A 
ENDROOT
TORSDOF 0
ENDMDL
