MODEL 1
REMARK minimizedAffinity 6.2062788
REMARK minimizedRMSD -1
REMARK  1 active torsions:
REMARK  status: ('A' for Active; 'I' for Inactive)
REMARK    1  A    between atoms: C1_2  and  C2_3 
ROOT
ATOM      1  C2  UNL d   1      -0.759   4.508  -0.030  0.00  0.00    -0.081 A 
ATOM      2  C3  UNL d   1      -0.804   4.044  -1.350  0.00  0.00     0.006 A 
ATOM      3  C4  UNL d   1      -0.503   2.712  -1.644  0.00  0.00     0.002 A 
ATOM      4  C5  UNL d   1      -0.159   1.820  -0.622  0.00  0.00    -0.080 A 
ATOM      5  C6  UNL d   1       0.138   0.380  -0.920  0.00  0.00     0.076 C 
ATOM      6  C7  UNL d   1      -0.096   2.288   0.695  0.00  0.00     0.002 A 
ATOM      7  C8  UNL d   1      -0.397   3.619   0.989  0.00  0.00     0.006 A 
ENDROOT
BRANCH   1   8
ATOM      8  C1  UNL d   1      -1.146   5.927   0.297  0.00  0.00     0.054 C 
ATOM      9  C   UNL d   1      -2.560   6.000   0.855  0.00  0.00     0.018 C 
ENDBRANCH   1   8
TORSDOF 1
ENDMDL
