MODEL 1
REMARK minimizedAffinity 6.69332314
REMARK minimizedRMSD -1
REMARK  1 active torsions:
REMARK  status: ('A' for Active; 'I' for Inactive)
REMARK    1  A    between atoms: C1_2  and  C2_3 
ROOT
ATOM      1  C2  UNL d   1       4.012  -3.758  -1.503  0.00  0.00    -0.081 A 
ATOM      2  C3  UNL d   1       3.167  -3.161  -0.559  0.00  0.00     0.006 A 
ATOM      3  C4  UNL d   1       2.103  -3.880  -0.007  0.00  0.00     0.002 A 
ATOM      4  C5  UNL d   1       1.873  -5.207  -0.382  0.00  0.00    -0.080 A 
ATOM      5  C6  UNL d   1       0.753  -5.999   0.225  0.00  0.00     0.076 C 
ATOM      6  C7  UNL d   1       2.707  -5.798  -1.338  0.00  0.00     0.002 A 
ATOM      7  C8  UNL d   1       3.769  -5.080  -1.891  0.00  0.00     0.006 A 
ENDROOT
BRANCH   1   8
ATOM      8  C1  UNL d   1       5.198  -3.007  -2.052  0.00  0.00     0.054 C 
ATOM      9  C   UNL d   1       5.025  -1.504  -1.891  0.00  0.00     0.018 C 
ENDBRANCH   1   8
TORSDOF 1
ENDMDL
