MODEL 1
REMARK minimizedAffinity 5.32672453
REMARK minimizedRMSD -1
REMARK  1 active torsions:
REMARK  status: ('A' for Active; 'I' for Inactive)
REMARK    1  A    between atoms: C1_2  and  C2_3 
ROOT
ATOM      1  C2  UNL d   1       0.141   2.684   2.073  0.00  0.00    -0.081 A 
ATOM      2  C3  UNL d   1       1.014   3.692   1.646  0.00  0.00     0.006 A 
ATOM      3  C4  UNL d   1       0.984   4.141   0.323  0.00  0.00     0.002 A 
ATOM      4  C5  UNL d   1       0.076   3.597  -0.591  0.00  0.00    -0.080 A 
ATOM      5  C6  UNL d   1       0.013   4.092  -2.005  0.00  0.00     0.076 C 
ATOM      6  C7  UNL d   1      -0.784   2.577  -0.169  0.00  0.00     0.002 A 
ATOM      7  C8  UNL d   1      -0.754   2.127   1.153  0.00  0.00     0.006 A 
ENDROOT
BRANCH   1   8
ATOM      8  C1  UNL d   1       0.127   2.242   3.514  0.00  0.00     0.054 C 
ATOM      9  C   UNL d   1      -0.147   0.749   3.632  0.00  0.00     0.018 C 
ENDBRANCH   1   8
TORSDOF 1
ENDMDL
