MODEL 1
REMARK minimizedAffinity 1.94222558
REMARK minimizedRMSD -1
REMARK  1 active torsions:
REMARK  status: ('A' for Active; 'I' for Inactive)
REMARK    1  A    between atoms: C1_2  and  C2_3 
ROOT
ATOM      1  C2  UNL d   1      -1.072   2.335   0.476  0.00  0.00    -0.081 A 
ATOM      2  C3  UNL d   1      -0.265   3.469   0.318  0.00  0.00     0.006 A 
ATOM      3  C4  UNL d   1       0.660   3.823   1.303  0.00  0.00     0.002 A 
ATOM      4  C5  UNL d   1       0.800   3.046   2.458  0.00  0.00    -0.080 A 
ATOM      5  C6  UNL d   1       1.810   3.398   3.508  0.00  0.00     0.076 C 
ATOM      6  C7  UNL d   1      -0.018   1.923   2.624  0.00  0.00     0.002 A 
ATOM      7  C8  UNL d   1      -0.944   1.569   1.640  0.00  0.00     0.006 A 
ENDROOT
BRANCH   1   8
ATOM      8  C1  UNL d   1      -2.025   1.914  -0.613  0.00  0.00     0.054 C 
ATOM      9  C   UNL d   1      -3.420   1.662  -0.060  0.00  0.00     0.018 C 
ENDBRANCH   1   8
TORSDOF 1
ENDMDL
