MODEL 1
REMARK minimizedAffinity 13.8950977
REMARK minimizedRMSD -1
REMARK  1 active torsions:
REMARK  status: ('A' for Active; 'I' for Inactive)
REMARK    1  A    between atoms: C1_2  and  C2_3 
ROOT
ATOM      1  C2  UNL d   1      -0.853   2.573  -1.095  0.00  0.00    -0.081 A 
ATOM      2  C3  UNL d   1      -2.205   2.630  -1.455  0.00  0.00     0.006 A 
ATOM      3  C4  UNL d   1      -2.964   1.460  -1.542  0.00  0.00     0.002 A 
ATOM      4  C5  UNL d   1      -2.386   0.217  -1.264  0.00  0.00    -0.080 A 
ATOM      5  C6  UNL d   1      -3.197  -1.043  -1.325  0.00  0.00     0.076 C 
ATOM      6  C7  UNL d   1      -1.031   0.158  -0.921  0.00  0.00     0.002 A 
ATOM      7  C8  UNL d   1      -0.272   1.327  -0.834  0.00  0.00     0.006 A 
ENDROOT
BRANCH   1   8
ATOM      8  C1  UNL d   1      -0.048   3.838  -0.937  0.00  0.00     0.054 C 
ATOM      9  C   UNL d   1       0.390   4.038   0.507  0.00  0.00     0.018 C 
ENDBRANCH   1   8
TORSDOF 1
ENDMDL
