MODEL 1
REMARK minimizedAffinity 9.12440681
REMARK minimizedRMSD -1
REMARK  1 active torsions:
REMARK  status: ('A' for Active; 'I' for Inactive)
REMARK    1  A    between atoms: C1_2  and  C2_3 
ROOT
ATOM      1  C2  UNL d   1      -0.007   2.716   1.537  0.00  0.00    -0.081 A 
ATOM      2  C3  UNL d   1      -0.505   1.913   0.503  0.00  0.00     0.006 A 
ATOM      3  C4  UNL d   1      -0.804   2.469  -0.743  0.00  0.00     0.002 A 
ATOM      4  C5  UNL d   1      -0.604   3.833  -0.979  0.00  0.00    -0.080 A 
ATOM      5  C6  UNL d   1      -0.892   4.436  -2.321  0.00  0.00     0.076 C 
ATOM      6  C7  UNL d   1      -0.123   4.638   0.060  0.00  0.00     0.002 A 
ATOM      7  C8  UNL d   1       0.176   4.084   1.306  0.00  0.00     0.006 A 
ENDROOT
BRANCH   1   8
ATOM      8  C1  UNL d   1       0.378   2.108   2.862  0.00  0.00     0.054 C 
ATOM      9  C   UNL d   1       1.491   2.901   3.532  0.00  0.00     0.018 C 
ENDBRANCH   1   8
TORSDOF 1
ENDMDL
