MODEL 1
REMARK minimizedAffinity 2.19131207
REMARK minimizedRMSD -1
REMARK  1 active torsions:
REMARK  status: ('A' for Active; 'I' for Inactive)
REMARK    1  A    between atoms: C1_2  and  C2_3 
ROOT
ATOM      1  C2  UNL d   1       0.189   1.040   3.026  0.00  0.00    -0.081 A 
ATOM      2  C3  UNL d   1       1.057   0.847   1.945  0.00  0.00     0.006 A 
ATOM      3  C4  UNL d   1       1.046   1.730   0.862  0.00  0.00     0.002 A 
ATOM      4  C5  UNL d   1       0.174   2.824   0.847  0.00  0.00    -0.080 A 
ATOM      5  C6  UNL d   1       0.174   3.796  -0.295  0.00  0.00     0.076 C 
ATOM      6  C7  UNL d   1      -0.706   3.006   1.919  0.00  0.00     0.002 A 
ATOM      7  C8  UNL d   1      -0.696   2.124   3.001  0.00  0.00     0.006 A 
ENDROOT
BRANCH   1   8
ATOM      8  C1  UNL d   1       0.242   0.127   4.224  0.00  0.00     0.054 C 
ATOM      9  C   UNL d   1       1.220  -1.019   4.004  0.00  0.00     0.018 C 
ENDBRANCH   1   8
TORSDOF 1
ENDMDL
