MODEL 1
REMARK minimizedAffinity -2.5149529
REMARK minimizedRMSD -1
REMARK  1 active torsions:
REMARK  status: ('A' for Active; 'I' for Inactive)
REMARK    1  A    between atoms: C1_2  and  C2_3 
ROOT
ATOM      1  C2  UNL d   1       0.372   0.703   1.388  0.00  0.00    -0.077 A 
ATOM      2  C3  UNL d   1      -0.374   0.617   0.204  0.00  0.00     0.002 A 
ATOM      3  C4  UNL d   1       0.084  -0.157  -0.864  0.00  0.00     0.002 A 
ATOM      4  C5  UNL d   1       1.286  -0.853  -0.757  0.00  0.00    -0.004 A 
ATOM      5  C6  UNL d   1       2.036  -0.772   0.416  0.00  0.00     0.002 A 
ATOM      6  C7  UNL d   1       1.580   0.002   1.484  0.00  0.00     0.002 A 
ENDROOT
BRANCH   1   7
ATOM      7  C1  UNL d   1      -0.145   1.498   2.559  0.00  0.00     0.055 C 
ATOM      8  C   UNL d   1      -1.240   0.744   3.300  0.00  0.00     0.019 C 
ENDBRANCH   1   7
TORSDOF 1
ENDMDL
