MODEL 1
REMARK minimizedAffinity -4.66667032
REMARK minimizedRMSD -1
REMARK  1 active torsions:
REMARK  status: ('A' for Active; 'I' for Inactive)
REMARK    1  A    between atoms: C1_2  and  C2_3 
ROOT
ATOM      1  C2  UNL d   1      -0.007  -0.240  -0.373  0.00  0.00    -0.077 A 
ATOM      2  C3  UNL d   1       0.607   0.574   0.589  0.00  0.00     0.002 A 
ATOM      3  C4  UNL d   1      -0.161   1.235   1.549  0.00  0.00     0.002 A 
ATOM      4  C5  UNL d   1      -1.546   1.087   1.558  0.00  0.00    -0.004 A 
ATOM      5  C6  UNL d   1      -2.167   0.282   0.604  0.00  0.00     0.002 A 
ATOM      6  C7  UNL d   1      -1.401  -0.379  -0.357  0.00  0.00     0.002 A 
ENDROOT
BRANCH   1   7
ATOM      7  C1  UNL d   1       0.824  -0.993  -1.379  0.00  0.00     0.055 C 
ATOM      8  C   UNL d   1       1.186  -0.115  -2.568  0.00  0.00     0.019 C 
ENDBRANCH   1   7
TORSDOF 1
ENDMDL
