MODEL 1
REMARK minimizedAffinity -2.19150829
REMARK minimizedRMSD -1
REMARK  1 active torsions:
REMARK  status: ('A' for Active; 'I' for Inactive)
REMARK    1  A    between atoms: C1_2  and  C2_3 
ROOT
ATOM      1  C2  UNL d   1      -0.092  -0.009  -0.367  0.00  0.00    -0.077 A 
ATOM      2  C3  UNL d   1       0.933   0.426   0.486  0.00  0.00     0.002 A 
ATOM      3  C4  UNL d   1       0.627   1.040   1.702  0.00  0.00     0.002 A 
ATOM      4  C5  UNL d   1      -0.702   1.220   2.079  0.00  0.00    -0.004 A 
ATOM      5  C6  UNL d   1      -1.729   0.792   1.237  0.00  0.00     0.002 A 
ATOM      6  C7  UNL d   1      -1.425   0.180   0.021  0.00  0.00     0.002 A 
ENDROOT
BRANCH   1   7
ATOM      7  C1  UNL d   1       0.236  -0.715  -1.656  0.00  0.00     0.055 C 
ATOM      8  C   UNL d   1       0.790   0.253  -2.692  0.00  0.00     0.019 C 
ENDBRANCH   1   7
TORSDOF 1
ENDMDL
