MODEL 1
REMARK minimizedAffinity -3.52296615
REMARK minimizedRMSD -1
REMARK  1 active torsions:
REMARK  status: ('A' for Active; 'I' for Inactive)
REMARK    1  A    between atoms: C1_2  and  C2_3 
ROOT
ATOM      1  C2  UNL d   1      -1.967   0.122   2.161  0.00  0.00    -0.077 A 
ATOM      2  C3  UNL d   1      -1.659   0.031   0.796  0.00  0.00     0.002 A 
ATOM      3  C4  UNL d   1      -0.553   0.705   0.276  0.00  0.00     0.002 A 
ATOM      4  C5  UNL d   1       0.257   1.469   1.113  0.00  0.00    -0.004 A 
ATOM      5  C6  UNL d   1      -0.042   1.568   2.471  0.00  0.00     0.002 A 
ATOM      6  C7  UNL d   1      -1.148   0.896   2.993  0.00  0.00     0.002 A 
ENDROOT
BRANCH   1   7
ATOM      7  C1  UNL d   1      -3.131  -0.644   2.734  0.00  0.00     0.055 C 
ATOM      8  C   UNL d   1      -2.689  -1.558   3.867  0.00  0.00     0.019 C 
ENDBRANCH   1   7
TORSDOF 1
ENDMDL
