MODEL 1
REMARK minimizedAffinity -5.16253042
REMARK minimizedRMSD -1
REMARK  1 active torsions:
REMARK  status: ('A' for Active; 'I' for Inactive)
REMARK    1  A    between atoms: C1_2  and  C2_3 
ROOT
ATOM      1  C2  UNL d   1      -0.212   0.157  -0.011  0.00  0.00    -0.077 A 
ATOM      2  C3  UNL d   1       0.645   0.886   0.825  0.00  0.00     0.002 A 
ATOM      3  C4  UNL d   1       0.180   1.403   2.036  0.00  0.00     0.002 A 
ATOM      4  C5  UNL d   1      -1.142   1.194   2.423  0.00  0.00    -0.004 A 
ATOM      5  C6  UNL d   1      -2.003   0.472   1.597  0.00  0.00     0.002 A 
ATOM      6  C7  UNL d   1      -1.540  -0.044   0.386  0.00  0.00     0.002 A 
ENDROOT
BRANCH   1   7
ATOM      7  C1  UNL d   1       0.300  -0.444  -1.294  0.00  0.00     0.055 C 
ATOM      8  C   UNL d   1       0.908   0.619  -2.198  0.00  0.00     0.019 C 
ENDBRANCH   1   7
TORSDOF 1
ENDMDL
