MODEL 1
REMARK minimizedAffinity -2.54782867
REMARK minimizedRMSD -1
REMARK  1 active torsions:
REMARK  status: ('A' for Active; 'I' for Inactive)
REMARK    1  A    between atoms: C1_2  and  C2_3 
ROOT
ATOM      1  C2  UNL d   1      -0.787   0.165   2.447  0.00  0.00    -0.077 A 
ATOM      2  C3  UNL d   1      -0.257   1.399   2.847  0.00  0.00     0.002 A 
ATOM      3  C4  UNL d   1       0.383   2.226   1.922  0.00  0.00     0.002 A 
ATOM      4  C5  UNL d   1       0.496   1.829   0.591  0.00  0.00    -0.004 A 
ATOM      5  C6  UNL d   1      -0.026   0.602   0.184  0.00  0.00     0.002 A 
ATOM      6  C7  UNL d   1      -0.666  -0.226   1.108  0.00  0.00     0.002 A 
ENDROOT
BRANCH   1   7
ATOM      7  C1  UNL d   1      -1.522  -0.706   3.433  0.00  0.00     0.055 C 
ATOM      8  C   UNL d   1      -2.952  -0.966   2.984  0.00  0.00     0.019 C 
ENDBRANCH   1   7
TORSDOF 1
ENDMDL
