MODEL 1
REMARK minimizedAffinity -5.32072592
REMARK minimizedRMSD -1
REMARK  0 active torsions:
REMARK  status: ('A' for Active; 'I' for Inactive)
ROOT
ATOM      1  C4' PXY d   1      -0.409  -1.827  -0.658  0.00  0.00     0.077 C 
ATOM      2  C1' PXY d   1       2.766   2.580   1.319  0.00  0.00     0.077 C 
ATOM      3  C1  PXY d   1       1.944   1.418   0.798  0.00  0.00    -0.082 A 
ATOM      4  C2  PXY d   1       0.695   1.621   0.412  0.00  0.00     0.003 A 
ATOM      5  C3  PXY d   1      -0.073   0.576  -0.032  0.00  0.00     0.003 A 
ATOM      6  C4  PXY d   1       0.461  -0.681  -0.133  0.00  0.00    -0.082 A 
ATOM      7  C5  PXY d   1       1.738  -0.895   0.248  0.00  0.00     0.003 A 
ATOM      8  C6  PXY d   1       2.487   0.172   0.735  0.00  0.00     0.003 A 
ENDROOT
TORSDOF 0
ENDMDL
