MODEL 1
REMARK minimizedAffinity 5.16021967
REMARK minimizedRMSD -1
REMARK  0 active torsions:
REMARK  status: ('A' for Active; 'I' for Inactive)
ROOT
ATOM      1  C4' PXY d   1       1.104   1.523   0.448  0.00  0.00     0.077 C 
ATOM      2  C1' PXY d   1      -1.105  -3.650  -0.885  0.00  0.00     0.077 C 
ATOM      3  C1  PXY d   1      -0.518  -2.299  -0.527  0.00  0.00    -0.082 A 
ATOM      4  C2  PXY d   1      -1.222  -1.200  -0.748  0.00  0.00     0.003 A 
ATOM      5  C3  PXY d   1      -0.693   0.032  -0.459  0.00  0.00     0.003 A 
ATOM      6  C4  PXY d   1       0.547   0.137   0.111  0.00  0.00    -0.082 A 
ATOM      7  C5  PXY d   1       1.267  -0.979   0.349  0.00  0.00     0.003 A 
ATOM      8  C6  PXY d   1       0.729  -2.218   0.011  0.00  0.00     0.003 A 
ENDROOT
TORSDOF 0
ENDMDL
