MODEL 1
REMARK minimizedAffinity -2.67220449
REMARK minimizedRMSD -1
REMARK  0 active torsions:
REMARK  status: ('A' for Active; 'I' for Inactive)
ROOT
ATOM      1  C4' PXY d   1       1.949   1.076   0.987  0.00  0.00     0.077 C 
ATOM      2  C1' PXY d   1       3.892  -3.276  -2.284  0.00  0.00     0.077 C 
ATOM      3  C1  PXY d   1       3.394  -2.129  -1.428  0.00  0.00    -0.082 A 
ATOM      4  C2  PXY d   1       2.438  -2.343  -0.538  0.00  0.00     0.003 A 
ATOM      5  C3  PXY d   1       1.953  -1.310   0.222  0.00  0.00     0.003 A 
ATOM      6  C4  PXY d   1       2.489  -0.055   0.107  0.00  0.00    -0.082 A 
ATOM      7  C5  PXY d   1       3.472   0.170  -0.791  0.00  0.00     0.003 A 
ATOM      8  C6  PXY d   1       3.921  -0.884  -1.582  0.00  0.00     0.003 A 
ENDROOT
TORSDOF 0
ENDMDL
