MODEL 1
REMARK minimizedAffinity 5.72781849
REMARK minimizedRMSD -1
REMARK  0 active torsions:
REMARK  status: ('A' for Active; 'I' for Inactive)
ROOT
ATOM      1  C4' PXY d   1      -0.881  -2.043  -3.149  0.00  0.00     0.077 C 
ATOM      2  C1' PXY d   1       0.708  -1.760   2.402  0.00  0.00     0.077 C 
ATOM      3  C1  PXY d   1       0.283  -1.823   0.947  0.00  0.00    -0.082 A 
ATOM      4  C2  PXY d   1       0.356  -2.972   0.295  0.00  0.00     0.003 A 
ATOM      5  C3  PXY d   1       0.007  -3.040  -1.030  0.00  0.00     0.003 A 
ATOM      6  C4  PXY d   1      -0.472  -1.934  -1.678  0.00  0.00    -0.082 A 
ATOM      7  C5  PXY d   1      -0.560  -0.761  -1.016  0.00  0.00     0.003 A 
ATOM      8  C6  PXY d   1      -0.162  -0.703   0.317  0.00  0.00     0.003 A 
ENDROOT
TORSDOF 0
ENDMDL
