MODEL 1
REMARK minimizedAffinity 2.5116787
REMARK minimizedRMSD -1
REMARK  0 active torsions:
REMARK  status: ('A' for Active; 'I' for Inactive)
ROOT
ATOM      1  C4' PXY d   1       0.359   1.890  -0.354  0.00  0.00     0.077 C 
ATOM      2  C1' PXY d   1      -4.729   1.312   2.327  0.00  0.00     0.077 C 
ATOM      3  C1  PXY d   1      -3.391   1.473   1.633  0.00  0.00    -0.082 A 
ATOM      4  C2  PXY d   1      -3.283   1.187   0.346  0.00  0.00     0.003 A 
ATOM      5  C3  PXY d   1      -2.073   1.295  -0.290  0.00  0.00     0.003 A 
ATOM      6  C4  PXY d   1      -0.974   1.752   0.386  0.00  0.00    -0.082 A 
ATOM      7  C5  PXY d   1      -1.078   2.057   1.697  0.00  0.00     0.003 A 
ATOM      8  C6  PXY d   1      -2.306   1.900   2.334  0.00  0.00     0.003 A 
ENDROOT
TORSDOF 0
ENDMDL
