MODEL 1
REMARK minimizedAffinity -0.952774584
REMARK minimizedRMSD -1
REMARK  0 active torsions:
REMARK  status: ('A' for Active; 'I' for Inactive)
ROOT
ATOM      1  C4' PXY d   1      -4.195   0.384   1.553  0.00  0.00     0.077 C 
ATOM      2  C1' PXY d   1       1.195   2.150   0.437  0.00  0.00     0.077 C 
ATOM      3  C1  PXY d   1      -0.220   1.685   0.717  0.00  0.00    -0.082 A 
ATOM      4  C2  PXY d   1      -0.835   2.087   1.817  0.00  0.00     0.003 A 
ATOM      5  C3  PXY d   1      -2.103   1.650   2.102  0.00  0.00     0.003 A 
ATOM      6  C4  PXY d   1      -2.769   0.836   1.225  0.00  0.00    -0.082 A 
ATOM      7  C5  PXY d   1      -2.152   0.430   0.095  0.00  0.00     0.003 A 
ATOM      8  C6  PXY d   1      -0.850   0.852  -0.155  0.00  0.00     0.003 A 
ENDROOT
TORSDOF 0
ENDMDL
