MODEL 1
REMARK minimizedAffinity 1.53460145
REMARK minimizedRMSD -1
REMARK  0 active torsions:
REMARK  status: ('A' for Active; 'I' for Inactive)
ROOT
ATOM      1  C4' PXY d   1      -0.901  -2.643  -2.594  0.00  0.00     0.077 C 
ATOM      2  C1' PXY d   1       0.632   1.643   0.970  0.00  0.00     0.077 C 
ATOM      3  C1  PXY d   1       0.242   0.513   0.037  0.00  0.00    -0.082 A 
ATOM      4  C2  PXY d   1      -0.686   0.717  -0.884  0.00  0.00     0.003 A 
ATOM      5  C3  PXY d   1      -1.074  -0.303  -1.715  0.00  0.00     0.003 A 
ATOM      6  C4  PXY d   1      -0.469  -1.529  -1.637  0.00  0.00    -0.082 A 
ATOM      7  C5  PXY d   1       0.486  -1.741  -0.706  0.00  0.00     0.003 A 
ATOM      8  C6  PXY d   1       0.836  -0.705   0.155  0.00  0.00     0.003 A 
ENDROOT
TORSDOF 0
ENDMDL
