MODEL 1
REMARK minimizedAffinity -3.74266601
REMARK minimizedRMSD -1
REMARK  0 active torsions:
REMARK  status: ('A' for Active; 'I' for Inactive)
ROOT
ATOM      1  C   UNL d   1      -0.720   0.878  -0.454  0.00  0.00     0.172 C 
ATOM      2  N   UNL d   1       0.274  -0.092  -0.062  0.00  0.00    -0.070 N 
ATOM      3  C1  UNL d   1       1.616  -0.009  -0.322  0.00  0.00    -0.004 A 
ATOM      4  C2  UNL d   1       2.220  -1.126   0.216  0.00  0.00    -0.047 A 
ATOM      5  C3  UNL d   1       1.206  -1.907   0.818  0.00  0.00    -0.047 A 
ATOM      6  C4  UNL d   1       0.011  -1.244   0.632  0.00  0.00    -0.004 A 
ENDROOT
TORSDOF 0
ENDMDL
