MODEL 1
REMARK minimizedAffinity -3.53563857
REMARK minimizedRMSD -1
REMARK  0 active torsions:
REMARK  status: ('A' for Active; 'I' for Inactive)
ROOT
ATOM      1  C   UNL d   1       1.239   0.593  -0.714  0.00  0.00     0.172 C 
ATOM      2  N   UNL d   1       0.943  -0.609   0.030  0.00  0.00    -0.070 N 
ATOM      3  C1  UNL d   1       1.862  -1.535   0.448  0.00  0.00    -0.004 A 
ATOM      4  C2  UNL d   1       1.183  -2.527   1.122  0.00  0.00    -0.047 A 
ATOM      5  C3  UNL d   1      -0.190  -2.187   1.107  0.00  0.00    -0.047 A 
ATOM      6  C4  UNL d   1      -0.310  -0.995   0.424  0.00  0.00    -0.004 A 
ENDROOT
TORSDOF 0
ENDMDL
