MODEL 1
REMARK minimizedAffinity -3.01941466
REMARK minimizedRMSD -1
REMARK  0 active torsions:
REMARK  status: ('A' for Active; 'I' for Inactive)
ROOT
ATOM      1  C   UNL d   1       1.406  -2.031   1.088  0.00  0.00     0.172 C 
ATOM      2  N   UNL d   1       0.783  -0.827   0.591  0.00  0.00    -0.070 N 
ATOM      3  C1  UNL d   1       1.409   0.160  -0.122  0.00  0.00    -0.004 A 
ATOM      4  C2  UNL d   1       0.475   1.133  -0.407  0.00  0.00    -0.047 A 
ATOM      5  C3  UNL d   1      -0.755   0.716   0.155  0.00  0.00    -0.047 A 
ATOM      6  C4  UNL d   1      -0.536  -0.500   0.767  0.00  0.00    -0.004 A 
ENDROOT
TORSDOF 0
ENDMDL
