MODEL 1
REMARK minimizedAffinity -3.16968203
REMARK minimizedRMSD -1
REMARK  0 active torsions:
REMARK  status: ('A' for Active; 'I' for Inactive)
ROOT
ATOM      1  C   UNL d   1      -0.701   0.554  -0.185  0.00  0.00     0.172 C 
ATOM      2  N   UNL d   1       0.032  -0.649   0.134  0.00  0.00    -0.070 N 
ATOM      3  C1  UNL d   1      -0.516  -1.885   0.346  0.00  0.00    -0.004 A 
ATOM      4  C2  UNL d   1       0.512  -2.761   0.622  0.00  0.00    -0.047 A 
ATOM      5  C3  UNL d   1       1.719  -2.025   0.575  0.00  0.00    -0.047 A 
ATOM      6  C4  UNL d   1       1.394  -0.720   0.271  0.00  0.00    -0.004 A 
ENDROOT
TORSDOF 0
ENDMDL
