MODEL 1
REMARK minimizedAffinity -2.17156482
REMARK minimizedRMSD -1
REMARK  0 active torsions:
REMARK  status: ('A' for Active; 'I' for Inactive)
ROOT
ATOM      1  C   UNL d   1       1.727  -1.727   0.582  0.00  0.00     0.172 C 
ATOM      2  N   UNL d   1       0.694  -0.733   0.406  0.00  0.00    -0.070 N 
ATOM      3  C1  UNL d   1      -0.523  -0.726   1.033  0.00  0.00    -0.004 A 
ATOM      4  C2  UNL d   1      -1.216   0.383   0.599  0.00  0.00    -0.047 A 
ATOM      5  C3  UNL d   1      -0.386   1.067  -0.321  0.00  0.00    -0.047 A 
ATOM      6  C4  UNL d   1       0.790   0.355  -0.422  0.00  0.00    -0.004 A 
ENDROOT
TORSDOF 0
ENDMDL
