MODEL 1
REMARK minimizedAffinity -4.14963531
REMARK minimizedRMSD -1
REMARK  0 active torsions:
REMARK  status: ('A' for Active; 'I' for Inactive)
ROOT
ATOM      1  C   UNL d   1      -0.709   0.959  -0.528  0.00  0.00     0.172 C 
ATOM      2  N   UNL d   1       0.170  -0.117  -0.133  0.00  0.00    -0.070 N 
ATOM      3  C1  UNL d   1       1.506  -0.202  -0.420  0.00  0.00    -0.004 A 
ATOM      4  C2  UNL d   1       1.982  -1.372   0.131  0.00  0.00    -0.047 A 
ATOM      5  C3  UNL d   1       0.895  -2.012   0.770  0.00  0.00    -0.047 A 
ATOM      6  C4  UNL d   1      -0.215  -1.214   0.591  0.00  0.00    -0.004 A 
ENDROOT
TORSDOF 0
ENDMDL
