MODEL 1
REMARK minimizedAffinity -2.52380633
REMARK minimizedRMSD -1
REMARK  0 active torsions:
REMARK  status: ('A' for Active; 'I' for Inactive)
ROOT
ATOM      1  C   UNL d   1       0.739  -5.157  -5.998  0.00  0.00     0.172 C 
ATOM      2  N   UNL d   1      -0.498  -5.478  -5.326  0.00  0.00    -0.070 N 
ATOM      3  C1  UNL d   1      -1.694  -5.740  -5.939  0.00  0.00    -0.004 A 
ATOM      4  C2  UNL d   1      -2.625  -6.000  -4.956  0.00  0.00    -0.047 A 
ATOM      5  C3  UNL d   1      -1.965  -5.889  -3.709  0.00  0.00    -0.047 A 
ATOM      6  C4  UNL d   1      -0.650  -5.565  -3.968  0.00  0.00    -0.004 A 
ENDROOT
TORSDOF 0
ENDMDL
