MODEL 1
REMARK minimizedAffinity -3.82966113
REMARK minimizedRMSD -1
REMARK  0 active torsions:
REMARK  status: ('A' for Active; 'I' for Inactive)
ROOT
ATOM      1  C   UNL d   1      -0.308   1.038  -0.391  0.00  0.00     0.172 C 
ATOM      2  N   UNL d   1       0.606  -0.063  -0.198  0.00  0.00    -0.070 N 
ATOM      3  C1  UNL d   1       0.388  -1.150   0.607  0.00  0.00    -0.004 A 
ATOM      4  C2  UNL d   1       1.492  -1.969   0.517  0.00  0.00    -0.047 A 
ATOM      5  C3  UNL d   1       2.406  -1.354  -0.371  0.00  0.00    -0.047 A 
ATOM      6  C4  UNL d   1       1.832  -0.175  -0.799  0.00  0.00    -0.004 A 
ENDROOT
TORSDOF 0
ENDMDL
