MODEL 1
REMARK minimizedAffinity -3.60684037
REMARK minimizedRMSD -1
REMARK  0 active torsions:
REMARK  status: ('A' for Active; 'I' for Inactive)
ROOT
ATOM      1  C   UNL d   1      -0.584   0.609  -0.213  0.00  0.00     0.172 C 
ATOM      2  N   UNL d   1       0.430  -0.390   0.029  0.00  0.00    -0.070 N 
ATOM      3  C1  UNL d   1       1.711  -0.360  -0.454  0.00  0.00    -0.004 A 
ATOM      4  C2  UNL d   1       2.360  -1.488   0.000  0.00  0.00    -0.047 A 
ATOM      5  C3  UNL d   1       1.436  -2.221   0.782  0.00  0.00    -0.047 A 
ATOM      6  C4  UNL d   1       0.250  -1.519   0.783  0.00  0.00    -0.004 A 
ENDROOT
TORSDOF 0
ENDMDL
