MODEL 1
REMARK minimizedAffinity -3.69782805
REMARK minimizedRMSD -1
REMARK  0 active torsions:
REMARK  status: ('A' for Active; 'I' for Inactive)
ROOT
ATOM      1  C   UNL d   1      -0.740   0.480  -0.341  0.00  0.00     0.172 C 
ATOM      2  N   UNL d   1       0.132  -0.537   0.199  0.00  0.00    -0.070 N 
ATOM      3  C1  UNL d   1      -0.202  -1.441   1.171  0.00  0.00    -0.004 A 
ATOM      4  C2  UNL d   1       0.899  -2.235   1.406  0.00  0.00    -0.047 A 
ATOM      5  C3  UNL d   1       1.932  -1.792   0.546  0.00  0.00    -0.047 A 
ATOM      6  C4  UNL d   1       1.430  -0.740  -0.190  0.00  0.00    -0.004 A 
ENDROOT
TORSDOF 0
ENDMDL
