MODEL 1
REMARK minimizedAffinity -2.44534731
REMARK minimizedRMSD -1
REMARK  0 active torsions:
REMARK  status: ('A' for Active; 'I' for Inactive)
ROOT
ATOM      1  C   UNL d   1      -0.800   0.756  -0.383  0.00  0.00     0.172 C 
ATOM      2  N   UNL d   1       0.120  -0.284   0.011  0.00  0.00    -0.070 N 
ATOM      3  C1  UNL d   1       1.429  -0.382  -0.380  0.00  0.00    -0.004 A 
ATOM      4  C2  UNL d   1       1.962  -1.508   0.209  0.00  0.00    -0.047 A 
ATOM      5  C3  UNL d   1       0.938  -2.109   0.980  0.00  0.00    -0.047 A 
ATOM      6  C4  UNL d   1      -0.191  -1.330   0.839  0.00  0.00    -0.004 A 
ENDROOT
TORSDOF 0
ENDMDL
