MODEL 1
REMARK minimizedAffinity -3.01400828
REMARK minimizedRMSD -1
REMARK  0 active torsions:
REMARK  status: ('A' for Active; 'I' for Inactive)
ROOT
ATOM      1  C   UNL d   1       1.468  -2.275   0.671  0.00  0.00     0.172 C 
ATOM      2  N   UNL d   1       0.780  -1.044   0.359  0.00  0.00    -0.070 N 
ATOM      3  C1  UNL d   1      -0.522  -0.757   0.669  0.00  0.00    -0.004 A 
ATOM      4  C2  UNL d   1      -0.797   0.510   0.203  0.00  0.00    -0.047 A 
ATOM      5  C3  UNL d   1       0.380   1.001  -0.409  0.00  0.00    -0.047 A 
ATOM      6  C4  UNL d   1       1.341   0.018  -0.299  0.00  0.00    -0.004 A 
ENDROOT
TORSDOF 0
ENDMDL
