MODEL 1
REMARK minimizedAffinity -3.76596069
REMARK minimizedRMSD -1
REMARK  0 active torsions:
REMARK  status: ('A' for Active; 'I' for Inactive)
ROOT
ATOM      1  C   UNL d   1       1.453  -2.542   0.716  0.00  0.00     0.172 C 
ATOM      2  N   UNL d   1       0.786  -1.339   0.277  0.00  0.00    -0.070 N 
ATOM      3  C1  UNL d   1       1.349  -0.343  -0.475  0.00  0.00    -0.004 A 
ATOM      4  C2  UNL d   1       0.389   0.624  -0.682  0.00  0.00    -0.047 A 
ATOM      5  C3  UNL d   1      -0.791   0.195  -0.030  0.00  0.00    -0.047 A 
ATOM      6  C4  UNL d   1      -0.518  -1.023   0.555  0.00  0.00    -0.004 A 
ENDROOT
TORSDOF 0
ENDMDL
