MODEL 1
REMARK minimizedAffinity -3.09789944
REMARK minimizedRMSD -1
REMARK  0 active torsions:
REMARK  status: ('A' for Active; 'I' for Inactive)
ROOT
ATOM      1  C   UNL d   1      -0.664   1.043  -0.300  0.00  0.00     0.172 C 
ATOM      2  N   UNL d   1       0.242  -0.047  -0.023  0.00  0.00    -0.070 N 
ATOM      3  C1  UNL d   1       1.568  -0.088  -0.363  0.00  0.00    -0.004 A 
ATOM      4  C2  UNL d   1       2.079  -1.291   0.076  0.00  0.00    -0.047 A 
ATOM      5  C3  UNL d   1       1.023  -1.997   0.700  0.00  0.00    -0.047 A 
ATOM      6  C4  UNL d   1      -0.102  -1.203   0.625  0.00  0.00    -0.004 A 
ENDROOT
TORSDOF 0
ENDMDL
