MODEL 1
REMARK minimizedAffinity -3.62307048
REMARK minimizedRMSD -1
REMARK  0 active torsions:
REMARK  status: ('A' for Active; 'I' for Inactive)
ROOT
ATOM      1  C   UNL d   1       1.794  -1.926   0.441  0.00  0.00     0.172 C 
ATOM      2  N   UNL d   1       0.961  -0.797   0.101  0.00  0.00    -0.070 N 
ATOM      3  C1  UNL d   1      -0.275  -0.531   0.626  0.00  0.00    -0.004 A 
ATOM      4  C2  UNL d   1      -0.738   0.631   0.048  0.00  0.00    -0.047 A 
ATOM      5  C3  UNL d   1       0.254   1.079  -0.857  0.00  0.00    -0.047 A 
ATOM      6  C4  UNL d   1       1.295   0.176  -0.804  0.00  0.00    -0.004 A 
ENDROOT
TORSDOF 0
ENDMDL
