MODEL 1
REMARK minimizedAffinity -4.28839159
REMARK minimizedRMSD -1
REMARK  0 active torsions:
REMARK  status: ('A' for Active; 'I' for Inactive)
ROOT
ATOM      1  C   UNL d   1       1.096  -1.465  -0.008  0.00  0.00     0.172 C 
ATOM      2  N   UNL d   1       0.554  -2.044   1.199  0.00  0.00    -0.070 N 
ATOM      3  C1  UNL d   1      -0.483  -1.534   1.933  0.00  0.00    -0.004 A 
ATOM      4  C2  UNL d   1      -0.696  -2.374   3.004  0.00  0.00    -0.047 A 
ATOM      5  C3  UNL d   1       0.246  -3.426   2.911  0.00  0.00    -0.047 A 
ATOM      6  C4  UNL d   1       1.008  -3.196   1.784  0.00  0.00    -0.004 A 
ENDROOT
TORSDOF 0
ENDMDL
