MODEL 1
REMARK minimizedAffinity -3.6577189
REMARK minimizedRMSD -1
REMARK  0 active torsions:
REMARK  status: ('A' for Active; 'I' for Inactive)
ROOT
ATOM      1  C   UNL d   1      -0.740   0.892  -0.213  0.00  0.00     0.172 C 
ATOM      2  N   UNL d   1       0.124  -0.232   0.061  0.00  0.00    -0.070 N 
ATOM      3  C1  UNL d   1       1.472  -0.279  -0.177  0.00  0.00    -0.004 A 
ATOM      4  C2  UNL d   1       1.927  -1.517   0.220  0.00  0.00    -0.047 A 
ATOM      5  C3  UNL d   1       0.814  -2.240   0.713  0.00  0.00    -0.047 A 
ATOM      6  C4  UNL d   1      -0.289  -1.420   0.602  0.00  0.00    -0.004 A 
ENDROOT
TORSDOF 0
ENDMDL
