MODEL 1
REMARK minimizedAffinity 7.560287
REMARK minimizedRMSD -1
REMARK  0 active torsions:
REMARK  status: ('A' for Active; 'I' for Inactive)
ROOT
ATOM      1  C   UNL d   1      -3.425  -0.236   0.336  0.00  0.00     0.020 A 
ATOM      2  C1  UNL d   1      -4.398  -1.203   0.582  0.00  0.00     0.020 A 
ATOM      3  C2  UNL d   1      -4.092  -2.319   1.364  0.00  0.00     0.034 A 
ATOM      4  C3  UNL d   1      -2.809  -2.471   1.902  0.00  0.00     0.017 A 
ATOM      5  C4  UNL d   1      -1.832  -1.499   1.654  0.00  0.00     0.017 A 
ATOM      6  C5  UNL d   1      -2.144  -0.384   0.871  0.00  0.00     0.034 A 
ATOM      7 Cl   UNL d   1      -0.227  -1.617   2.284  0.00  0.00    -0.070 Cl
ATOM      8 Cl1  UNL d   1      -2.500  -3.875   2.860  0.00  0.00    -0.070 Cl
ENDROOT
TORSDOF 0
ENDMDL
