MODEL 1
REMARK minimizedAffinity 5.87859964
REMARK minimizedRMSD -1
REMARK  0 active torsions:
REMARK  status: ('A' for Active; 'I' for Inactive)
ROOT
ATOM      1  C   UNL d   1       4.852   2.187   0.375  0.00  0.00     0.020 A 
ATOM      2  C1  UNL d   1       5.999   1.490   0.753  0.00  0.00     0.020 A 
ATOM      3  C2  UNL d   1       5.999   0.094   0.753  0.00  0.00     0.034 A 
ATOM      4  C3  UNL d   1       4.850  -0.610   0.374  0.00  0.00     0.017 A 
ATOM      5  C4  UNL d   1       3.700   0.090  -0.005  0.00  0.00     0.017 A 
ATOM      6  C5  UNL d   1       3.705   1.489  -0.004  0.00  0.00     0.034 A 
ATOM      7 Cl   UNL d   1       2.244  -0.709  -0.486  0.00  0.00    -0.070 Cl
ATOM      8 Cl1  UNL d   1       4.922  -2.337   0.397  0.00  0.00    -0.070 Cl
ENDROOT
TORSDOF 0
ENDMDL
