MODEL 1
REMARK minimizedAffinity -2.12046266
REMARK minimizedRMSD -1
REMARK  0 active torsions:
REMARK  status: ('A' for Active; 'I' for Inactive)
ROOT
ATOM      1  C   UNL d   1       1.195  -1.749   1.967  0.00  0.00     0.020 A 
ATOM      2  C1  UNL d   1       1.457  -2.375   0.749  0.00  0.00     0.020 A 
ATOM      3  C2  UNL d   1       2.675  -3.029   0.548  0.00  0.00     0.034 A 
ATOM      4  C3  UNL d   1       3.635  -3.057   1.566  0.00  0.00     0.017 A 
ATOM      5  C4  UNL d   1       3.371  -2.429   2.788  0.00  0.00     0.017 A 
ATOM      6  C5  UNL d   1       2.150  -1.776   2.984  0.00  0.00     0.034 A 
ATOM      7 Cl   UNL d   1       4.506  -2.422   4.091  0.00  0.00    -0.070 Cl
ATOM      8 Cl1  UNL d   1       5.119  -3.884   1.248  0.00  0.00    -0.070 Cl
ENDROOT
TORSDOF 0
ENDMDL
