MODEL 1
REMARK minimizedAffinity 7.06551313
REMARK minimizedRMSD -1
REMARK  0 active torsions:
REMARK  status: ('A' for Active; 'I' for Inactive)
ROOT
ATOM      1  C   UNL d   1       4.332   4.888   0.512  0.00  0.00     0.020 A 
ATOM      2  C1  UNL d   1       5.456   4.759   1.327  0.00  0.00     0.020 A 
ATOM      3  C2  UNL d   1       5.955   3.491   1.632  0.00  0.00     0.034 A 
ATOM      4  C3  UNL d   1       5.329   2.347   1.123  0.00  0.00     0.017 A 
ATOM      5  C4  UNL d   1       4.201   2.478   0.305  0.00  0.00     0.017 A 
ATOM      6  C5  UNL d   1       3.706   3.750   0.002  0.00  0.00     0.034 A 
ATOM      7 Cl   UNL d   1       3.375   1.113  -0.360  0.00  0.00    -0.070 Cl
ATOM      8 Cl1  UNL d   1       5.999   0.810   1.542  0.00  0.00    -0.070 Cl
ENDROOT
TORSDOF 0
ENDMDL
