MODEL 1
REMARK minimizedAffinity -1.26079822
REMARK minimizedRMSD -1
REMARK  0 active torsions:
REMARK  status: ('A' for Active; 'I' for Inactive)
ROOT
ATOM      1  C   UNL d   1      -1.092  -0.177   2.962  0.00  0.00     0.020 A 
ATOM      2  C1  UNL d   1       0.162  -0.726   3.226  0.00  0.00     0.020 A 
ATOM      3  C2  UNL d   1       0.976  -1.146   2.172  0.00  0.00     0.034 A 
ATOM      4  C3  UNL d   1       0.538  -1.017   0.849  0.00  0.00     0.017 A 
ATOM      5  C4  UNL d   1      -0.721  -0.466   0.585  0.00  0.00     0.017 A 
ATOM      6  C5  UNL d   1      -1.533  -0.048   1.644  0.00  0.00     0.034 A 
ATOM      7 Cl   UNL d   1      -1.331  -0.276  -1.021  0.00  0.00    -0.070 Cl
ATOM      8 Cl1  UNL d   1       1.597  -1.557  -0.404  0.00  0.00    -0.070 Cl
ENDROOT
TORSDOF 0
ENDMDL
