MODEL 1
REMARK minimizedAffinity 2.75422549
REMARK minimizedRMSD -1
REMARK  0 active torsions:
REMARK  status: ('A' for Active; 'I' for Inactive)
ROOT
ATOM      1  C   UNL d   1       1.140  -3.452   2.366  0.00  0.00     0.020 A 
ATOM      2  C1  UNL d   1       1.648  -3.663   1.085  0.00  0.00     0.020 A 
ATOM      3  C2  UNL d   1       2.990  -4.013   0.916  0.00  0.00     0.034 A 
ATOM      4  C3  UNL d   1       3.826  -4.155   2.029  0.00  0.00     0.017 A 
ATOM      5  C4  UNL d   1       3.315  -3.943   3.314  0.00  0.00     0.017 A 
ATOM      6  C5  UNL d   1       1.971  -3.592   3.478  0.00  0.00     0.034 A 
ATOM      7 Cl   UNL d   1       4.285  -4.099   4.736  0.00  0.00    -0.070 Cl
ATOM      8 Cl1  UNL d   1       5.474  -4.591   1.745  0.00  0.00    -0.070 Cl
ENDROOT
TORSDOF 0
ENDMDL
