MODEL 1
REMARK minimizedAffinity 11.2938862
REMARK minimizedRMSD -1
REMARK  0 active torsions:
REMARK  status: ('A' for Active; 'I' for Inactive)
ROOT
ATOM      1  C   UNL d   1       2.285  -4.096   0.597  0.00  0.00     0.020 A 
ATOM      2  C1  UNL d   1       1.486  -2.991   0.306  0.00  0.00     0.020 A 
ATOM      3  C2  UNL d   1       2.076  -1.783  -0.072  0.00  0.00     0.034 A 
ATOM      4  C3  UNL d   1       3.468  -1.677  -0.160  0.00  0.00     0.017 A 
ATOM      5  C4  UNL d   1       4.270  -2.786   0.132  0.00  0.00     0.017 A 
ATOM      6  C5  UNL d   1       3.674  -3.994   0.510  0.00  0.00     0.034 A 
ATOM      7 Cl   UNL d   1       5.995  -2.732   0.046  0.00  0.00    -0.070 Cl
ATOM      8 Cl1  UNL d   1       4.130  -0.152  -0.634  0.00  0.00    -0.070 Cl
ENDROOT
TORSDOF 0
ENDMDL
