MODEL 1
REMARK minimizedAffinity -3.1210568
REMARK minimizedRMSD -1
REMARK  0 active torsions:
REMARK  status: ('A' for Active; 'I' for Inactive)
ROOT
ATOM      1  C   UNL d   1       4.186   1.535  -5.883  0.00  0.00     0.020 A 
ATOM      2  C1  UNL d   1       5.488   2.030  -5.823  0.00  0.00     0.020 A 
ATOM      3  C2  UNL d   1       5.712   3.408  -5.818  0.00  0.00     0.034 A 
ATOM      4  C3  UNL d   1       4.632   4.297  -5.872  0.00  0.00     0.017 A 
ATOM      5  C4  UNL d   1       3.325   3.800  -5.931  0.00  0.00     0.017 A 
ATOM      6  C5  UNL d   1       3.106   2.418  -5.936  0.00  0.00     0.034 A 
ATOM      7 Cl   UNL d   1       1.942   4.834  -6.000  0.00  0.00    -0.070 Cl
ATOM      8 Cl1  UNL d   1       4.982   5.989  -5.861  0.00  0.00    -0.070 Cl
ENDROOT
TORSDOF 0
ENDMDL
