MODEL 1
REMARK minimizedAffinity 1.99933481
REMARK minimizedRMSD -1
REMARK  0 active torsions:
REMARK  status: ('A' for Active; 'I' for Inactive)
ROOT
ATOM      1  C   UNL d   1      -4.345   0.708  -5.998  0.00  0.00     0.020 A 
ATOM      2  C1  UNL d   1      -5.033   0.946  -4.809  0.00  0.00     0.020 A 
ATOM      3  C2  UNL d   1      -4.588   0.369  -3.618  0.00  0.00     0.034 A 
ATOM      4  C3  UNL d   1      -3.452  -0.448  -3.613  0.00  0.00     0.017 A 
ATOM      5  C4  UNL d   1      -2.762  -0.686  -4.807  0.00  0.00     0.017 A 
ATOM      6  C5  UNL d   1      -3.212  -0.106  -5.997  0.00  0.00     0.034 A 
ATOM      7 Cl   UNL d   1      -1.352  -1.683  -4.881  0.00  0.00    -0.070 Cl
ATOM      8 Cl1  UNL d   1      -2.957  -1.129  -2.104  0.00  0.00    -0.070 Cl
ENDROOT
TORSDOF 0
ENDMDL
