MODEL 1
REMARK minimizedAffinity 10.6326828
REMARK minimizedRMSD -1
REMARK  0 active torsions:
REMARK  status: ('A' for Active; 'I' for Inactive)
ROOT
ATOM      1  C   UNL d   1       1.514  -0.044   3.562  0.00  0.00    -0.002 A 
ATOM      2  C1  UNL d   1       1.283  -1.338   4.008  0.00  0.00     0.010 A 
ATOM      3  C2  UNL d   1       0.029  -1.930   3.850  0.00  0.00     0.041 A 
ATOM      4  C3  UNL d   1      -0.999  -1.195   3.227  0.00  0.00    -0.075 A 
ATOM      5  S   UNL d   1      -2.614  -1.716   2.925  0.00  0.00     0.015 SA
ATOM      6  C4  UNL d   1      -3.035  -0.235   2.195  0.00  0.00     0.022 A 
ATOM      7  C5  UNL d   1      -1.981   0.648   2.175  0.00  0.00     0.026 A 
ATOM      8  C6  UNL d   1      -0.790   0.109   2.769  0.00  0.00    -0.082 A 
ATOM      9  C7  UNL d   1       0.492   0.683   2.945  0.00  0.00     0.045 A 
ENDROOT
TORSDOF 0
ENDMDL
