MODEL 1
REMARK minimizedAffinity 18.317215
REMARK minimizedRMSD -1
REMARK  0 active torsions:
REMARK  status: ('A' for Active; 'I' for Inactive)
ROOT
ATOM      1  C   UNL d   1      -1.492  -2.335  -1.083  0.00  0.00    -0.002 A 
ATOM      2  C1  UNL d   1      -1.797  -3.411  -1.905  0.00  0.00     0.010 A 
ATOM      3  C2  UNL d   1      -1.455  -3.390  -3.258  0.00  0.00     0.041 A 
ATOM      4  C3  UNL d   1      -0.793  -2.259  -3.776  0.00  0.00    -0.075 A 
ATOM      5  S   UNL d   1      -0.275  -2.012  -5.402  0.00  0.00     0.015 SA
ATOM      6  C4  UNL d   1       0.363  -0.473  -5.043  0.00  0.00     0.022 A 
ATOM      7  C5  UNL d   1       0.194  -0.140  -3.720  0.00  0.00     0.026 A 
ATOM      8  C6  UNL d   1      -0.474  -1.164  -2.968  0.00  0.00    -0.082 A 
ATOM      9  C7  UNL d   1      -0.836  -1.216  -1.600  0.00  0.00     0.045 A 
ENDROOT
TORSDOF 0
ENDMDL
