MODEL 1
REMARK minimizedAffinity 20.4862995
REMARK minimizedRMSD -1
REMARK  0 active torsions:
REMARK  status: ('A' for Active; 'I' for Inactive)
ROOT
ATOM      1  C   UNL d   1      -1.320  -4.788  -6.000  0.00  0.00    -0.002 A 
ATOM      2  C1  UNL d   1      -2.253  -5.001  -4.995  0.00  0.00     0.010 A 
ATOM      3  C2  UNL d   1      -2.289  -4.173  -3.871  0.00  0.00     0.041 A 
ATOM      4  C3  UNL d   1      -1.363  -3.115  -3.775  0.00  0.00    -0.075 A 
ATOM      5  S   UNL d   1      -1.221  -1.972  -2.492  0.00  0.00     0.015 SA
ATOM      6  C4  UNL d   1       0.081  -1.173  -3.248  0.00  0.00     0.022 A 
ATOM      7  C5  UNL d   1       0.412  -1.751  -4.451  0.00  0.00     0.026 A 
ATOM      8  C6  UNL d   1      -0.415  -2.879  -4.775  0.00  0.00    -0.082 A 
ATOM      9  C7  UNL d   1      -0.404  -3.738  -5.900  0.00  0.00     0.045 A 
ENDROOT
TORSDOF 0
ENDMDL
