MODEL 1
REMARK minimizedAffinity 10.4319658
REMARK minimizedRMSD -1
REMARK  0 active torsions:
REMARK  status: ('A' for Active; 'I' for Inactive)
ROOT
ATOM      1  C   UNL d   1      -1.465  -2.320  -1.079  0.00  0.00    -0.002 A 
ATOM      2  C1  UNL d   1      -2.038  -2.964  -2.166  0.00  0.00     0.010 A 
ATOM      3  C2  UNL d   1      -1.640  -2.651  -3.467  0.00  0.00     0.041 A 
ATOM      4  C3  UNL d   1      -0.647  -1.671  -3.659  0.00  0.00    -0.075 A 
ATOM      5  S   UNL d   1      -0.002  -1.124  -5.162  0.00  0.00     0.015 SA
ATOM      6  C4  UNL d   1       1.050  -0.024  -4.396  0.00  0.00     0.022 A 
ATOM      7  C5  UNL d   1       0.925  -0.059  -3.027  0.00  0.00     0.026 A 
ATOM      8  C6  UNL d   1      -0.055  -1.009  -2.580  0.00  0.00    -0.082 A 
ATOM      9  C7  UNL d   1      -0.480  -1.348  -1.273  0.00  0.00     0.045 A 
ENDROOT
TORSDOF 0
ENDMDL
