MODEL 1
REMARK minimizedAffinity 14.5438433
REMARK minimizedRMSD -1
REMARK  0 active torsions:
REMARK  status: ('A' for Active; 'I' for Inactive)
ROOT
ATOM      1  C   UNL d   1       2.433  -3.317  -5.471  0.00  0.00    -0.002 A 
ATOM      2  C1  UNL d   1       2.138  -2.324  -4.548  0.00  0.00     0.010 A 
ATOM      3  C2  UNL d   1       0.822  -2.104  -4.137  0.00  0.00     0.041 A 
ATOM      4  C3  UNL d   1      -0.203  -2.909  -4.673  0.00  0.00    -0.075 A 
ATOM      5  S   UNL d   1      -1.887  -2.822  -4.316  0.00  0.00     0.015 SA
ATOM      6  C4  UNL d   1      -2.255  -4.102  -5.379  0.00  0.00     0.022 A 
ATOM      7  C5  UNL d   1      -1.132  -4.596  -6.000  0.00  0.00     0.026 A 
ATOM      8  C6  UNL d   1       0.070  -3.916  -5.603  0.00  0.00    -0.082 A 
ATOM      9  C7  UNL d   1       1.414  -4.114  -6.000  0.00  0.00     0.045 A 
ENDROOT
TORSDOF 0
ENDMDL
