MODEL 1
REMARK minimizedAffinity 14.1260004
REMARK minimizedRMSD -1
REMARK  0 active torsions:
REMARK  status: ('A' for Active; 'I' for Inactive)
ROOT
ATOM      1  C   UNL d   1       0.374   0.045   2.495  0.00  0.00    -0.002 A 
ATOM      2  C1  UNL d   1       1.491   0.726   2.960  0.00  0.00     0.010 A 
ATOM      3  C2  UNL d   1       2.369   0.119   3.860  0.00  0.00     0.041 A 
ATOM      4  C3  UNL d   1       2.104  -1.197   4.288  0.00  0.00    -0.075 A 
ATOM      5  S   UNL d   1       3.041  -2.141   5.385  0.00  0.00     0.015 SA
ATOM      6  C4  UNL d   1       1.981  -3.471   5.262  0.00  0.00     0.022 A 
ATOM      7  C5  UNL d   1       0.933  -3.217   4.409  0.00  0.00     0.026 A 
ATOM      8  C6  UNL d   1       0.987  -1.903   3.833  0.00  0.00    -0.082 A 
ATOM      9  C7  UNL d   1       0.115  -1.260   2.922  0.00  0.00     0.045 A 
ENDROOT
TORSDOF 0
ENDMDL
