MODEL 1
REMARK minimizedAffinity 19.7782383
REMARK minimizedRMSD -1
REMARK  0 active torsions:
REMARK  status: ('A' for Active; 'I' for Inactive)
ROOT
ATOM      1  C   UNL d   1       3.952  -2.795  -4.978  0.00  0.00    -0.002 A 
ATOM      2  C1  UNL d   1       3.300  -3.826  -5.640  0.00  0.00     0.010 A 
ATOM      3  C2  UNL d   1       1.913  -3.800  -5.804  0.00  0.00     0.041 A 
ATOM      4  C3  UNL d   1       1.186  -2.709  -5.288  0.00  0.00    -0.075 A 
ATOM      5  S   UNL d   1      -0.518  -2.464  -5.372  0.00  0.00     0.015 SA
ATOM      6  C4  UNL d   1      -0.421  -0.984  -4.531  0.00  0.00     0.022 A 
ATOM      7  C5  UNL d   1       0.873  -0.670  -4.188  0.00  0.00     0.026 A 
ATOM      8  C6  UNL d   1       1.820  -1.659  -4.619  0.00  0.00    -0.082 A 
ATOM      9  C7  UNL d   1       3.227  -1.715  -4.468  0.00  0.00     0.045 A 
ENDROOT
TORSDOF 0
ENDMDL
