MODEL 1
REMARK minimizedAffinity -3.62212896
REMARK minimizedRMSD -1
REMARK  0 active torsions:
REMARK  status: ('A' for Active; 'I' for Inactive)
ROOT
ATOM      1  C   UNL d   1      -3.711   4.225   5.329  0.00  0.00     0.023 A 
ATOM      2  C1  UNL d   1      -2.652   3.385   5.676  0.00  0.00     0.003 A 
ATOM      3  C2  UNL d   1      -1.335   3.830   5.545  0.00  0.00     0.048 A 
ATOM      4  C3  UNL d   1      -1.083   5.115   5.068  0.00  0.00     0.023 A 
ATOM      5  C4  UNL d   1      -2.140   5.960   4.720  0.00  0.00     0.048 A 
ATOM      6  C5  UNL d   1      -3.455   5.510   4.852  0.00  0.00     0.003 A 
ATOM      7  I   UNL d   1       0.876   5.779   4.872  0.00  0.00    -0.146 I 
ENDROOT
TORSDOF 0
ENDMDL
