MODEL 1
REMARK minimizedAffinity -2.36908627
REMARK minimizedRMSD -1
REMARK  0 active torsions:
REMARK  status: ('A' for Active; 'I' for Inactive)
ROOT
ATOM      1  C   UNL d   1      -2.897   5.190   4.480  0.00  0.00     0.023 A 
ATOM      2  C1  UNL d   1      -1.917   4.872   3.538  0.00  0.00     0.003 A 
ATOM      3  C2  UNL d   1      -0.570   5.104   3.824  0.00  0.00     0.048 A 
ATOM      4  C3  UNL d   1      -0.209   5.653   5.054  0.00  0.00     0.023 A 
ATOM      5  C4  UNL d   1      -1.186   5.972   6.000  0.00  0.00     0.048 A 
ATOM      6  C5  UNL d   1      -2.531   5.739   5.709  0.00  0.00     0.003 A 
ATOM      7  I   UNL d   1       1.795   5.999   5.483  0.00  0.00    -0.146 I 
ENDROOT
TORSDOF 0
ENDMDL
