MODEL 1
REMARK minimizedAffinity 5.41870975
REMARK minimizedRMSD -1
REMARK  0 active torsions:
REMARK  status: ('A' for Active; 'I' for Inactive)
ROOT
ATOM      1  C   UNL d   1      -3.128   3.658   4.214  0.00  0.00     0.023 A 
ATOM      2  C1  UNL d   1      -3.176   4.268   5.468  0.00  0.00     0.003 A 
ATOM      3  C2  UNL d   1      -2.052   4.928   5.969  0.00  0.00     0.048 A 
ATOM      4  C3  UNL d   1      -0.883   4.974   5.210  0.00  0.00     0.023 A 
ATOM      5  C4  UNL d   1      -0.830   4.366   3.955  0.00  0.00     0.048 A 
ATOM      6  C5  UNL d   1      -1.956   3.706   3.459  0.00  0.00     0.003 A 
ATOM      7  I   UNL d   1       0.792   5.956   5.954  0.00  0.00    -0.146 I 
ENDROOT
TORSDOF 0
ENDMDL
