MODEL 1
REMARK minimizedAffinity 1.1863755
REMARK minimizedRMSD -1
REMARK  0 active torsions:
REMARK  status: ('A' for Active; 'I' for Inactive)
ROOT
ATOM      1  C   UNL d   1       1.348   5.775   4.046  0.00  0.00     0.023 A 
ATOM      2  C1  UNL d   1       1.198   5.719   5.432  0.00  0.00     0.003 A 
ATOM      3  C2  UNL d   1      -0.077   5.633   5.994  0.00  0.00     0.048 A 
ATOM      4  C3  UNL d   1      -1.198   5.604   5.165  0.00  0.00     0.023 A 
ATOM      5  C4  UNL d   1      -1.052   5.659   3.778  0.00  0.00     0.048 A 
ATOM      6  C5  UNL d   1       0.225   5.745   3.220  0.00  0.00     0.003 A 
ATOM      7  I   UNL d   1      -3.097   5.477   6.000  0.00  0.00    -0.146 I 
ENDROOT
TORSDOF 0
ENDMDL
