MODEL 1
REMARK minimizedAffinity -2.44606185
REMARK minimizedRMSD -1
REMARK  0 active torsions:
REMARK  status: ('A' for Active; 'I' for Inactive)
ROOT
ATOM      1  C   UNL d   1      -0.777   5.655   4.791  0.00  0.00     0.023 A 
ATOM      2  C1  UNL d   1      -0.108   5.985   5.969  0.00  0.00     0.003 A 
ATOM      3  C2  UNL d   1       1.288   6.000   6.000  0.00  0.00     0.048 A 
ATOM      4  C3  UNL d   1       2.009   5.685   4.848  0.00  0.00     0.023 A 
ATOM      5  C4  UNL d   1       1.343   5.355   3.666  0.00  0.00     0.048 A 
ATOM      6  C5  UNL d   1      -0.053   5.341   3.641  0.00  0.00     0.003 A 
ATOM      7  I   UNL d   1       4.086   5.707   4.891  0.00  0.00    -0.146 I 
ENDROOT
TORSDOF 0
ENDMDL
