MODEL 1
REMARK minimizedAffinity 4.48504925
REMARK minimizedRMSD -1
REMARK  0 active torsions:
REMARK  status: ('A' for Active; 'I' for Inactive)
ROOT
ATOM      1  C   UNL d   1      -3.851   4.175   4.907  0.00  0.00     0.023 A 
ATOM      2  C1  UNL d   1      -2.706   3.555   4.408  0.00  0.00     0.003 A 
ATOM      3  C2  UNL d   1      -1.444   4.076   4.701  0.00  0.00     0.048 A 
ATOM      4  C3  UNL d   1      -1.335   5.217   5.496  0.00  0.00     0.023 A 
ATOM      5  C4  UNL d   1      -2.478   5.840   5.999  0.00  0.00     0.048 A 
ATOM      6  C5  UNL d   1      -3.738   5.315   5.702  0.00  0.00     0.003 A 
ATOM      7  I   UNL d   1       0.542   5.995   5.934  0.00  0.00    -0.146 I 
ENDROOT
TORSDOF 0
ENDMDL
