MODEL 1
REMARK minimizedAffinity -2.72730184
REMARK minimizedRMSD -1
REMARK  0 active torsions:
REMARK  status: ('A' for Active; 'I' for Inactive)
ROOT
ATOM      1  C   UNL d   1       5.873   4.274   5.282  0.00  0.00     0.023 A 
ATOM      2  C1  UNL d   1       5.563   5.574   5.679  0.00  0.00     0.003 A 
ATOM      3  C2  UNL d   1       4.233   6.000   5.706  0.00  0.00     0.048 A 
ATOM      4  C3  UNL d   1       3.218   5.118   5.336  0.00  0.00     0.023 A 
ATOM      5  C4  UNL d   1       3.523   3.816   4.938  0.00  0.00     0.048 A 
ATOM      6  C5  UNL d   1       4.854   3.395   4.912  0.00  0.00     0.003 A 
ATOM      7  I   UNL d   1       1.238   5.749   5.375  0.00  0.00    -0.146 I 
ENDROOT
TORSDOF 0
ENDMDL
