MODEL 1
REMARK minimizedAffinity -0.929638684
REMARK minimizedRMSD -1
REMARK  0 active torsions:
REMARK  status: ('A' for Active; 'I' for Inactive)
ROOT
ATOM      1  C   UNL d   1      -1.601   5.271   4.364  0.00  0.00     0.023 A 
ATOM      2  C1  UNL d   1      -1.298   5.774   5.630  0.00  0.00     0.003 A 
ATOM      3  C2  UNL d   1       0.033   5.983   5.999  0.00  0.00     0.048 A 
ATOM      4  C3  UNL d   1       1.055   5.686   5.099  0.00  0.00     0.023 A 
ATOM      5  C4  UNL d   1       0.757   5.183   3.831  0.00  0.00     0.048 A 
ATOM      6  C5  UNL d   1      -0.575   4.975   3.467  0.00  0.00     0.003 A 
ATOM      7  I   UNL d   1       3.036   5.995   5.647  0.00  0.00    -0.146 I 
ENDROOT
TORSDOF 0
ENDMDL
