MODEL 1
REMARK minimizedAffinity 6.88256598
REMARK minimizedRMSD -1
REMARK  0 active torsions:
REMARK  status: ('A' for Active; 'I' for Inactive)
ROOT
ATOM      1  C4' PXY d   1       5.528  -1.875   0.425  0.00  0.00     0.077 C 
ATOM      2  C1' PXY d   1       1.691  -6.000  -0.871  0.00  0.00     0.077 C 
ATOM      3  C1  PXY d   1       2.687  -4.909  -0.529  0.00  0.00    -0.082 A 
ATOM      4  C2  PXY d   1       3.939  -5.013  -0.946  0.00  0.00     0.003 A 
ATOM      5  C3  PXY d   1       4.861  -4.052  -0.619  0.00  0.00     0.003 A 
ATOM      6  C4  PXY d   1       4.485  -2.947   0.096  0.00  0.00    -0.082 A 
ATOM      7  C5  PXY d   1       3.208  -2.828   0.516  0.00  0.00     0.003 A 
ATOM      8  C6  PXY d   1       2.297  -3.835   0.209  0.00  0.00     0.003 A 
ENDROOT
TORSDOF 0
ENDMDL
