MODEL 1
REMARK minimizedAffinity 10.935935
REMARK minimizedRMSD -1
REMARK  0 active torsions:
REMARK  status: ('A' for Active; 'I' for Inactive)
ROOT
ATOM      1  C4' PXY d   1      -3.371   0.750   0.967  0.00  0.00     0.077 C 
ATOM      2  C1' PXY d   1      -1.223  -0.209  -4.313  0.00  0.00     0.077 C 
ATOM      3  C1  PXY d   1      -1.789   0.054  -2.932  0.00  0.00    -0.082 A 
ATOM      4  C2  PXY d   1      -1.361  -0.658  -1.903  0.00  0.00     0.003 A 
ATOM      5  C3  PXY d   1      -1.886  -0.455  -0.652  0.00  0.00     0.003 A 
ATOM      6  C4  PXY d   1      -2.820   0.524  -0.444  0.00  0.00    -0.082 A 
ATOM      7  C5  PXY d   1      -3.254   1.263  -1.487  0.00  0.00     0.003 A 
ATOM      8  C6  PXY d   1      -2.739   1.013  -2.756  0.00  0.00     0.003 A 
ENDROOT
TORSDOF 0
ENDMDL
