MODEL 1
REMARK minimizedAffinity 9.46369934
REMARK minimizedRMSD -1
REMARK  0 active torsions:
REMARK  status: ('A' for Active; 'I' for Inactive)
ROOT
ATOM      1  C4' PXY d   1       5.111  -5.035   0.706  0.00  0.00     0.077 C 
ATOM      2  C1' PXY d   1       5.094  -2.237  -4.352  0.00  0.00     0.077 C 
ATOM      3  C1  PXY d   1       5.110  -2.966  -3.022  0.00  0.00    -0.082 A 
ATOM      4  C2  PXY d   1       4.404  -4.075  -2.876  0.00  0.00     0.003 A 
ATOM      5  C3  PXY d   1       4.381  -4.729  -1.671  0.00  0.00     0.003 A 
ATOM      6  C4  PXY d   1       5.132  -4.272  -0.621  0.00  0.00    -0.082 A 
ATOM      7  C5  PXY d   1       5.863  -3.146  -0.765  0.00  0.00     0.003 A 
ATOM      8  C6  PXY d   1       5.839  -2.475  -1.984  0.00  0.00     0.003 A 
ENDROOT
TORSDOF 0
ENDMDL
