MODEL 1
REMARK minimizedAffinity 13.9746294
REMARK minimizedRMSD -1
REMARK  0 active torsions:
REMARK  status: ('A' for Active; 'I' for Inactive)
ROOT
ATOM      1  C4' PXY d   1      -1.004   3.773   0.371  0.00  0.00     0.077 C 
ATOM      2  C1' PXY d   1      -6.000   5.999  -1.501  0.00  0.00     0.077 C 
ATOM      3  C1  PXY d   1      -4.687   5.427  -1.004  0.00  0.00    -0.082 A 
ATOM      4  C2  PXY d   1      -4.128   4.416  -1.650  0.00  0.00     0.003 A 
ATOM      5  C3  PXY d   1      -2.957   3.866  -1.196  0.00  0.00     0.003 A 
ATOM      6  C4  PXY d   1      -2.325   4.389  -0.100  0.00  0.00    -0.082 A 
ATOM      7  C5  PXY d   1      -2.883   5.426   0.558  0.00  0.00     0.003 A 
ATOM      8  C6  PXY d   1      -4.093   5.944   0.105  0.00  0.00     0.003 A 
ENDROOT
TORSDOF 0
ENDMDL
