MODEL 1
REMARK minimizedAffinity 2.47482514
REMARK minimizedRMSD -1
REMARK  0 active torsions:
REMARK  status: ('A' for Active; 'I' for Inactive)
ROOT
ATOM      1  C4' PXY d   1       0.151   3.352   0.209  0.00  0.00     0.077 C 
ATOM      2  C1' PXY d   1       1.099  -0.723   4.198  0.00  0.00     0.077 C 
ATOM      3  C1  PXY d   1       0.838   0.347   3.156  0.00  0.00    -0.082 A 
ATOM      4  C2  PXY d   1       1.613   0.420   2.086  0.00  0.00     0.003 A 
ATOM      5  C3  PXY d   1       1.411   1.401   1.150  0.00  0.00     0.003 A 
ATOM      6  C4  PXY d   1       0.371   2.283   1.283  0.00  0.00    -0.082 A 
ATOM      7  C5  PXY d   1      -0.431   2.207   2.366  0.00  0.00     0.003 A 
ATOM      8  C6  PXY d   1      -0.183   1.230   3.326  0.00  0.00     0.003 A 
ENDROOT
TORSDOF 0
ENDMDL
