MODEL 1
REMARK minimizedAffinity 10.0430307
REMARK minimizedRMSD -1
REMARK  0 active torsions:
REMARK  status: ('A' for Active; 'I' for Inactive)
ROOT
ATOM      1  C4' PXY d   1      -3.378   1.788  -5.446  0.00  0.00     0.077 C 
ATOM      2  C1' PXY d   1      -0.907  -1.194  -1.154  0.00  0.00     0.077 C 
ATOM      3  C1  PXY d   1      -1.565  -0.409  -2.271  0.00  0.00    -0.082 A 
ATOM      4  C2  PXY d   1      -1.323  -0.735  -3.531  0.00  0.00     0.003 A 
ATOM      5  C3  PXY d   1      -1.884  -0.015  -4.554  0.00  0.00     0.003 A 
ATOM      6  C4  PXY d   1      -2.743   1.016  -4.285  0.00  0.00    -0.082 A 
ATOM      7  C5  PXY d   1      -3.004   1.349  -3.003  0.00  0.00     0.003 A 
ATOM      8  C6  PXY d   1      -2.392   0.632  -1.979  0.00  0.00     0.003 A 
ENDROOT
TORSDOF 0
ENDMDL
