MODEL 1
REMARK minimizedAffinity 12.3995342
REMARK minimizedRMSD -1
REMARK  0 active torsions:
REMARK  status: ('A' for Active; 'I' for Inactive)
ROOT
ATOM      1  C4' PXY d   1       0.277   3.289   0.776  0.00  0.00     0.077 C 
ATOM      2  C1' PXY d   1      -0.770  -1.675  -1.996  0.00  0.00     0.077 C 
ATOM      3  C1  PXY d   1      -0.507  -0.368  -1.273  0.00  0.00    -0.082 A 
ATOM      4  C2  PXY d   1       0.738  -0.001  -1.018  0.00  0.00     0.003 A 
ATOM      5  C3  PXY d   1       0.993   1.161  -0.337  0.00  0.00     0.003 A 
ATOM      6  C4  PXY d   1      -0.036   1.983   0.040  0.00  0.00    -0.082 A 
ATOM      7  C5  PXY d   1      -1.308   1.621  -0.226  0.00  0.00     0.003 A 
ATOM      8  C6  PXY d   1      -1.548   0.416  -0.882  0.00  0.00     0.003 A 
ENDROOT
TORSDOF 0
ENDMDL
