MODEL 1
REMARK minimizedAffinity 12.0070477
REMARK minimizedRMSD -1
REMARK  0 active torsions:
REMARK  status: ('A' for Active; 'I' for Inactive)
ROOT
ATOM      1  C4' PXY d   1       3.759   2.990   3.378  0.00  0.00     0.077 C 
ATOM      2  C1' PXY d   1      -0.479   3.657  -0.496  0.00  0.00     0.077 C 
ATOM      3  C1  PXY d   1       0.640   3.490   0.513  0.00  0.00    -0.082 A 
ATOM      4  C2  PXY d   1       0.711   2.384   1.235  0.00  0.00     0.003 A 
ATOM      5  C3  PXY d   1       1.697   2.230   2.175  0.00  0.00     0.003 A 
ATOM      6  C4  PXY d   1       2.653   3.197   2.340  0.00  0.00    -0.082 A 
ATOM      7  C5  PXY d   1       2.594   4.324   1.600  0.00  0.00     0.003 A 
ATOM      8  C6  PXY d   1       1.560   4.478   0.680  0.00  0.00     0.003 A 
ENDROOT
TORSDOF 0
ENDMDL
