MODEL 1
REMARK minimizedAffinity 11.1528683
REMARK minimizedRMSD -1
REMARK  0 active torsions:
REMARK  status: ('A' for Active; 'I' for Inactive)
ROOT
ATOM      1  C4' PXY d   1       2.854   4.076   2.272  0.00  0.00     0.077 C 
ATOM      2  C1' PXY d   1       1.705  -0.876   5.026  0.00  0.00     0.077 C 
ATOM      3  C1  PXY d   1       2.016   0.425   4.312  0.00  0.00    -0.082 A 
ATOM      4  C2  PXY d   1       1.078   1.015   3.589  0.00  0.00     0.003 A 
ATOM      5  C3  PXY d   1       1.351   2.175   2.911  0.00  0.00     0.003 A 
ATOM      6  C4  PXY d   1       2.582   2.766   3.017  0.00  0.00    -0.082 A 
ATOM      7  C5  PXY d   1       3.541   2.176   3.762  0.00  0.00     0.003 A 
ATOM      8  C6  PXY d   1       3.256   0.977   4.409  0.00  0.00     0.003 A 
ENDROOT
TORSDOF 0
ENDMDL
