MODEL 1
REMARK minimizedAffinity 6.90035534
REMARK minimizedRMSD -1
REMARK  0 active torsions:
REMARK  status: ('A' for Active; 'I' for Inactive)
ROOT
ATOM      1  C4' PXY d   1       5.248  -4.973  -5.074  0.00  0.00     0.077 C 
ATOM      2  C1' PXY d   1       1.171  -5.991  -1.104  0.00  0.00     0.077 C 
ATOM      3  C1  PXY d   1       2.249  -5.723  -2.136  0.00  0.00    -0.082 A 
ATOM      4  C2  PXY d   1       1.915  -5.235  -3.319  0.00  0.00     0.003 A 
ATOM      5  C3  PXY d   1       2.873  -5.017  -4.275  0.00  0.00     0.003 A 
ATOM      6  C4  PXY d   1       4.194  -5.251  -3.998  0.00  0.00    -0.082 A 
ATOM      7  C5  PXY d   1       4.544  -5.739  -2.790  0.00  0.00     0.003 A 
ATOM      8  C6  PXY d   1       3.552  -5.993  -1.847  0.00  0.00     0.003 A 
ENDROOT
TORSDOF 0
ENDMDL
