MODEL 1
REMARK minimizedAffinity 8.68997765
REMARK minimizedRMSD -1
REMARK  0 active torsions:
REMARK  status: ('A' for Active; 'I' for Inactive)
ROOT
ATOM      1  C4' PXY d   1       0.308  -5.344   5.998  0.00  0.00     0.077 C 
ATOM      2  C1' PXY d   1       0.663  -0.278   3.237  0.00  0.00     0.077 C 
ATOM      3  C1  PXY d   1       0.581  -1.604   3.967  0.00  0.00    -0.082 A 
ATOM      4  C2  PXY d   1      -0.201  -2.562   3.496  0.00  0.00     0.003 A 
ATOM      5  C3  PXY d   1      -0.311  -3.757   4.161  0.00  0.00     0.003 A 
ATOM      6  C4  PXY d   1       0.428  -3.992   5.289  0.00  0.00    -0.082 A 
ATOM      7  C5  PXY d   1       1.237  -3.024   5.769  0.00  0.00     0.003 A 
ATOM      8  C6  PXY d   1       1.303  -1.803   5.103  0.00  0.00     0.003 A 
ENDROOT
TORSDOF 0
ENDMDL
