MODEL 1
REMARK minimizedAffinity 2.61512184
REMARK minimizedRMSD -1
REMARK  0 active torsions:
REMARK  status: ('A' for Active; 'I' for Inactive)
ROOT
ATOM      1  C4' PXY d   1       3.685  -2.714  -2.909  0.00  0.00     0.077 C 
ATOM      2  C1' PXY d   1       1.506   1.264   0.674  0.00  0.00     0.077 C 
ATOM      3  C1  PXY d   1       2.083   0.231  -0.272  0.00  0.00    -0.082 A 
ATOM      4  C2  PXY d   1       1.483  -0.941  -0.407  0.00  0.00     0.003 A 
ATOM      5  C3  PXY d   1       2.010  -1.899  -1.234  0.00  0.00     0.003 A 
ATOM      6  C4  PXY d   1       3.133  -1.636  -1.972  0.00  0.00    -0.082 A 
ATOM      7  C5  PXY d   1       3.745  -0.440  -1.849  0.00  0.00     0.003 A 
ATOM      8  C6  PXY d   1       3.218   0.505  -0.972  0.00  0.00     0.003 A 
ENDROOT
TORSDOF 0
ENDMDL
