MODEL 1
REMARK minimizedAffinity 0.875550091
REMARK minimizedRMSD -1
REMARK  0 active torsions:
REMARK  status: ('A' for Active; 'I' for Inactive)
ROOT
ATOM      1  C4' PXY d   1      -0.359  -2.870  -0.389  0.00  0.00     0.077 C 
ATOM      2  C1' PXY d   1       3.820   1.059  -1.100  0.00  0.00     0.077 C 
ATOM      3  C1  PXY d   1       2.730   0.021  -0.922  0.00  0.00    -0.082 A 
ATOM      4  C2  PXY d   1       1.533   0.395  -0.500  0.00  0.00     0.003 A 
ATOM      5  C3  PXY d   1       0.545  -0.535  -0.303  0.00  0.00     0.003 A 
ATOM      6  C4  PXY d   1       0.769  -1.855  -0.592  0.00  0.00    -0.082 A 
ATOM      7  C5  PXY d   1       1.984  -2.243  -1.033  0.00  0.00     0.003 A 
ATOM      8  C6  PXY d   1       2.986  -1.289  -1.187  0.00  0.00     0.003 A 
ENDROOT
TORSDOF 0
ENDMDL
