MODEL 1
REMARK minimizedAffinity 2.206357
REMARK minimizedRMSD -1
REMARK  0 active torsions:
REMARK  status: ('A' for Active; 'I' for Inactive)
ROOT
ATOM      1  C4' PXY d   1       3.637   0.764  -0.814  0.00  0.00     0.077 C 
ATOM      2  C1' PXY d   1      -0.715  -3.020  -0.422  0.00  0.00     0.077 C 
ATOM      3  C1  PXY d   1       0.418  -2.019  -0.529  0.00  0.00    -0.082 A 
ATOM      4  C2  PXY d   1       1.666  -2.450  -0.612  0.00  0.00     0.003 A 
ATOM      5  C3  PXY d   1       2.705  -1.558  -0.678  0.00  0.00     0.003 A 
ATOM      6  C4  PXY d   1       2.461  -0.211  -0.713  0.00  0.00    -0.082 A 
ATOM      7  C5  PXY d   1       1.190   0.237  -0.640  0.00  0.00     0.003 A 
ATOM      8  C6  PXY d   1       0.152  -0.684  -0.532  0.00  0.00     0.003 A 
ENDROOT
TORSDOF 0
ENDMDL
