MODEL 1
REMARK minimizedAffinity -2.68722916
REMARK minimizedRMSD -1
REMARK  0 active torsions:
REMARK  status: ('A' for Active; 'I' for Inactive)
ROOT
ATOM      1  C4' PXY d   1      -1.728  -2.788  -3.272  0.00  0.00     0.077 C 
ATOM      2  C1' PXY d   1       0.836   0.735   0.527  0.00  0.00     0.077 C 
ATOM      3  C1  PXY d   1       0.155  -0.180  -0.472  0.00  0.00    -0.082 A 
ATOM      4  C2  PXY d   1       0.302  -1.490  -0.365  0.00  0.00     0.003 A 
ATOM      5  C3  PXY d   1      -0.281  -2.331  -1.278  0.00  0.00     0.003 A 
ATOM      6  C4  PXY d   1      -1.066  -1.827  -2.281  0.00  0.00    -0.082 A 
ATOM      7  C5  PXY d   1      -1.230  -0.492  -2.390  0.00  0.00     0.003 A 
ATOM      8  C6  PXY d   1      -0.596   0.346  -1.477  0.00  0.00     0.003 A 
ENDROOT
TORSDOF 0
ENDMDL
