MODEL 1
REMARK minimizedAffinity 11.5576372
REMARK minimizedRMSD -1
REMARK  0 active torsions:
REMARK  status: ('A' for Active; 'I' for Inactive)
ROOT
ATOM      1  C4' PXY d   1      -3.828   2.205   0.814  0.00  0.00     0.077 C 
ATOM      2  C1' PXY d   1      -1.605  -0.721  -3.648  0.00  0.00     0.077 C 
ATOM      3  C1  PXY d   1      -2.200   0.041  -2.480  0.00  0.00    -0.082 A 
ATOM      4  C2  PXY d   1      -1.608   1.143  -2.049  0.00  0.00     0.003 A 
ATOM      5  C3  PXY d   1      -2.115   1.827  -0.974  0.00  0.00     0.003 A 
ATOM      6  C4  PXY d   1      -3.268   1.408  -0.367  0.00  0.00    -0.082 A 
ATOM      7  C5  PXY d   1      -3.884   0.290  -0.808  0.00  0.00     0.003 A 
ATOM      8  C6  PXY d   1      -3.331  -0.413  -1.875  0.00  0.00     0.003 A 
ENDROOT
TORSDOF 0
ENDMDL
