MODEL 1
REMARK minimizedAffinity 9.53010273
REMARK minimizedRMSD -1
REMARK  0 active torsions:
REMARK  status: ('A' for Active; 'I' for Inactive)
ROOT
ATOM      1  C4' PXY d   1       2.877  -1.725  -1.744  0.00  0.00     0.077 C 
ATOM      2  C1' PXY d   1       4.534   3.790  -2.255  0.00  0.00     0.077 C 
ATOM      3  C1  PXY d   1       4.100   2.342  -2.134  0.00  0.00    -0.082 A 
ATOM      4  C2  PXY d   1       3.408   1.953  -1.076  0.00  0.00     0.003 A 
ATOM      5  C3  PXY d   1       3.035   0.641  -0.935  0.00  0.00     0.003 A 
ATOM      6  C4  PXY d   1       3.328  -0.271  -1.913  0.00  0.00    -0.082 A 
ATOM      7  C5  PXY d   1       4.025   0.120  -3.001  0.00  0.00     0.003 A 
ATOM      8  C6  PXY d   1       4.430   1.448  -3.105  0.00  0.00     0.003 A 
ENDROOT
TORSDOF 0
ENDMDL
