MODEL 1
REMARK minimizedAffinity 12.7380018
REMARK minimizedRMSD -1
REMARK  0 active torsions:
REMARK  status: ('A' for Active; 'I' for Inactive)
ROOT
ATOM      1  C4' PXY d   1       2.300  -0.615  -2.147  0.00  0.00     0.077 C 
ATOM      2  C1' PXY d   1       4.823   2.731   1.835  0.00  0.00     0.077 C 
ATOM      3  C1  PXY d   1       4.157   1.864   0.784  0.00  0.00    -0.082 A 
ATOM      4  C2  PXY d   1       3.809   0.623   1.084  0.00  0.00     0.003 A 
ATOM      5  C3  PXY d   1       3.235  -0.185   0.137  0.00  0.00     0.003 A 
ATOM      6  C4  PXY d   1       2.966   0.299  -1.115  0.00  0.00    -0.082 A 
ATOM      7  C5  PXY d   1       3.309   1.567  -1.426  0.00  0.00     0.003 A 
ATOM      8  C6  PXY d   1       3.928   2.358  -0.463  0.00  0.00     0.003 A 
ENDROOT
TORSDOF 0
ENDMDL
