MODEL 1
REMARK minimizedAffinity 4.70095348
REMARK minimizedRMSD -1
REMARK  0 active torsions:
REMARK  status: ('A' for Active; 'I' for Inactive)
ROOT
ATOM      1  C4' PXY d   1       5.233   4.569   1.710  0.00  0.00     0.077 C 
ATOM      2  C1' PXY d   1       2.661  -0.018  -0.689  0.00  0.00     0.077 C 
ATOM      3  C1  PXY d   1       3.343   1.186  -0.071  0.00  0.00    -0.082 A 
ATOM      4  C2  PXY d   1       3.348   1.331   1.244  0.00  0.00     0.003 A 
ATOM      5  C3  PXY d   1       3.932   2.431   1.819  0.00  0.00     0.003 A 
ATOM      6  C4  PXY d   1       4.564   3.364   1.042  0.00  0.00    -0.082 A 
ATOM      7  C5  PXY d   1       4.573   3.218  -0.300  0.00  0.00     0.003 A 
ATOM      8  C6  PXY d   1       3.938   2.116  -0.866  0.00  0.00     0.003 A 
ENDROOT
TORSDOF 0
ENDMDL
