MODEL 1
REMARK minimizedAffinity 11.7825832
REMARK minimizedRMSD -1
REMARK  0 active torsions:
REMARK  status: ('A' for Active; 'I' for Inactive)
ROOT
ATOM      1  C4' PXY d   1       3.609   2.484   2.202  0.00  0.00     0.077 C 
ATOM      2  C1' PXY d   1       2.649  -0.672  -2.545  0.00  0.00     0.077 C 
ATOM      3  C1  PXY d   1       2.909   0.163  -1.307  0.00  0.00    -0.082 A 
ATOM      4  C2  PXY d   1       2.716  -0.365  -0.109  0.00  0.00     0.003 A 
ATOM      5  C3  PXY d   1       2.915   0.386   1.021  0.00  0.00     0.003 A 
ATOM      6  C4  PXY d   1       3.369   1.675   0.925  0.00  0.00    -0.082 A 
ATOM      7  C5  PXY d   1       3.579   2.217  -0.294  0.00  0.00     0.003 A 
ATOM      8  C6  PXY d   1       3.331   1.451  -1.429  0.00  0.00     0.003 A 
ENDROOT
TORSDOF 0
ENDMDL
