MODEL 1
REMARK minimizedAffinity 12.0206127
REMARK minimizedRMSD -1
REMARK  0 active torsions:
REMARK  status: ('A' for Active; 'I' for Inactive)
ROOT
ATOM      1  C4' PXY d   1       5.496  -0.850   1.680  0.00  0.00     0.077 C 
ATOM      2  C1' PXY d   1       1.464  -2.247  -2.219  0.00  0.00     0.077 C 
ATOM      3  C1  PXY d   1       2.526  -1.872  -1.205  0.00  0.00    -0.082 A 
ATOM      4  C2  PXY d   1       2.880  -2.744  -0.275  0.00  0.00     0.003 A 
ATOM      5  C3  PXY d   1       3.816  -2.410   0.669  0.00  0.00     0.003 A 
ATOM      6  C4  PXY d   1       4.435  -1.189   0.630  0.00  0.00    -0.082 A 
ATOM      7  C5  PXY d   1       4.087  -0.298  -0.322  0.00  0.00     0.003 A 
ATOM      8  C6  PXY d   1       3.105  -0.641  -1.247  0.00  0.00     0.003 A 
ENDROOT
TORSDOF 0
ENDMDL
