MODEL 1
REMARK minimizedAffinity 7.60900068
REMARK minimizedRMSD -1
REMARK  0 active torsions:
REMARK  status: ('A' for Active; 'I' for Inactive)
ROOT
ATOM      1  C4' PXY d   1      -0.478  -0.186  -1.860  0.00  0.00     0.077 C 
ATOM      2  C1' PXY d   1      -5.999   0.802  -0.460  0.00  0.00     0.077 C 
ATOM      3  C1  PXY d   1      -4.555   0.540  -0.840  0.00  0.00    -0.082 A 
ATOM      4  C2  PXY d   1      -3.680   0.217   0.099  0.00  0.00     0.003 A 
ATOM      5  C3  PXY d   1      -2.363   0.008  -0.222  0.00  0.00     0.003 A 
ATOM      6  C4  PXY d   1      -1.948   0.078  -1.525  0.00  0.00    -0.082 A 
ATOM      7  C5  PXY d   1      -2.837   0.396  -2.490  0.00  0.00     0.003 A 
ATOM      8  C6  PXY d   1      -4.160   0.645  -2.138  0.00  0.00     0.003 A 
ENDROOT
TORSDOF 0
ENDMDL
