MODEL 1
REMARK minimizedAffinity 4.91524506
REMARK minimizedRMSD -1
REMARK  0 active torsions:
REMARK  status: ('A' for Active; 'I' for Inactive)
ROOT
ATOM      1  C4' PXY d   1       4.444   2.669   2.406  0.00  0.00     0.077 C 
ATOM      2  C1' PXY d   1       3.956   0.697  -3.006  0.00  0.00     0.077 C 
ATOM      3  C1  PXY d   1       4.072   1.208  -1.583  0.00  0.00    -0.082 A 
ATOM      4  C2  PXY d   1       4.814   2.275  -1.330  0.00  0.00     0.003 A 
ATOM      5  C3  PXY d   1       4.956   2.732  -0.046  0.00  0.00     0.003 A 
ATOM      6  C4  PXY d   1       4.290   2.123   0.984  0.00  0.00    -0.082 A 
ATOM      7  C5  PXY d   1       3.523   1.041   0.733  0.00  0.00     0.003 A 
ATOM      8  C6  PXY d   1       3.425   0.568  -0.573  0.00  0.00     0.003 A 
ENDROOT
TORSDOF 0
ENDMDL
