MODEL 1
REMARK minimizedAffinity 6.2394371
REMARK minimizedRMSD -1
REMARK  0 active torsions:
REMARK  status: ('A' for Active; 'I' for Inactive)
ROOT
ATOM      1  C4' PXY d   1       2.212  -1.017  -1.880  0.00  0.00     0.077 C 
ATOM      2  C1' PXY d   1       4.519   2.800   1.798  0.00  0.00     0.077 C 
ATOM      3  C1  PXY d   1       3.913   1.809   0.824  0.00  0.00    -0.082 A 
ATOM      4  C2  PXY d   1       3.327   0.715   1.285  0.00  0.00     0.003 A 
ATOM      5  C3  PXY d   1       2.801  -0.208   0.417  0.00  0.00     0.003 A 
ATOM      6  C4  PXY d   1       2.829   0.017  -0.933  0.00  0.00    -0.082 A 
ATOM      7  C5  PXY d   1       3.416   1.135  -1.410  0.00  0.00     0.003 A 
ATOM      8  C6  PXY d   1       3.980   2.039  -0.515  0.00  0.00     0.003 A 
ENDROOT
TORSDOF 0
ENDMDL
