MODEL 1
REMARK minimizedAffinity -3.96996593
REMARK minimizedRMSD -1
REMARK  0 active torsions:
REMARK  status: ('A' for Active; 'I' for Inactive)
ROOT
ATOM      1  N1  IND d   1       1.085   1.363   0.619  0.00  0.00    -0.196 N 
ATOM      2  C2  IND d   1       0.664   0.910  -0.600  0.00  0.00     0.054 A 
ATOM      3  C3  IND d   1      -0.282  -0.043  -0.447  0.00  0.00    -0.031 A 
ATOM      4  C4  IND d   1      -1.363  -0.943   1.709  0.00  0.00     0.051 A 
ATOM      5  C5  IND d   1      -1.280  -0.861   3.071  0.00  0.00    -0.031 A 
ATOM      6  C6  IND d   1      -0.388  -0.015   3.698  0.00  0.00     0.015 A 
ATOM      7  C7  IND d   1       0.450   0.793   2.982  0.00  0.00    -0.016 A 
ATOM      8  C8  IND d   1       0.373   0.708   1.599  0.00  0.00    -0.047 A 
ATOM      9  C9  IND d   1      -0.500  -0.180   0.958  0.00  0.00    -0.096 A 
ATOM     10  HN1 IND d   1       1.693   1.957   0.751  0.00  0.00     0.298 HD
ENDROOT
TORSDOF 0
ENDMDL
