MODEL 1
REMARK minimizedAffinity 1.17804539
REMARK minimizedRMSD -1
REMARK  0 active torsions:
REMARK  status: ('A' for Active; 'I' for Inactive)
ROOT
ATOM      1  N1  IND d   1       0.440   0.827  -0.746  0.00  0.00    -0.196 N 
ATOM      2  C2  IND d   1      -0.800   0.669  -0.193  0.00  0.00     0.054 A 
ATOM      3  C3  IND d   1      -1.441  -0.374  -0.767  0.00  0.00    -0.031 A 
ATOM      4  C4  IND d   1      -0.606  -2.021  -2.561  0.00  0.00     0.051 A 
ATOM      5  C5  IND d   1       0.448  -2.259  -3.398  0.00  0.00    -0.031 A 
ATOM      6  C6  IND d   1       1.577  -1.467  -3.391  0.00  0.00     0.015 A 
ATOM      7  C7  IND d   1       1.700  -0.408  -2.536  0.00  0.00    -0.016 A 
ATOM      8  C8  IND d   1       0.628  -0.159  -1.690  0.00  0.00    -0.047 A 
ATOM      9  C9  IND d   1      -0.538  -0.934  -1.722  0.00  0.00    -0.096 A 
ATOM     10  HN1 IND d   1       1.007   1.440  -0.540  0.00  0.00     0.298 HD
ENDROOT
TORSDOF 0
ENDMDL
