MODEL 1
REMARK minimizedAffinity -4.1083312
REMARK minimizedRMSD -1
REMARK  0 active torsions:
REMARK  status: ('A' for Active; 'I' for Inactive)
ROOT
ATOM      1  N1  IND d   1      -0.502   1.244  -0.543  0.00  0.00    -0.196 N 
ATOM      2  C2  IND d   1       0.863   1.318  -0.527  0.00  0.00     0.054 A 
ATOM      3  C3  IND d   1       1.327   1.170   0.734  0.00  0.00    -0.031 A 
ATOM      4  C4  IND d   1       0.033   0.696   2.909  0.00  0.00     0.051 A 
ATOM      5  C5  IND d   1      -1.236   0.580   3.404  0.00  0.00    -0.031 A 
ATOM      6  C6  IND d   1      -2.347   0.679   2.592  0.00  0.00     0.015 A 
ATOM      7  C7  IND d   1      -2.230   0.887   1.247  0.00  0.00    -0.016 A 
ATOM      8  C8  IND d   1      -0.944   1.012   0.741  0.00  0.00    -0.047 A 
ATOM      9  C9  IND d   1       0.186   0.956   1.567  0.00  0.00    -0.096 A 
ATOM     10  HN1 IND d   1      -1.001   1.329  -1.238  0.00  0.00     0.298 HD
ENDROOT
TORSDOF 0
ENDMDL
