MODEL 1
REMARK minimizedAffinity -4.87080288
REMARK minimizedRMSD -1
REMARK  0 active torsions:
REMARK  status: ('A' for Active; 'I' for Inactive)
ROOT
ATOM      1  N1  IND d   1       0.008   1.030  -0.683  0.00  0.00    -0.196 N 
ATOM      2  C2  IND d   1      -1.246   0.759  -1.155  0.00  0.00     0.054 A 
ATOM      3  C3  IND d   1      -1.950   0.052  -0.243  0.00  0.00    -0.031 A 
ATOM      4  C4  IND d   1      -1.276  -0.683   2.131  0.00  0.00     0.051 A 
ATOM      5  C5  IND d   1      -0.216  -0.699   2.993  0.00  0.00    -0.031 A 
ATOM      6  C6  IND d   1       0.996  -0.125   2.669  0.00  0.00     0.015 A 
ATOM      7  C7  IND d   1       1.191   0.498   1.469  0.00  0.00    -0.016 A 
ATOM      8  C8  IND d   1       0.119   0.510   0.588  0.00  0.00    -0.047 A 
ATOM      9  C9  IND d   1      -1.100  -0.107   0.894  0.00  0.00    -0.096 A 
ATOM     10  HN1 IND d   1       0.623   1.453  -1.109  0.00  0.00     0.298 HD
ENDROOT
TORSDOF 0
ENDMDL
