MODEL 1
REMARK minimizedAffinity -4.37336731
REMARK minimizedRMSD -1
REMARK  0 active torsions:
REMARK  status: ('A' for Active; 'I' for Inactive)
ROOT
ATOM      1  N1  IND d   1      -1.226  -0.046  -0.483  0.00  0.00    -0.196 N 
ATOM      2  C2  IND d   1      -0.221   0.356  -1.318  0.00  0.00     0.054 A 
ATOM      3  C3  IND d   1       0.946   0.443  -0.642  0.00  0.00    -0.031 A 
ATOM      4  C4  IND d   1       1.458  -0.125   1.816  0.00  0.00     0.051 A 
ATOM      5  C5  IND d   1       0.854  -0.497   2.984  0.00  0.00    -0.031 A 
ATOM      6  C6  IND d   1      -0.502  -0.746   3.057  0.00  0.00     0.015 A 
ATOM      7  C7  IND d   1      -1.305  -0.642   1.957  0.00  0.00    -0.016 A 
ATOM      8  C8  IND d   1      -0.696  -0.257   0.771  0.00  0.00    -0.047 A 
ATOM      9  C9  IND d   1       0.672   0.037   0.700  0.00  0.00    -0.096 A 
ATOM     10  HN1 IND d   1      -2.051  -0.149  -0.704  0.00  0.00     0.298 HD
ENDROOT
TORSDOF 0
ENDMDL
