MODEL 1
REMARK minimizedAffinity -4.42778254
REMARK minimizedRMSD -1
REMARK  0 active torsions:
REMARK  status: ('A' for Active; 'I' for Inactive)
ROOT
ATOM      1  N1  IND d   1      -1.416   0.460  -0.420  0.00  0.00    -0.196 N 
ATOM      2  C2  IND d   1      -0.331   0.876  -1.140  0.00  0.00     0.054 A 
ATOM      3  C3  IND d   1       0.795   0.768  -0.399  0.00  0.00    -0.031 A 
ATOM      4  C4  IND d   1       1.104  -0.159   1.982  0.00  0.00     0.051 A 
ATOM      5  C5  IND d   1       0.399  -0.625   3.056  0.00  0.00    -0.031 A 
ATOM      6  C6  IND d   1      -0.974  -0.758   3.025  0.00  0.00     0.015 A 
ATOM      7  C7  IND d   1      -1.696  -0.440   1.910  0.00  0.00    -0.016 A 
ATOM      8  C8  IND d   1      -0.984   0.040   0.819  0.00  0.00    -0.047 A 
ATOM      9  C9  IND d   1       0.405   0.218   0.860  0.00  0.00    -0.096 A 
ATOM     10  HN1 IND d   1      -2.231   0.460  -0.694  0.00  0.00     0.298 HD
ENDROOT
TORSDOF 0
ENDMDL
