MODEL 1
REMARK minimizedAffinity -4.24618816
REMARK minimizedRMSD -1
REMARK  0 active torsions:
REMARK  status: ('A' for Active; 'I' for Inactive)
ROOT
ATOM      1  N1  IND d   1      -0.717   0.816  -0.456  0.00  0.00    -0.196 N 
ATOM      2  C2  IND d   1      -1.941   0.686   0.139  0.00  0.00     0.054 A 
ATOM      3  C3  IND d   1      -1.797   0.430   1.458  0.00  0.00    -0.031 A 
ATOM      4  C4  IND d   1       0.349   0.282   2.872  0.00  0.00     0.051 A 
ATOM      5  C5  IND d   1       1.712   0.296   2.766  0.00  0.00    -0.031 A 
ATOM      6  C6  IND d   1       2.347   0.490   1.557  0.00  0.00     0.015 A 
ATOM      7  C7  IND d   1       1.640   0.690   0.405  0.00  0.00    -0.016 A 
ATOM      8  C8  IND d   1       0.257   0.670   0.507  0.00  0.00    -0.047 A 
ATOM      9  C9  IND d   1      -0.394   0.431   1.725  0.00  0.00    -0.096 A 
ATOM     10  HN1 IND d   1      -0.579   0.964  -1.292  0.00  0.00     0.298 HD
ENDROOT
TORSDOF 0
ENDMDL
