MODEL 1
REMARK minimizedAffinity -3.4437201
REMARK minimizedRMSD -1
REMARK  0 active torsions:
REMARK  status: ('A' for Active; 'I' for Inactive)
ROOT
ATOM      1  N1  IND d   1      -0.185  -0.463  -1.419  0.00  0.00    -0.196 N 
ATOM      2  C2  IND d   1       0.903  -1.093  -1.957  0.00  0.00     0.054 A 
ATOM      3  C3  IND d   1       1.844  -1.299  -1.008  0.00  0.00    -0.031 A 
ATOM      4  C4  IND d   1       1.767  -0.776   1.511  0.00  0.00     0.051 A 
ATOM      5  C5  IND d   1       0.997  -0.169   2.463  0.00  0.00    -0.031 A 
ATOM      6  C6  IND d   1      -0.233   0.380   2.163  0.00  0.00     0.015 A 
ATOM      7  C7  IND d   1      -0.746   0.332   0.897  0.00  0.00    -0.016 A 
ATOM      8  C8  IND d   1       0.037  -0.278  -0.073  0.00  0.00    -0.047 A 
ATOM      9  C9  IND d   1       1.305  -0.799   0.217  0.00  0.00    -0.096 A 
ATOM     10  HN1 IND d   1      -0.889  -0.223  -1.850  0.00  0.00     0.298 HD
ENDROOT
TORSDOF 0
ENDMDL
