MODEL 1
REMARK minimizedAffinity 1.51764786
REMARK minimizedRMSD -1
REMARK  0 active torsions:
REMARK  status: ('A' for Active; 'I' for Inactive)
ROOT
ATOM      1  N1  IND d   1       0.024   0.338  -2.976  0.00  0.00    -0.196 N 
ATOM      2  C2  IND d   1       1.032  -0.583  -3.039  0.00  0.00     0.054 A 
ATOM      3  C3  IND d   1       1.231  -1.147  -1.826  0.00  0.00    -0.031 A 
ATOM      4  C4  IND d   1      -0.051  -0.782   0.377  0.00  0.00     0.051 A 
ATOM      5  C5  IND d   1      -1.030  -0.012   0.938  0.00  0.00    -0.031 A 
ATOM      6  C6  IND d   1      -1.724   0.931   0.209  0.00  0.00     0.015 A 
ATOM      7  C7  IND d   1      -1.471   1.133  -1.119  0.00  0.00    -0.016 A 
ATOM      8  C8  IND d   1      -0.472   0.358  -1.691  0.00  0.00    -0.047 A 
ATOM      9  C9  IND d   1       0.265  -0.572  -0.945  0.00  0.00    -0.096 A 
ATOM     10  HN1 IND d   1      -0.253   0.824  -3.628  0.00  0.00     0.298 HD
ENDROOT
TORSDOF 0
ENDMDL
