MODEL 1
REMARK minimizedAffinity -4.67236567
REMARK minimizedRMSD -1
REMARK  0 active torsions:
REMARK  status: ('A' for Active; 'I' for Inactive)
ROOT
ATOM      1  N1  IND d   1       0.127   0.807   0.007  0.00  0.00    -0.196 N 
ATOM      2  C2  IND d   1      -0.124   0.184   1.198  0.00  0.00     0.054 A 
ATOM      3  C3  IND d   1      -0.242  -1.150   1.014  0.00  0.00    -0.031 A 
ATOM      4  C4  IND d   1       0.040  -2.537  -1.137  0.00  0.00     0.051 A 
ATOM      5  C5  IND d   1       0.239  -2.408  -2.483  0.00  0.00    -0.031 A 
ATOM      6  C6  IND d   1       0.416  -1.177  -3.079  0.00  0.00     0.015 A 
ATOM      7  C7  IND d   1       0.414  -0.023  -2.347  0.00  0.00    -0.016 A 
ATOM      8  C8  IND d   1       0.206  -0.149  -0.981  0.00  0.00    -0.047 A 
ATOM      9  C9  IND d   1      -0.018  -1.393  -0.376  0.00  0.00    -0.096 A 
ATOM     10  HN1 IND d   1       0.221   1.655  -0.105  0.00  0.00     0.298 HD
ENDROOT
TORSDOF 0
ENDMDL
