MODEL 1
REMARK minimizedAffinity -0.223478645
REMARK minimizedRMSD -1
REMARK  0 active torsions:
REMARK  status: ('A' for Active; 'I' for Inactive)
ROOT
ATOM      1  N1  IND d   1       1.242   2.076   3.976  0.00  0.00    -0.196 N 
ATOM      2  C2  IND d   1       0.969   3.234   4.649  0.00  0.00     0.054 A 
ATOM      3  C3  IND d   1      -0.351   3.520   4.577  0.00  0.00    -0.031 A 
ATOM      4  C4  IND d   1      -2.259   2.173   3.495  0.00  0.00     0.051 A 
ATOM      5  C5  IND d   1      -2.497   1.065   2.731  0.00  0.00    -0.031 A 
ATOM      6  C6  IND d   1      -1.481   0.219   2.337  0.00  0.00     0.015 A 
ATOM      7  C7  IND d   1      -0.184   0.444   2.704  0.00  0.00    -0.016 A 
ATOM      8  C8  IND d   1       0.062   1.572   3.474  0.00  0.00    -0.047 A 
ATOM      9  C9  IND d   1      -0.959   2.457   3.841  0.00  0.00    -0.096 A 
ATOM     10  HN1 IND d   1       2.020   1.722   3.882  0.00  0.00     0.298 HD
ENDROOT
TORSDOF 0
ENDMDL
