MODEL 1
REMARK minimizedAffinity -4.7593112
REMARK minimizedRMSD -1
REMARK  0 active torsions:
REMARK  status: ('A' for Active; 'I' for Inactive)
ROOT
ATOM      1  N1  IND d   1      -1.110  -0.076  -0.814  0.00  0.00    -0.196 N 
ATOM      2  C2  IND d   1       0.227  -0.362  -0.816  0.00  0.00     0.054 A 
ATOM      3  C3  IND d   1       0.682  -0.497   0.450  0.00  0.00    -0.031 A 
ATOM      4  C4  IND d   1      -0.613  -0.391   2.672  0.00  0.00     0.051 A 
ATOM      5  C5  IND d   1      -1.849  -0.119   3.187  0.00  0.00    -0.031 A 
ATOM      6  C6  IND d   1      -2.925   0.185   2.378  0.00  0.00     0.015 A 
ATOM      7  C7  IND d   1      -2.806   0.216   1.017  0.00  0.00    -0.016 A 
ATOM      8  C8  IND d   1      -1.550  -0.052   0.491  0.00  0.00    -0.047 A 
ATOM      9  C9  IND d   1      -0.445  -0.319   1.310  0.00  0.00    -0.096 A 
ATOM     10  HN1 IND d   1      -1.594   0.065  -1.510  0.00  0.00     0.298 HD
ENDROOT
TORSDOF 0
ENDMDL
