MODEL 1
REMARK minimizedAffinity -1.97066331
REMARK minimizedRMSD -1
REMARK  0 active torsions:
REMARK  status: ('A' for Active; 'I' for Inactive)
ROOT
ATOM      1  N1  IND d   1       1.323  -4.335  -1.410  0.00  0.00    -0.196 N 
ATOM      2  C2  IND d   1       0.092  -4.672  -0.920  0.00  0.00     0.054 A 
ATOM      3  C3  IND d   1      -0.784  -3.661  -1.112  0.00  0.00    -0.031 A 
ATOM      4  C4  IND d   1      -0.441  -1.403  -2.299  0.00  0.00     0.051 A 
ATOM      5  C5  IND d   1       0.522  -0.626  -2.880  0.00  0.00    -0.031 A 
ATOM      6  C6  IND d   1       1.827  -1.056  -3.005  0.00  0.00     0.015 A 
ATOM      7  C7  IND d   1       2.217  -2.288  -2.563  0.00  0.00    -0.016 A 
ATOM      8  C8  IND d   1       1.243  -3.077  -1.966  0.00  0.00    -0.047 A 
ATOM      9  C9  IND d   1      -0.074  -2.629  -1.798  0.00  0.00    -0.096 A 
ATOM     10  HN1 IND d   1       2.028  -4.825  -1.377  0.00  0.00     0.298 HD
ENDROOT
TORSDOF 0
ENDMDL
