MODEL 1
REMARK minimizedAffinity -5.94680405
REMARK minimizedRMSD -1
REMARK  0 active torsions:
REMARK  status: ('A' for Active; 'I' for Inactive)
ROOT
ATOM      1  N1  IND d   1      -2.562   0.519   0.195  0.00  0.00    -0.196 N 
ATOM      2  C2  IND d   1      -2.056   0.741  -1.056  0.00  0.00     0.054 A 
ATOM      3  C3  IND d   1      -0.705   0.699  -1.031  0.00  0.00    -0.031 A 
ATOM      4  C4  IND d   1       0.880   0.182   0.930  0.00  0.00     0.051 A 
ATOM      5  C5  IND d   1       0.887  -0.049   2.277  0.00  0.00    -0.031 A 
ATOM      6  C6  IND d   1      -0.279  -0.107   3.014  0.00  0.00     0.015 A 
ATOM      7  C7  IND d   1      -1.501   0.054   2.425  0.00  0.00    -0.016 A 
ATOM      8  C8  IND d   1      -1.512   0.296   1.059  0.00  0.00    -0.047 A 
ATOM      9  C9  IND d   1      -0.330   0.398   0.314  0.00  0.00    -0.096 A 
ATOM     10  HN1 IND d   1      -3.395   0.519   0.406  0.00  0.00     0.298 HD
ENDROOT
TORSDOF 0
ENDMDL
