MODEL 1
REMARK minimizedAffinity -2.41542482
REMARK minimizedRMSD -1
REMARK  0 active torsions:
REMARK  status: ('A' for Active; 'I' for Inactive)
ROOT
ATOM      1  C   UNL d   1      -1.163   2.132  -0.187  0.00  0.00     0.077 C 
ATOM      2  C1  UNL d   1      -0.439   0.824  -0.072  0.00  0.00    -0.074 A 
ATOM      3  C2  UNL d   1       0.778   0.733   0.612  0.00  0.00    -0.005 A 
ATOM      4  C3  UNL d   1       1.435  -0.492   0.719  0.00  0.00     0.006 A 
ATOM      5  C4  UNL d   1       0.884  -1.638   0.144  0.00  0.00    -0.005 A 
ATOM      6  C5  UNL d   1      -0.333  -1.567  -0.542  0.00  0.00    -0.074 A 
ATOM      7  C6  UNL d   1      -0.944  -2.791  -1.158  0.00  0.00     0.077 C 
ATOM      8  C7  UNL d   1      -0.990  -0.333  -0.640  0.00  0.00    -0.001 A 
ENDROOT
TORSDOF 0
ENDMDL
