MODEL 1
REMARK minimizedAffinity -1.18403125
REMARK minimizedRMSD -1
REMARK  0 active torsions:
REMARK  status: ('A' for Active; 'I' for Inactive)
ROOT
ATOM      1  C   UNL d   1       0.102  -1.596   0.296  0.00  0.00     0.077 C 
ATOM      2  C1  UNL d   1      -0.434  -2.331  -0.896  0.00  0.00    -0.074 A 
ATOM      3  C2  UNL d   1       0.322  -2.451  -2.067  0.00  0.00    -0.005 A 
ATOM      4  C3  UNL d   1      -0.185  -3.146  -3.164  0.00  0.00     0.006 A 
ATOM      5  C4  UNL d   1      -1.452  -3.728  -3.103  0.00  0.00    -0.005 A 
ATOM      6  C5  UNL d   1      -2.222  -3.620  -1.940  0.00  0.00    -0.074 A 
ATOM      7  C6  UNL d   1      -3.581  -4.248  -1.854  0.00  0.00     0.077 C 
ATOM      8  C7  UNL d   1      -1.702  -2.926  -0.839  0.00  0.00    -0.001 A 
ENDROOT
TORSDOF 0
ENDMDL
