MODEL 1
REMARK minimizedAffinity -5.13039637
REMARK minimizedRMSD -1
REMARK  0 active torsions:
REMARK  status: ('A' for Active; 'I' for Inactive)
ROOT
ATOM      1  C   UNL d   1       0.014   2.949   0.046  0.00  0.00     0.077 C 
ATOM      2  C1  UNL d   1      -0.139   1.496  -0.295  0.00  0.00    -0.074 A 
ATOM      3  C2  UNL d   1      -0.975   1.086  -1.338  0.00  0.00    -0.005 A 
ATOM      4  C3  UNL d   1      -1.100  -0.268  -1.649  0.00  0.00     0.006 A 
ATOM      5  C4  UNL d   1      -0.390  -1.224  -0.921  0.00  0.00    -0.005 A 
ATOM      6  C5  UNL d   1       0.453  -0.833   0.124  0.00  0.00    -0.074 A 
ATOM      7  C6  UNL d   1       1.230  -1.846   0.909  0.00  0.00     0.077 C 
ATOM      8  C7  UNL d   1       0.577   0.530   0.426  0.00  0.00    -0.001 A 
ENDROOT
TORSDOF 0
ENDMDL
