MODEL 1
REMARK minimizedAffinity -2.89749336
REMARK minimizedRMSD -1
REMARK  0 active torsions:
REMARK  status: ('A' for Active; 'I' for Inactive)
ROOT
ATOM      1  C   UNL d   1      -2.707  -4.249  -0.810  0.00  0.00     0.077 C 
ATOM      2  C1  UNL d   1      -1.800  -3.238  -1.446  0.00  0.00    -0.074 A 
ATOM      3  C2  UNL d   1      -1.252  -3.459  -2.713  0.00  0.00    -0.005 A 
ATOM      4  C3  UNL d   1      -0.418  -2.505  -3.296  0.00  0.00     0.006 A 
ATOM      5  C4  UNL d   1      -0.123  -1.322  -2.617  0.00  0.00    -0.005 A 
ATOM      6  C5  UNL d   1      -0.662  -1.082  -1.349  0.00  0.00    -0.074 A 
ATOM      7  C6  UNL d   1      -0.363   0.188  -0.611  0.00  0.00     0.077 C 
ATOM      8  C7  UNL d   1      -1.505  -2.043  -0.774  0.00  0.00    -0.001 A 
ENDROOT
TORSDOF 0
ENDMDL
