MODEL 1
REMARK minimizedAffinity -3.70736027
REMARK minimizedRMSD -1
REMARK  0 active torsions:
REMARK  status: ('A' for Active; 'I' for Inactive)
ROOT
ATOM      1  C   UNL d   1       0.849  -0.913  -0.352  0.00  0.00     0.077 C 
ATOM      2  C1  UNL d   1      -0.064   0.181   0.115  0.00  0.00    -0.074 A 
ATOM      3  C2  UNL d   1       0.421   1.472   0.348  0.00  0.00    -0.005 A 
ATOM      4  C3  UNL d   1      -0.442   2.482   0.774  0.00  0.00     0.006 A 
ATOM      5  C4  UNL d   1      -1.797   2.211   0.970  0.00  0.00    -0.005 A 
ATOM      6  C5  UNL d   1      -2.300   0.927   0.741  0.00  0.00    -0.074 A 
ATOM      7  C6  UNL d   1      -3.756   0.621   0.938  0.00  0.00     0.077 C 
ATOM      8  C7  UNL d   1      -1.428  -0.081   0.307  0.00  0.00    -0.001 A 
ENDROOT
TORSDOF 0
ENDMDL
