MODEL 1
REMARK minimizedAffinity -4.40321207
REMARK minimizedRMSD -1
REMARK  0 active torsions:
REMARK  status: ('A' for Active; 'I' for Inactive)
ROOT
ATOM      1  C   UNL d   1       0.558   4.013  -0.014  0.00  0.00     0.077 C 
ATOM      2  C1  UNL d   1       0.180   2.564   0.063  0.00  0.00    -0.074 A 
ATOM      3  C2  UNL d   1       1.004   1.576  -0.486  0.00  0.00    -0.005 A 
ATOM      4  C3  UNL d   1       0.644   0.231  -0.398  0.00  0.00     0.006 A 
ATOM      5  C4  UNL d   1      -0.541  -0.139   0.238  0.00  0.00    -0.005 A 
ATOM      6  C5  UNL d   1      -1.377   0.835   0.794  0.00  0.00    -0.074 A 
ATOM      7  C6  UNL d   1      -2.650   0.454   1.491  0.00  0.00     0.077 C 
ATOM      8  C7  UNL d   1      -1.005   2.184   0.708  0.00  0.00    -0.001 A 
ENDROOT
TORSDOF 0
ENDMDL
