MODEL 1
REMARK minimizedAffinity -4.77818775
REMARK minimizedRMSD -1
REMARK  0 active torsions:
REMARK  status: ('A' for Active; 'I' for Inactive)
ROOT
ATOM      1  C   UNL d   1      -0.670   2.743  -2.181  0.00  0.00     0.077 C 
ATOM      2  C1  UNL d   1      -0.797   1.818  -1.007  0.00  0.00    -0.074 A 
ATOM      3  C2  UNL d   1      -1.162   2.301   0.253  0.00  0.00    -0.005 A 
ATOM      4  C3  UNL d   1      -1.285   1.427   1.333  0.00  0.00     0.006 A 
ATOM      5  C4  UNL d   1      -1.045   0.063   1.164  0.00  0.00    -0.005 A 
ATOM      6  C5  UNL d   1      -0.679  -0.438  -0.089  0.00  0.00    -0.074 A 
ATOM      7  C6  UNL d   1      -0.426  -1.903  -0.291  0.00  0.00     0.077 C 
ATOM      8  C7  UNL d   1      -0.564   0.445  -1.171  0.00  0.00    -0.001 A 
ENDROOT
TORSDOF 0
ENDMDL
