MODEL 1
REMARK minimizedAffinity -4.70350409
REMARK minimizedRMSD -1
REMARK  0 active torsions:
REMARK  status: ('A' for Active; 'I' for Inactive)
ROOT
ATOM      1  C   UNL d   1      -0.551  -1.628  -0.055  0.00  0.00     0.077 C 
ATOM      2  C1  UNL d   1      -0.332  -0.151   0.093  0.00  0.00    -0.074 A 
ATOM      3  C2  UNL d   1      -1.409   0.719   0.292  0.00  0.00    -0.005 A 
ATOM      4  C3  UNL d   1      -1.189   2.088   0.437  0.00  0.00     0.006 A 
ATOM      5  C4  UNL d   1       0.107   2.601   0.385  0.00  0.00    -0.005 A 
ATOM      6  C5  UNL d   1       1.197   1.747   0.188  0.00  0.00    -0.074 A 
ATOM      7  C6  UNL d   1       2.597   2.281   0.139  0.00  0.00     0.077 C 
ATOM      8  C7  UNL d   1       0.968   0.371   0.050  0.00  0.00    -0.001 A 
ENDROOT
TORSDOF 0
ENDMDL
