MODEL 1
REMARK minimizedAffinity -5.41764879
REMARK minimizedRMSD -1
REMARK  0 active torsions:
REMARK  status: ('A' for Active; 'I' for Inactive)
ROOT
ATOM      1  C   UNL d   1       2.989   2.200   0.703  0.00  0.00     0.077 C 
ATOM      2  C1  UNL d   1       1.584   1.693   0.568  0.00  0.00    -0.074 A 
ATOM      3  C2  UNL d   1       0.491   2.549   0.738  0.00  0.00    -0.005 A 
ATOM      4  C3  UNL d   1      -0.810   2.066   0.600  0.00  0.00     0.006 A 
ATOM      5  C4  UNL d   1      -1.031   0.723   0.291  0.00  0.00    -0.005 A 
ATOM      6  C5  UNL d   1       0.049  -0.148   0.116  0.00  0.00    -0.074 A 
ATOM      7  C6  UNL d   1      -0.172  -1.592  -0.226  0.00  0.00     0.077 C 
ATOM      8  C7  UNL d   1       1.353   0.347   0.250  0.00  0.00    -0.001 A 
ENDROOT
TORSDOF 0
ENDMDL
