MODEL 1
REMARK minimizedAffinity -3.52471542
REMARK minimizedRMSD -1
REMARK  0 active torsions:
REMARK  status: ('A' for Active; 'I' for Inactive)
ROOT
ATOM      1  C   UNL d   1       0.944   3.562   0.038  0.00  0.00     0.077 C 
ATOM      2  C1  UNL d   1       0.108   2.327   0.201  0.00  0.00    -0.074 A 
ATOM      3  C2  UNL d   1      -1.079   2.355   0.940  0.00  0.00    -0.005 A 
ATOM      4  C3  UNL d   1      -1.850   1.201   1.075  0.00  0.00     0.006 A 
ATOM      5  C4  UNL d   1      -1.443   0.009   0.475  0.00  0.00    -0.005 A 
ATOM      6  C5  UNL d   1      -0.259  -0.038  -0.268  0.00  0.00    -0.074 A 
ATOM      7  C6  UNL d   1       0.188  -1.308  -0.928  0.00  0.00     0.077 C 
ATOM      8  C7  UNL d   1       0.507   1.128  -0.406  0.00  0.00    -0.001 A 
ENDROOT
TORSDOF 0
ENDMDL
