MODEL 1
REMARK minimizedAffinity -6.04373407
REMARK minimizedRMSD -1
REMARK  0 active torsions:
REMARK  status: ('A' for Active; 'I' for Inactive)
ROOT
ATOM      1  C   UNL d   1      -0.060  -1.271   0.029  0.00  0.00     0.077 C 
ATOM      2  C1  UNL d   1       0.154   0.202   0.214  0.00  0.00    -0.074 A 
ATOM      3  C2  UNL d   1      -0.897   1.109   0.043  0.00  0.00    -0.005 A 
ATOM      4  C3  UNL d   1      -0.685   2.475   0.228  0.00  0.00     0.006 A 
ATOM      5  C4  UNL d   1       0.578   2.948   0.584  0.00  0.00    -0.005 A 
ATOM      6  C5  UNL d   1       1.642   2.056   0.759  0.00  0.00    -0.074 A 
ATOM      7  C6  UNL d   1       3.004   2.547   1.152  0.00  0.00     0.077 C 
ATOM      8  C7  UNL d   1       1.419   0.684   0.579  0.00  0.00    -0.001 A 
ENDROOT
TORSDOF 0
ENDMDL
