MODEL 1
REMARK minimizedAffinity 0.847260654
REMARK minimizedRMSD -1
REMARK  0 active torsions:
REMARK  status: ('A' for Active; 'I' for Inactive)
ROOT
ATOM      1  C   UNL d   1      -1.060   3.144   3.222  0.00  0.00     0.077 C 
ATOM      2  C1  UNL d   1      -0.711   2.573   1.879  0.00  0.00    -0.074 A 
ATOM      3  C2  UNL d   1      -0.177   3.381   0.871  0.00  0.00    -0.005 A 
ATOM      4  C3  UNL d   1       0.152   2.834  -0.369  0.00  0.00     0.006 A 
ATOM      5  C4  UNL d   1      -0.050   1.475  -0.613  0.00  0.00    -0.005 A 
ATOM      6  C5  UNL d   1      -0.583   0.651   0.383  0.00  0.00    -0.074 A 
ATOM      7  C6  UNL d   1      -0.797  -0.814   0.141  0.00  0.00     0.077 C 
ATOM      8  C7  UNL d   1      -0.904   1.207   1.629  0.00  0.00    -0.001 A 
ENDROOT
TORSDOF 0
ENDMDL
