MODEL 1
REMARK minimizedAffinity -0.560883999
REMARK minimizedRMSD -1
REMARK  0 active torsions:
REMARK  status: ('A' for Active; 'I' for Inactive)
ROOT
ATOM      1  C   UNL d   1      -0.540  -2.675  -0.323  0.00  0.00     0.077 C 
ATOM      2  C1  UNL d   1       0.206  -1.415   0.003  0.00  0.00    -0.074 A 
ATOM      3  C2  UNL d   1       1.590  -1.432   0.205  0.00  0.00    -0.005 A 
ATOM      4  C3  UNL d   1       2.272  -0.251   0.498  0.00  0.00     0.006 A 
ATOM      5  C4  UNL d   1       1.578   0.956   0.592  0.00  0.00    -0.005 A 
ATOM      6  C5  UNL d   1       0.195   0.992   0.393  0.00  0.00    -0.074 A 
ATOM      7  C6  UNL d   1      -0.565   2.283   0.482  0.00  0.00     0.077 C 
ATOM      8  C7  UNL d   1      -0.482  -0.197   0.092  0.00  0.00    -0.001 A 
ENDROOT
TORSDOF 0
ENDMDL
