MODEL 1
REMARK minimizedAffinity 6.62008381
REMARK minimizedRMSD -1
REMARK  0 active torsions:
REMARK  status: ('A' for Active; 'I' for Inactive)
ROOT
ATOM      1  C   UNL d   1      -1.920  -4.568  -1.803  0.00  0.00     0.077 C 
ATOM      2  C1  UNL d   1      -0.667  -3.751  -1.904  0.00  0.00    -0.074 A 
ATOM      3  C2  UNL d   1       0.142  -3.815  -3.044  0.00  0.00    -0.005 A 
ATOM      4  C3  UNL d   1       1.300  -3.042  -3.127  0.00  0.00     0.006 A 
ATOM      5  C4  UNL d   1       1.661  -2.199  -2.075  0.00  0.00    -0.005 A 
ATOM      6  C5  UNL d   1       0.863  -2.122  -0.929  0.00  0.00    -0.074 A 
ATOM      7  C6  UNL d   1       1.231  -1.214   0.207  0.00  0.00     0.077 C 
ATOM      8  C7  UNL d   1      -0.302  -2.897  -0.855  0.00  0.00    -0.001 A 
ENDROOT
TORSDOF 0
ENDMDL
