MODEL 1
REMARK minimizedAffinity 4.71182156
REMARK minimizedRMSD -1
REMARK  0 active torsions:
REMARK  status: ('A' for Active; 'I' for Inactive)
ROOT
ATOM      1  C   UNL d   1       2.579   0.301   0.227  0.00  0.00     0.077 C 
ATOM      2  C1  UNL d   1       1.818   1.589   0.128  0.00  0.00    -0.074 A 
ATOM      3  C2  UNL d   1       2.330   2.673  -0.593  0.00  0.00    -0.005 A 
ATOM      4  C3  UNL d   1       1.606   3.862  -0.684  0.00  0.00     0.006 A 
ATOM      5  C4  UNL d   1       0.365   3.979  -0.057  0.00  0.00    -0.005 A 
ATOM      6  C5  UNL d   1      -0.163   2.905   0.668  0.00  0.00    -0.074 A 
ATOM      7  C6  UNL d   1      -1.500   3.011   1.340  0.00  0.00     0.077 C 
ATOM      8  C7  UNL d   1       0.567   1.712   0.749  0.00  0.00    -0.001 A 
ENDROOT
TORSDOF 0
ENDMDL
