MODEL 1
REMARK minimizedAffinity -0.60451597
REMARK minimizedRMSD -1
REMARK  0 active torsions:
REMARK  status: ('A' for Active; 'I' for Inactive)
ROOT
ATOM      1  C   UNL d   1      -3.200   2.287   0.480  0.00  0.00     0.077 C 
ATOM      2  C1  UNL d   1      -1.763   1.864   0.402  0.00  0.00    -0.074 A 
ATOM      3  C2  UNL d   1      -0.733   2.811   0.424  0.00  0.00    -0.005 A 
ATOM      4  C3  UNL d   1       0.599   2.402   0.360  0.00  0.00     0.006 A 
ATOM      5  C4  UNL d   1       0.915   1.046   0.275  0.00  0.00    -0.005 A 
ATOM      6  C5  UNL d   1      -0.101   0.085   0.252  0.00  0.00    -0.074 A 
ATOM      7  C6  UNL d   1       0.221  -1.378   0.171  0.00  0.00     0.077 C 
ATOM      8  C7  UNL d   1      -1.437   0.503   0.324  0.00  0.00    -0.001 A 
ENDROOT
TORSDOF 0
ENDMDL
