MODEL 1
REMARK minimizedAffinity -5.28175163
REMARK minimizedRMSD -1
REMARK  0 active torsions:
REMARK  status: ('A' for Active; 'I' for Inactive)
ROOT
ATOM      1  C   UNL d   1      -0.590   0.912   3.072  0.00  0.00     0.124 A 
ATOM      2  C1  UNL d   1       0.734   0.586   2.814  0.00  0.00     0.062 A 
ATOM      3  C2  UNL d   1       1.098   0.066   1.575  0.00  0.00     0.162 A 
ATOM      4  C3  UNL d   1       0.136  -0.131   0.584  0.00  0.00    -0.034 A 
ATOM      5  C4  UNL d   1      -1.194   0.199   0.851  0.00  0.00     0.162 A 
ATOM      6  C5  UNL d   1      -1.552   0.719   2.091  0.00  0.00     0.062 A 
ATOM      7  F   UNL d   1      -2.832   1.034   2.338  0.00  0.00    -0.097 F 
ATOM      8  F1  UNL d   1      -2.143   0.023  -0.079  0.00  0.00    -0.096 F 
ATOM      9  I   UNL d   1       0.677  -0.908  -1.269  0.00  0.00    -0.060 I 
ATOM     10  F2  UNL d   1       2.385  -0.241   1.354  0.00  0.00    -0.096 F 
ATOM     11  F3  UNL d   1       1.665   0.771   3.761  0.00  0.00    -0.097 F 
ATOM     12  F4  UNL d   1      -0.938   1.412   4.265  0.00  0.00    -0.092 F 
ENDROOT
TORSDOF 0
ENDMDL
