MODEL 1
REMARK minimizedAffinity -2.88311243
REMARK minimizedRMSD -1
REMARK  0 active torsions:
REMARK  status: ('A' for Active; 'I' for Inactive)
ROOT
ATOM      1  C   UNL d   1      -0.054  -0.051   2.198  0.00  0.00     0.124 A 
ATOM      2  C1  UNL d   1      -1.109   0.341   1.385  0.00  0.00     0.062 A 
ATOM      3  C2  UNL d   1      -1.032   0.167   0.006  0.00  0.00     0.162 A 
ATOM      4  C3  UNL d   1       0.104  -0.404  -0.569  0.00  0.00    -0.034 A 
ATOM      5  C4  UNL d   1       1.161  -0.795   0.255  0.00  0.00     0.162 A 
ATOM      6  C5  UNL d   1       1.079  -0.618   1.633  0.00  0.00     0.062 A 
ATOM      7  F   UNL d   1       2.099  -0.997   2.417  0.00  0.00    -0.097 F 
ATOM      8  F1  UNL d   1       2.267  -1.346  -0.264  0.00  0.00    -0.096 F 
ATOM      9  I   UNL d   1       0.223  -0.667  -2.630  0.00  0.00    -0.060 I 
ATOM     10  F2  UNL d   1      -2.066   0.555  -0.755  0.00  0.00    -0.096 F 
ATOM     11  F3  UNL d   1      -2.204   0.891   1.928  0.00  0.00    -0.097 F 
ATOM     12  F4  UNL d   1      -0.131   0.119   3.524  0.00  0.00    -0.092 F 
ENDROOT
TORSDOF 0
ENDMDL
