MODEL 1
REMARK minimizedAffinity -3.69198632
REMARK minimizedRMSD -1
REMARK  0 active torsions:
REMARK  status: ('A' for Active; 'I' for Inactive)
ROOT
ATOM      1  C   UNL d   1      -0.505   0.876   2.837  0.00  0.00     0.124 A 
ATOM      2  C1  UNL d   1       0.799   0.507   2.538  0.00  0.00     0.062 A 
ATOM      3  C2  UNL d   1       1.132   0.095   1.251  0.00  0.00     0.162 A 
ATOM      4  C3  UNL d   1       0.159   0.052   0.252  0.00  0.00    -0.034 A 
ATOM      5  C4  UNL d   1      -1.151   0.424   0.561  0.00  0.00     0.162 A 
ATOM      6  C5  UNL d   1      -1.478   0.834   1.849  0.00  0.00     0.062 A 
ATOM      7  F   UNL d   1      -2.739   1.191   2.136  0.00  0.00    -0.097 F 
ATOM      8  F1  UNL d   1      -2.111   0.394  -0.375  0.00  0.00    -0.096 F 
ATOM      9  I   UNL d   1       0.653  -0.562  -1.674  0.00  0.00    -0.060 I 
ATOM     10  F2  UNL d   1       2.400  -0.256   0.989  0.00  0.00    -0.096 F 
ATOM     11  F3  UNL d   1       1.741   0.545   3.491  0.00  0.00    -0.097 F 
ATOM     12  F4  UNL d   1      -0.823   1.271   4.077  0.00  0.00    -0.092 F 
ENDROOT
TORSDOF 0
ENDMDL
