MODEL 1
REMARK minimizedAffinity -1.75688767
REMARK minimizedRMSD -1
REMARK  0 active torsions:
REMARK  status: ('A' for Active; 'I' for Inactive)
ROOT
ATOM      1  C   UNL d   1       0.488   0.493   2.866  0.00  0.00     0.124 A 
ATOM      2  C1  UNL d   1       1.538  -0.203   2.282  0.00  0.00     0.062 A 
ATOM      3  C2  UNL d   1       1.520  -0.482   0.919  0.00  0.00     0.162 A 
ATOM      4  C3  UNL d   1       0.450  -0.064   0.128  0.00  0.00    -0.034 A 
ATOM      5  C4  UNL d   1      -0.603   0.634   0.722  0.00  0.00     0.162 A 
ATOM      6  C5  UNL d   1      -0.581   0.911   2.086  0.00  0.00     0.062 A 
ATOM      7  F   UNL d   1      -1.597   1.583   2.647  0.00  0.00    -0.097 F 
ATOM      8  F1  UNL d   1      -1.648   1.050  -0.008  0.00  0.00    -0.096 F 
ATOM      9  I   UNL d   1       0.420  -0.480  -1.911  0.00  0.00    -0.060 I 
ATOM     10  F2  UNL d   1       2.548  -1.156   0.382  0.00  0.00    -0.096 F 
ATOM     11  F3  UNL d   1       2.571  -0.608   3.034  0.00  0.00    -0.097 F 
ATOM     12  F4  UNL d   1       0.506   0.759   4.178  0.00  0.00    -0.092 F 
ENDROOT
TORSDOF 0
ENDMDL
