MODEL 1
REMARK minimizedAffinity -2.43126178
REMARK minimizedRMSD -1
REMARK  0 active torsions:
REMARK  status: ('A' for Active; 'I' for Inactive)
ROOT
ATOM      1  C   UNL d   1       0.446   0.422   2.132  0.00  0.00     0.124 A 
ATOM      2  C1  UNL d   1       1.480  -0.346   1.617  0.00  0.00     0.062 A 
ATOM      3  C2  UNL d   1       1.501  -0.675   0.265  0.00  0.00     0.162 A 
ATOM      4  C3  UNL d   1       0.484  -0.236  -0.583  0.00  0.00    -0.034 A 
ATOM      5  C4  UNL d   1      -0.554   0.536  -0.057  0.00  0.00     0.162 A 
ATOM      6  C5  UNL d   1      -0.570   0.863   1.295  0.00  0.00     0.062 A 
ATOM      7  F   UNL d   1      -1.570   1.605   1.792  0.00  0.00    -0.097 F 
ATOM      8  F1  UNL d   1      -1.547   0.976  -0.843  0.00  0.00    -0.096 F 
ATOM      9  I   UNL d   1       0.512  -0.726  -2.605  0.00  0.00    -0.060 I 
ATOM     10  F2  UNL d   1       2.513  -1.419  -0.206  0.00  0.00    -0.096 F 
ATOM     11  F3  UNL d   1       2.462  -0.774   2.424  0.00  0.00    -0.097 F 
ATOM     12  F4  UNL d   1       0.428   0.737   3.434  0.00  0.00    -0.092 F 
ENDROOT
TORSDOF 0
ENDMDL
