MODEL 1
REMARK minimizedAffinity -1.16737378
REMARK minimizedRMSD -1
REMARK  0 active torsions:
REMARK  status: ('A' for Active; 'I' for Inactive)
ROOT
ATOM      1  C   UNL d   1       0.808   0.607  -3.509  0.00  0.00     0.124 A 
ATOM      2  C1  UNL d   1       0.698  -0.635  -2.899  0.00  0.00     0.062 A 
ATOM      3  C2  UNL d   1       0.155  -0.742  -1.622  0.00  0.00     0.162 A 
ATOM      4  C3  UNL d   1      -0.285   0.396  -0.946  0.00  0.00    -0.034 A 
ATOM      5  C4  UNL d   1      -0.170   1.642  -1.566  0.00  0.00     0.162 A 
ATOM      6  C5  UNL d   1       0.374   1.744  -2.842  0.00  0.00     0.062 A 
ATOM      7  F   UNL d   1       0.479   2.945  -3.430  0.00  0.00    -0.097 F 
ATOM      8  F1  UNL d   1      -0.583   2.757  -0.945  0.00  0.00    -0.096 F 
ATOM      9  I   UNL d   1      -1.098   0.240   0.963  0.00  0.00    -0.060 I 
ATOM     10  F2  UNL d   1       0.061  -1.955  -1.057  0.00  0.00    -0.096 F 
ATOM     11  F3  UNL d   1       1.118  -1.734  -3.541  0.00  0.00    -0.097 F 
ATOM     12  F4  UNL d   1       1.332   0.708  -4.737  0.00  0.00    -0.092 F 
ENDROOT
TORSDOF 0
ENDMDL
