MODEL 1
REMARK minimizedAffinity 5.72882414
REMARK minimizedRMSD -1
REMARK  0 active torsions:
REMARK  status: ('A' for Active; 'I' for Inactive)
ROOT
ATOM      1  C   UNL d   1      -0.799   0.595   2.763  0.00  0.00     0.124 A 
ATOM      2  C1  UNL d   1       0.170   1.380   2.154  0.00  0.00     0.062 A 
ATOM      3  C2  UNL d   1       0.511   1.163   0.822  0.00  0.00     0.162 A 
ATOM      4  C3  UNL d   1      -0.118   0.156   0.089  0.00  0.00    -0.034 A 
ATOM      5  C4  UNL d   1      -1.091  -0.630   0.709  0.00  0.00     0.162 A 
ATOM      6  C5  UNL d   1      -1.429  -0.409   2.040  0.00  0.00     0.062 A 
ATOM      7  F   UNL d   1      -2.365  -1.169   2.627  0.00  0.00    -0.097 F 
ATOM      8  F1  UNL d   1      -1.716  -1.606   0.034  0.00  0.00    -0.096 F 
ATOM      9  I   UNL d   1       0.389  -0.171  -1.902  0.00  0.00    -0.060 I 
ATOM     10  F2  UNL d   1       1.451   1.937   0.259  0.00  0.00    -0.096 F 
ATOM     11  F3  UNL d   1       0.780   2.349   2.850  0.00  0.00    -0.097 F 
ATOM     12  F4  UNL d   1      -1.125   0.805   4.045  0.00  0.00    -0.092 F 
ENDROOT
TORSDOF 0
ENDMDL
