MODEL 1
REMARK minimizedAffinity -1.7216568
REMARK minimizedRMSD -1
REMARK  0 active torsions:
REMARK  status: ('A' for Active; 'I' for Inactive)
ROOT
ATOM      1  C   UNL d   1      -0.263   0.675   2.579  0.00  0.00     0.124 A 
ATOM      2  C1  UNL d   1       0.959   0.628   1.923  0.00  0.00     0.062 A 
ATOM      3  C2  UNL d   1       1.020   0.265   0.581  0.00  0.00     0.162 A 
ATOM      4  C3  UNL d   1      -0.146  -0.053  -0.116  0.00  0.00    -0.034 A 
ATOM      5  C4  UNL d   1      -1.372  -0.004   0.550  0.00  0.00     0.162 A 
ATOM      6  C5  UNL d   1      -1.427   0.359   1.892  0.00  0.00     0.062 A 
ATOM      7  F   UNL d   1      -2.609   0.404   2.524  0.00  0.00    -0.097 F 
ATOM      8  F1  UNL d   1      -2.512  -0.304  -0.089  0.00  0.00    -0.096 F 
ATOM      9  I   UNL d   1      -0.059  -0.596  -2.123  0.00  0.00    -0.060 I 
ATOM     10  F2  UNL d   1       2.215   0.228  -0.027  0.00  0.00    -0.096 F 
ATOM     11  F3  UNL d   1       2.085   0.932   2.585  0.00  0.00    -0.097 F 
ATOM     12  F4  UNL d   1      -0.319   1.023   3.871  0.00  0.00    -0.092 F 
ENDROOT
TORSDOF 0
ENDMDL
