MODEL 1
REMARK minimizedAffinity 3.92261052
REMARK minimizedRMSD -1
REMARK  0 active torsions:
REMARK  status: ('A' for Active; 'I' for Inactive)
ROOT
ATOM      1  C   UNL d   1       0.277  -0.037   3.717  0.00  0.00     0.124 A 
ATOM      2  C1  UNL d   1       0.842  -0.905   2.794  0.00  0.00     0.062 A 
ATOM      3  C2  UNL d   1       0.284  -1.039   1.526  0.00  0.00     0.162 A 
ATOM      4  C3  UNL d   1      -0.846  -0.301   1.173  0.00  0.00    -0.034 A 
ATOM      5  C4  UNL d   1      -1.410   0.569   2.107  0.00  0.00     0.162 A 
ATOM      6  C5  UNL d   1      -0.849   0.699   3.373  0.00  0.00     0.062 A 
ATOM      7  F   UNL d   1      -1.396   1.539   4.264  0.00  0.00    -0.097 F 
ATOM      8  F1  UNL d   1      -2.497   1.293   1.801  0.00  0.00    -0.096 F 
ATOM      9  I   UNL d   1      -1.684  -0.499  -0.722  0.00  0.00    -0.060 I 
ATOM     10  F2  UNL d   1       0.851  -1.885   0.654  0.00  0.00    -0.096 F 
ATOM     11  F3  UNL d   1       1.929  -1.618   3.124  0.00  0.00    -0.097 F 
ATOM     12  F4  UNL d   1       0.815   0.090   4.937  0.00  0.00    -0.092 F 
ENDROOT
TORSDOF 0
ENDMDL
