MODEL 1
REMARK minimizedAffinity 0.394671798
REMARK minimizedRMSD -1
REMARK  1 active torsions:
REMARK  status: ('A' for Active; 'I' for Inactive)
REMARK    1  A    between atoms: C1_2  and  C2_3 
ROOT
ATOM      1  C2  UNL d   1      -0.683  -1.512  -3.028  0.00  0.00    -0.073 A 
ATOM      2  C3  UNL d   1      -0.182  -2.607  -3.741  0.00  0.00    -0.002 A 
ATOM      3  C4  UNL d   1      -0.019  -2.533  -5.125  0.00  0.00     0.004 A 
ATOM      4  C5  UNL d   1      -0.348  -1.363  -5.808  0.00  0.00    -0.004 A 
ATOM      5  C6  UNL d   1      -0.839  -0.253  -5.112  0.00  0.00    -0.075 A 
ATOM      6  C7  UNL d   1      -1.200   1.012  -5.833  0.00  0.00     0.076 C 
ATOM      7  C8  UNL d   1      -1.002  -0.337  -3.723  0.00  0.00     0.001 A 
ENDROOT
BRANCH   1   8
ATOM      8  C1  UNL d   1      -0.855  -1.585  -1.533  0.00  0.00     0.053 C 
ATOM      9  C   UNL d   1      -1.209  -2.989  -1.068  0.00  0.00     0.018 C 
ENDBRANCH   1   8
TORSDOF 1
ENDMDL
