MODEL 1
REMARK minimizedAffinity 2.36379933
REMARK minimizedRMSD -1
REMARK  1 active torsions:
REMARK  status: ('A' for Active; 'I' for Inactive)
REMARK    1  A    between atoms: C1_2  and  C2_3 
ROOT
ATOM      1  C2  UNL d   1      -2.280   0.237  -5.257  0.00  0.00    -0.073 A 
ATOM      2  C3  UNL d   1      -1.213   0.757  -5.999  0.00  0.00    -0.002 A 
ATOM      3  C4  UNL d   1       0.097   0.623  -5.538  0.00  0.00     0.004 A 
ATOM      4  C5  UNL d   1       0.355  -0.037  -4.336  0.00  0.00    -0.004 A 
ATOM      5  C6  UNL d   1      -0.697  -0.574  -3.587  0.00  0.00    -0.075 A 
ATOM      6  C7  UNL d   1      -0.438  -1.284  -2.291  0.00  0.00     0.076 C 
ATOM      7  C8  UNL d   1      -2.011  -0.432  -4.055  0.00  0.00     0.001 A 
ENDROOT
BRANCH   1   8
ATOM      8  C1  UNL d   1      -3.696   0.374  -5.755  0.00  0.00     0.053 C 
ATOM      9  C   UNL d   1      -4.678  -0.412  -4.901  0.00  0.00     0.018 C 
ENDBRANCH   1   8
TORSDOF 1
ENDMDL
