MODEL 1
REMARK minimizedAffinity 0.766622901
REMARK minimizedRMSD -1
REMARK  1 active torsions:
REMARK  status: ('A' for Active; 'I' for Inactive)
REMARK    1  A    between atoms: C1_2  and  C2_3 
ROOT
ATOM      1  C2  UNL d   1      -1.260  -1.235  -5.400  0.00  0.00    -0.073 A 
ATOM      2  C3  UNL d   1      -0.693  -0.034  -5.842  0.00  0.00    -0.002 A 
ATOM      3  C4  UNL d   1      -1.485   1.104  -5.999  0.00  0.00     0.004 A 
ATOM      4  C5  UNL d   1      -2.849   1.055  -5.711  0.00  0.00    -0.004 A 
ATOM      5  C6  UNL d   1      -3.432  -0.132  -5.257  0.00  0.00    -0.075 A 
ATOM      6  C7  UNL d   1      -4.898  -0.202  -4.945  0.00  0.00     0.076 C 
ATOM      7  C8  UNL d   1      -2.630  -1.271  -5.104  0.00  0.00     0.001 A 
ENDROOT
BRANCH   1   8
ATOM      8  C1  UNL d   1      -0.407  -2.464  -5.222  0.00  0.00     0.053 C 
ATOM      9  C   UNL d   1       0.590  -2.307  -4.085  0.00  0.00     0.018 C 
ENDBRANCH   1   8
TORSDOF 1
ENDMDL
