MODEL 1
REMARK minimizedAffinity -2.1122396
REMARK minimizedRMSD -1
REMARK  1 active torsions:
REMARK  status: ('A' for Active; 'I' for Inactive)
REMARK    1  A    between atoms: C1_2  and  C2_3 
ROOT
ATOM      1  C2  UNL d   1      -1.029  -1.427  -3.787  0.00  0.00    -0.073 A 
ATOM      2  C3  UNL d   1      -0.096  -0.528  -4.318  0.00  0.00    -0.002 A 
ATOM      3  C4  UNL d   1      -0.512   0.507  -5.156  0.00  0.00     0.004 A 
ATOM      4  C5  UNL d   1      -1.864   0.658  -5.467  0.00  0.00    -0.004 A 
ATOM      5  C6  UNL d   1      -2.812  -0.222  -4.937  0.00  0.00    -0.075 A 
ATOM      6  C7  UNL d   1      -4.270  -0.074  -5.263  0.00  0.00     0.076 C 
ATOM      7  C8  UNL d   1      -2.386  -1.261  -4.097  0.00  0.00     0.001 A 
ENDROOT
BRANCH   1   8
ATOM      8  C1  UNL d   1      -0.585  -2.542  -2.876  0.00  0.00     0.053 C 
ATOM      9  C   UNL d   1      -1.390  -2.578  -1.586  0.00  0.00     0.018 C 
ENDBRANCH   1   8
TORSDOF 1
ENDMDL
