MODEL 1
REMARK minimizedAffinity 4.54463434
REMARK minimizedRMSD -1
REMARK  1 active torsions:
REMARK  status: ('A' for Active; 'I' for Inactive)
REMARK    1  A    between atoms: C1_2  and  C2_3 
ROOT
ATOM      1  C2  UNL d   1      -1.159  -0.488  -4.244  0.00  0.00    -0.073 A 
ATOM      2  C3  UNL d   1      -0.202  -1.293  -4.873  0.00  0.00    -0.002 A 
ATOM      3  C4  UNL d   1       0.416  -2.331  -4.174  0.00  0.00     0.004 A 
ATOM      4  C5  UNL d   1       0.080  -2.578  -2.843  0.00  0.00    -0.004 A 
ATOM      5  C6  UNL d   1      -0.882  -1.792  -2.201  0.00  0.00    -0.075 A 
ATOM      6  C7  UNL d   1      -1.254  -2.044  -0.769  0.00  0.00     0.076 C 
ATOM      7  C8  UNL d   1      -1.497  -0.751  -2.909  0.00  0.00     0.001 A 
ENDROOT
BRANCH   1   8
ATOM      8  C1  UNL d   1      -1.834   0.629  -4.997  0.00  0.00     0.053 C 
ATOM      9  C   UNL d   1      -3.219   0.233  -5.483  0.00  0.00     0.018 C 
ENDBRANCH   1   8
TORSDOF 1
ENDMDL
