MODEL 1
REMARK minimizedAffinity 2.02574372
REMARK minimizedRMSD -1
REMARK  1 active torsions:
REMARK  status: ('A' for Active; 'I' for Inactive)
REMARK    1  A    between atoms: C1_2  and  C2_3 
ROOT
ATOM      1  C2  UNL d   1      -1.731  -1.375   0.151  0.00  0.00    -0.073 A 
ATOM      2  C3  UNL d   1      -0.816  -1.186   1.193  0.00  0.00    -0.002 A 
ATOM      3  C4  UNL d   1      -1.025  -0.183   2.140  0.00  0.00     0.004 A 
ATOM      4  C5  UNL d   1      -2.152   0.636   2.060  0.00  0.00    -0.004 A 
ATOM      5  C6  UNL d   1      -3.083   0.454   1.033  0.00  0.00    -0.075 A 
ATOM      6  C7  UNL d   1      -4.299   1.327   0.931  0.00  0.00     0.076 C 
ATOM      7  C8  UNL d   1      -2.866  -0.554   0.084  0.00  0.00     0.001 A 
ENDROOT
BRANCH   1   8
ATOM      8  C1  UNL d   1      -1.514  -2.461  -0.871  0.00  0.00     0.053 C 
ATOM      9  C   UNL d   1      -0.857  -1.931  -2.136  0.00  0.00     0.018 C 
ENDBRANCH   1   8
TORSDOF 1
ENDMDL
