MODEL 1
REMARK minimizedAffinity 9.46122169
REMARK minimizedRMSD -1
REMARK  1 active torsions:
REMARK  status: ('A' for Active; 'I' for Inactive)
REMARK    1  A    between atoms: C1_2  and  C2_3 
ROOT
ATOM      1  C2  UNL d   1      -0.380  -1.135  -4.497  0.00  0.00    -0.073 A 
ATOM      2  C3  UNL d   1       0.325  -0.189  -5.250  0.00  0.00    -0.002 A 
ATOM      3  C4  UNL d   1      -0.360   0.768  -6.000  0.00  0.00     0.004 A 
ATOM      4  C5  UNL d   1      -1.755   0.793  -5.999  0.00  0.00    -0.004 A 
ATOM      5  C6  UNL d   1      -2.477  -0.136  -5.244  0.00  0.00    -0.075 A 
ATOM      6  C7  UNL d   1      -3.977  -0.124  -5.235  0.00  0.00     0.076 C 
ATOM      7  C8  UNL d   1      -1.782  -1.096  -4.496  0.00  0.00     0.001 A 
ENDROOT
BRANCH   1   8
ATOM      8  C1  UNL d   1       0.355  -2.166  -3.681  0.00  0.00     0.053 C 
ATOM      9  C   UNL d   1       0.132  -1.978  -2.189  0.00  0.00     0.018 C 
ENDBRANCH   1   8
TORSDOF 1
ENDMDL
