MODEL 1
REMARK minimizedAffinity 11.970665
REMARK minimizedRMSD -1
REMARK  0 active torsions:
REMARK  status: ('A' for Active; 'I' for Inactive)
ROOT
ATOM      1  C   UNL d   1      -5.780   5.942  -3.314  0.00  0.00    -0.002 A 
ATOM      2  C1  UNL d   1      -5.924   4.865  -4.178  0.00  0.00     0.010 A 
ATOM      3  C2  UNL d   1      -5.999   3.562  -3.681  0.00  0.00     0.041 A 
ATOM      4  C3  UNL d   1      -5.928   3.358  -2.289  0.00  0.00    -0.075 A 
ATOM      5  S   UNL d   1      -6.000   1.852  -1.454  0.00  0.00     0.015 SA
ATOM      6  C4  UNL d   1      -5.842   2.602   0.068  0.00  0.00     0.022 A 
ATOM      7  C5  UNL d   1      -5.736   3.969  -0.040  0.00  0.00     0.026 A 
ATOM      8  C6  UNL d   1      -5.785   4.427  -1.400  0.00  0.00    -0.082 A 
ATOM      9  C7  UNL d   1      -5.711   5.736  -1.934  0.00  0.00     0.045 A 
ENDROOT
TORSDOF 0
ENDMDL
