MODEL 1
REMARK minimizedAffinity 9.23462105
REMARK minimizedRMSD -1
REMARK  0 active torsions:
REMARK  status: ('A' for Active; 'I' for Inactive)
ROOT
ATOM      1  C   UNL d   1      -0.654   1.824   0.980  0.00  0.00    -0.002 A 
ATOM      2  C1  UNL d   1      -0.221   0.668   1.614  0.00  0.00     0.010 A 
ATOM      3  C2  UNL d   1      -0.854  -0.553   1.374  0.00  0.00     0.041 A 
ATOM      4  C3  UNL d   1      -1.939  -0.594   0.477  0.00  0.00    -0.075 A 
ATOM      5  S   UNL d   1      -2.866  -1.976   0.028  0.00  0.00     0.015 SA
ATOM      6  C4  UNL d   1      -3.858  -1.065  -1.016  0.00  0.00     0.022 A 
ATOM      7  C5  UNL d   1      -3.505   0.263  -1.034  0.00  0.00     0.026 A 
ATOM      8  C6  UNL d   1      -2.393   0.557  -0.175  0.00  0.00    -0.082 A 
ATOM      9  C7  UNL d   1      -1.731   1.780   0.090  0.00  0.00     0.045 A 
ENDROOT
TORSDOF 0
ENDMDL
