MODEL 1
REMARK minimizedAffinity 12.8387699
REMARK minimizedRMSD -1
REMARK  0 active torsions:
REMARK  status: ('A' for Active; 'I' for Inactive)
ROOT
ATOM      1  C   UNL d   1      -1.650  -4.100  -1.508  0.00  0.00    -0.002 A 
ATOM      2  C1  UNL d   1      -1.862  -3.316  -0.383  0.00  0.00     0.010 A 
ATOM      3  C2  UNL d   1      -2.434  -2.047  -0.500  0.00  0.00     0.041 A 
ATOM      4  C3  UNL d   1      -2.794  -1.577  -1.778  0.00  0.00    -0.075 A 
ATOM      5  S   UNL d   1      -3.510  -0.056  -2.163  0.00  0.00     0.015 SA
ATOM      6  C4  UNL d   1      -3.551  -0.412  -3.829  0.00  0.00     0.022 A 
ATOM      7  C5  UNL d   1      -3.035  -1.657  -4.103  0.00  0.00     0.026 A 
ATOM      8  C6  UNL d   1      -2.590  -2.349  -2.926  0.00  0.00    -0.082 A 
ATOM      9  C7  UNL d   1      -2.008  -3.630  -2.774  0.00  0.00     0.045 A 
ENDROOT
TORSDOF 0
ENDMDL
