MODEL 1
REMARK minimizedAffinity 5.21948195
REMARK minimizedRMSD -1
REMARK  0 active torsions:
REMARK  status: ('A' for Active; 'I' for Inactive)
ROOT
ATOM      1  C   UNL d   1       0.863  -1.687   1.624  0.00  0.00    -0.002 A 
ATOM      2  C1  UNL d   1      -0.104  -0.807   2.091  0.00  0.00     0.010 A 
ATOM      3  C2  UNL d   1      -1.437  -0.943   1.699  0.00  0.00     0.041 A 
ATOM      4  C3  UNL d   1      -1.786  -1.989   0.822  0.00  0.00    -0.075 A 
ATOM      5  S   UNL d   1      -3.356  -2.349   0.208  0.00  0.00     0.015 SA
ATOM      6  C4  UNL d   1      -2.781  -3.680  -0.688  0.00  0.00     0.022 A 
ATOM      7  C5  UNL d   1      -1.427  -3.859  -0.534  0.00  0.00     0.026 A 
ATOM      8  C6  UNL d   1      -0.831  -2.888   0.339  0.00  0.00    -0.082 A 
ATOM      9  C7  UNL d   1       0.512  -2.723   0.755  0.00  0.00     0.045 A 
ENDROOT
TORSDOF 0
ENDMDL
