MODEL 1
REMARK minimizedAffinity 16.2212181
REMARK minimizedRMSD -1
REMARK  0 active torsions:
REMARK  status: ('A' for Active; 'I' for Inactive)
ROOT
ATOM      1  C   UNL d   1      -1.141  -0.996   1.523  0.00  0.00    -0.002 A 
ATOM      2  C1  UNL d   1       0.111  -0.693   2.041  0.00  0.00     0.010 A 
ATOM      3  C2  UNL d   1       0.622   0.603   1.950  0.00  0.00     0.041 A 
ATOM      4  C3  UNL d   1      -0.154   1.599   1.326  0.00  0.00    -0.075 A 
ATOM      5  S   UNL d   1       0.267   3.256   1.102  0.00  0.00     0.015 SA
ATOM      6  C4  UNL d   1      -1.204   3.601   0.314  0.00  0.00     0.022 A 
ATOM      7  C5  UNL d   1      -2.009   2.491   0.216  0.00  0.00     0.026 A 
ATOM      8  C6  UNL d   1      -1.417   1.319   0.798  0.00  0.00    -0.082 A 
ATOM      9  C7  UNL d   1      -1.908  -0.005   0.905  0.00  0.00     0.045 A 
ENDROOT
TORSDOF 0
ENDMDL
