MODEL 1
REMARK minimizedAffinity 17.9542637
REMARK minimizedRMSD -1
REMARK  0 active torsions:
REMARK  status: ('A' for Active; 'I' for Inactive)
ROOT
ATOM      1  C   UNL d   1       1.560   0.149   2.642  0.00  0.00    -0.002 A 
ATOM      2  C1  UNL d   1       1.983  -0.752   1.675  0.00  0.00     0.010 A 
ATOM      3  C2  UNL d   1       2.242  -2.083   2.009  0.00  0.00     0.041 A 
ATOM      4  C3  UNL d   1       2.064  -2.497   3.344  0.00  0.00    -0.075 A 
ATOM      5  S   UNL d   1       2.319  -4.078   3.984  0.00  0.00     0.015 SA
ATOM      6  C4  UNL d   1       1.871  -3.594   5.556  0.00  0.00     0.022 A 
ATOM      7  C5  UNL d   1       1.533  -2.263   5.609  0.00  0.00     0.026 A 
ATOM      8  C6  UNL d   1       1.638  -1.609   4.335  0.00  0.00    -0.082 A 
ATOM      9  C7  UNL d   1       1.385  -0.266   3.965  0.00  0.00     0.045 A 
ENDROOT
TORSDOF 0
ENDMDL
