MODEL 1
REMARK minimizedAffinity 10.5753365
REMARK minimizedRMSD -1
REMARK  0 active torsions:
REMARK  status: ('A' for Active; 'I' for Inactive)
ROOT
ATOM      1  C   UNL d   1      -4.133   1.870  -3.455  0.00  0.00    -0.002 A 
ATOM      2  C1  UNL d   1      -4.320   2.396  -4.725  0.00  0.00     0.010 A 
ATOM      3  C2  UNL d   1      -4.874   3.667  -4.894  0.00  0.00     0.041 A 
ATOM      4  C3  UNL d   1      -5.239   4.408  -3.753  0.00  0.00    -0.075 A 
ATOM      5  S   UNL d   1      -5.934   5.985  -3.716  0.00  0.00     0.015 SA
ATOM      6  C4  UNL d   1      -5.998   5.998  -2.013  0.00  0.00     0.022 A 
ATOM      7  C5  UNL d   1      -5.506   4.836  -1.469  0.00  0.00     0.026 A 
ATOM      8  C6  UNL d   1      -5.059   3.900  -2.463  0.00  0.00    -0.082 A 
ATOM      9  C7  UNL d   1      -4.496   2.608  -2.325  0.00  0.00     0.045 A 
ENDROOT
TORSDOF 0
ENDMDL
