MODEL 1
REMARK minimizedAffinity 6.59424829
REMARK minimizedRMSD -1
REMARK  0 active torsions:
REMARK  status: ('A' for Active; 'I' for Inactive)
ROOT
ATOM      1  C   UNL d   1      -0.573  -2.387   0.896  0.00  0.00    -0.002 A 
ATOM      2  C1  UNL d   1       0.717  -1.887   1.001  0.00  0.00     0.010 A 
ATOM      3  C2  UNL d   1       0.957  -0.515   0.905  0.00  0.00     0.041 A 
ATOM      4  C3  UNL d   1      -0.132   0.355   0.700  0.00  0.00    -0.075 A 
ATOM      5  S   UNL d   1      -0.078   2.071   0.552  0.00  0.00     0.015 SA
ATOM      6  C4  UNL d   1      -1.766   2.182   0.346  0.00  0.00     0.022 A 
ATOM      7  C5  UNL d   1      -2.372   0.948   0.387  0.00  0.00     0.026 A 
ATOM      8  C6  UNL d   1      -1.441  -0.125   0.592  0.00  0.00    -0.082 A 
ATOM      9  C7  UNL d   1      -1.651  -1.521   0.694  0.00  0.00     0.045 A 
ENDROOT
TORSDOF 0
ENDMDL
