MODEL 1
REMARK minimizedAffinity 0.158441201
REMARK minimizedRMSD -1
REMARK  0 active torsions:
REMARK  status: ('A' for Active; 'I' for Inactive)
ROOT
ATOM      1  C   UNL d   1       5.991   4.824  -0.318  0.00  0.00    -0.002 A 
ATOM      2  C1  UNL d   1       5.996   6.000  -1.055  0.00  0.00     0.010 A 
ATOM      3  C2  UNL d   1       6.000   5.962  -2.451  0.00  0.00     0.041 A 
ATOM      4  C3  UNL d   1       5.997   4.711  -3.099  0.00  0.00    -0.075 A 
ATOM      5  S   UNL d   1       6.000   4.421  -4.799  0.00  0.00     0.015 SA
ATOM      6  C4  UNL d   1       5.994   2.730  -4.586  0.00  0.00     0.022 A 
ATOM      7  C5  UNL d   1       5.990   2.378  -3.257  0.00  0.00     0.026 A 
ATOM      8  C6  UNL d   1       5.991   3.514  -2.378  0.00  0.00    -0.082 A 
ATOM      9  C7  UNL d   1       5.988   3.585  -0.964  0.00  0.00     0.045 A 
ENDROOT
TORSDOF 0
ENDMDL
