MODEL 1
REMARK minimizedAffinity 7.11740541
REMARK minimizedRMSD -1
REMARK  0 active torsions:
REMARK  status: ('A' for Active; 'I' for Inactive)
ROOT
ATOM      1  C   UNL d   1       1.586  -1.571   2.039  0.00  0.00    -0.002 A 
ATOM      2  C1  UNL d   1       1.547  -2.076   3.331  0.00  0.00     0.010 A 
ATOM      3  C2  UNL d   1       1.868  -1.264   4.420  0.00  0.00     0.041 A 
ATOM      4  C3  UNL d   1       2.232   0.077   4.187  0.00  0.00    -0.075 A 
ATOM      5  S   UNL d   1       2.664   1.257   5.367  0.00  0.00     0.015 SA
ATOM      6  C4  UNL d   1       2.911   2.459   4.184  0.00  0.00     0.022 A 
ATOM      7  C5  UNL d   1       2.674   1.989   2.914  0.00  0.00     0.026 A 
ATOM      8  C6  UNL d   1       2.278   0.608   2.895  0.00  0.00    -0.082 A 
ATOM      9  C7  UNL d   1       1.947  -0.240   1.811  0.00  0.00     0.045 A 
ENDROOT
TORSDOF 0
ENDMDL
