MODEL 1
REMARK minimizedAffinity 8.37274265
REMARK minimizedRMSD -1
REMARK  0 active torsions:
REMARK  status: ('A' for Active; 'I' for Inactive)
ROOT
ATOM      1  C   UNL d   1      -2.078  -1.140   2.718  0.00  0.00    -0.002 A 
ATOM      2  C1  UNL d   1      -2.058  -2.084   3.734  0.00  0.00     0.010 A 
ATOM      3  C2  UNL d   1      -1.747  -3.417   3.460  0.00  0.00     0.041 A 
ATOM      4  C3  UNL d   1      -1.451  -3.789   2.133  0.00  0.00    -0.075 A 
ATOM      5  S   UNL d   1      -1.041  -5.363   1.561  0.00  0.00     0.015 SA
ATOM      6  C4  UNL d   1      -0.882  -4.818  -0.046  0.00  0.00     0.022 A 
ATOM      7  C5  UNL d   1      -1.132  -3.471  -0.162  0.00  0.00     0.026 A 
ATOM      8  C6  UNL d   1      -1.464  -2.856   1.092  0.00  0.00    -0.082 A 
ATOM      9  C7  UNL d   1      -1.784  -1.512   1.403  0.00  0.00     0.045 A 
ENDROOT
TORSDOF 0
ENDMDL
