MODEL 1
REMARK minimizedAffinity 13.8371677
REMARK minimizedRMSD -1
REMARK  0 active torsions:
REMARK  status: ('A' for Active; 'I' for Inactive)
ROOT
ATOM      1  C   UNL d   1       1.684  -0.469  -2.209  0.00  0.00    -0.002 A 
ATOM      2  C1  UNL d   1       2.885  -0.143  -2.823  0.00  0.00     0.010 A 
ATOM      3  C2  UNL d   1       3.787   0.724  -2.204  0.00  0.00     0.041 A 
ATOM      4  C3  UNL d   1       3.458   1.263  -0.944  0.00  0.00    -0.075 A 
ATOM      5  S   UNL d   1       4.409   2.346   0.003  0.00  0.00     0.015 SA
ATOM      6  C4  UNL d   1       3.243   2.401   1.245  0.00  0.00     0.022 A 
ATOM      7  C5  UNL d   1       2.149   1.618   0.960  0.00  0.00     0.026 A 
ATOM      8  C6  UNL d   1       2.255   0.949  -0.306  0.00  0.00    -0.082 A 
ATOM      9  C7  UNL d   1       1.361   0.067  -0.960  0.00  0.00     0.045 A 
ENDROOT
TORSDOF 0
ENDMDL
