MODEL 1
REMARK minimizedAffinity 6.91558456
REMARK minimizedRMSD -1
REMARK  0 active torsions:
REMARK  status: ('A' for Active; 'I' for Inactive)
ROOT
ATOM      1  C   UNL d   1      -1.960  -2.385  -3.013  0.00  0.00    -0.002 A 
ATOM      2  C1  UNL d   1      -1.242  -3.573  -3.001  0.00  0.00     0.010 A 
ATOM      3  C2  UNL d   1      -0.823  -4.137  -1.794  0.00  0.00     0.041 A 
ATOM      4  C3  UNL d   1      -1.143  -3.482  -0.588  0.00  0.00    -0.075 A 
ATOM      5  S   UNL d   1      -0.735  -3.987   1.009  0.00  0.00     0.015 SA
ATOM      6  C4  UNL d   1      -1.505  -2.639   1.712  0.00  0.00     0.022 A 
ATOM      7  C5  UNL d   1      -2.065  -1.813   0.766  0.00  0.00     0.026 A 
ATOM      8  C6  UNL d   1      -1.865  -2.285  -0.575  0.00  0.00    -0.082 A 
ATOM      9  C7  UNL d   1      -2.275  -1.738  -1.815  0.00  0.00     0.045 A 
ENDROOT
TORSDOF 0
ENDMDL
