MODEL 1
REMARK minimizedAffinity 10.2384367
REMARK minimizedRMSD -1
REMARK  0 active torsions:
REMARK  status: ('A' for Active; 'I' for Inactive)
ROOT
ATOM      1  C   UNL d   1       5.206   3.147  -0.394  0.00  0.00    -0.002 A 
ATOM      2  C1  UNL d   1       3.826   3.005  -0.372  0.00  0.00     0.010 A 
ATOM      3  C2  UNL d   1       3.210   1.948  -1.046  0.00  0.00     0.041 A 
ATOM      4  C3  UNL d   1       4.013   1.027  -1.748  0.00  0.00    -0.075 A 
ATOM      5  S   UNL d   1       3.479  -0.345  -2.645  0.00  0.00     0.015 SA
ATOM      6  C4  UNL d   1       5.070  -0.775  -3.077  0.00  0.00     0.022 A 
ATOM      7  C5  UNL d   1       5.999   0.096  -2.559  0.00  0.00     0.026 A 
ATOM      8  C6  UNL d   1       5.405   1.149  -1.783  0.00  0.00    -0.082 A 
ATOM      9  C7  UNL d   1       5.999   2.231  -1.091  0.00  0.00     0.045 A 
ENDROOT
TORSDOF 0
ENDMDL
