MODEL 1
REMARK minimizedAffinity 8.98435497
REMARK minimizedRMSD -1
REMARK  0 active torsions:
REMARK  status: ('A' for Active; 'I' for Inactive)
ROOT
ATOM      1  C   UNL d   1       2.246   1.551   0.995  0.00  0.00    -0.002 A 
ATOM      2  C1  UNL d   1       3.355   2.382   0.921  0.00  0.00     0.010 A 
ATOM      3  C2  UNL d   1       4.237   2.295  -0.158  0.00  0.00     0.041 A 
ATOM      4  C3  UNL d   1       3.982   1.351  -1.173  0.00  0.00    -0.075 A 
ATOM      5  S   UNL d   1       4.923   1.066  -2.588  0.00  0.00     0.015 SA
ATOM      6  C4  UNL d   1       3.875  -0.164  -3.129  0.00  0.00     0.022 A 
ATOM      7  C5  UNL d   1       2.827  -0.366  -2.262  0.00  0.00     0.026 A 
ATOM      8  C6  UNL d   1       2.871   0.504  -1.121  0.00  0.00    -0.082 A 
ATOM      9  C7  UNL d   1       1.996   0.616  -0.013  0.00  0.00     0.045 A 
ENDROOT
TORSDOF 0
ENDMDL
