MODEL 1
REMARK minimizedAffinity 13.3989992
REMARK minimizedRMSD -1
REMARK  0 active torsions:
REMARK  status: ('A' for Active; 'I' for Inactive)
ROOT
ATOM      1  C   UNL d   1      -5.010   0.792   5.998  0.00  0.00    -0.002 A 
ATOM      2  C1  UNL d   1      -3.826   1.516   5.999  0.00  0.00     0.010 A 
ATOM      3  C2  UNL d   1      -2.623   0.911   5.630  0.00  0.00     0.041 A 
ATOM      4  C3  UNL d   1      -2.630  -0.447   5.254  0.00  0.00    -0.075 A 
ATOM      5  S   UNL d   1      -1.278  -1.397   4.763  0.00  0.00     0.015 SA
ATOM      6  C4  UNL d   1      -2.240  -2.785   4.539  0.00  0.00     0.022 A 
ATOM      7  C5  UNL d   1      -3.563  -2.548   4.827  0.00  0.00     0.026 A 
ATOM      8  C6  UNL d   1      -3.810  -1.196   5.243  0.00  0.00    -0.082 A 
ATOM      9  C7  UNL d   1      -5.013  -0.554   5.624  0.00  0.00     0.045 A 
ENDROOT
TORSDOF 0
ENDMDL
