MODEL 1
REMARK minimizedAffinity 17.6804085
REMARK minimizedRMSD -1
REMARK  0 active torsions:
REMARK  status: ('A' for Active; 'I' for Inactive)
ROOT
ATOM      1  C   UNL d   1      -1.539  -1.926  -0.045  0.00  0.00    -0.002 A 
ATOM      2  C1  UNL d   1      -0.787  -3.040   0.303  0.00  0.00     0.010 A 
ATOM      3  C2  UNL d   1      -0.594  -3.375   1.645  0.00  0.00     0.041 A 
ATOM      4  C3  UNL d   1      -1.177  -2.565   2.640  0.00  0.00    -0.075 A 
ATOM      5  S   UNL d   1      -1.075  -2.783   4.348  0.00  0.00     0.015 SA
ATOM      6  C4  UNL d   1      -2.029  -1.403   4.655  0.00  0.00     0.022 A 
ATOM      7  C5  UNL d   1      -2.423  -0.780   3.494  0.00  0.00     0.026 A 
ATOM      8  C6  UNL d   1      -1.939  -1.440   2.314  0.00  0.00    -0.082 A 
ATOM      9  C7  UNL d   1      -2.115  -1.126   0.945  0.00  0.00     0.045 A 
ENDROOT
TORSDOF 0
ENDMDL
