MODEL 1
REMARK minimizedAffinity 30.5913239
REMARK minimizedRMSD -1
REMARK  0 active torsions:
REMARK  status: ('A' for Active; 'I' for Inactive)
ROOT
ATOM      1  C   UNL d   1       3.762   5.800   6.000  0.00  0.00    -0.002 A 
ATOM      2  C1  UNL d   1       2.520   5.181   6.000  0.00  0.00     0.010 A 
ATOM      3  C2  UNL d   1       2.355   3.920   5.423  0.00  0.00     0.041 A 
ATOM      4  C3  UNL d   1       3.471   3.286   4.841  0.00  0.00    -0.075 A 
ATOM      5  S   UNL d   1       3.506   1.741   4.077  0.00  0.00     0.015 SA
ATOM      6  C4  UNL d   1       5.171   1.866   3.733  0.00  0.00     0.022 A 
ATOM      7  C5  UNL d   1       5.702   3.051   4.183  0.00  0.00     0.026 A 
ATOM      8  C6  UNL d   1       4.732   3.889   4.830  0.00  0.00    -0.082 A 
ATOM      9  C7  UNL d   1       4.866   5.168   5.422  0.00  0.00     0.045 A 
ENDROOT
TORSDOF 0
ENDMDL
