MODEL 1
REMARK minimizedAffinity 22.4705772
REMARK minimizedRMSD -1
REMARK  0 active torsions:
REMARK  status: ('A' for Active; 'I' for Inactive)
ROOT
ATOM      1  C   UNL d   1       4.610  -0.002   3.365  0.00  0.00    -0.002 A 
ATOM      2  C1  UNL d   1       5.862   0.475   3.001  0.00  0.00     0.010 A 
ATOM      3  C2  UNL d   1       6.000   1.364   1.934  0.00  0.00     0.041 A 
ATOM      4  C3  UNL d   1       4.848   1.772   1.233  0.00  0.00    -0.075 A 
ATOM      5  S   UNL d   1       4.775   2.855  -0.107  0.00  0.00     0.015 SA
ATOM      6  C4  UNL d   1       3.081   2.710  -0.227  0.00  0.00     0.022 A 
ATOM      7  C5  UNL d   1       2.567   1.861   0.724  0.00  0.00     0.026 A 
ATOM      8  C6  UNL d   1       3.577   1.306   1.581  0.00  0.00    -0.082 A 
ATOM      9  C7  UNL d   1       3.470   0.405   2.668  0.00  0.00     0.045 A 
ENDROOT
TORSDOF 0
ENDMDL
