MODEL 1
REMARK minimizedAffinity 18.9426117
REMARK minimizedRMSD -1
REMARK  0 active torsions:
REMARK  status: ('A' for Active; 'I' for Inactive)
ROOT
ATOM      1  C   UNL d   1      -1.920   3.114   1.510  0.00  0.00    -0.002 A 
ATOM      2  C1  UNL d   1      -2.687   2.240   0.752  0.00  0.00     0.010 A 
ATOM      3  C2  UNL d   1      -3.965   2.605   0.324  0.00  0.00     0.041 A 
ATOM      4  C3  UNL d   1      -4.463   3.876   0.672  0.00  0.00    -0.075 A 
ATOM      5  S   UNL d   1      -6.000   4.539   0.259  0.00  0.00     0.015 SA
ATOM      6  C4  UNL d   1      -5.674   5.998   1.077  0.00  0.00     0.022 A 
ATOM      7  C5  UNL d   1      -4.427   5.997   1.658  0.00  0.00     0.026 A 
ATOM      8  C6  UNL d   1      -3.709   4.774   1.434  0.00  0.00    -0.082 A 
ATOM      9  C7  UNL d   1      -2.417   4.374   1.853  0.00  0.00     0.045 A 
ENDROOT
TORSDOF 0
ENDMDL
