MODEL 1
REMARK minimizedAffinity 21.6186371
REMARK minimizedRMSD -1
REMARK  0 active torsions:
REMARK  status: ('A' for Active; 'I' for Inactive)
ROOT
ATOM      1  C   UNL d   1      -1.875  -0.928   0.765  0.00  0.00    -0.002 A 
ATOM      2  C1  UNL d   1      -1.883  -1.429   2.059  0.00  0.00     0.010 A 
ATOM      3  C2  UNL d   1      -1.461  -2.735   2.318  0.00  0.00     0.041 A 
ATOM      4  C3  UNL d   1      -1.024  -3.535   1.244  0.00  0.00    -0.075 A 
ATOM      5  S   UNL d   1      -0.461  -5.163   1.323  0.00  0.00     0.015 SA
ATOM      6  C4  UNL d   1      -0.194  -5.231  -0.359  0.00  0.00     0.022 A 
ATOM      7  C5  UNL d   1      -0.522  -4.049  -0.981  0.00  0.00     0.026 A 
ATOM      8  C6  UNL d   1      -1.005  -3.052  -0.067  0.00  0.00    -0.082 A 
ATOM      9  C7  UNL d   1      -1.440  -1.725  -0.297  0.00  0.00     0.045 A 
ENDROOT
TORSDOF 0
ENDMDL
