MODEL 1
REMARK minimizedAffinity 12.0769053
REMARK minimizedRMSD -1
REMARK  0 active torsions:
REMARK  status: ('A' for Active; 'I' for Inactive)
ROOT
ATOM      1  C   UNL d   1       2.373   2.180   0.348  0.00  0.00    -0.002 A 
ATOM      2  C1  UNL d   1       3.610   2.708   0.008  0.00  0.00     0.010 A 
ATOM      3  C2  UNL d   1       4.499   3.130   0.998  0.00  0.00     0.041 A 
ATOM      4  C3  UNL d   1       4.121   3.008   2.350  0.00  0.00    -0.075 A 
ATOM      5  S   UNL d   1       5.048   3.458   3.733  0.00  0.00     0.015 SA
ATOM      6  C4  UNL d   1       3.823   2.958   4.808  0.00  0.00     0.022 A 
ATOM      7  C5  UNL d   1       2.728   2.458   4.145  0.00  0.00     0.026 A 
ATOM      8  C6  UNL d   1       2.881   2.478   2.718  0.00  0.00    -0.082 A 
ATOM      9  C7  UNL d   1       2.002   2.061   1.690  0.00  0.00     0.045 A 
ENDROOT
TORSDOF 0
ENDMDL
