MODEL 1
REMARK minimizedAffinity 13.5666056
REMARK minimizedRMSD -1
REMARK  0 active torsions:
REMARK  status: ('A' for Active; 'I' for Inactive)
ROOT
ATOM      1  C   UNL d   1      -2.709  -2.258   0.964  0.00  0.00    -0.002 A 
ATOM      2  C1  UNL d   1      -1.881  -2.725  -0.048  0.00  0.00     0.010 A 
ATOM      3  C2  UNL d   1      -1.108  -3.872   0.140  0.00  0.00     0.041 A 
ATOM      4  C3  UNL d   1      -1.182  -4.550   1.373  0.00  0.00    -0.075 A 
ATOM      5  S   UNL d   1      -0.327  -5.975   1.829  0.00  0.00     0.015 SA
ATOM      6  C4  UNL d   1      -1.041  -5.999   3.376  0.00  0.00     0.022 A 
ATOM      7  C5  UNL d   1      -1.913  -4.952   3.558  0.00  0.00     0.026 A 
ATOM      8  C6  UNL d   1      -2.009  -4.100   2.406  0.00  0.00    -0.082 A 
ATOM      9  C7  UNL d   1      -2.781  -2.933   2.185  0.00  0.00     0.045 A 
ENDROOT
TORSDOF 0
ENDMDL
