MODEL 1
REMARK minimizedAffinity -1.82761216
REMARK minimizedRMSD -1
REMARK  0 active torsions:
REMARK  status: ('A' for Active; 'I' for Inactive)
ROOT
ATOM      1  C1  BNZ d   1      -1.093  -2.118  -0.220  0.00  0.00     0.000 A 
ATOM      2  C2  BNZ d   1      -0.680  -2.098   1.085  0.00  0.00     0.000 A 
ATOM      3  C3  BNZ d   1       0.616  -2.384   1.413  0.00  0.00     0.000 A 
ATOM      4  C4  BNZ d   1       1.485  -2.728   0.442  0.00  0.00     0.000 A 
ATOM      5  C5  BNZ d   1       1.082  -2.761  -0.878  0.00  0.00     0.000 A 
ATOM      6  C6  BNZ d   1      -0.214  -2.435  -1.209  0.00  0.00     0.000 A 
ENDROOT
TORSDOF 0
ENDMDL
