MODEL 1
REMARK minimizedAffinity -0.859028757
REMARK minimizedRMSD -1
REMARK  0 active torsions:
REMARK  status: ('A' for Active; 'I' for Inactive)
ROOT
ATOM      1  C1  BNZ d   1      -0.703  -1.801  -0.980  0.00  0.00     0.000 A 
ATOM      2  C2  BNZ d   1      -0.730  -1.552   0.367  0.00  0.00     0.000 A 
ATOM      3  C3  BNZ d   1       0.261  -2.016   1.185  0.00  0.00     0.000 A 
ATOM      4  C4  BNZ d   1       1.257  -2.762   0.663  0.00  0.00     0.000 A 
ATOM      5  C5  BNZ d   1       1.293  -3.029  -0.691  0.00  0.00     0.000 A 
ATOM      6  C6  BNZ d   1       0.314  -2.527  -1.517  0.00  0.00     0.000 A 
ENDROOT
TORSDOF 0
ENDMDL
