MODEL 1
REMARK minimizedAffinity 0.0188822709
REMARK minimizedRMSD -1
REMARK  0 active torsions:
REMARK  status: ('A' for Active; 'I' for Inactive)
ROOT
ATOM      1  C1  BNZ d   1       0.058  -0.743   1.019  0.00  0.00     0.000 A 
ATOM      2  C2  BNZ d   1       1.198   0.014   1.070  0.00  0.00     0.000 A 
ATOM      3  C3  BNZ d   1       2.317  -0.448   1.705  0.00  0.00     0.000 A 
ATOM      4  C4  BNZ d   1       2.283  -1.647   2.320  0.00  0.00     0.000 A 
ATOM      5  C5  BNZ d   1       1.138  -2.419   2.285  0.00  0.00     0.000 A 
ATOM      6  C6  BNZ d   1       0.026  -1.967   1.612  0.00  0.00     0.000 A 
ENDROOT
TORSDOF 0
ENDMDL
