MODEL 1
REMARK minimizedAffinity 4.0644784
REMARK minimizedRMSD -1
REMARK  0 active torsions:
REMARK  status: ('A' for Active; 'I' for Inactive)
ROOT
ATOM      1  C1  BNZ d   1       2.624  -0.587   1.346  0.00  0.00     0.000 A 
ATOM      2  C2  BNZ d   1       3.466  -0.426   2.414  0.00  0.00     0.000 A 
ATOM      3  C3  BNZ d   1       3.239   0.552   3.343  0.00  0.00     0.000 A 
ATOM      4  C4  BNZ d   1       2.195   1.391   3.180  0.00  0.00     0.000 A 
ATOM      5  C5  BNZ d   1       1.343   1.246   2.103  0.00  0.00     0.000 A 
ATOM      6  C6  BNZ d   1       1.552   0.237   1.192  0.00  0.00     0.000 A 
ENDROOT
TORSDOF 0
ENDMDL
