MODEL 1
REMARK minimizedAffinity 1.33779705
REMARK minimizedRMSD -1
REMARK  0 active torsions:
REMARK  status: ('A' for Active; 'I' for Inactive)
ROOT
ATOM      1  C1  BNZ d   1       0.217  -2.372   1.208  0.00  0.00     0.000 A 
ATOM      2  C2  BNZ d   1      -1.136  -2.283   1.014  0.00  0.00     0.000 A 
ATOM      3  C3  BNZ d   1      -1.740  -1.068   0.847  0.00  0.00     0.000 A 
ATOM      4  C4  BNZ d   1      -0.998   0.056   0.914  0.00  0.00     0.000 A 
ATOM      5  C5  BNZ d   1       0.365  -0.017   1.119  0.00  0.00     0.000 A 
ATOM      6  C6  BNZ d   1       0.976  -1.243   1.248  0.00  0.00     0.000 A 
ENDROOT
TORSDOF 0
ENDMDL
