MODEL 1
REMARK minimizedAffinity 1.7001456
REMARK minimizedRMSD -1
REMARK  0 active torsions:
REMARK  status: ('A' for Active; 'I' for Inactive)
ROOT
ATOM      1  C1  BNZ d   1      -5.663   3.123   1.166  0.00  0.00     0.000 A 
ATOM      2  C2  BNZ d   1      -5.300   3.383  -0.129  0.00  0.00     0.000 A 
ATOM      3  C3  BNZ d   1      -4.142   2.873  -0.647  0.00  0.00     0.000 A 
ATOM      4  C4  BNZ d   1      -3.330   2.139   0.140  0.00  0.00     0.000 A 
ATOM      5  C5  BNZ d   1      -3.678   1.875   1.450  0.00  0.00     0.000 A 
ATOM      6  C6  BNZ d   1      -4.863   2.357   1.957  0.00  0.00     0.000 A 
ENDROOT
TORSDOF 0
ENDMDL
