MODEL 1
REMARK minimizedAffinity 1.09856975
REMARK minimizedRMSD -1
REMARK  0 active torsions:
REMARK  status: ('A' for Active; 'I' for Inactive)
ROOT
ATOM      1  C1  BNZ d   1       0.912  -1.354   1.080  0.00  0.00     0.000 A 
ATOM      2  C2  BNZ d   1       2.043  -0.670   1.437  0.00  0.00     0.000 A 
ATOM      3  C3  BNZ d   1       1.970   0.625   1.870  0.00  0.00     0.000 A 
ATOM      4  C4  BNZ d   1       0.773   1.245   1.907  0.00  0.00     0.000 A 
ATOM      5  C5  BNZ d   1      -0.375   0.572   1.541  0.00  0.00     0.000 A 
ATOM      6  C6  BNZ d   1      -0.303  -0.743   1.143  0.00  0.00     0.000 A 
ENDROOT
TORSDOF 0
ENDMDL
