MODEL 1
REMARK minimizedAffinity 0.907640755
REMARK minimizedRMSD -1
REMARK  0 active torsions:
REMARK  status: ('A' for Active; 'I' for Inactive)
ROOT
ATOM      1  C1  BNZ d   1       2.264  -2.171   0.714  0.00  0.00     0.000 A 
ATOM      2  C2  BNZ d   1       0.901  -2.206   0.834  0.00  0.00     0.000 A 
ATOM      3  C3  BNZ d   1       0.209  -1.119   1.290  0.00  0.00     0.000 A 
ATOM      4  C4  BNZ d   1       0.885  -0.012   1.663  0.00  0.00     0.000 A 
ATOM      5  C5  BNZ d   1       2.261   0.036   1.556  0.00  0.00     0.000 A 
ATOM      6  C6  BNZ d   1       2.950  -1.047   1.061  0.00  0.00     0.000 A 
ENDROOT
TORSDOF 0
ENDMDL
