MODEL 1
REMARK minimizedAffinity 10.1288242
REMARK minimizedRMSD -1
REMARK  0 active torsions:
REMARK  status: ('A' for Active; 'I' for Inactive)
ROOT
ATOM      1  C1  BNZ d   1       3.953   0.459   0.083  0.00  0.00     0.000 A 
ATOM      2  C2  BNZ d   1       3.239   1.485   0.642  0.00  0.00     0.000 A 
ATOM      3  C3  BNZ d   1       2.514   1.294   1.784  0.00  0.00     0.000 A 
ATOM      4  C4  BNZ d   1       2.471   0.067   2.344  0.00  0.00     0.000 A 
ATOM      5  C5  BNZ d   1       3.177  -0.980   1.788  0.00  0.00     0.000 A 
ATOM      6  C6  BNZ d   1       3.938  -0.774   0.660  0.00  0.00     0.000 A 
ENDROOT
TORSDOF 0
ENDMDL
