MODEL 1
REMARK minimizedAffinity -0.774096847
REMARK minimizedRMSD -1
REMARK  0 active torsions:
REMARK  status: ('A' for Active; 'I' for Inactive)
ROOT
ATOM      1  C1  BNZ d   1       2.712   0.386   1.400  0.00  0.00     0.000 A 
ATOM      2  C2  BNZ d   1       2.310   1.653   1.069  0.00  0.00     0.000 A 
ATOM      3  C3  BNZ d   1       0.983   1.955   0.941  0.00  0.00     0.000 A 
ATOM      4  C4  BNZ d   1       0.063   0.982   1.105  0.00  0.00     0.000 A 
ATOM      5  C5  BNZ d   1       0.453  -0.302   1.430  0.00  0.00     0.000 A 
ATOM      6  C6  BNZ d   1       1.788  -0.593   1.596  0.00  0.00     0.000 A 
ENDROOT
TORSDOF 0
ENDMDL
