MODEL 1
REMARK minimizedAffinity -4.48013258
REMARK minimizedRMSD -1
REMARK  0 active torsions:
REMARK  status: ('A' for Active; 'I' for Inactive)
ROOT
ATOM      1  C1  BNZ d   1       2.031  -2.169   1.444  0.00  0.00     0.000 A 
ATOM      2  C2  BNZ d   1       3.014  -1.218   1.515  0.00  0.00     0.000 A 
ATOM      3  C3  BNZ d   1       2.797   0.049   1.048  0.00  0.00     0.000 A 
ATOM      4  C4  BNZ d   1       1.614   0.351   0.476  0.00  0.00     0.000 A 
ATOM      5  C5  BNZ d   1       0.617  -0.600   0.389  0.00  0.00     0.000 A 
ATOM      6  C6  BNZ d   1       0.825  -1.862   0.894  0.00  0.00     0.000 A 
ENDROOT
TORSDOF 0
ENDMDL
