MODEL 1
REMARK minimizedAffinity -2.340904
REMARK minimizedRMSD -1
REMARK  0 active torsions:
REMARK  status: ('A' for Active; 'I' for Inactive)
ROOT
ATOM      1  C1  BNZ d   1      -3.075   2.984  -4.210  0.00  0.00     0.000 A 
ATOM      2  C2  BNZ d   1      -4.201   2.312  -4.606  0.00  0.00     0.000 A 
ATOM      3  C3  BNZ d   1      -4.750   1.340  -3.817  0.00  0.00     0.000 A 
ATOM      4  C4  BNZ d   1      -4.151   1.014  -2.653  0.00  0.00     0.000 A 
ATOM      5  C5  BNZ d   1      -3.011   1.676  -2.245  0.00  0.00     0.000 A 
ATOM      6  C6  BNZ d   1      -2.483   2.681  -3.023  0.00  0.00     0.000 A 
ENDROOT
TORSDOF 0
ENDMDL
