MODEL 1
REMARK minimizedAffinity 12.4655895
REMARK minimizedRMSD -1
REMARK  0 active torsions:
REMARK  status: ('A' for Active; 'I' for Inactive)
ROOT
ATOM      1  C   UNL d   1      -3.075   0.345   2.854  0.00  0.00     0.023 A 
ATOM      2  C1  UNL d   1      -2.556   0.364   1.560  0.00  0.00     0.003 A 
ATOM      3  C2  UNL d   1      -1.575  -0.557   1.186  0.00  0.00     0.048 A 
ATOM      4  C3  UNL d   1      -1.120  -1.496   2.111  0.00  0.00     0.023 A 
ATOM      5  C4  UNL d   1      -1.637  -1.520   3.407  0.00  0.00     0.048 A 
ATOM      6  C5  UNL d   1      -2.617  -0.596   3.777  0.00  0.00     0.003 A 
ATOM      7  I   UNL d   1       0.339  -2.868   1.556  0.00  0.00    -0.146 I 
ENDROOT
TORSDOF 0
ENDMDL
