MODEL 1
REMARK minimizedAffinity 6.54963684
REMARK minimizedRMSD -1
REMARK  0 active torsions:
REMARK  status: ('A' for Active; 'I' for Inactive)
ROOT
ATOM      1  C   UNL d   1      -5.997  -5.747   5.164  0.00  0.00     0.023 A 
ATOM      2  C1  UNL d   1      -5.582  -5.986   3.854  0.00  0.00     0.003 A 
ATOM      3  C2  UNL d   1      -4.877  -5.005   3.153  0.00  0.00     0.048 A 
ATOM      4  C3  UNL d   1      -4.591  -3.787   3.768  0.00  0.00     0.023 A 
ATOM      5  C4  UNL d   1      -5.003  -3.543   5.079  0.00  0.00     0.048 A 
ATOM      6  C5  UNL d   1      -5.708  -4.527   5.776  0.00  0.00     0.003 A 
ATOM      7  I   UNL d   1      -3.542  -2.326   2.726  0.00  0.00    -0.146 I 
ENDROOT
TORSDOF 0
ENDMDL
