MODEL 1
REMARK minimizedAffinity 11.0930357
REMARK minimizedRMSD -1
REMARK  0 active torsions:
REMARK  status: ('A' for Active; 'I' for Inactive)
ROOT
ATOM      1  C   UNL d   1      -0.979  -0.308   1.481  0.00  0.00     0.023 A 
ATOM      2  C1  UNL d   1      -0.870  -1.623   1.031  0.00  0.00     0.003 A 
ATOM      3  C2  UNL d   1      -1.882  -2.544   1.309  0.00  0.00     0.048 A 
ATOM      4  C3  UNL d   1      -3.002  -2.142   2.036  0.00  0.00     0.023 A 
ATOM      5  C4  UNL d   1      -3.116  -0.826   2.487  0.00  0.00     0.048 A 
ATOM      6  C5  UNL d   1      -2.101   0.091   2.208  0.00  0.00     0.003 A 
ATOM      7  I   UNL d   1      -4.511  -3.510   2.451  0.00  0.00    -0.146 I 
ENDROOT
TORSDOF 0
ENDMDL
