MODEL 1
REMARK minimizedAffinity 14.4346809
REMARK minimizedRMSD -1
REMARK  0 active torsions:
REMARK  status: ('A' for Active; 'I' for Inactive)
ROOT
ATOM      1  C   UNL d   1      -1.120   0.005   1.644  0.00  0.00     0.023 A 
ATOM      2  C1  UNL d   1      -2.256   0.217   2.425  0.00  0.00     0.003 A 
ATOM      3  C2  UNL d   1      -3.177  -0.816   2.614  0.00  0.00     0.048 A 
ATOM      4  C3  UNL d   1      -2.955  -2.058   2.021  0.00  0.00     0.023 A 
ATOM      5  C4  UNL d   1      -1.819  -2.275   1.240  0.00  0.00     0.048 A 
ATOM      6  C5  UNL d   1      -0.901  -1.240   1.052  0.00  0.00     0.003 A 
ATOM      7  I   UNL d   1      -4.324  -3.596   2.302  0.00  0.00    -0.146 I 
ENDROOT
TORSDOF 0
ENDMDL
