MODEL 1
REMARK minimizedAffinity 12.6000977
REMARK minimizedRMSD -1
REMARK  0 active torsions:
REMARK  status: ('A' for Active; 'I' for Inactive)
ROOT
ATOM      1  C   UNL d   1       5.123   4.760  -4.168  0.00  0.00     0.023 A 
ATOM      2  C1  UNL d   1       4.175   3.817  -4.565  0.00  0.00     0.003 A 
ATOM      3  C2  UNL d   1       3.730   2.850  -3.662  0.00  0.00     0.048 A 
ATOM      4  C3  UNL d   1       4.236   2.832  -2.363  0.00  0.00     0.023 A 
ATOM      5  C4  UNL d   1       5.184   3.774  -1.961  0.00  0.00     0.048 A 
ATOM      6  C5  UNL d   1       5.627   4.738  -2.868  0.00  0.00     0.003 A 
ATOM      7  I   UNL d   1       3.574   1.394  -1.016  0.00  0.00    -0.146 I 
ENDROOT
TORSDOF 0
ENDMDL
