MODEL 1
REMARK minimizedAffinity 9.48558998
REMARK minimizedRMSD -1
REMARK  0 active torsions:
REMARK  status: ('A' for Active; 'I' for Inactive)
ROOT
ATOM      1  C   UNL d   1      -2.473  -0.241   1.781  0.00  0.00     0.023 A 
ATOM      2  C1  UNL d   1      -1.871   0.182   2.967  0.00  0.00     0.003 A 
ATOM      3  C2  UNL d   1      -0.672  -0.397   3.387  0.00  0.00     0.048 A 
ATOM      4  C3  UNL d   1      -0.079  -1.397   2.617  0.00  0.00     0.023 A 
ATOM      5  C4  UNL d   1      -0.677  -1.822   1.430  0.00  0.00     0.048 A 
ATOM      6  C5  UNL d   1      -1.877  -1.241   1.014  0.00  0.00     0.003 A 
ATOM      7  I   UNL d   1       1.706  -2.259   3.241  0.00  0.00    -0.146 I 
ENDROOT
TORSDOF 0
ENDMDL
