MODEL 1
REMARK minimizedAffinity 4.29478312
REMARK minimizedRMSD -1
REMARK  0 active torsions:
REMARK  status: ('A' for Active; 'I' for Inactive)
ROOT
ATOM      1  C   UNL d   1       1.558   1.402  -1.381  0.00  0.00     0.023 A 
ATOM      2  C1  UNL d   1       1.436   1.270   0.003  0.00  0.00     0.003 A 
ATOM      3  C2  UNL d   1       2.448   1.742   0.842  0.00  0.00     0.048 A 
ATOM      4  C3  UNL d   1       3.577   2.347   0.291  0.00  0.00     0.023 A 
ATOM      5  C4  UNL d   1       3.703   2.482  -1.093  0.00  0.00     0.048 A 
ATOM      6  C5  UNL d   1       2.689   2.008  -1.928  0.00  0.00     0.003 A 
ATOM      7  I   UNL d   1       5.084   3.050   1.538  0.00  0.00    -0.146 I 
ENDROOT
TORSDOF 0
ENDMDL
