MODEL 1
REMARK minimizedAffinity 10.2775879
REMARK minimizedRMSD -1
REMARK  0 active torsions:
REMARK  status: ('A' for Active; 'I' for Inactive)
ROOT
ATOM      1  C   UNL d   1       3.831   0.869   1.851  0.00  0.00     0.023 A 
ATOM      2  C1  UNL d   1       2.833   0.293   1.065  0.00  0.00     0.003 A 
ATOM      3  C2  UNL d   1       2.665   0.699  -0.261  0.00  0.00     0.048 A 
ATOM      4  C3  UNL d   1       3.499   1.682  -0.793  0.00  0.00     0.023 A 
ATOM      5  C4  UNL d   1       4.499   2.261  -0.010  0.00  0.00     0.048 A 
ATOM      6  C5  UNL d   1       4.662   1.852   1.315  0.00  0.00     0.003 A 
ATOM      7  I   UNL d   1       3.251   2.288  -2.766  0.00  0.00    -0.146 I 
ENDROOT
TORSDOF 0
ENDMDL
