MODEL 1
REMARK minimizedAffinity 12.4755764
REMARK minimizedRMSD -1
REMARK  0 active torsions:
REMARK  status: ('A' for Active; 'I' for Inactive)
ROOT
ATOM      1  C   UNL d   1      -1.020  -0.158   1.973  0.00  0.00     0.023 A 
ATOM      2  C1  UNL d   1      -0.845  -1.285   1.170  0.00  0.00     0.003 A 
ATOM      3  C2  UNL d   1      -1.787  -2.315   1.196  0.00  0.00     0.048 A 
ATOM      4  C3  UNL d   1      -2.902  -2.212   2.027  0.00  0.00     0.023 A 
ATOM      5  C4  UNL d   1      -3.081  -1.086   2.833  0.00  0.00     0.048 A 
ATOM      6  C5  UNL d   1      -2.136  -0.059   2.804  0.00  0.00     0.003 A 
ATOM      7  I   UNL d   1      -4.306  -3.745   2.068  0.00  0.00    -0.146 I 
ENDROOT
TORSDOF 0
ENDMDL
