MODEL 1
REMARK minimizedAffinity 10.2022448
REMARK minimizedRMSD -1
REMARK  0 active torsions:
REMARK  status: ('A' for Active; 'I' for Inactive)
ROOT
ATOM      1  C   UNL d   1      -1.182  -5.999  -5.742  0.00  0.00     0.023 A 
ATOM      2  C1  UNL d   1      -0.035  -5.356  -5.276  0.00  0.00     0.003 A 
ATOM      3  C2  UNL d   1      -0.048  -4.712  -4.037  0.00  0.00     0.048 A 
ATOM      4  C3  UNL d   1      -1.212  -4.715  -3.269  0.00  0.00     0.023 A 
ATOM      5  C4  UNL d   1      -2.362  -5.358  -3.731  0.00  0.00     0.048 A 
ATOM      6  C5  UNL d   1      -2.344  -6.000  -4.970  0.00  0.00     0.003 A 
ATOM      7  I   UNL d   1      -1.234  -3.757  -1.425  0.00  0.00    -0.146 I 
ENDROOT
TORSDOF 0
ENDMDL
