MODEL 1
REMARK minimizedAffinity 10.0504713
REMARK minimizedRMSD -1
REMARK  0 active torsions:
REMARK  status: ('A' for Active; 'I' for Inactive)
ROOT
ATOM      1  C   UNL d   1      -1.813   0.163   3.530  0.00  0.00     0.023 A 
ATOM      2  C1  UNL d   1      -2.714   1.214   3.699  0.00  0.00     0.003 A 
ATOM      3  C2  UNL d   1      -3.761   1.390   2.792  0.00  0.00     0.048 A 
ATOM      4  C3  UNL d   1      -3.903   0.510   1.720  0.00  0.00     0.023 A 
ATOM      5  C4  UNL d   1      -3.004  -0.544   1.548  0.00  0.00     0.048 A 
ATOM      6  C5  UNL d   1      -1.958  -0.715   2.456  0.00  0.00     0.003 A 
ATOM      7  I   UNL d   1      -5.461   0.769   0.369  0.00  0.00    -0.146 I 
ENDROOT
TORSDOF 0
ENDMDL
