MODEL 1
REMARK minimizedAffinity 5.35099983
REMARK minimizedRMSD -1
REMARK  0 active torsions:
REMARK  status: ('A' for Active; 'I' for Inactive)
ROOT
ATOM      1  C   UNL d   1      -4.248   1.165   2.037  0.00  0.00     0.023 A 
ATOM      2  C1  UNL d   1      -3.301   1.556   2.984  0.00  0.00     0.003 A 
ATOM      3  C2  UNL d   1      -3.700   2.261   4.122  0.00  0.00     0.048 A 
ATOM      4  C3  UNL d   1      -5.047   2.571   4.307  0.00  0.00     0.023 A 
ATOM      5  C4  UNL d   1      -5.998   2.181   3.362  0.00  0.00     0.048 A 
ATOM      6  C5  UNL d   1      -5.594   1.478   2.226  0.00  0.00     0.003 A 
ATOM      7  I   UNL d   1      -5.642   3.619   6.000  0.00  0.00    -0.146 I 
ENDROOT
TORSDOF 0
ENDMDL
