MODEL 1
REMARK minimizedAffinity 12.1348505
REMARK minimizedRMSD -1
REMARK  0 active torsions:
REMARK  status: ('A' for Active; 'I' for Inactive)
ROOT
ATOM      1  C   UNL d   1      -1.944  -5.998  -6.000  0.00  0.00     0.023 A 
ATOM      2  C1  UNL d   1      -0.734  -5.326  -5.825  0.00  0.00     0.003 A 
ATOM      3  C2  UNL d   1      -0.598  -4.385  -4.803  0.00  0.00     0.048 A 
ATOM      4  C3  UNL d   1      -1.675  -4.121  -3.958  0.00  0.00     0.023 A 
ATOM      5  C4  UNL d   1      -2.887  -4.792  -4.128  0.00  0.00     0.048 A 
ATOM      6  C5  UNL d   1      -3.019  -5.732  -5.153  0.00  0.00     0.003 A 
ATOM      7  I   UNL d   1      -1.475  -2.720  -2.436  0.00  0.00    -0.146 I 
ENDROOT
TORSDOF 0
ENDMDL
