MODEL 1
REMARK minimizedAffinity 4.47407103
REMARK minimizedRMSD -1
REMARK  0 active torsions:
REMARK  status: ('A' for Active; 'I' for Inactive)
ROOT
ATOM      1  C   UNL d   1      -4.895  -4.111   0.302  0.00  0.00     0.023 A 
ATOM      2  C1  UNL d   1      -4.563  -3.417   1.466  0.00  0.00     0.003 A 
ATOM      3  C2  UNL d   1      -4.875  -3.958   2.715  0.00  0.00     0.048 A 
ATOM      4  C3  UNL d   1      -5.518  -5.193   2.793  0.00  0.00     0.023 A 
ATOM      5  C4  UNL d   1      -5.851  -5.891   1.631  0.00  0.00     0.048 A 
ATOM      6  C5  UNL d   1      -5.538  -5.346   0.384  0.00  0.00     0.003 A 
ATOM      7  I   UNL d   1      -5.984  -5.999   4.651  0.00  0.00    -0.146 I 
ENDROOT
TORSDOF 0
ENDMDL
