MODEL 1
REMARK minimizedAffinity 3.05875349
REMARK minimizedRMSD -1
REMARK  0 active torsions:
REMARK  status: ('A' for Active; 'I' for Inactive)
ROOT
ATOM      1  C   UNL d   1       1.132  -2.174   1.095  0.00  0.00     0.023 A 
ATOM      2  C1  UNL d   1       0.785  -3.498   0.826  0.00  0.00     0.003 A 
ATOM      3  C2  UNL d   1       1.780  -4.444   0.571  0.00  0.00     0.048 A 
ATOM      4  C3  UNL d   1       3.120  -4.060   0.589  0.00  0.00     0.023 A 
ATOM      5  C4  UNL d   1       3.472  -2.736   0.859  0.00  0.00     0.048 A 
ATOM      6  C5  UNL d   1       2.474  -1.794   1.112  0.00  0.00     0.003 A 
ATOM      7  I   UNL d   1       4.603  -5.466   0.211  0.00  0.00    -0.146 I 
ENDROOT
TORSDOF 0
ENDMDL
