MODEL 1
REMARK minimizedAffinity 2.45230007
REMARK minimizedRMSD -1
REMARK  0 active torsions:
REMARK  status: ('A' for Active; 'I' for Inactive)
ROOT
ATOM      1  C   UNL d   1       1.682  -2.020   0.355  0.00  0.00     0.023 A 
ATOM      2  C1  UNL d   1       3.033  -1.722   0.175  0.00  0.00     0.003 A 
ATOM      3  C2  UNL d   1       3.978  -2.750   0.150  0.00  0.00     0.048 A 
ATOM      4  C3  UNL d   1       3.565  -4.073   0.306  0.00  0.00     0.023 A 
ATOM      5  C4  UNL d   1       2.214  -4.375   0.485  0.00  0.00     0.048 A 
ATOM      6  C5  UNL d   1       1.273  -3.344   0.510  0.00  0.00     0.003 A 
ATOM      7  I   UNL d   1       4.970  -5.604   0.269  0.00  0.00    -0.146 I 
ENDROOT
TORSDOF 0
ENDMDL
