MODEL 1
REMARK minimizedAffinity 2.32717395
REMARK minimizedRMSD -1
REMARK  0 active torsions:
REMARK  status: ('A' for Active; 'I' for Inactive)
ROOT
ATOM      1  C   UNL d   1       1.452  -2.533   0.367  0.00  0.00     0.023 A 
ATOM      2  C1  UNL d   1       2.802  -2.182   0.366  0.00  0.00     0.003 A 
ATOM      3  C2  UNL d   1       3.783  -3.175   0.356  0.00  0.00     0.048 A 
ATOM      4  C3  UNL d   1       3.407  -4.518   0.346  0.00  0.00     0.023 A 
ATOM      5  C4  UNL d   1       2.057  -4.874   0.347  0.00  0.00     0.048 A 
ATOM      6  C5  UNL d   1       1.080  -3.877   0.358  0.00  0.00     0.003 A 
ATOM      7  I   UNL d   1       4.866  -5.998   0.332  0.00  0.00    -0.146 I 
ENDROOT
TORSDOF 0
ENDMDL
