MODEL 1
REMARK minimizedAffinity 6.29679823
REMARK minimizedRMSD -1
REMARK  0 active torsions:
REMARK  status: ('A' for Active; 'I' for Inactive)
ROOT
ATOM      1  C1  BNZ d   1      -1.493  -1.341   4.660  0.00  0.00     0.000 A 
ATOM      2  C2  BNZ d   1      -0.174  -1.049   4.436  0.00  0.00     0.000 A 
ATOM      3  C3  BNZ d   1       0.327  -1.001   3.165  0.00  0.00     0.000 A 
ATOM      4  C4  BNZ d   1      -0.482  -1.283   2.123  0.00  0.00     0.000 A 
ATOM      5  C5  BNZ d   1      -1.812  -1.587   2.333  0.00  0.00     0.000 A 
ATOM      6  C6  BNZ d   1      -2.321  -1.597   3.611  0.00  0.00     0.000 A 
ENDROOT
TORSDOF 0
ENDMDL
