MODEL 1
REMARK minimizedAffinity 0.473831713
REMARK minimizedRMSD -1
REMARK  0 active torsions:
REMARK  status: ('A' for Active; 'I' for Inactive)
ROOT
ATOM      1  C1  BNZ d   1       0.761  -3.567   2.914  0.00  0.00     0.000 A 
ATOM      2  C2  BNZ d   1      -0.045  -3.009   3.871  0.00  0.00     0.000 A 
ATOM      3  C3  BNZ d   1      -0.361  -1.680   3.832  0.00  0.00     0.000 A 
ATOM      4  C4  BNZ d   1       0.160  -0.903   2.861  0.00  0.00     0.000 A 
ATOM      5  C5  BNZ d   1       0.982  -1.448   1.894  0.00  0.00     0.000 A 
ATOM      6  C6  BNZ d   1       1.267  -2.794   1.914  0.00  0.00     0.000 A 
ENDROOT
TORSDOF 0
ENDMDL
