MODEL 1
REMARK minimizedAffinity 11.9398546
REMARK minimizedRMSD -1
REMARK  0 active torsions:
REMARK  status: ('A' for Active; 'I' for Inactive)
ROOT
ATOM      1  C1  BNZ d   1       1.035  -3.566   0.312  0.00  0.00     0.000 A 
ATOM      2  C2  BNZ d   1       1.081  -4.455   1.353  0.00  0.00     0.000 A 
ATOM      3  C3  BNZ d   1       0.509  -4.153   2.557  0.00  0.00     0.000 A 
ATOM      4  C4  BNZ d   1      -0.072  -2.949   2.732  0.00  0.00     0.000 A 
ATOM      5  C5  BNZ d   1      -0.119  -2.038   1.695  0.00  0.00     0.000 A 
ATOM      6  C6  BNZ d   1       0.423  -2.361   0.472  0.00  0.00     0.000 A 
ENDROOT
TORSDOF 0
ENDMDL
