MODEL 1
REMARK minimizedAffinity 12.2360659
REMARK minimizedRMSD -1
REMARK  0 active torsions:
REMARK  status: ('A' for Active; 'I' for Inactive)
ROOT
ATOM      1  C1  BNZ d   1       1.636  -0.604   1.205  0.00  0.00     0.000 A 
ATOM      2  C2  BNZ d   1       2.942  -0.361   1.535  0.00  0.00     0.000 A 
ATOM      3  C3  BNZ d   1       3.528   0.838   1.239  0.00  0.00     0.000 A 
ATOM      4  C4  BNZ d   1       2.820   1.777   0.578  0.00  0.00     0.000 A 
ATOM      5  C5  BNZ d   1       1.504   1.543   0.230  0.00  0.00     0.000 A 
ATOM      6  C6  BNZ d   1       0.906   0.350   0.564  0.00  0.00     0.000 A 
ENDROOT
TORSDOF 0
ENDMDL
