MODEL 1
REMARK minimizedAffinity 8.66393089
REMARK minimizedRMSD -1
REMARK  0 active torsions:
REMARK  status: ('A' for Active; 'I' for Inactive)
ROOT
ATOM      1  C1  BNZ d   1       1.494   4.571   0.389  0.00  0.00     0.000 A 
ATOM      2  C2  BNZ d   1       0.284   4.388  -0.225  0.00  0.00     0.000 A 
ATOM      3  C3  BNZ d   1      -0.148   3.137  -0.565  0.00  0.00     0.000 A 
ATOM      4  C4  BNZ d   1       0.648   2.074  -0.327  0.00  0.00     0.000 A 
ATOM      5  C5  BNZ d   1       1.876   2.242   0.283  0.00  0.00     0.000 A 
ATOM      6  C6  BNZ d   1       2.289   3.500   0.659  0.00  0.00     0.000 A 
ENDROOT
TORSDOF 0
ENDMDL
