MODEL 1
REMARK minimizedAffinity 6.99521875
REMARK minimizedRMSD -1
REMARK  0 active torsions:
REMARK  status: ('A' for Active; 'I' for Inactive)
ROOT
ATOM      1  C1  BNZ d   1       0.743  -2.799   1.331  0.00  0.00     0.000 A 
ATOM      2  C2  BNZ d   1       1.009  -1.456   1.339  0.00  0.00     0.000 A 
ATOM      3  C3  BNZ d   1       0.175  -0.581   1.976  0.00  0.00     0.000 A 
ATOM      4  C4  BNZ d   1      -0.944  -1.044   2.569  0.00  0.00     0.000 A 
ATOM      5  C5  BNZ d   1      -1.232  -2.395   2.562  0.00  0.00     0.000 A 
ATOM      6  C6  BNZ d   1      -0.369  -3.277   1.953  0.00  0.00     0.000 A 
ENDROOT
TORSDOF 0
ENDMDL
