MODEL 1
REMARK minimizedAffinity 2.55610847
REMARK minimizedRMSD -1
REMARK  0 active torsions:
REMARK  status: ('A' for Active; 'I' for Inactive)
ROOT
ATOM      1  C1  BNZ d   1      -3.804  -4.047   4.329  0.00  0.00     0.000 A 
ATOM      2  C2  BNZ d   1      -4.517  -3.439   5.328  0.00  0.00     0.000 A 
ATOM      3  C3  BNZ d   1      -5.601  -4.053   5.889  0.00  0.00     0.000 A 
ATOM      4  C4  BNZ d   1      -5.996  -5.256   5.423  0.00  0.00     0.000 A 
ATOM      5  C5  BNZ d   1      -5.294  -5.878   4.410  0.00  0.00     0.000 A 
ATOM      6  C6  BNZ d   1      -4.179  -5.274   3.875  0.00  0.00     0.000 A 
ENDROOT
TORSDOF 0
ENDMDL
