MODEL 1
REMARK minimizedAffinity 5.19129133
REMARK minimizedRMSD -1
REMARK  0 active torsions:
REMARK  status: ('A' for Active; 'I' for Inactive)
ROOT
ATOM      1  C1  BNZ d   1      -0.380  -0.548   3.379  0.00  0.00     0.000 A 
ATOM      2  C2  BNZ d   1       0.553  -0.432   2.383  0.00  0.00     0.000 A 
ATOM      3  C3  BNZ d   1       0.494  -1.227   1.273  0.00  0.00     0.000 A 
ATOM      4  C4  BNZ d   1      -0.473  -2.163   1.178  0.00  0.00     0.000 A 
ATOM      5  C5  BNZ d   1      -1.416  -2.298   2.177  0.00  0.00     0.000 A 
ATOM      6  C6  BNZ d   1      -1.376  -1.470   3.276  0.00  0.00     0.000 A 
ENDROOT
TORSDOF 0
ENDMDL
