MODEL 1
REMARK minimizedAffinity 10.3730373
REMARK minimizedRMSD -1
REMARK  0 active torsions:
REMARK  status: ('A' for Active; 'I' for Inactive)
ROOT
ATOM      1  C1  BNZ d   1       1.502   5.658   0.376  0.00  0.00     0.000 A 
ATOM      2  C2  BNZ d   1       1.495   4.351   0.786  0.00  0.00     0.000 A 
ATOM      3  C3  BNZ d   1       0.946   3.375   0.003  0.00  0.00     0.000 A 
ATOM      4  C4  BNZ d   1       0.369   3.711  -1.168  0.00  0.00     0.000 A 
ATOM      5  C5  BNZ d   1       0.359   5.025  -1.591  0.00  0.00     0.000 A 
ATOM      6  C6  BNZ d   1       0.948   6.000  -0.819  0.00  0.00     0.000 A 
ENDROOT
TORSDOF 0
ENDMDL
