MODEL 1
REMARK minimizedAffinity 10.2246027
REMARK minimizedRMSD -1
REMARK  0 active torsions:
REMARK  status: ('A' for Active; 'I' for Inactive)
ROOT
ATOM      1  C1  BNZ d   1       0.861  -2.330   1.214  0.00  0.00     0.000 A 
ATOM      2  C2  BNZ d   1      -0.287  -2.310   1.961  0.00  0.00     0.000 A 
ATOM      3  C3  BNZ d   1      -0.532  -1.292   2.840  0.00  0.00     0.000 A 
ATOM      4  C4  BNZ d   1       0.388  -0.319   3.002  0.00  0.00     0.000 A 
ATOM      5  C5  BNZ d   1       1.554  -0.331   2.263  0.00  0.00     0.000 A 
ATOM      6  C6  BNZ d   1       1.780  -1.335   1.350  0.00  0.00     0.000 A 
ENDROOT
TORSDOF 0
ENDMDL
