MODEL 1
REMARK minimizedAffinity 6.94705439
REMARK minimizedRMSD -1
REMARK  0 active torsions:
REMARK  status: ('A' for Active; 'I' for Inactive)
ROOT
ATOM      1  C1  BNZ d   1       0.544  -3.036   1.600  0.00  0.00     0.000 A 
ATOM      2  C2  BNZ d   1      -0.497  -2.999   2.489  0.00  0.00     0.000 A 
ATOM      3  C3  BNZ d   1      -0.983  -1.807   2.949  0.00  0.00     0.000 A 
ATOM      4  C4  BNZ d   1      -0.402  -0.657   2.551  0.00  0.00     0.000 A 
ATOM      5  C5  BNZ d   1       0.654  -0.678   1.662  0.00  0.00     0.000 A 
ATOM      6  C6  BNZ d   1       1.115  -1.878   1.171  0.00  0.00     0.000 A 
ENDROOT
TORSDOF 0
ENDMDL
