MODEL 1
REMARK minimizedAffinity 7.68860531
REMARK minimizedRMSD -1
REMARK  0 active torsions:
REMARK  status: ('A' for Active; 'I' for Inactive)
ROOT
ATOM      1  C1  BNZ d   1       1.494  -0.271   1.466  0.00  0.00     0.000 A 
ATOM      2  C2  BNZ d   1       0.413  -0.409   2.295  0.00  0.00     0.000 A 
ATOM      3  C3  BNZ d   1      -0.232  -1.609   2.410  0.00  0.00     0.000 A 
ATOM      4  C4  BNZ d   1       0.179  -2.656   1.667  0.00  0.00     0.000 A 
ATOM      5  C5  BNZ d   1       1.261  -2.530   0.819  0.00  0.00     0.000 A 
ATOM      6  C6  BNZ d   1       1.932  -1.332   0.735  0.00  0.00     0.000 A 
ENDROOT
TORSDOF 0
ENDMDL
