MODEL 1
REMARK minimizedAffinity 2.72981286
REMARK minimizedRMSD -1
REMARK  0 active torsions:
REMARK  status: ('A' for Active; 'I' for Inactive)
ROOT
ATOM      1  C1  BNZ d   1       2.802  -3.631  -5.879  0.00  0.00     0.000 A 
ATOM      2  C2  BNZ d   1       1.445  -3.604  -5.698  0.00  0.00     0.000 A 
ATOM      3  C3  BNZ d   1       0.725  -4.764  -5.625  0.00  0.00     0.000 A 
ATOM      4  C4  BNZ d   1       1.357  -5.947  -5.773  0.00  0.00     0.000 A 
ATOM      5  C5  BNZ d   1       2.723  -5.990  -5.965  0.00  0.00     0.000 A 
ATOM      6  C6  BNZ d   1       3.450  -4.822  -5.999  0.00  0.00     0.000 A 
ENDROOT
TORSDOF 0
ENDMDL
