MODEL 1
REMARK minimizedAffinity 3.58397198
REMARK minimizedRMSD -1
REMARK  0 active torsions:
REMARK  status: ('A' for Active; 'I' for Inactive)
ROOT
ATOM      1  C1  BNZ d   1      -2.572   5.995  -2.665  0.00  0.00     0.000 A 
ATOM      2  C2  BNZ d   1      -3.090   4.862  -2.094  0.00  0.00     0.000 A 
ATOM      3  C3  BNZ d   1      -3.073   3.671  -2.764  0.00  0.00     0.000 A 
ATOM      4  C4  BNZ d   1      -2.576   3.622  -4.017  0.00  0.00     0.000 A 
ATOM      5  C5  BNZ d   1      -2.060   4.757  -4.609  0.00  0.00     0.000 A 
ATOM      6  C6  BNZ d   1      -2.043   5.946  -3.917  0.00  0.00     0.000 A 
ENDROOT
TORSDOF 0
ENDMDL
