MODEL 1
REMARK minimizedAffinity 5.92372656
REMARK minimizedRMSD -1
REMARK  0 active torsions:
REMARK  status: ('A' for Active; 'I' for Inactive)
ROOT
ATOM      1  C1  BNZ d   1      -1.815   6.000  -4.666  0.00  0.00     0.000 A 
ATOM      2  C2  BNZ d   1      -1.967   6.000  -3.305  0.00  0.00     0.000 A 
ATOM      3  C3  BNZ d   1      -2.238   4.842  -2.631  0.00  0.00     0.000 A 
ATOM      4  C4  BNZ d   1      -2.395   3.694  -3.321  0.00  0.00     0.000 A 
ATOM      5  C5  BNZ d   1      -2.254   3.680  -4.695  0.00  0.00     0.000 A 
ATOM      6  C6  BNZ d   1      -1.943   4.840  -5.366  0.00  0.00     0.000 A 
ENDROOT
TORSDOF 0
ENDMDL
