MODEL 1
REMARK minimizedAffinity 1.01450825
REMARK minimizedRMSD -1
REMARK  0 active torsions:
REMARK  status: ('A' for Active; 'I' for Inactive)
ROOT
ATOM      1  C1  BNZ d   1      -4.134  -4.664   0.860  0.00  0.00     0.000 A 
ATOM      2  C2  BNZ d   1      -4.503  -5.700   1.676  0.00  0.00     0.000 A 
ATOM      3  C3  BNZ d   1      -4.497  -5.558   3.035  0.00  0.00     0.000 A 
ATOM      4  C4  BNZ d   1      -4.083  -4.394   3.577  0.00  0.00     0.000 A 
ATOM      5  C5  BNZ d   1      -3.699  -3.343   2.768  0.00  0.00     0.000 A 
ATOM      6  C6  BNZ d   1      -3.744  -3.478   1.400  0.00  0.00     0.000 A 
ENDROOT
TORSDOF 0
ENDMDL
