MODEL 1
REMARK minimizedAffinity -4.92864227
REMARK minimizedRMSD -1
REMARK  1 active torsions:
REMARK  status: ('A' for Active; 'I' for Inactive)
REMARK    1  A    between atoms: C1_2  and  C2_3 
ROOT
ATOM      1  C2  UNL d   1       0.591   0.224  -0.009  0.00  0.00    -0.076 A 
ATOM      2  C3  UNL d   1       1.927   0.171  -0.445  0.00  0.00     0.004 A 
ATOM      3  C4  UNL d   1       2.838   1.163  -0.088  0.00  0.00    -0.003 A 
ATOM      4  C5  UNL d   1       2.429   2.225   0.712  0.00  0.00     0.000 A 
ATOM      5  C6  UNL d   1       1.113   2.284   1.168  0.00  0.00     0.000 A 
ATOM      6  C7  UNL d   1       0.185   1.284   0.831  0.00  0.00    -0.073 A 
ATOM      7  C8  UNL d   1      -1.223   1.402   1.345  0.00  0.00     0.078 C 
ENDROOT
BRANCH   1   8
ATOM      8  C1  UNL d   1      -0.359  -0.866  -0.450  0.00  0.00     0.053 C 
ATOM      9  C   UNL d   1      -1.373  -0.377  -1.473  0.00  0.00     0.018 C 
ENDBRANCH   1   8
TORSDOF 1
ENDMDL
