MODEL 1
REMARK minimizedAffinity -2.1096158
REMARK minimizedRMSD -1
REMARK  1 active torsions:
REMARK  status: ('A' for Active; 'I' for Inactive)
REMARK    1  A    between atoms: C1_2  and  C2_3 
ROOT
ATOM      1  C2  UNL d   1       0.867   1.244   0.443  0.00  0.00    -0.076 A 
ATOM      2  C3  UNL d   1      -0.372   0.832   0.964  0.00  0.00     0.004 A 
ATOM      3  C4  UNL d   1      -1.029  -0.286   0.454  0.00  0.00    -0.003 A 
ATOM      4  C5  UNL d   1      -0.458  -1.012  -0.585  0.00  0.00     0.000 A 
ATOM      5  C6  UNL d   1       0.779  -0.628  -1.102  0.00  0.00     0.000 A 
ATOM      6  C7  UNL d   1       1.463   0.487  -0.588  0.00  0.00    -0.073 A 
ATOM      7  C8  UNL d   1       2.791   0.859  -1.188  0.00  0.00     0.078 C 
ENDROOT
BRANCH   1   8
ATOM      8  C1  UNL d   1       1.520   2.480   1.018  0.00  0.00     0.053 C 
ATOM      9  C   UNL d   1       1.773   2.364   2.514  0.00  0.00     0.018 C 
ENDBRANCH   1   8
TORSDOF 1
ENDMDL
