MODEL 1
REMARK minimizedAffinity -5.55761385
REMARK minimizedRMSD -1
REMARK  1 active torsions:
REMARK  status: ('A' for Active; 'I' for Inactive)
REMARK    1  A    between atoms: C1_2  and  C2_3 
ROOT
ATOM      1  C2  UNL d   1       1.421   1.653   1.076  0.00  0.00    -0.076 A 
ATOM      2  C3  UNL d   1       0.999   2.142   2.325  0.00  0.00     0.004 A 
ATOM      3  C4  UNL d   1       1.791   1.986   3.461  0.00  0.00    -0.003 A 
ATOM      4  C5  UNL d   1       3.018   1.339   3.368  0.00  0.00     0.000 A 
ATOM      5  C6  UNL d   1       3.460   0.863   2.134  0.00  0.00     0.000 A 
ATOM      6  C7  UNL d   1       2.682   1.027   0.975  0.00  0.00    -0.073 A 
ATOM      7  C8  UNL d   1       3.205   0.489  -0.328  0.00  0.00     0.078 C 
ENDROOT
BRANCH   1   8
ATOM      8  C1  UNL d   1       0.508   1.828  -0.116  0.00  0.00     0.053 C 
ATOM      9  C   UNL d   1      -0.486   0.686  -0.261  0.00  0.00     0.018 C 
ENDBRANCH   1   8
TORSDOF 1
ENDMDL
