MODEL 1
REMARK minimizedAffinity -6.48536301
REMARK minimizedRMSD -1
REMARK  1 active torsions:
REMARK  status: ('A' for Active; 'I' for Inactive)
REMARK    1  A    between atoms: C1_2  and  C2_3 
ROOT
ATOM      1  C2  UNL d   1       0.965   0.872   0.198  0.00  0.00    -0.076 A 
ATOM      2  C3  UNL d   1       0.065   1.651   0.947  0.00  0.00     0.004 A 
ATOM      3  C4  UNL d   1       0.514   2.711   1.732  0.00  0.00    -0.003 A 
ATOM      4  C5  UNL d   1       1.871   3.011   1.780  0.00  0.00     0.000 A 
ATOM      5  C6  UNL d   1       2.776   2.261   1.030  0.00  0.00     0.000 A 
ATOM      6  C7  UNL d   1       2.337   1.199   0.221  0.00  0.00    -0.073 A 
ATOM      7  C8  UNL d   1       3.358   0.419  -0.563  0.00  0.00     0.078 C 
ENDROOT
BRANCH   1   8
ATOM      8  C1  UNL d   1       0.422  -0.282  -0.613  0.00  0.00     0.053 C 
ATOM      9  C   UNL d   1      -0.896  -0.809  -0.068  0.00  0.00     0.018 C 
ENDBRANCH   1   8
TORSDOF 1
ENDMDL
