MODEL 1
REMARK minimizedAffinity -1.03595448
REMARK minimizedRMSD -1
REMARK  1 active torsions:
REMARK  status: ('A' for Active; 'I' for Inactive)
REMARK    1  A    between atoms: C1_2  and  C2_3 
ROOT
ATOM      1  C2  UNL d   1       0.461  -0.624  -0.387  0.00  0.00    -0.076 A 
ATOM      2  C3  UNL d   1       1.689  -0.376  -1.024  0.00  0.00     0.004 A 
ATOM      3  C4  UNL d   1       2.354   0.837  -0.854  0.00  0.00    -0.003 A 
ATOM      4  C5  UNL d   1       1.801   1.823  -0.044  0.00  0.00     0.000 A 
ATOM      5  C6  UNL d   1       0.591   1.588   0.609  0.00  0.00     0.000 A 
ATOM      6  C7  UNL d   1      -0.083   0.364   0.462  0.00  0.00    -0.073 A 
ATOM      7  C8  UNL d   1      -1.387   0.166   1.185  0.00  0.00     0.078 C 
ENDROOT
BRANCH   1   8
ATOM      8  C1  UNL d   1      -0.227  -1.948  -0.630  0.00  0.00     0.053 C 
ATOM      9  C   UNL d   1      -1.224  -1.885  -1.777  0.00  0.00     0.018 C 
ENDBRANCH   1   8
TORSDOF 1
ENDMDL
