MODEL 1
REMARK minimizedAffinity -5.41027689
REMARK minimizedRMSD -1
REMARK  1 active torsions:
REMARK  status: ('A' for Active; 'I' for Inactive)
REMARK    1  A    between atoms: C1_2  and  C2_3 
ROOT
ATOM      1  C2  UNL d   1       0.164   0.081  -0.037  0.00  0.00    -0.076 A 
ATOM      2  C3  UNL d   1       1.430   0.504  -0.478  0.00  0.00     0.004 A 
ATOM      3  C4  UNL d   1       2.100   1.547   0.159  0.00  0.00    -0.003 A 
ATOM      4  C5  UNL d   1       1.516   2.183   1.249  0.00  0.00     0.000 A 
ATOM      5  C6  UNL d   1       0.268   1.765   1.711  0.00  0.00     0.000 A 
ATOM      6  C7  UNL d   1      -0.414   0.704   1.090  0.00  0.00    -0.073 A 
ATOM      7  C8  UNL d   1      -1.759   0.298   1.627  0.00  0.00     0.078 C 
ENDROOT
BRANCH   1   8
ATOM      8  C1  UNL d   1      -0.527  -1.037  -0.784  0.00  0.00     0.053 C 
ATOM      9  C   UNL d   1      -1.228  -0.550  -2.043  0.00  0.00     0.018 C 
ENDBRANCH   1   8
TORSDOF 1
ENDMDL
