MODEL 1
REMARK minimizedAffinity -4.9691658
REMARK minimizedRMSD -1
REMARK  1 active torsions:
REMARK  status: ('A' for Active; 'I' for Inactive)
REMARK    1  A    between atoms: C1_2  and  C2_3 
ROOT
ATOM      1  C2  UNL d   1       0.471   0.201   0.311  0.00  0.00    -0.076 A 
ATOM      2  C3  UNL d   1      -0.608   0.794   0.990  0.00  0.00     0.004 A 
ATOM      3  C4  UNL d   1      -0.435   1.963   1.729  0.00  0.00    -0.003 A 
ATOM      4  C5  UNL d   1       0.819   2.558   1.802  0.00  0.00     0.000 A 
ATOM      5  C6  UNL d   1       1.897   1.994   1.120  0.00  0.00     0.000 A 
ATOM      6  C7  UNL d   1       1.737   0.825   0.357  0.00  0.00    -0.073 A 
ATOM      7  C8  UNL d   1       2.935   0.256  -0.353  0.00  0.00     0.078 C 
ENDROOT
BRANCH   1   8
ATOM      8  C1  UNL d   1       0.230  -1.081  -0.453  0.00  0.00     0.053 C 
ATOM      9  C   UNL d   1      -0.920  -0.963  -1.441  0.00  0.00     0.018 C 
ENDBRANCH   1   8
TORSDOF 1
ENDMDL
