MODEL 1
REMARK minimizedAffinity -5.18279457
REMARK minimizedRMSD -1
REMARK  1 active torsions:
REMARK  status: ('A' for Active; 'I' for Inactive)
REMARK    1  A    between atoms: C1_2  and  C2_3 
ROOT
ATOM      1  C2  UNL d   1       0.850   0.494   0.068  0.00  0.00    -0.076 A 
ATOM      2  C3  UNL d   1      -0.238   1.060   0.756  0.00  0.00     0.004 A 
ATOM      3  C4  UNL d   1      -0.078   2.208   1.530  0.00  0.00    -0.003 A 
ATOM      4  C5  UNL d   1       1.171   2.810   1.627  0.00  0.00     0.000 A 
ATOM      5  C6  UNL d   1       2.257   2.273   0.937  0.00  0.00     0.000 A 
ATOM      6  C7  UNL d   1       2.110   1.126   0.139  0.00  0.00    -0.073 A 
ATOM      7  C8  UNL d   1       3.317   0.586  -0.579  0.00  0.00     0.078 C 
ENDROOT
BRANCH   1   8
ATOM      8  C1  UNL d   1       0.623  -0.767  -0.734  0.00  0.00     0.053 C 
ATOM      9  C   UNL d   1      -0.619  -1.524  -0.290  0.00  0.00     0.018 C 
ENDBRANCH   1   8
TORSDOF 1
ENDMDL
