MODEL 1
REMARK minimizedAffinity -5.80386305
REMARK minimizedRMSD -1
REMARK  1 active torsions:
REMARK  status: ('A' for Active; 'I' for Inactive)
REMARK    1  A    between atoms: C1_2  and  C2_3 
ROOT
ATOM      1  C2  UNL d   1       0.882   0.762   0.558  0.00  0.00    -0.076 A 
ATOM      2  C3  UNL d   1       2.061   0.244  -0.006  0.00  0.00     0.004 A 
ATOM      3  C4  UNL d   1       3.227   1.006  -0.058  0.00  0.00    -0.003 A 
ATOM      4  C5  UNL d   1       3.233   2.299   0.455  0.00  0.00     0.000 A 
ATOM      5  C6  UNL d   1       2.077   2.822   1.034  0.00  0.00     0.000 A 
ATOM      6  C7  UNL d   1       0.898   2.061   1.108  0.00  0.00    -0.073 A 
ATOM      7  C8  UNL d   1      -0.321   2.678   1.738  0.00  0.00     0.078 C 
ENDROOT
BRANCH   1   8
ATOM      8  C1  UNL d   1      -0.359  -0.102   0.561  0.00  0.00     0.053 C 
ATOM      9  C   UNL d   1      -0.244  -1.292  -0.379  0.00  0.00     0.018 C 
ENDBRANCH   1   8
TORSDOF 1
ENDMDL
