MODEL 1
REMARK minimizedAffinity -6.41152287
REMARK minimizedRMSD -1
REMARK  1 active torsions:
REMARK  status: ('A' for Active; 'I' for Inactive)
REMARK    1  A    between atoms: C1_2  and  C2_3 
ROOT
ATOM      1  C2  UNL d   1       0.971   0.602   0.314  0.00  0.00    -0.076 A 
ATOM      2  C3  UNL d   1       2.267   0.836  -0.177  0.00  0.00     0.004 A 
ATOM      3  C4  UNL d   1       3.092   1.797   0.405  0.00  0.00    -0.003 A 
ATOM      4  C5  UNL d   1       2.635   2.538   1.490  0.00  0.00     0.000 A 
ATOM      5  C6  UNL d   1       1.359   2.306   2.001  0.00  0.00     0.000 A 
ATOM      6  C7  UNL d   1       0.520   1.331   1.435  0.00  0.00    -0.073 A 
ATOM      7  C8  UNL d   1      -0.849   1.127   2.024  0.00  0.00     0.078 C 
ENDROOT
BRANCH   1   8
ATOM      8  C1  UNL d   1       0.111  -0.433  -0.376  0.00  0.00     0.053 C 
ATOM      9  C   UNL d   1       0.759  -1.808  -0.398  0.00  0.00     0.018 C 
ENDBRANCH   1   8
TORSDOF 1
ENDMDL
