MODEL 1
REMARK minimizedAffinity -2.8269825
REMARK minimizedRMSD -1
REMARK  1 active torsions:
REMARK  status: ('A' for Active; 'I' for Inactive)
REMARK    1  A    between atoms: C1_2  and  C2_3 
ROOT
ATOM      1  C2  UNL d   1       1.321   1.104   0.084  0.00  0.00    -0.076 A 
ATOM      2  C3  UNL d   1      -0.055   0.846   0.210  0.00  0.00     0.004 A 
ATOM      3  C4  UNL d   1      -0.597  -0.372  -0.197  0.00  0.00    -0.003 A 
ATOM      4  C5  UNL d   1       0.229  -1.352  -0.735  0.00  0.00     0.000 A 
ATOM      5  C6  UNL d   1       1.599  -1.120  -0.851  0.00  0.00     0.000 A 
ATOM      6  C7  UNL d   1       2.164   0.097  -0.431  0.00  0.00    -0.073 A 
ATOM      7  C8  UNL d   1       3.647   0.296  -0.585  0.00  0.00     0.078 C 
ENDROOT
BRANCH   1   8
ATOM      8  C1  UNL d   1       1.847   2.454   0.517  0.00  0.00     0.053 C 
ATOM      9  C   UNL d   1       2.304   2.464   1.968  0.00  0.00     0.018 C 
ENDBRANCH   1   8
TORSDOF 1
ENDMDL
