MODEL 1
REMARK minimizedAffinity 15.5560341
REMARK minimizedRMSD -1
REMARK  0 active torsions:
REMARK  status: ('A' for Active; 'I' for Inactive)
ROOT
ATOM      1  C1  DEN d   1      -3.426  -2.165   5.585  0.00  0.00     0.130 A 
ATOM      2  C2  DEN d   1      -3.771  -3.047   4.473  0.00  0.00    -0.031 A 
ATOM      3  C3  DEN d   1      -4.023  -2.206   3.285  0.00  0.00     0.027 A 
ATOM      4  C4  DEN d   1      -3.907   0.361   3.061  0.00  0.00     0.027 A 
ATOM      5  C5  DEN d   1      -3.667   1.537   3.736  0.00  0.00    -0.003 A 
ATOM      6  C6  DEN d   1      -3.365   1.564   5.072  0.00  0.00     0.001 A 
ATOM      7  C7  DEN d   1      -3.251   0.388   5.766  0.00  0.00     0.017 A 
ATOM      8  C8  DEN d   1      -3.500  -0.801   5.093  0.00  0.00    -0.094 A 
ATOM      9  C9  DEN d   1      -3.791  -0.808   3.740  0.00  0.00    -0.072 A 
ENDROOT
TORSDOF 0
ENDMDL
