MODEL 1
REMARK minimizedAffinity 13.4663639
REMARK minimizedRMSD -1
REMARK  0 active torsions:
REMARK  status: ('A' for Active; 'I' for Inactive)
ROOT
ATOM      1  C1  DEN d   1      -3.441   0.001   6.000  0.00  0.00     0.130 A 
ATOM      2  C2  DEN d   1      -3.618   1.421   5.709  0.00  0.00    -0.031 A 
ATOM      3  C3  DEN d   1      -4.025   1.551   4.295  0.00  0.00     0.027 A 
ATOM      4  C4  DEN d   1      -4.403  -0.300   2.540  0.00  0.00     0.027 A 
ATOM      5  C5  DEN d   1      -4.365  -1.659   2.315  0.00  0.00    -0.003 A 
ATOM      6  C6  DEN d   1      -3.987  -2.549   3.284  0.00  0.00     0.001 A 
ATOM      7  C7  DEN d   1      -3.675  -2.095   4.539  0.00  0.00     0.017 A 
ATOM      8  C8  DEN d   1      -3.704  -0.726   4.771  0.00  0.00    -0.094 A 
ATOM      9  C9  DEN d   1      -4.100   0.157   3.781  0.00  0.00    -0.072 A 
ENDROOT
TORSDOF 0
ENDMDL
