MODEL 1
REMARK minimizedAffinity 12.9409552
REMARK minimizedRMSD -1
REMARK  0 active torsions:
REMARK  status: ('A' for Active; 'I' for Inactive)
ROOT
ATOM      1  C1  DEN d   1      -3.365  -1.052   4.583  0.00  0.00     0.130 A 
ATOM      2  C2  DEN d   1      -3.778  -1.317   3.207  0.00  0.00    -0.031 A 
ATOM      3  C3  DEN d   1      -4.249  -0.047   2.619  0.00  0.00     0.027 A 
ATOM      4  C4  DEN d   1      -4.373   2.293   3.697  0.00  0.00     0.027 A 
ATOM      5  C5  DEN d   1      -4.144   3.011   4.850  0.00  0.00    -0.003 A 
ATOM      6  C6  DEN d   1      -3.676   2.424   5.996  0.00  0.00     0.001 A 
ATOM      7  C7  DEN d   1      -3.378   1.087   6.000  0.00  0.00     0.017 A 
ATOM      8  C8  DEN d   1      -3.613   0.355   4.844  0.00  0.00    -0.094 A 
ATOM      9  C9  DEN d   1      -4.075   0.969   3.692  0.00  0.00    -0.072 A 
ENDROOT
TORSDOF 0
ENDMDL
