MODEL 1
REMARK minimizedAffinity 16.1616898
REMARK minimizedRMSD -1
REMARK  0 active torsions:
REMARK  status: ('A' for Active; 'I' for Inactive)
ROOT
ATOM      1  C1  DEN d   1       0.215  -2.002  -3.316  0.00  0.00     0.130 A 
ATOM      2  C2  DEN d   1      -0.068  -3.407  -3.039  0.00  0.00    -0.031 A 
ATOM      3  C3  DEN d   1       0.729  -3.810  -1.864  0.00  0.00     0.027 A 
ATOM      4  C4  DEN d   1       2.362  -2.400  -0.449  0.00  0.00     0.027 A 
ATOM      5  C5  DEN d   1       2.937  -1.157  -0.306  0.00  0.00    -0.003 A 
ATOM      6  C6  DEN d   1       2.674  -0.126  -1.169  0.00  0.00     0.001 A 
ATOM      7  C7  DEN d   1       1.777  -0.307  -2.189  0.00  0.00     0.017 A 
ATOM      8  C8  DEN d   1       1.198  -1.560  -2.344  0.00  0.00    -0.094 A 
ATOM      9  C9  DEN d   1       1.468  -2.586  -1.454  0.00  0.00    -0.072 A 
ENDROOT
TORSDOF 0
ENDMDL
