MODEL 1
REMARK minimizedAffinity 23.2620964
REMARK minimizedRMSD -1
REMARK  0 active torsions:
REMARK  status: ('A' for Active; 'I' for Inactive)
ROOT
ATOM      1  C1  DEN d   1      -2.611   0.142   4.509  0.00  0.00     0.130 A 
ATOM      2  C2  DEN d   1      -2.503   0.015   3.058  0.00  0.00    -0.031 A 
ATOM      3  C3  DEN d   1      -3.253   1.130   2.445  0.00  0.00     0.027 A 
ATOM      4  C4  DEN d   1      -4.559   3.033   3.595  0.00  0.00     0.027 A 
ATOM      5  C5  DEN d   1      -4.946   3.555   4.810  0.00  0.00    -0.003 A 
ATOM      6  C6  DEN d   1      -4.612   2.962   5.998  0.00  0.00     0.001 A 
ATOM      7  C7  DEN d   1      -3.832   1.836   6.000  0.00  0.00     0.017 A 
ATOM      8  C8  DEN d   1      -3.445   1.300   4.779  0.00  0.00    -0.094 A 
ATOM      9  C9  DEN d   1      -3.782   1.921   3.588  0.00  0.00    -0.072 A 
ENDROOT
TORSDOF 0
ENDMDL
