MODEL 1
REMARK minimizedAffinity 14.1722221
REMARK minimizedRMSD -1
REMARK  0 active torsions:
REMARK  status: ('A' for Active; 'I' for Inactive)
ROOT
ATOM      1  C1  DEN d   1      -5.825   2.731   3.748  0.00  0.00     0.130 A 
ATOM      2  C2  DEN d   1      -5.989   3.530   4.960  0.00  0.00    -0.031 A 
ATOM      3  C3  DEN d   1      -5.100   2.971   5.999  0.00  0.00     0.027 A 
ATOM      4  C4  DEN d   1      -3.491   0.961   5.849  0.00  0.00     0.027 A 
ATOM      5  C5  DEN d   1      -3.016  -0.038   5.028  0.00  0.00    -0.003 A 
ATOM      6  C6  DEN d   1      -3.465  -0.204   3.745  0.00  0.00     0.001 A 
ATOM      7  C7  DEN d   1      -4.385   0.671   3.229  0.00  0.00     0.017 A 
ATOM      8  C8  DEN d   1      -4.874   1.676   4.053  0.00  0.00    -0.094 A 
ATOM      9  C9  DEN d   1      -4.399   1.834   5.344  0.00  0.00    -0.072 A 
ENDROOT
TORSDOF 0
ENDMDL
