MODEL 1
REMARK minimizedAffinity 21.4273415
REMARK minimizedRMSD -1
REMARK  0 active torsions:
REMARK  status: ('A' for Active; 'I' for Inactive)
ROOT
ATOM      1  C1  DEN d   1      -2.602  -4.799  -2.578  0.00  0.00     0.130 A 
ATOM      2  C2  DEN d   1      -1.195  -4.461  -2.383  0.00  0.00    -0.031 A 
ATOM      3  C3  DEN d   1      -0.793  -3.540  -3.465  0.00  0.00     0.027 A 
ATOM      4  C4  DEN d   1      -2.206  -2.606  -5.410  0.00  0.00     0.027 A 
ATOM      5  C5  DEN d   1      -3.451  -2.617  -6.000  0.00  0.00    -0.003 A 
ATOM      6  C6  DEN d   1      -4.482  -3.377  -5.514  0.00  0.00     0.001 A 
ATOM      7  C7  DEN d   1      -4.300  -4.122  -4.379  0.00  0.00     0.017 A 
ATOM      8  C8  DEN d   1      -3.045  -4.122  -3.783  0.00  0.00    -0.094 A 
ATOM      9  C9  DEN d   1      -2.019  -3.338  -4.283  0.00  0.00    -0.072 A 
ENDROOT
TORSDOF 0
ENDMDL
