MODEL 1
REMARK minimizedAffinity 15.5018711
REMARK minimizedRMSD -1
REMARK  0 active torsions:
REMARK  status: ('A' for Active; 'I' for Inactive)
ROOT
ATOM      1  C1  DEN d   1       2.913  -4.243  -0.090  0.00  0.00     0.130 A 
ATOM      2  C2  DEN d   1       3.735  -3.293   0.654  0.00  0.00    -0.031 A 
ATOM      3  C3  DEN d   1       3.443  -1.939   0.143  0.00  0.00     0.027 A 
ATOM      4  C4  DEN d   1       1.802  -1.224  -1.714  0.00  0.00     0.027 A 
ATOM      5  C5  DEN d   1       0.891  -1.677  -2.642  0.00  0.00    -0.003 A 
ATOM      6  C6  DEN d   1       0.617  -3.009  -2.807  0.00  0.00     0.001 A 
ATOM      7  C7  DEN d   1       1.228  -3.932  -2.000  0.00  0.00     0.017 A 
ATOM      8  C8  DEN d   1       2.154  -3.484  -1.067  0.00  0.00    -0.094 A 
ATOM      9  C9  DEN d   1       2.408  -2.132  -0.908  0.00  0.00    -0.072 A 
ENDROOT
TORSDOF 0
ENDMDL
