MODEL 1
REMARK minimizedAffinity 22.0247974
REMARK minimizedRMSD -1
REMARK  0 active torsions:
REMARK  status: ('A' for Active; 'I' for Inactive)
ROOT
ATOM      1  C1  DEN d   1      -4.316  -2.121   3.262  0.00  0.00     0.130 A 
ATOM      2  C2  DEN d   1      -4.311  -2.949   4.465  0.00  0.00    -0.031 A 
ATOM      3  C3  DEN d   1      -3.948  -2.090   5.609  0.00  0.00     0.027 A 
ATOM      4  C4  DEN d   1      -3.400   0.431   5.636  0.00  0.00     0.027 A 
ATOM      5  C5  DEN d   1      -3.264   1.558   4.856  0.00  0.00    -0.003 A 
ATOM      6  C6  DEN d   1      -3.433   1.531   3.497  0.00  0.00     0.001 A 
ATOM      7  C7  DEN d   1      -3.794   0.362   2.882  0.00  0.00     0.017 A 
ATOM      8  C8  DEN d   1      -3.927  -0.781   3.660  0.00  0.00    -0.094 A 
ATOM      9  C9  DEN d   1      -3.763  -0.730   5.034  0.00  0.00    -0.072 A 
ENDROOT
TORSDOF 0
ENDMDL
