MODEL 1
REMARK minimizedAffinity 12.9465818
REMARK minimizedRMSD -1
REMARK  0 active torsions:
REMARK  status: ('A' for Active; 'I' for Inactive)
ROOT
ATOM      1  C1  DEN d   1      -1.111   2.660  -3.752  0.00  0.00     0.130 A 
ATOM      2  C2  DEN d   1      -1.129   1.768  -4.907  0.00  0.00    -0.031 A 
ATOM      3  C3  DEN d   1      -1.872   2.440  -5.992  0.00  0.00     0.027 A 
ATOM      4  C4  DEN d   1      -2.987   4.765  -5.996  0.00  0.00     0.027 A 
ATOM      5  C5  DEN d   1      -3.247   5.887  -5.239  0.00  0.00    -0.003 A 
ATOM      6  C6  DEN d   1      -2.846   5.996  -3.934  0.00  0.00     0.001 A 
ATOM      7  C7  DEN d   1      -2.123   4.985  -3.359  0.00  0.00     0.017 A 
ATOM      8  C8  DEN d   1      -1.864   3.848  -4.113  0.00  0.00    -0.094 A 
ATOM      9  C9  DEN d   1      -2.267   3.761  -5.434  0.00  0.00    -0.072 A 
ENDROOT
TORSDOF 0
ENDMDL
