MODEL 1
REMARK minimizedAffinity 11.6429033
REMARK minimizedRMSD -1
REMARK  0 active torsions:
REMARK  status: ('A' for Active; 'I' for Inactive)
ROOT
ATOM      1  C1  DEN d   1       4.545   0.474   0.469  0.00  0.00     0.130 A 
ATOM      2  C2  DEN d   1       4.228   1.728  -0.208  0.00  0.00    -0.031 A 
ATOM      3  C3  DEN d   1       3.092   1.481  -1.119  0.00  0.00     0.027 A 
ATOM      4  C4  DEN d   1       1.797  -0.710  -1.540  0.00  0.00     0.027 A 
ATOM      5  C5  DEN d   1       1.708  -2.043  -1.206  0.00  0.00    -0.003 A 
ATOM      6  C6  DEN d   1       2.573  -2.634  -0.323  0.00  0.00     0.001 A 
ATOM      7  C7  DEN d   1       3.537  -1.879   0.291  0.00  0.00     0.017 A 
ATOM      8  C8  DEN d   1       3.638  -0.536  -0.047  0.00  0.00    -0.094 A 
ATOM      9  C9  DEN d   1       2.746   0.046  -0.932  0.00  0.00    -0.072 A 
ENDROOT
TORSDOF 0
ENDMDL
