MODEL 1
REMARK minimizedAffinity 22.1634903
REMARK minimizedRMSD -1
REMARK  0 active torsions:
REMARK  status: ('A' for Active; 'I' for Inactive)
ROOT
ATOM      1  C1  DEN d   1      -2.762   0.132   3.709  0.00  0.00     0.130 A 
ATOM      2  C2  DEN d   1      -3.078   0.765   2.432  0.00  0.00    -0.031 A 
ATOM      3  C3  DEN d   1      -4.214   0.038   1.831  0.00  0.00     0.027 A 
ATOM      4  C4  DEN d   1      -5.512  -1.991   2.753  0.00  0.00     0.027 A 
ATOM      5  C5  DEN d   1      -5.602  -2.886   3.796  0.00  0.00    -0.003 A 
ATOM      6  C6  DEN d   1      -4.738  -2.859   4.858  0.00  0.00     0.001 A 
ATOM      7  C7  DEN d   1      -3.772  -1.890   4.923  0.00  0.00     0.017 A 
ATOM      8  C8  DEN d   1      -3.670  -0.988   3.872  0.00  0.00    -0.094 A 
ATOM      9  C9  DEN d   1      -4.562  -1.024   2.813  0.00  0.00    -0.072 A 
ENDROOT
TORSDOF 0
ENDMDL
