MODEL 1
REMARK minimizedAffinity 18.2999477
REMARK minimizedRMSD -1
REMARK  0 active torsions:
REMARK  status: ('A' for Active; 'I' for Inactive)
ROOT
ATOM      1  C1  DEN d   1      -3.314   0.098   4.167  0.00  0.00     0.130 A 
ATOM      2  C2  DEN d   1      -3.468   0.820   2.908  0.00  0.00    -0.031 A 
ATOM      3  C3  DEN d   1      -4.469   0.105   2.091  0.00  0.00     0.027 A 
ATOM      4  C4  DEN d   1      -5.792  -2.036   2.653  0.00  0.00     0.027 A 
ATOM      5  C5  DEN d   1      -5.993  -3.015   3.601  0.00  0.00    -0.003 A 
ATOM      6  C6  DEN d   1      -5.296  -3.044   4.780  0.00  0.00     0.001 A 
ATOM      7  C7  DEN d   1      -4.397  -2.049   5.062  0.00  0.00     0.017 A 
ATOM      8  C8  DEN d   1      -4.184  -1.063   4.108  0.00  0.00    -0.094 A 
ATOM      9  C9  DEN d   1      -4.907  -1.044   2.927  0.00  0.00    -0.072 A 
ENDROOT
TORSDOF 0
ENDMDL
