MODEL 1
REMARK minimizedAffinity 20.5277557
REMARK minimizedRMSD -1
REMARK  0 active torsions:
REMARK  status: ('A' for Active; 'I' for Inactive)
ROOT
ATOM      1  C1  DEN d   1      -2.314  -0.437   2.447  0.00  0.00     0.130 A 
ATOM      2  C2  DEN d   1      -3.359   0.466   2.920  0.00  0.00    -0.031 A 
ATOM      3  C3  DEN d   1      -2.767   1.810   3.073  0.00  0.00     0.027 A 
ATOM      4  C4  DEN d   1      -0.346   2.578   2.620  0.00  0.00     0.027 A 
ATOM      5  C5  DEN d   1       0.905   2.167   2.217  0.00  0.00    -0.003 A 
ATOM      6  C6  DEN d   1       1.177   0.863   1.898  0.00  0.00     0.001 A 
ATOM      7  C7  DEN d   1       0.173  -0.068   1.932  0.00  0.00     0.017 A 
ATOM      8  C8  DEN d   1      -1.089   0.337   2.345  0.00  0.00    -0.094 A 
ATOM      9  C9  DEN d   1      -1.347   1.662   2.652  0.00  0.00    -0.072 A 
ENDROOT
TORSDOF 0
ENDMDL
