MODEL 1
REMARK minimizedAffinity -1.9617269
REMARK minimizedRMSD -1
REMARK  0 active torsions:
REMARK  status: ('A' for Active; 'I' for Inactive)
ROOT
ATOM      1  O1  BZF d   1       0.459  -0.280  -2.087  0.00  0.00    -0.204 OA
ATOM      2  C2  BZF d   1       0.920   0.048  -0.826  0.00  0.00     0.174 A 
ATOM      3  C3  BZF d   1       1.077  -1.058  -0.071  0.00  0.00    -0.012 A 
ATOM      4  C3A BZF d   1       0.778  -2.154  -0.941  0.00  0.00    -0.107 A 
ATOM      5  C4  BZF d   1       0.771  -3.509  -0.777  0.00  0.00     0.055 A 
ATOM      6  C5  BZF d   1       0.360  -4.298  -1.804  0.00  0.00    -0.016 A 
ATOM      7  C6  BZF d   1      -0.055  -3.765  -3.007  0.00  0.00     0.022 A 
ATOM      8  C7  BZF d   1      -0.062  -2.426  -3.220  0.00  0.00     0.029 A 
ATOM      9  C7A BZF d   1       0.384  -1.628  -2.194  0.00  0.00     0.058 A 
ENDROOT
TORSDOF 0
ENDMDL
