MODEL 1
REMARK minimizedAffinity -2.69838595
REMARK minimizedRMSD -1
REMARK  0 active torsions:
REMARK  status: ('A' for Active; 'I' for Inactive)
ROOT
ATOM      1  O1  BZF d   1       0.549   2.878  -0.784  0.00  0.00    -0.204 OA
ATOM      2  C2  BZF d   1       0.014   3.926  -0.060  0.00  0.00     0.174 A 
ATOM      3  C3  BZF d   1      -0.653   3.469   1.020  0.00  0.00    -0.012 A 
ATOM      4  C3A BZF d   1      -0.448   2.053   1.017  0.00  0.00    -0.107 A 
ATOM      5  C4  BZF d   1      -0.849   1.045   1.847  0.00  0.00     0.055 A 
ATOM      6  C5  BZF d   1      -0.541  -0.239   1.523  0.00  0.00    -0.016 A 
ATOM      7  C6  BZF d   1       0.159  -0.550   0.376  0.00  0.00     0.022 A 
ATOM      8  C7  BZF d   1       0.582   0.416  -0.476  0.00  0.00     0.029 A 
ATOM      9  C7A BZF d   1       0.301   1.716  -0.134  0.00  0.00     0.058 A 
ENDROOT
TORSDOF 0
ENDMDL
