MODEL 1
REMARK minimizedAffinity -1.71350503
REMARK minimizedRMSD -1
REMARK  0 active torsions:
REMARK  status: ('A' for Active; 'I' for Inactive)
ROOT
ATOM      1  O1  BZF d   1      -1.137   0.769   1.926  0.00  0.00    -0.204 OA
ATOM      2  C2  BZF d   1      -0.687  -0.293   1.165  0.00  0.00     0.174 A 
ATOM      3  C3  BZF d   1      -0.223   0.135  -0.027  0.00  0.00    -0.012 A 
ATOM      4  C3A BZF d   1      -0.307   1.562   0.027  0.00  0.00    -0.107 A 
ATOM      5  C4  BZF d   1       0.021   2.556  -0.850  0.00  0.00     0.055 A 
ATOM      6  C5  BZF d   1      -0.255   3.845  -0.521  0.00  0.00    -0.016 A 
ATOM      7  C6  BZF d   1      -0.862   4.176   0.673  0.00  0.00     0.022 A 
ATOM      8  C7  BZF d   1      -1.201   3.226   1.577  0.00  0.00     0.029 A 
ATOM      9  C7A BZF d   1      -0.894   1.925   1.262  0.00  0.00     0.058 A 
ENDROOT
TORSDOF 0
ENDMDL
