MODEL 1
REMARK minimizedAffinity -2.12980556
REMARK minimizedRMSD -1
REMARK  0 active torsions:
REMARK  status: ('A' for Active; 'I' for Inactive)
ROOT
ATOM      1  O1  BZF d   1       0.768   1.864  -0.626  0.00  0.00    -0.204 OA
ATOM      2  C2  BZF d   1       1.784   1.094  -1.158  0.00  0.00     0.174 A 
ATOM      3  C3  BZF d   1       2.003   0.001  -0.399  0.00  0.00    -0.012 A 
ATOM      4  C3A BZF d   1       1.003   0.046   0.623  0.00  0.00    -0.107 A 
ATOM      5  C4  BZF d   1       0.694  -0.774   1.670  0.00  0.00     0.055 A 
ATOM      6  C5  BZF d   1      -0.296  -0.408   2.526  0.00  0.00    -0.016 A 
ATOM      7  C6  BZF d   1      -0.992   0.773   2.368  0.00  0.00     0.022 A 
ATOM      8  C7  BZF d   1      -0.724   1.616   1.342  0.00  0.00     0.029 A 
ATOM      9  C7A BZF d   1       0.253   1.232   0.456  0.00  0.00     0.058 A 
ENDROOT
TORSDOF 0
ENDMDL
