MODEL 1
REMARK minimizedAffinity -1.29268444
REMARK minimizedRMSD -1
REMARK  0 active torsions:
REMARK  status: ('A' for Active; 'I' for Inactive)
ROOT
ATOM      1  O1  BZF d   1      -0.253   0.211  -0.704  0.00  0.00    -0.204 OA
ATOM      2  C2  BZF d   1      -0.116   0.113   0.667  0.00  0.00     0.174 A 
ATOM      3  C3  BZF d   1       0.221  -1.142   1.026  0.00  0.00    -0.012 A 
ATOM      4  C3A BZF d   1       0.391  -1.853  -0.204  0.00  0.00    -0.107 A 
ATOM      5  C4  BZF d   1       0.742  -3.138  -0.505  0.00  0.00     0.055 A 
ATOM      6  C5  BZF d   1       0.745  -3.534  -1.805  0.00  0.00    -0.016 A 
ATOM      7  C6  BZF d   1       0.398  -2.674  -2.827  0.00  0.00     0.022 A 
ATOM      8  C7  BZF d   1       0.047  -1.389  -2.578  0.00  0.00     0.029 A 
ATOM      9  C7A BZF d   1       0.075  -0.976  -1.268  0.00  0.00     0.058 A 
ENDROOT
TORSDOF 0
ENDMDL
