MODEL 1
REMARK minimizedAffinity -3.78656435
REMARK minimizedRMSD -1
REMARK  0 active torsions:
REMARK  status: ('A' for Active; 'I' for Inactive)
ROOT
ATOM      1  O1  BZF d   1       1.415   0.642  -1.003  0.00  0.00    -0.204 OA
ATOM      2  C2  BZF d   1       1.492  -0.733  -1.105  0.00  0.00     0.174 A 
ATOM      3  C3  BZF d   1       0.775  -1.326  -0.129  0.00  0.00    -0.012 A 
ATOM      4  C3A BZF d   1       0.140  -0.255   0.576  0.00  0.00    -0.107 A 
ATOM      5  C4  BZF d   1      -0.714  -0.207   1.640  0.00  0.00     0.055 A 
ATOM      6  C5  BZF d   1      -1.091   1.003   2.130  0.00  0.00    -0.016 A 
ATOM      7  C6  BZF d   1      -0.630   2.184   1.585  0.00  0.00     0.022 A 
ATOM      8  C7  BZF d   1       0.215   2.187   0.525  0.00  0.00     0.029 A 
ATOM      9  C7A BZF d   1       0.572   0.966   0.007  0.00  0.00     0.058 A 
ENDROOT
TORSDOF 0
ENDMDL
