MODEL 1
REMARK minimizedAffinity -1.32490706
REMARK minimizedRMSD -1
REMARK  0 active torsions:
REMARK  status: ('A' for Active; 'I' for Inactive)
ROOT
ATOM      1  O1  BZF d   1      -0.511   0.041  -1.328  0.00  0.00    -0.204 OA
ATOM      2  C2  BZF d   1      -0.142   0.151  -0.001  0.00  0.00     0.174 A 
ATOM      3  C3  BZF d   1       0.541  -0.941   0.398  0.00  0.00    -0.012 A 
ATOM      4  C3A BZF d   1       0.683  -1.747  -0.776  0.00  0.00    -0.107 A 
ATOM      5  C4  BZF d   1       1.282  -2.948  -1.024  0.00  0.00     0.055 A 
ATOM      6  C5  BZF d   1       1.177  -3.496  -2.263  0.00  0.00    -0.016 A 
ATOM      7  C6  BZF d   1       0.477  -2.872  -3.275  0.00  0.00     0.022 A 
ATOM      8  C7  BZF d   1      -0.130  -1.677  -3.079  0.00  0.00     0.029 A 
ATOM      9  C7A BZF d   1       0.002  -1.105  -1.837  0.00  0.00     0.058 A 
ENDROOT
TORSDOF 0
ENDMDL
