MODEL 1
REMARK minimizedAffinity -2.44448328
REMARK minimizedRMSD -1
REMARK  0 active torsions:
REMARK  status: ('A' for Active; 'I' for Inactive)
ROOT
ATOM      1  O1  BZF d   1       1.045   0.290  -1.091  0.00  0.00    -0.204 OA
ATOM      2  C2  BZF d   1       1.126  -1.086  -1.175  0.00  0.00     0.174 A 
ATOM      3  C3  BZF d   1       0.416  -1.669  -0.187  0.00  0.00    -0.012 A 
ATOM      4  C3A BZF d   1      -0.219  -0.591   0.506  0.00  0.00    -0.107 A 
ATOM      5  C4  BZF d   1      -1.069  -0.532   1.573  0.00  0.00     0.055 A 
ATOM      6  C5  BZF d   1      -1.449   0.683   2.049  0.00  0.00    -0.016 A 
ATOM      7  C6  BZF d   1      -0.994   1.858   1.486  0.00  0.00     0.022 A 
ATOM      8  C7  BZF d   1      -0.154   1.850   0.423  0.00  0.00     0.029 A 
ATOM      9  C7A BZF d   1       0.205   0.624  -0.081  0.00  0.00     0.058 A 
ENDROOT
TORSDOF 0
ENDMDL
