MODEL 1
REMARK minimizedAffinity -0.725596547
REMARK minimizedRMSD -1
REMARK  0 active torsions:
REMARK  status: ('A' for Active; 'I' for Inactive)
ROOT
ATOM      1  O1  BZF d   1       1.592  -2.087   0.010  0.00  0.00    -0.204 OA
ATOM      2  C2  BZF d   1       1.604  -0.710  -0.103  0.00  0.00     0.174 A 
ATOM      3  C3  BZF d   1       1.012  -0.319  -1.249  0.00  0.00    -0.012 A 
ATOM      4  C3A BZF d   1       0.522  -1.522  -1.849  0.00  0.00    -0.107 A 
ATOM      5  C4  BZF d   1      -0.172  -1.785  -2.996  0.00  0.00     0.055 A 
ATOM      6  C5  BZF d   1      -0.432  -3.076  -3.329  0.00  0.00    -0.016 A 
ATOM      7  C6  BZF d   1      -0.010  -4.128  -2.543  0.00  0.00     0.022 A 
ATOM      8  C7  BZF d   1       0.676  -3.917  -1.394  0.00  0.00     0.029 A 
ATOM      9  C7A BZF d   1       0.912  -2.612  -1.037  0.00  0.00     0.058 A 
ENDROOT
TORSDOF 0
ENDMDL
