MODEL 1
REMARK minimizedAffinity -2.5169723
REMARK minimizedRMSD -1
REMARK  0 active torsions:
REMARK  status: ('A' for Active; 'I' for Inactive)
ROOT
ATOM      1  O1  BZF d   1       0.317   2.752  -1.101  0.00  0.00    -0.204 OA
ATOM      2  C2  BZF d   1      -0.064   3.947  -0.522  0.00  0.00     0.174 A 
ATOM      3  C3  BZF d   1      -0.643   3.734   0.678  0.00  0.00    -0.012 A 
ATOM      4  C3A BZF d   1      -0.538   2.325   0.901  0.00  0.00    -0.107 A 
ATOM      5  C4  BZF d   1      -0.916   1.506   1.927  0.00  0.00     0.055 A 
ATOM      6  C5  BZF d   1      -0.735   0.165   1.803  0.00  0.00    -0.016 A 
ATOM      7  C6  BZF d   1      -0.184  -0.391   0.667  0.00  0.00     0.022 A 
ATOM      8  C7  BZF d   1       0.212   0.381  -0.375  0.00  0.00     0.029 A 
ATOM      9  C7A BZF d   1       0.060   1.740  -0.239  0.00  0.00     0.058 A 
ENDROOT
TORSDOF 0
ENDMDL
