MODEL 1
REMARK minimizedAffinity -1.46536851
REMARK minimizedRMSD -1
REMARK  0 active torsions:
REMARK  status: ('A' for Active; 'I' for Inactive)
ROOT
ATOM      1  O1  BZF d   1       0.844  -1.605  -0.095  0.00  0.00    -0.204 OA
ATOM      2  C2  BZF d   1       1.228  -0.332  -0.472  0.00  0.00     0.174 A 
ATOM      3  C3  BZF d   1       1.368  -0.252  -1.811  0.00  0.00    -0.012 A 
ATOM      4  C3A BZF d   1       0.963  -1.530  -2.309  0.00  0.00    -0.107 A 
ATOM      5  C4  BZF d   1       0.867  -2.061  -3.564  0.00  0.00     0.055 A 
ATOM      6  C5  BZF d   1       0.507  -3.365  -3.703  0.00  0.00    -0.016 A 
ATOM      7  C6  BZF d   1       0.243  -4.166  -2.612  0.00  0.00     0.022 A 
ATOM      8  C7  BZF d   1       0.320  -3.682  -1.348  0.00  0.00     0.029 A 
ATOM      9  C7A BZF d   1       0.651  -2.357  -1.205  0.00  0.00     0.058 A 
ENDROOT
TORSDOF 0
ENDMDL
