MODEL 1
REMARK minimizedAffinity -3.54026818
REMARK minimizedRMSD -1
REMARK  0 active torsions:
REMARK  status: ('A' for Active; 'I' for Inactive)
ROOT
ATOM      1  O1  BZF d   1      -0.923  -0.389  -1.132  0.00  0.00    -0.204 OA
ATOM      2  C2  BZF d   1      -0.207   0.157  -0.085  0.00  0.00     0.174 A 
ATOM      3  C3  BZF d   1       0.885  -0.586   0.187  0.00  0.00    -0.012 A 
ATOM      4  C3A BZF d   1       0.898  -1.614  -0.808  0.00  0.00    -0.107 A 
ATOM      5  C4  BZF d   1       1.744  -2.652  -1.075  0.00  0.00     0.055 A 
ATOM      6  C5  BZF d   1       1.433  -3.517  -2.076  0.00  0.00    -0.016 A 
ATOM      7  C6  BZF d   1       0.283  -3.378  -2.825  0.00  0.00     0.022 A 
ATOM      8  C7  BZF d   1      -0.584  -2.361  -2.601  0.00  0.00     0.029 A 
ATOM      9  C7A BZF d   1      -0.256  -1.466  -1.612  0.00  0.00     0.058 A 
ENDROOT
TORSDOF 0
ENDMDL
