MODEL 1
REMARK minimizedAffinity -3.22344232
REMARK minimizedRMSD -1
REMARK  0 active torsions:
REMARK  status: ('A' for Active; 'I' for Inactive)
ROOT
ATOM      1  O1  BZF d   1       0.516   2.501  -1.071  0.00  0.00    -0.204 OA
ATOM      2  C2  BZF d   1       0.257   3.727  -0.490  0.00  0.00     0.174 A 
ATOM      3  C3  BZF d   1      -0.352   3.571   0.704  0.00  0.00    -0.012 A 
ATOM      4  C3A BZF d   1      -0.398   2.157   0.921  0.00  0.00    -0.107 A 
ATOM      5  C4  BZF d   1      -0.869   1.379   1.939  0.00  0.00     0.055 A 
ATOM      6  C5  BZF d   1      -0.829   0.027   1.809  0.00  0.00    -0.016 A 
ATOM      7  C6  BZF d   1      -0.329  -0.580   0.676  0.00  0.00     0.022 A 
ATOM      8  C7  BZF d   1       0.155   0.151  -0.358  0.00  0.00     0.029 A 
ATOM      9  C7A BZF d   1       0.146   1.517  -0.217  0.00  0.00     0.058 A 
ENDROOT
TORSDOF 0
ENDMDL
