MODEL 1
REMARK minimizedAffinity 1.49790323
REMARK minimizedRMSD -1
REMARK  0 active torsions:
REMARK  status: ('A' for Active; 'I' for Inactive)
ROOT
ATOM      1  O1  BZF d   1       0.187   2.678  -0.454  0.00  0.00    -0.204 OA
ATOM      2  C2  BZF d   1       0.873   2.092  -1.500  0.00  0.00     0.174 A 
ATOM      3  C3  BZF d   1       1.017   0.767  -1.295  0.00  0.00    -0.012 A 
ATOM      4  C3A BZF d   1       0.301   0.493  -0.087  0.00  0.00    -0.107 A 
ATOM      5  C4  BZF d   1       0.064  -0.648   0.625  0.00  0.00     0.055 A 
ATOM      6  C5  BZF d   1      -0.610  -0.563   1.802  0.00  0.00    -0.016 A 
ATOM      7  C6  BZF d   1      -1.058   0.644   2.297  0.00  0.00     0.022 A 
ATOM      8  C7  BZF d   1      -0.851   1.802   1.623  0.00  0.00     0.029 A 
ATOM      9  C7A BZF d   1      -0.198   1.715   0.418  0.00  0.00     0.058 A 
ENDROOT
TORSDOF 0
ENDMDL
