MODEL 1
REMARK minimizedAffinity -4.37839079
REMARK minimizedRMSD -1
REMARK  0 active torsions:
REMARK  status: ('A' for Active; 'I' for Inactive)
ROOT
ATOM      1  O1  BZF d   1       0.669   0.413  -0.831  0.00  0.00    -0.204 OA
ATOM      2  C2  BZF d   1       0.709  -0.881  -0.349  0.00  0.00     0.174 A 
ATOM      3  C3  BZF d   1      -0.035  -0.999   0.770  0.00  0.00    -0.012 A 
ATOM      4  C3A BZF d   1      -0.649   0.281   0.949  0.00  0.00    -0.107 A 
ATOM      5  C4  BZF d   1      -1.515   0.785   1.877  0.00  0.00     0.055 A 
ATOM      6  C5  BZF d   1      -1.865   2.097   1.810  0.00  0.00    -0.016 A 
ATOM      7  C6  BZF d   1      -1.365   2.933   0.833  0.00  0.00     0.022 A 
ATOM      8  C7  BZF d   1      -0.507   2.477  -0.112  0.00  0.00     0.029 A 
ATOM      9  C7A BZF d   1      -0.177   1.144  -0.067  0.00  0.00     0.058 A 
ENDROOT
TORSDOF 0
ENDMDL
