MODEL 1
REMARK minimizedAffinity 8.4920578
REMARK minimizedRMSD -1
REMARK  1 active torsions:
REMARK  status: ('A' for Active; 'I' for Inactive)
REMARK    1  A    between atoms: C1_2  and  C2_3 
ROOT
ATOM      1  C2  UNL d   1      -2.564  -0.829   0.086  0.00  0.00    -0.073 A 
ATOM      2  C3  UNL d   1      -1.543   0.048   0.470  0.00  0.00    -0.002 A 
ATOM      3  C4  UNL d   1      -1.296   0.294   1.821  0.00  0.00     0.004 A 
ATOM      4  C5  UNL d   1      -2.061  -0.338   2.801  0.00  0.00    -0.004 A 
ATOM      5  C6  UNL d   1      -3.078  -1.227   2.437  0.00  0.00    -0.075 A 
ATOM      6  C7  UNL d   1      -3.912  -1.913   3.479  0.00  0.00     0.076 C 
ATOM      7  C8  UNL d   1      -3.322  -1.467   1.078  0.00  0.00     0.001 A 
ENDROOT
BRANCH   1   8
ATOM      8  C1  UNL d   1      -2.830  -1.103  -1.372  0.00  0.00     0.053 C 
ATOM      9  C   UNL d   1      -4.314  -1.272  -1.659  0.00  0.00     0.018 C 
ENDBRANCH   1   8
TORSDOF 1
ENDMDL
