MODEL 1
REMARK minimizedAffinity 2.95295596
REMARK minimizedRMSD -1
REMARK  1 active torsions:
REMARK  status: ('A' for Active; 'I' for Inactive)
REMARK    1  A    between atoms: C1_2  and  C2_3 
ROOT
ATOM      1  C2  UNL d   1       0.838  -0.107   0.848  0.00  0.00    -0.073 A 
ATOM      2  C3  UNL d   1       0.471  -0.804  -0.309  0.00  0.00    -0.002 A 
ATOM      3  C4  UNL d   1      -0.875  -1.031  -0.599  0.00  0.00     0.004 A 
ATOM      4  C5  UNL d   1      -1.867  -0.559   0.260  0.00  0.00    -0.004 A 
ATOM      5  C6  UNL d   1      -1.521   0.150   1.415  0.00  0.00    -0.075 A 
ATOM      6  C7  UNL d   1      -2.577   0.662   2.351  0.00  0.00     0.076 C 
ATOM      7  C8  UNL d   1      -0.167   0.371   1.701  0.00  0.00     0.001 A 
ENDROOT
BRANCH   1   8
ATOM      8  C1  UNL d   1       2.290   0.146   1.162  0.00  0.00     0.053 C 
ATOM      9  C   UNL d   1       2.831   1.355   0.416  0.00  0.00     0.018 C 
ENDBRANCH   1   8
TORSDOF 1
ENDMDL
