MODEL 1
REMARK minimizedAffinity 4.11116695
REMARK minimizedRMSD -1
REMARK  1 active torsions:
REMARK  status: ('A' for Active; 'I' for Inactive)
REMARK    1  A    between atoms: C1_2  and  C2_3 
ROOT
ATOM      1  C2  UNL d   1       0.341   1.119   0.582  0.00  0.00    -0.073 A 
ATOM      2  C3  UNL d   1      -0.033   0.829  -0.735  0.00  0.00    -0.002 A 
ATOM      3  C4  UNL d   1      -1.183   0.082  -0.993  0.00  0.00     0.004 A 
ATOM      4  C5  UNL d   1      -1.973  -0.376   0.060  0.00  0.00    -0.004 A 
ATOM      5  C6  UNL d   1      -1.623  -0.087   1.383  0.00  0.00    -0.075 A 
ATOM      6  C7  UNL d   1      -2.461  -0.575   2.528  0.00  0.00     0.076 C 
ATOM      7  C8  UNL d   1      -0.465   0.662   1.634  0.00  0.00     0.001 A 
ENDROOT
BRANCH   1   8
ATOM      8  C1  UNL d   1       1.578   1.931   0.865  0.00  0.00     0.053 C 
ATOM      9  C   UNL d   1       2.721   1.576  -0.073  0.00  0.00     0.018 C 
ENDBRANCH   1   8
TORSDOF 1
ENDMDL
