MODEL 1
REMARK minimizedAffinity 1.35667896
REMARK minimizedRMSD -1
REMARK  0 active torsions:
REMARK  status: ('A' for Active; 'I' for Inactive)
ROOT
ATOM      1  C   UNL d   1       3.629  -4.167  -0.271  0.00  0.00     0.023 A 
ATOM      2  C1  UNL d   1       2.382  -4.642  -0.677  0.00  0.00     0.003 A 
ATOM      3  C2  UNL d   1       1.216  -4.025  -0.220  0.00  0.00     0.048 A 
ATOM      4  C3  UNL d   1       1.304  -2.932   0.642  0.00  0.00     0.023 A 
ATOM      5  C4  UNL d   1       2.549  -2.453   1.050  0.00  0.00     0.048 A 
ATOM      6  C5  UNL d   1       3.713  -3.073   0.592  0.00  0.00     0.003 A 
ATOM      7  I   UNL d   1      -0.431  -2.012   1.323  0.00  0.00    -0.146 I 
ENDROOT
TORSDOF 0
ENDMDL
