MODEL 1
REMARK minimizedAffinity 13.1816692
REMARK minimizedRMSD -1
REMARK  0 active torsions:
REMARK  status: ('A' for Active; 'I' for Inactive)
ROOT
ATOM      1  C   UNL d   1      -1.903  -0.407   3.720  0.00  0.00     0.023 A 
ATOM      2  C1  UNL d   1      -2.898   0.396   3.163  0.00  0.00     0.003 A 
ATOM      3  C2  UNL d   1      -3.382   0.123   1.883  0.00  0.00     0.048 A 
ATOM      4  C3  UNL d   1      -2.867  -0.956   1.164  0.00  0.00     0.023 A 
ATOM      5  C4  UNL d   1      -1.872  -1.763   1.718  0.00  0.00     0.048 A 
ATOM      6  C5  UNL d   1      -1.390  -1.485   2.998  0.00  0.00     0.003 A 
ATOM      7  I   UNL d   1      -3.587  -1.365  -0.742  0.00  0.00    -0.146 I 
ENDROOT
TORSDOF 0
ENDMDL
