MODEL 1
REMARK minimizedAffinity 14.7343998
REMARK minimizedRMSD -1
REMARK  0 active torsions:
REMARK  status: ('A' for Active; 'I' for Inactive)
ROOT
ATOM      1  C   UNL d   1       0.761  -2.641   0.447  0.00  0.00     0.023 A 
ATOM      2  C1  UNL d   1       1.673  -3.332  -0.351  0.00  0.00     0.003 A 
ATOM      3  C2  UNL d   1       2.969  -2.840  -0.520  0.00  0.00     0.048 A 
ATOM      4  C3  UNL d   1       3.347  -1.657   0.115  0.00  0.00     0.023 A 
ATOM      5  C4  UNL d   1       2.438  -0.963   0.915  0.00  0.00     0.048 A 
ATOM      6  C5  UNL d   1       1.143  -1.458   1.080  0.00  0.00     0.003 A 
ATOM      7  I   UNL d   1       5.275  -0.922  -0.134  0.00  0.00    -0.146 I 
ENDROOT
TORSDOF 0
ENDMDL
