MODEL 1
REMARK minimizedAffinity 7.82302237
REMARK minimizedRMSD -1
REMARK  0 active torsions:
REMARK  status: ('A' for Active; 'I' for Inactive)
ROOT
ATOM      1  C   UNL d   1       6.000  -3.940   6.000  0.00  0.00     0.023 A 
ATOM      2  C1  UNL d   1       5.904  -2.549   5.972  0.00  0.00     0.003 A 
ATOM      3  C2  UNL d   1       5.038  -1.925   5.071  0.00  0.00     0.048 A 
ATOM      4  C3  UNL d   1       4.270  -2.699   4.201  0.00  0.00     0.023 A 
ATOM      5  C4  UNL d   1       4.362  -4.091   4.226  0.00  0.00     0.048 A 
ATOM      6  C5  UNL d   1       5.230  -4.710   5.128  0.00  0.00     0.003 A 
ATOM      7  I   UNL d   1       2.981  -1.773   2.860  0.00  0.00    -0.146 I 
ENDROOT
TORSDOF 0
ENDMDL
