MODEL 1
REMARK minimizedAffinity 11.1020498
REMARK minimizedRMSD -1
REMARK  0 active torsions:
REMARK  status: ('A' for Active; 'I' for Inactive)
ROOT
ATOM      1  C   UNL d   1       0.286  -0.618   2.735  0.00  0.00     0.023 A 
ATOM      2  C1  UNL d   1       1.674  -0.703   2.853  0.00  0.00     0.003 A 
ATOM      3  C2  UNL d   1       2.401  -1.521   1.986  0.00  0.00     0.048 A 
ATOM      4  C3  UNL d   1       1.735  -2.251   1.002  0.00  0.00     0.023 A 
ATOM      5  C4  UNL d   1       0.347  -2.169   0.880  0.00  0.00     0.048 A 
ATOM      6  C5  UNL d   1      -0.376  -1.350   1.749  0.00  0.00     0.003 A 
ATOM      7  I   UNL d   1       2.815  -3.470  -0.289  0.00  0.00    -0.146 I 
ENDROOT
TORSDOF 0
ENDMDL
