MODEL 1
REMARK minimizedAffinity 10.1154823
REMARK minimizedRMSD -1
REMARK  0 active torsions:
REMARK  status: ('A' for Active; 'I' for Inactive)
ROOT
ATOM      1  C   UNL d   1      -1.193  -0.739   2.800  0.00  0.00     0.023 A 
ATOM      2  C1  UNL d   1       0.138  -0.333   2.885  0.00  0.00     0.003 A 
ATOM      3  C2  UNL d   1       1.106  -0.936   2.079  0.00  0.00     0.048 A 
ATOM      4  C3  UNL d   1       0.735  -1.945   1.190  0.00  0.00     0.023 A 
ATOM      5  C4  UNL d   1      -0.596  -2.354   1.102  0.00  0.00     0.048 A 
ATOM      6  C5  UNL d   1      -1.560  -1.748   1.910  0.00  0.00     0.003 A 
ATOM      7  I   UNL d   1       2.174  -2.844  -0.010  0.00  0.00    -0.146 I 
ENDROOT
TORSDOF 0
ENDMDL
