MODEL 1
REMARK minimizedAffinity -4.73404646
REMARK minimizedRMSD -1
REMARK  3 active torsions:
REMARK  status: ('A' for Active; 'I' for Inactive)
REMARK    1  A    between atoms: C3'_2  and  C2'_3 
REMARK    2  A    between atoms: C2'_3  and  C1'_4 
REMARK    3  A    between atoms: C1'_4  and  C1_5 
ROOT
ATOM      1  C1  N4B d   1      -0.217  -0.139  -0.256  0.00  0.00    -0.075 A 
ATOM      2  C2  N4B d   1       0.479   0.384   0.856  0.00  0.00     0.002 A 
ATOM      3  C3  N4B d   1       1.698  -0.140   1.211  0.00  0.00     0.002 A 
ATOM      4  C4  N4B d   1       2.230  -1.194   0.483  0.00  0.00    -0.004 A 
ATOM      5  C5  N4B d   1       1.563  -1.675  -0.605  0.00  0.00     0.002 A 
ATOM      6  C6  N4B d   1       0.339  -1.156  -0.976  0.00  0.00     0.002 A 
ENDROOT
BRANCH   1   7
ATOM      7  C1' N4B d   1      -1.592   0.343  -0.631  0.00  0.00     0.057 C 
BRANCH   7   8
ATOM      8  C2' N4B d   1      -2.347   0.738   0.635  0.00  0.00     0.009 C 
BRANCH   8   9
ATOM      9  C3' N4B d   1      -3.851   0.735   0.424  0.00  0.00     0.004 C 
ATOM     10  C4' N4B d   1      -4.590   0.031   1.523  0.00  0.00     0.003 C 
ENDBRANCH   8   9
ENDBRANCH   7   8
ENDBRANCH   1   7
TORSDOF 3
ENDMDL
