MODEL 1
REMARK minimizedAffinity -3.78730297
REMARK minimizedRMSD -1
REMARK  3 active torsions:
REMARK  status: ('A' for Active; 'I' for Inactive)
REMARK    1  A    between atoms: C3'_2  and  C2'_3 
REMARK    2  A    between atoms: C2'_3  and  C1'_4 
REMARK    3  A    between atoms: C1'_4  and  C1_5 
ROOT
ATOM      1  C1  N4B d   1      -0.202  -0.287   0.232  0.00  0.00    -0.075 A 
ATOM      2  C2  N4B d   1       0.200  -1.420  -0.509  0.00  0.00     0.002 A 
ATOM      3  C3  N4B d   1       1.464  -1.931  -0.351  0.00  0.00     0.002 A 
ATOM      4  C4  N4B d   1       2.348  -1.317   0.524  0.00  0.00    -0.004 A 
ATOM      5  C5  N4B d   1       1.944  -0.239   1.255  0.00  0.00     0.002 A 
ATOM      6  C6  N4B d   1       0.674   0.283   1.110  0.00  0.00     0.002 A 
ENDROOT
BRANCH   1   7
ATOM      7  C1' N4B d   1      -1.545   0.359   0.030  0.00  0.00     0.057 C 
BRANCH   7   8
ATOM      8  C2' N4B d   1      -2.115   0.764   1.387  0.00  0.00     0.009 C 
BRANCH   8   9
ATOM      9  C3' N4B d   1      -3.634   0.799   1.377  0.00  0.00     0.004 C 
ATOM     10  C4' N4B d   1      -4.215   0.419   0.048  0.00  0.00     0.003 C 
ENDBRANCH   8   9
ENDBRANCH   7   8
ENDBRANCH   1   7
TORSDOF 3
ENDMDL
