MODEL 1
REMARK minimizedAffinity -4.40749121
REMARK minimizedRMSD -1
REMARK  3 active torsions:
REMARK  status: ('A' for Active; 'I' for Inactive)
REMARK    1  A    between atoms: C3'_2  and  C2'_3 
REMARK    2  A    between atoms: C2'_3  and  C1'_4 
REMARK    3  A    between atoms: C1'_4  and  C1_5 
ROOT
ATOM      1  C1  N4B d   1       0.613  -0.258  -0.055  0.00  0.00    -0.075 A 
ATOM      2  C2  N4B d   1       1.518  -0.808  -0.989  0.00  0.00     0.002 A 
ATOM      3  C3  N4B d   1       2.580  -1.563  -0.554  0.00  0.00     0.002 A 
ATOM      4  C4  N4B d   1       2.766  -1.765   0.805  0.00  0.00    -0.004 A 
ATOM      5  C5  N4B d   1       1.872  -1.252   1.700  0.00  0.00     0.002 A 
ATOM      6  C6  N4B d   1       0.799  -0.494   1.276  0.00  0.00     0.002 A 
ENDROOT
BRANCH   1   7
ATOM      7  C1' N4B d   1      -0.513   0.646  -0.478  0.00  0.00     0.057 C 
BRANCH   7   8
ATOM      8  C2' N4B d   1      -1.813   0.154   0.151  0.00  0.00     0.009 C 
BRANCH   8   9
ATOM      9  C3' N4B d   1      -2.580   1.279   0.824  0.00  0.00     0.004 C 
ATOM     10  C4' N4B d   1      -4.056   1.209   0.569  0.00  0.00     0.003 C 
ENDBRANCH   8   9
ENDBRANCH   7   8
ENDBRANCH   1   7
TORSDOF 3
ENDMDL
