MODEL 1
REMARK minimizedAffinity -2.11205935
REMARK minimizedRMSD -1
REMARK  3 active torsions:
REMARK  status: ('A' for Active; 'I' for Inactive)
REMARK    1  A    between atoms: C3'_2  and  C2'_3 
REMARK    2  A    between atoms: C2'_3  and  C1'_4 
REMARK    3  A    between atoms: C1'_4  and  C1_5 
ROOT
ATOM      1  C1  N4B d   1      -0.121  -0.042   0.165  0.00  0.00    -0.075 A 
ATOM      2  C2  N4B d   1       0.909  -0.235   1.111  0.00  0.00     0.002 A 
ATOM      3  C3  N4B d   1       1.910  -1.142   0.861  0.00  0.00     0.002 A 
ATOM      4  C4  N4B d   1       1.892  -1.876  -0.315  0.00  0.00    -0.004 A 
ATOM      5  C5  N4B d   1       0.907  -1.665  -1.236  0.00  0.00     0.002 A 
ATOM      6  C6  N4B d   1      -0.103  -0.755  -0.999  0.00  0.00     0.002 A 
ENDROOT
BRANCH   1   7
ATOM      7  C1' N4B d   1      -1.284   0.875   0.433  0.00  0.00     0.057 C 
BRANCH   7   8
ATOM      8  C2' N4B d   1      -2.481   0.421  -0.397  0.00  0.00     0.009 C 
BRANCH   8   9
ATOM      9  C3' N4B d   1      -3.777   0.486   0.392  0.00  0.00     0.004 C 
ATOM     10  C4' N4B d   1      -3.652   1.297   1.648  0.00  0.00     0.003 C 
ENDBRANCH   8   9
ENDBRANCH   7   8
ENDBRANCH   1   7
TORSDOF 3
ENDMDL
