MODEL 1
REMARK minimizedAffinity -1.66835952
REMARK minimizedRMSD -1
REMARK  0 active torsions:
REMARK  status: ('A' for Active; 'I' for Inactive)
ROOT
ATOM      1  N1  IND d   1       4.604   3.747   3.037  0.00  0.00    -0.196 N 
ATOM      2  C2  IND d   1       3.912   3.289   1.951  0.00  0.00     0.054 A 
ATOM      3  C3  IND d   1       2.637   3.738   1.981  0.00  0.00    -0.031 A 
ATOM      4  C4  IND d   1       1.500   5.321   3.664  0.00  0.00     0.051 A 
ATOM      5  C5  IND d   1       1.717   5.973   4.845  0.00  0.00    -0.031 A 
ATOM      6  C6  IND d   1       2.933   5.917   5.496  0.00  0.00     0.015 A 
ATOM      7  C7  IND d   1       3.985   5.214   4.981  0.00  0.00    -0.016 A 
ATOM      8  C8  IND d   1       3.766   4.545   3.786  0.00  0.00    -0.047 A 
ATOM      9  C9  IND d   1       2.522   4.562   3.142  0.00  0.00    -0.096 A 
ATOM     10  HN1 IND d   1       5.424   3.568   3.222  0.00  0.00     0.298 HD
ENDROOT
TORSDOF 0
ENDMDL
