MODEL 1
REMARK minimizedAffinity -2.4400382
REMARK minimizedRMSD -1
REMARK  0 active torsions:
REMARK  status: ('A' for Active; 'I' for Inactive)
ROOT
ATOM      1  N1  IND d   1       3.546   3.547   3.376  0.00  0.00    -0.196 N 
ATOM      2  C2  IND d   1       3.008   3.000   2.244  0.00  0.00     0.054 A 
ATOM      3  C3  IND d   1       1.760   3.478   2.039  0.00  0.00    -0.031 A 
ATOM      4  C4  IND d   1       0.443   5.241   3.375  0.00  0.00     0.051 A 
ATOM      5  C5  IND d   1       0.505   6.000   4.510  0.00  0.00    -0.031 A 
ATOM      6  C6  IND d   1       1.607   5.982   5.340  0.00  0.00     0.015 A 
ATOM      7  C7  IND d   1       2.697   5.209   5.059  0.00  0.00    -0.016 A 
ATOM      8  C8  IND d   1       2.635   4.431   3.911  0.00  0.00    -0.047 A 
ATOM      9  C9  IND d   1       1.503   4.414   3.088  0.00  0.00    -0.096 A 
ATOM     10  HN1 IND d   1       4.322   3.368   3.699  0.00  0.00     0.298 HD
ENDROOT
TORSDOF 0
ENDMDL
