MODEL 1
REMARK minimizedAffinity 2.93687606
REMARK minimizedRMSD -1
REMARK  0 active torsions:
REMARK  status: ('A' for Active; 'I' for Inactive)
ROOT
ATOM      1  N1  IND d   1       2.705   6.000   5.783  0.00  0.00    -0.196 N 
ATOM      2  C2  IND d   1       3.790   5.248   5.427  0.00  0.00     0.054 A 
ATOM      3  C3  IND d   1       3.439   4.321   4.508  0.00  0.00    -0.031 A 
ATOM      4  C4  IND d   1       1.163   3.924   3.372  0.00  0.00     0.051 A 
ATOM      5  C5  IND d   1      -0.140   4.337   3.397  0.00  0.00    -0.031 A 
ATOM      6  C6  IND d   1      -0.569   5.347   4.233  0.00  0.00     0.015 A 
ATOM      7  C7  IND d   1       0.295   5.993   5.072  0.00  0.00    -0.016 A 
ATOM      8  C8  IND d   1       1.617   5.572   5.054  0.00  0.00    -0.047 A 
ATOM      9  C9  IND d   1       2.050   4.519   4.238  0.00  0.00    -0.096 A 
ATOM     10  HN1 IND d   1       2.703   6.633   6.364  0.00  0.00     0.298 HD
ENDROOT
TORSDOF 0
ENDMDL
