MODEL 1
REMARK minimizedAffinity 3.73631859
REMARK minimizedRMSD -1
REMARK  0 active torsions:
REMARK  status: ('A' for Active; 'I' for Inactive)
ROOT
ATOM      1  N1  IND d   1       3.750   3.545   3.915  0.00  0.00    -0.196 N 
ATOM      2  C2  IND d   1       3.130   2.987   2.831  0.00  0.00     0.054 A 
ATOM      3  C3  IND d   1       1.869   3.461   2.716  0.00  0.00    -0.031 A 
ATOM      4  C4  IND d   1       0.650   5.231   4.133  0.00  0.00     0.051 A 
ATOM      5  C5  IND d   1       0.795   6.000   5.254  0.00  0.00    -0.031 A 
ATOM      6  C6  IND d   1       1.956   5.991   5.999  0.00  0.00     0.015 A 
ATOM      7  C7  IND d   1       3.025   5.218   5.643  0.00  0.00    -0.016 A 
ATOM      8  C8  IND d   1       2.879   4.431   4.509  0.00  0.00    -0.047 A 
ATOM      9  C9  IND d   1       1.688   4.404   3.773  0.00  0.00    -0.096 A 
ATOM     10  HN1 IND d   1       4.549   3.370   4.180  0.00  0.00     0.298 HD
ENDROOT
TORSDOF 0
ENDMDL
