MODEL 1
REMARK minimizedAffinity 2.6106956
REMARK minimizedRMSD -1
REMARK  0 active torsions:
REMARK  status: ('A' for Active; 'I' for Inactive)
ROOT
ATOM      1  N1  IND d   1       3.709   3.375   3.674  0.00  0.00    -0.196 N 
ATOM      2  C2  IND d   1       3.103   2.835   2.574  0.00  0.00     0.054 A 
ATOM      3  C3  IND d   1       1.874   3.372   2.404  0.00  0.00    -0.031 A 
ATOM      4  C4  IND d   1       0.696   5.223   3.750  0.00  0.00     0.051 A 
ATOM      5  C5  IND d   1       0.838   5.999   4.867  0.00  0.00    -0.031 A 
ATOM      6  C6  IND d   1       1.967   5.941   5.657  0.00  0.00     0.015 A 
ATOM      7  C7  IND d   1       3.007   5.109   5.353  0.00  0.00    -0.016 A 
ATOM      8  C8  IND d   1       2.864   4.314   4.224  0.00  0.00    -0.047 A 
ATOM      9  C9  IND d   1       1.702   4.338   3.442  0.00  0.00    -0.096 A 
ATOM     10  HN1 IND d   1       4.487   3.163   3.973  0.00  0.00     0.298 HD
ENDROOT
TORSDOF 0
ENDMDL
