MODEL 1
REMARK minimizedAffinity 6.26363611
REMARK minimizedRMSD -1
REMARK  0 active torsions:
REMARK  status: ('A' for Active; 'I' for Inactive)
ROOT
ATOM      1  N1  IND d   1       4.358   5.222   3.888  0.00  0.00    -0.196 N 
ATOM      2  C2  IND d   1       5.043   5.607   5.007  0.00  0.00     0.054 A 
ATOM      3  C3  IND d   1       4.182   5.999   5.973  0.00  0.00    -0.031 A 
ATOM      4  C4  IND d   1       1.607   5.996   5.969  0.00  0.00     0.051 A 
ATOM      5  C5  IND d   1       0.532   5.765   5.158  0.00  0.00    -0.031 A 
ATOM      6  C6  IND d   1       0.680   5.330   3.857  0.00  0.00     0.015 A 
ATOM      7  C7  IND d   1       1.914   5.098   3.319  0.00  0.00    -0.016 A 
ATOM      8  C8  IND d   1       3.009   5.338   4.138  0.00  0.00    -0.047 A 
ATOM      9  C9  IND d   1       2.866   5.820   5.445  0.00  0.00    -0.096 A 
ATOM     10  HN1 IND d   1       4.712   4.953   3.151  0.00  0.00     0.298 HD
ENDROOT
TORSDOF 0
ENDMDL
