MODEL 1
REMARK minimizedAffinity 2.1785078
REMARK minimizedRMSD -1
REMARK  0 active torsions:
REMARK  status: ('A' for Active; 'I' for Inactive)
ROOT
ATOM      1  N1  IND d   1      -0.707   5.117   3.712  0.00  0.00    -0.196 N 
ATOM      2  C2  IND d   1      -0.626   5.999   4.754  0.00  0.00     0.054 A 
ATOM      3  C3  IND d   1       0.622   6.000   5.273  0.00  0.00    -0.031 A 
ATOM      4  C4  IND d   1       2.714   4.711   4.506  0.00  0.00     0.051 A 
ATOM      5  C5  IND d   1       3.126   3.756   3.620  0.00  0.00    -0.031 A 
ATOM      6  C6  IND d   1       2.265   3.196   2.698  0.00  0.00     0.015 A 
ATOM      7  C7  IND d   1       0.956   3.581   2.621  0.00  0.00    -0.016 A 
ATOM      8  C8  IND d   1       0.533   4.545   3.524  0.00  0.00    -0.047 A 
ATOM      9  C9  IND d   1       1.392   5.086   4.490  0.00  0.00    -0.096 A 
ATOM     10  HN1 IND d   1      -1.413   4.948   3.251  0.00  0.00     0.298 HD
ENDROOT
TORSDOF 0
ENDMDL
