MODEL 1
REMARK minimizedAffinity -0.445185959
REMARK minimizedRMSD -1
REMARK  0 active torsions:
REMARK  status: ('A' for Active; 'I' for Inactive)
ROOT
ATOM      1  N1  IND d   1       5.293   5.277  -4.763  0.00  0.00    -0.196 N 
ATOM      2  C2  IND d   1       4.161   5.964  -5.103  0.00  0.00     0.054 A 
ATOM      3  C3  IND d   1       3.252   5.128  -5.654  0.00  0.00    -0.031 A 
ATOM      4  C4  IND d   1       3.370   2.580  -5.999  0.00  0.00     0.051 A 
ATOM      5  C5  IND d   1       4.218   1.515  -5.879  0.00  0.00    -0.031 A 
ATOM      6  C6  IND d   1       5.492   1.652  -5.367  0.00  0.00     0.015 A 
ATOM      7  C7  IND d   1       5.964   2.862  -4.945  0.00  0.00    -0.016 A 
ATOM      8  C8  IND d   1       5.109   3.947  -5.072  0.00  0.00    -0.047 A 
ATOM      9  C9  IND d   1       3.830   3.822  -5.630  0.00  0.00    -0.096 A 
ATOM     10  HN1 IND d   1       6.001   5.618  -4.415  0.00  0.00     0.298 HD
ENDROOT
TORSDOF 0
ENDMDL
