MODEL 1
REMARK minimizedAffinity 3.43732262
REMARK minimizedRMSD -1
REMARK  0 active torsions:
REMARK  status: ('A' for Active; 'I' for Inactive)
ROOT
ATOM      1  N1  IND d   1       3.709   3.608   3.769  0.00  0.00    -0.196 N 
ATOM      2  C2  IND d   1       3.130   3.033   2.672  0.00  0.00     0.054 A 
ATOM      3  C3  IND d   1       1.858   3.469   2.529  0.00  0.00    -0.031 A 
ATOM      4  C4  IND d   1       0.557   5.202   3.918  0.00  0.00     0.051 A 
ATOM      5  C5  IND d   1       0.654   5.974   5.042  0.00  0.00    -0.031 A 
ATOM      6  C6  IND d   1       1.798   6.000   5.813  0.00  0.00     0.015 A 
ATOM      7  C7  IND d   1       2.897   5.259   5.481  0.00  0.00    -0.016 A 
ATOM      8  C8  IND d   1       2.800   4.469   4.344  0.00  0.00    -0.047 A 
ATOM      9  C9  IND d   1       1.626   4.406   3.582  0.00  0.00    -0.096 A 
ATOM     10  HN1 IND d   1       4.507   3.457   4.052  0.00  0.00     0.298 HD
ENDROOT
TORSDOF 0
ENDMDL
