MODEL 1
REMARK minimizedAffinity 7.02266312
REMARK minimizedRMSD -1
REMARK  0 active torsions:
REMARK  status: ('A' for Active; 'I' for Inactive)
ROOT
ATOM      1  N1  IND d   1       3.893   3.845   3.741  0.00  0.00    -0.196 N 
ATOM      2  C2  IND d   1       3.317   3.345   2.607  0.00  0.00     0.054 A 
ATOM      3  C3  IND d   1       2.031   3.751   2.514  0.00  0.00    -0.031 A 
ATOM      4  C4  IND d   1       0.696   5.321   4.057  0.00  0.00     0.051 A 
ATOM      5  C5  IND d   1       0.784   5.999   5.240  0.00  0.00    -0.031 A 
ATOM      6  C6  IND d   1       1.937   5.997   5.998  0.00  0.00     0.015 A 
ATOM      7  C7  IND d   1       3.054   5.322   5.594  0.00  0.00    -0.016 A 
ATOM      8  C8  IND d   1       2.966   4.626   4.396  0.00  0.00    -0.047 A 
ATOM      9  C9  IND d   1       1.784   4.590   3.644  0.00  0.00    -0.096 A 
ATOM     10  HN1 IND d   1       4.699   3.697   4.002  0.00  0.00     0.298 HD
ENDROOT
TORSDOF 0
ENDMDL
