MODEL 1
REMARK minimizedAffinity -0.184960425
REMARK minimizedRMSD -1
REMARK  0 active torsions:
REMARK  status: ('A' for Active; 'I' for Inactive)
ROOT
ATOM      1  C1  BNZ d   1       0.490  -0.778   2.164  0.00  0.00     0.000 A 
ATOM      2  C2  BNZ d   1       1.558  -0.672   1.314  0.00  0.00     0.000 A 
ATOM      3  C3  BNZ d   1       2.393  -1.733   1.104  0.00  0.00     0.000 A 
ATOM      4  C4  BNZ d   1       2.184  -2.885   1.774  0.00  0.00     0.000 A 
ATOM      5  C5  BNZ d   1       1.117  -3.004   2.642  0.00  0.00     0.000 A 
ATOM      6  C6  BNZ d   1       0.255  -1.947   2.821  0.00  0.00     0.000 A 
ENDROOT
TORSDOF 0
ENDMDL
