MODEL 1
REMARK minimizedAffinity -0.123782814
REMARK minimizedRMSD -1
REMARK  0 active torsions:
REMARK  status: ('A' for Active; 'I' for Inactive)
ROOT
ATOM      1  C1  BNZ d   1       0.535  -0.971   2.044  0.00  0.00     0.000 A 
ATOM      2  C2  BNZ d   1       1.005  -0.789   0.771  0.00  0.00     0.000 A 
ATOM      3  C3  BNZ d   1       2.140  -1.422   0.346  0.00  0.00     0.000 A 
ATOM      4  C4  BNZ d   1       2.824  -2.204   1.206  0.00  0.00     0.000 A 
ATOM      5  C5  BNZ d   1       2.368  -2.390   2.496  0.00  0.00     0.000 A 
ATOM      6  C6  BNZ d   1       1.204  -1.782   2.908  0.00  0.00     0.000 A 
ENDROOT
TORSDOF 0
ENDMDL
