MODEL 1
REMARK minimizedAffinity 1.26939785
REMARK minimizedRMSD -1
REMARK  0 active torsions:
REMARK  status: ('A' for Active; 'I' for Inactive)
ROOT
ATOM      1  C1  BNZ d   1       0.990  -0.416   4.145  0.00  0.00     0.000 A 
ATOM      2  C2  BNZ d   1       1.653  -1.294   3.330  0.00  0.00     0.000 A 
ATOM      3  C3  BNZ d   1       1.151  -1.625   2.103  0.00  0.00     0.000 A 
ATOM      4  C4  BNZ d   1      -0.031  -1.109   1.709  0.00  0.00     0.000 A 
ATOM      5  C5  BNZ d   1      -0.717  -0.230   2.523  0.00  0.00     0.000 A 
ATOM      6  C6  BNZ d   1      -0.189   0.131   3.742  0.00  0.00     0.000 A 
ENDROOT
TORSDOF 0
ENDMDL
