MODEL 1
REMARK minimizedAffinity 3.20839477
REMARK minimizedRMSD -1
REMARK  0 active torsions:
REMARK  status: ('A' for Active; 'I' for Inactive)
ROOT
ATOM      1  C1  BNZ d   1       1.259  -0.443   3.694  0.00  0.00     0.000 A 
ATOM      2  C2  BNZ d   1       2.180  -1.106   2.927  0.00  0.00     0.000 A 
ATOM      3  C3  BNZ d   1       1.866  -1.529   1.665  0.00  0.00     0.000 A 
ATOM      4  C4  BNZ d   1       0.622  -1.324   1.188  0.00  0.00     0.000 A 
ATOM      5  C5  BNZ d   1      -0.321  -0.666   1.952  0.00  0.00     0.000 A 
ATOM      6  C6  BNZ d   1       0.010  -0.207   3.207  0.00  0.00     0.000 A 
ENDROOT
TORSDOF 0
ENDMDL
