MODEL 1
REMARK minimizedAffinity -2.68536568
REMARK minimizedRMSD -1
REMARK  0 active torsions:
REMARK  status: ('A' for Active; 'I' for Inactive)
ROOT
ATOM      1  C4' PXY d   1      -0.016  -1.958  -0.513  0.00  0.00     0.077 C 
ATOM      2  C1' PXY d   1       1.096   3.380   1.408  0.00  0.00     0.077 C 
ATOM      3  C1  PXY d   1       0.811   1.983   0.893  0.00  0.00    -0.082 A 
ATOM      4  C2  PXY d   1      -0.200   1.294   1.397  0.00  0.00     0.003 A 
ATOM      5  C3  PXY d   1      -0.453   0.017   0.965  0.00  0.00     0.003 A 
ATOM      6  C4  PXY d   1       0.304  -0.540  -0.030  0.00  0.00    -0.082 A 
ATOM      7  C5  PXY d   1       1.330   0.160  -0.557  0.00  0.00     0.003 A 
ATOM      8  C6  PXY d   1       1.596   1.439  -0.076  0.00  0.00     0.003 A 
ENDROOT
TORSDOF 0
ENDMDL
