MODEL 1
REMARK minimizedAffinity -0.968222797
REMARK minimizedRMSD -1
REMARK  0 active torsions:
REMARK  status: ('A' for Active; 'I' for Inactive)
ROOT
ATOM      1  C4' PXY d   1      -1.029  -1.853   0.822  0.00  0.00     0.077 C 
ATOM      2  C1' PXY d   1       1.508   3.299   1.475  0.00  0.00     0.077 C 
ATOM      3  C1  PXY d   1       0.843   1.949   1.291  0.00  0.00    -0.082 A 
ATOM      4  C2  PXY d   1       0.082   1.458   2.255  0.00  0.00     0.003 A 
ATOM      5  C3  PXY d   1      -0.501   0.224   2.118  0.00  0.00     0.003 A 
ATOM      6  C4  PXY d   1      -0.346  -0.490   0.961  0.00  0.00    -0.082 A 
ATOM      7  C5  PXY d   1       0.420   0.009  -0.032  0.00  0.00     0.003 A 
ATOM      8  C6  PXY d   1       1.037   1.245   0.143  0.00  0.00     0.003 A 
ENDROOT
TORSDOF 0
ENDMDL
