MODEL 1
REMARK minimizedAffinity -4.04062748
REMARK minimizedRMSD -1
REMARK  0 active torsions:
REMARK  status: ('A' for Active; 'I' for Inactive)
ROOT
ATOM      1  C4' PXY d   1      -1.494  -2.466  -1.824  0.00  0.00     0.077 C 
ATOM      2  C1' PXY d   1       1.232   1.874   0.851  0.00  0.00     0.077 C 
ATOM      3  C1  PXY d   1       0.528   0.730   0.148  0.00  0.00    -0.082 A 
ATOM      4  C2  PXY d   1      -0.653   0.933  -0.412  0.00  0.00     0.003 A 
ATOM      5  C3  PXY d   1      -1.318  -0.098  -1.024  0.00  0.00     0.003 A 
ATOM      6  C4  PXY d   1      -0.743  -1.338  -1.111  0.00  0.00    -0.082 A 
ATOM      7  C5  PXY d   1       0.467  -1.551  -0.552  0.00  0.00     0.003 A 
ATOM      8  C6  PXY d   1       1.107  -0.501   0.101  0.00  0.00     0.003 A 
ENDROOT
TORSDOF 0
ENDMDL
