MODEL 1
REMARK minimizedAffinity -4.86788893
REMARK minimizedRMSD -1
REMARK  0 active torsions:
REMARK  status: ('A' for Active; 'I' for Inactive)
ROOT
ATOM      1  C4' PXY d   1      -0.376  -1.258  -0.543  0.00  0.00     0.077 C 
ATOM      2  C1' PXY d   1       2.398   3.211   1.854  0.00  0.00     0.077 C 
ATOM      3  C1  PXY d   1       1.678   2.040   1.215  0.00  0.00    -0.082 A 
ATOM      4  C2  PXY d   1       0.434   1.764   1.570  0.00  0.00     0.003 A 
ATOM      5  C3  PXY d   1      -0.221   0.689   1.026  0.00  0.00     0.003 A 
ATOM      6  C4  PXY d   1       0.386  -0.079   0.069  0.00  0.00    -0.082 A 
ATOM      7  C5  PXY d   1       1.651   0.202  -0.307  0.00  0.00     0.003 A 
ATOM      8  C6  PXY d   1       2.313   1.273   0.288  0.00  0.00     0.003 A 
ENDROOT
TORSDOF 0
ENDMDL
