MODEL 1
REMARK minimizedAffinity -2.6352582
REMARK minimizedRMSD -1
REMARK  0 active torsions:
REMARK  status: ('A' for Active; 'I' for Inactive)
ROOT
ATOM      1  C4' PXY d   1      -1.010  -0.849  -1.765  0.00  0.00     0.077 C 
ATOM      2  C1' PXY d   1       1.715   2.560   2.026  0.00  0.00     0.077 C 
ATOM      3  C1  PXY d   1       1.000   1.656   1.040  0.00  0.00    -0.082 A 
ATOM      4  C2  PXY d   1       1.128   1.874  -0.258  0.00  0.00     0.003 A 
ATOM      5  C3  PXY d   1       0.463   1.086  -1.162  0.00  0.00     0.003 A 
ATOM      6  C4  PXY d   1      -0.299   0.032  -0.734  0.00  0.00    -0.082 A 
ATOM      7  C5  PXY d   1      -0.426  -0.203   0.589  0.00  0.00     0.003 A 
ATOM      8  C6  PXY d   1       0.224   0.634   1.492  0.00  0.00     0.003 A 
ENDROOT
TORSDOF 0
ENDMDL
