MODEL 1
REMARK minimizedAffinity -5.54797697
REMARK minimizedRMSD -1
REMARK  0 active torsions:
REMARK  status: ('A' for Active; 'I' for Inactive)
ROOT
ATOM      1  C4' PXY d   1      -0.557  -2.139  -0.945  0.00  0.00     0.077 C 
ATOM      2  C1' PXY d   1       1.247   2.747   1.564  0.00  0.00     0.077 C 
ATOM      3  C1  PXY d   1       0.766   1.463   0.916  0.00  0.00    -0.082 A 
ATOM      4  C2  PXY d   1       1.536   0.847   0.034  0.00  0.00     0.003 A 
ATOM      5  C3  PXY d   1       1.103  -0.298  -0.585  0.00  0.00     0.003 A 
ATOM      6  C4  PXY d   1      -0.108  -0.846  -0.259  0.00  0.00    -0.082 A 
ATOM      7  C5  PXY d   1      -0.896  -0.228   0.648  0.00  0.00     0.003 A 
ATOM      8  C6  PXY d   1      -0.455   0.955   1.234  0.00  0.00     0.003 A 
ENDROOT
TORSDOF 0
ENDMDL
