MODEL 1
REMARK minimizedAffinity -4.87233162
REMARK minimizedRMSD -1
REMARK  0 active torsions:
REMARK  status: ('A' for Active; 'I' for Inactive)
ROOT
ATOM      1  C4' PXY d   1       1.749   1.005   5.016  0.00  0.00     0.077 C 
ATOM      2  C1' PXY d   1       2.142   1.900  -0.681  0.00  0.00     0.077 C 
ATOM      3  C1  PXY d   1       2.030   1.675   0.814  0.00  0.00    -0.082 A 
ATOM      4  C2  PXY d   1       3.021   1.085   1.462  0.00  0.00     0.003 A 
ATOM      5  C3  PXY d   1       2.923   0.845   2.809  0.00  0.00     0.003 A 
ATOM      6  C4  PXY d   1       1.822   1.261   3.508  0.00  0.00    -0.082 A 
ATOM      7  C5  PXY d   1       0.812   1.874   2.856  0.00  0.00     0.003 A 
ATOM      8  C6  PXY d   1       0.913   2.071   1.482  0.00  0.00     0.003 A 
ENDROOT
TORSDOF 0
ENDMDL
