MODEL 1
REMARK minimizedAffinity -4.51807547
REMARK minimizedRMSD -1
REMARK  0 active torsions:
REMARK  status: ('A' for Active; 'I' for Inactive)
ROOT
ATOM      1  C4' PXY d   1       0.813   2.213   2.526  0.00  0.00     0.077 C 
ATOM      2  C1' PXY d   1      -0.330  -0.800  -2.274  0.00  0.00     0.077 C 
ATOM      3  C1  PXY d   1      -0.019  -0.007  -1.020  0.00  0.00    -0.082 A 
ATOM      4  C2  PXY d   1      -0.660  -0.282   0.104  0.00  0.00     0.003 A 
ATOM      5  C3  PXY d   1      -0.413   0.447   1.239  0.00  0.00     0.003 A 
ATOM      6  C4  PXY d   1       0.538   1.432   1.238  0.00  0.00    -0.082 A 
ATOM      7  C5  PXY d   1       1.204   1.711   0.097  0.00  0.00     0.003 A 
ATOM      8  C6  PXY d   1       0.910   0.988  -1.055  0.00  0.00     0.003 A 
ENDROOT
TORSDOF 0
ENDMDL
