MODEL 1
REMARK minimizedAffinity -0.264609963
REMARK minimizedRMSD -1
REMARK  0 active torsions:
REMARK  status: ('A' for Active; 'I' for Inactive)
ROOT
ATOM      1  C4' PXY d   1      -0.405  -2.193   0.507  0.00  0.00     0.077 C 
ATOM      2  C1' PXY d   1       1.329   3.284   1.145  0.00  0.00     0.077 C 
ATOM      3  C1  PXY d   1       0.879   1.848   0.966  0.00  0.00    -0.082 A 
ATOM      4  C2  PXY d   1      -0.139   1.388   1.674  0.00  0.00     0.003 A 
ATOM      5  C3  PXY d   1      -0.538   0.082   1.548  0.00  0.00     0.003 A 
ATOM      6  C4  PXY d   1       0.077  -0.747   0.648  0.00  0.00    -0.082 A 
ATOM      7  C5  PXY d   1       1.110  -0.282  -0.086  0.00  0.00     0.003 A 
ATOM      8  C6  PXY d   1       1.526   1.035   0.087  0.00  0.00     0.003 A 
ENDROOT
TORSDOF 0
ENDMDL
