MODEL 1
REMARK minimizedAffinity -1.64363372
REMARK minimizedRMSD -1
REMARK  0 active torsions:
REMARK  status: ('A' for Active; 'I' for Inactive)
ROOT
ATOM      1  C4' PXY d   1       3.661   1.923  -1.412  0.00  0.00     0.077 C 
ATOM      2  C1' PXY d   1      -0.892  -1.181   0.335  0.00  0.00     0.077 C 
ATOM      3  C1  PXY d   1       0.294  -0.357  -0.127  0.00  0.00    -0.082 A 
ATOM      4  C2  PXY d   1       1.412  -0.966  -0.489  0.00  0.00     0.003 A 
ATOM      5  C3  PXY d   1       2.504  -0.235  -0.879  0.00  0.00     0.003 A 
ATOM      6  C4  PXY d   1       2.435   1.131  -0.949  0.00  0.00    -0.082 A 
ATOM      7  C5  PXY d   1       1.295   1.759  -0.590  0.00  0.00     0.003 A 
ATOM      8  C6  PXY d   1       0.211   1.001  -0.158  0.00  0.00     0.003 A 
ENDROOT
TORSDOF 0
ENDMDL
