MODEL 1
REMARK minimizedAffinity -4.59739828
REMARK minimizedRMSD -1
REMARK  0 active torsions:
REMARK  status: ('A' for Active; 'I' for Inactive)
ROOT
ATOM      1  C4' PXY d   1      -1.123  -2.117  -0.955  0.00  0.00     0.077 C 
ATOM      2  C1' PXY d   1       1.635   2.563   1.022  0.00  0.00     0.077 C 
ATOM      3  C1  PXY d   1       0.922   1.334   0.495  0.00  0.00    -0.082 A 
ATOM      4  C2  PXY d   1      -0.389   1.224   0.643  0.00  0.00     0.003 A 
ATOM      5  C3  PXY d   1      -1.045   0.105   0.201  0.00  0.00     0.003 A 
ATOM      6  C4  PXY d   1      -0.362  -0.889  -0.447  0.00  0.00    -0.082 A 
ATOM      7  C5  PXY d   1       0.974  -0.779  -0.612  0.00  0.00     0.003 A 
ATOM      8  C6  PXY d   1       1.628   0.346  -0.119  0.00  0.00     0.003 A 
ENDROOT
TORSDOF 0
ENDMDL
