MODEL 1
REMARK minimizedAffinity -2.12527919
REMARK minimizedRMSD -1
REMARK  0 active torsions:
REMARK  status: ('A' for Active; 'I' for Inactive)
ROOT
ATOM      1  C4' PXY d   1      -1.472  -1.138  -2.228  0.00  0.00     0.077 C 
ATOM      2  C1' PXY d   1       1.078   1.867   2.001  0.00  0.00     0.077 C 
ATOM      3  C1  PXY d   1       0.415   1.068   0.896  0.00  0.00    -0.082 A 
ATOM      4  C2  PXY d   1       0.002   1.685  -0.199  0.00  0.00     0.003 A 
ATOM      5  C3  PXY d   1      -0.628   0.983  -1.195  0.00  0.00     0.003 A 
ATOM      6  C4  PXY d   1      -0.789  -0.373  -1.091  0.00  0.00    -0.082 A 
ATOM      7  C5  PXY d   1      -0.360  -1.011   0.018  0.00  0.00     0.003 A 
ATOM      8  C6  PXY d   1       0.240  -0.274   1.035  0.00  0.00     0.003 A 
ENDROOT
TORSDOF 0
ENDMDL
