MODEL 1
REMARK minimizedAffinity -2.57945347
REMARK minimizedRMSD -1
REMARK  0 active torsions:
REMARK  status: ('A' for Active; 'I' for Inactive)
ROOT
ATOM      1  C4' PXY d   1       0.236   1.762   1.886  0.00  0.00     0.077 C 
ATOM      2  C1' PXY d   1      -1.503  -1.863  -2.267  0.00  0.00     0.077 C 
ATOM      3  C1  PXY d   1      -1.051  -0.921  -1.169  0.00  0.00    -0.082 A 
ATOM      4  C2  PXY d   1      -0.911   0.369  -1.430  0.00  0.00     0.003 A 
ATOM      5  C3  PXY d   1      -0.473   1.230  -0.457  0.00  0.00     0.003 A 
ATOM      6  C4  PXY d   1      -0.227   0.775   0.811  0.00  0.00    -0.082 A 
ATOM      7  C5  PXY d   1      -0.378  -0.537   1.088  0.00  0.00     0.003 A 
ATOM      8  C6  PXY d   1      -0.784  -1.402   0.076  0.00  0.00     0.003 A 
ENDROOT
TORSDOF 0
ENDMDL
