MODEL 1
REMARK minimizedAffinity -5.29752016
REMARK minimizedRMSD -1
REMARK  0 active torsions:
REMARK  status: ('A' for Active; 'I' for Inactive)
ROOT
ATOM      1  C4' PXY d   1      -1.165  -2.102  -0.482  0.00  0.00     0.077 C 
ATOM      2  C1' PXY d   1       1.393   2.743   1.361  0.00  0.00     0.077 C 
ATOM      3  C1  PXY d   1       0.716   1.472   0.889  0.00  0.00    -0.082 A 
ATOM      4  C2  PXY d   1       1.291   0.733  -0.046  0.00  0.00     0.003 A 
ATOM      5  C3  PXY d   1       0.677  -0.403  -0.507  0.00  0.00     0.003 A 
ATOM      6  C4  PXY d   1      -0.513  -0.815   0.031  0.00  0.00    -0.082 A 
ATOM      7  C5  PXY d   1      -1.101  -0.072   0.993  0.00  0.00     0.003 A 
ATOM      8  C6  PXY d   1      -0.481   1.099   1.418  0.00  0.00     0.003 A 
ENDROOT
TORSDOF 0
ENDMDL
