MODEL 1
REMARK minimizedAffinity -4.51657248
REMARK minimizedRMSD -1
REMARK  0 active torsions:
REMARK  status: ('A' for Active; 'I' for Inactive)
ROOT
ATOM      1  C4' PXY d   1      -1.421  -1.623  -1.691  0.00  0.00     0.077 C 
ATOM      2  C1' PXY d   1       1.234   2.171   1.768  0.00  0.00     0.077 C 
ATOM      3  C1  PXY d   1       0.549   1.170   0.859  0.00  0.00    -0.082 A 
ATOM      4  C2  PXY d   1      -0.551   1.519   0.212  0.00  0.00     0.003 A 
ATOM      5  C3  PXY d   1      -1.201   0.616  -0.588  0.00  0.00     0.003 A 
ATOM      6  C4  PXY d   1      -0.690  -0.642  -0.771  0.00  0.00    -0.082 A 
ATOM      7  C5  PXY d   1       0.437  -1.002  -0.122  0.00  0.00     0.003 A 
ATOM      8  C6  PXY d   1       1.059  -0.084   0.718  0.00  0.00     0.003 A 
ENDROOT
TORSDOF 0
ENDMDL
