MODEL 1
REMARK minimizedAffinity -4.0012331
REMARK minimizedRMSD -1
REMARK  0 active torsions:
REMARK  status: ('A' for Active; 'I' for Inactive)
ROOT
ATOM      1  C4' PXY d   1      -0.059  -1.780   0.147  0.00  0.00     0.077 C 
ATOM      2  C1' PXY d   1       1.824   3.591   1.159  0.00  0.00     0.077 C 
ATOM      3  C1  PXY d   1       1.333   2.183   0.881  0.00  0.00    -0.082 A 
ATOM      4  C2  PXY d   1       0.421   1.641   1.671  0.00  0.00     0.003 A 
ATOM      5  C3  PXY d   1      -0.010   0.357   1.453  0.00  0.00     0.003 A 
ATOM      6  C4  PXY d   1       0.458  -0.359   0.384  0.00  0.00    -0.082 A 
ATOM      7  C5  PXY d   1       1.381   0.192  -0.432  0.00  0.00     0.003 A 
ATOM      8  C6  PXY d   1       1.836   1.481  -0.170  0.00  0.00     0.003 A 
ENDROOT
TORSDOF 0
ENDMDL
