MODEL 1
REMARK minimizedAffinity -2.93029785
REMARK minimizedRMSD -1
REMARK  0 active torsions:
REMARK  status: ('A' for Active; 'I' for Inactive)
ROOT
ATOM      1  C4' PXY d   1       1.233   2.853   1.216  0.00  0.00     0.077 C 
ATOM      2  C1' PXY d   1      -1.197  -2.136  -0.402  0.00  0.00     0.077 C 
ATOM      3  C1  PXY d   1      -0.568  -0.827   0.032  0.00  0.00    -0.082 A 
ATOM      4  C2  PXY d   1       0.086  -0.091  -0.852  0.00  0.00     0.003 A 
ATOM      5  C3  PXY d   1       0.688   1.080  -0.469  0.00  0.00     0.003 A 
ATOM      6  C4  PXY d   1       0.574   1.529   0.820  0.00  0.00    -0.082 A 
ATOM      7  C5  PXY d   1      -0.100   0.788   1.725  0.00  0.00     0.003 A 
ATOM      8  C6  PXY d   1      -0.669  -0.418   1.326  0.00  0.00     0.003 A 
ENDROOT
TORSDOF 0
ENDMDL
