MODEL 1
REMARK minimizedAffinity -4.75561953
REMARK minimizedRMSD -1
REMARK  0 active torsions:
REMARK  status: ('A' for Active; 'I' for Inactive)
ROOT
ATOM      1  C4' PXY d   1       0.880   2.634   1.939  0.00  0.00     0.077 C 
ATOM      2  C1' PXY d   1      -0.977  -1.908  -1.117  0.00  0.00     0.077 C 
ATOM      3  C1  PXY d   1      -0.478  -0.719  -0.320  0.00  0.00    -0.082 A 
ATOM      4  C2  PXY d   1      -1.146  -0.322   0.751  0.00  0.00     0.003 A 
ATOM      5  C3  PXY d   1      -0.726   0.771   1.465  0.00  0.00     0.003 A 
ATOM      6  C4  PXY d   1       0.418   1.433   1.109  0.00  0.00    -0.082 A 
ATOM      7  C5  PXY d   1       1.111   1.028   0.024  0.00  0.00     0.003 A 
ATOM      8  C6  PXY d   1       0.646  -0.059  -0.711  0.00  0.00     0.003 A 
ENDROOT
TORSDOF 0
ENDMDL
