MODEL 1
REMARK minimizedAffinity -3.77263284
REMARK minimizedRMSD -1
REMARK  0 active torsions:
REMARK  status: ('A' for Active; 'I' for Inactive)
ROOT
ATOM      1  C4' PXY d   1       3.051  -0.072  -0.759  0.00  0.00     0.077 C 
ATOM      2  C1' PXY d   1      -1.637   1.189   2.379  0.00  0.00     0.077 C 
ATOM      3  C1  PXY d   1      -0.407   0.870   1.551  0.00  0.00    -0.082 A 
ATOM      4  C2  PXY d   1      -0.153  -0.383   1.213  0.00  0.00     0.003 A 
ATOM      5  C3  PXY d   1       0.971  -0.693   0.492  0.00  0.00     0.003 A 
ATOM      6  C4  PXY d   1       1.816   0.297   0.067  0.00  0.00    -0.082 A 
ATOM      7  C5  PXY d   1       1.558   1.580   0.399  0.00  0.00     0.003 A 
ATOM      8  C6  PXY d   1       0.433   1.869   1.167  0.00  0.00     0.003 A 
ENDROOT
TORSDOF 0
ENDMDL
