MODEL 1
REMARK minimizedAffinity -1.34673953
REMARK minimizedRMSD -1
REMARK  2 active torsions:
REMARK  status: ('A' for Active; 'I' for Inactive)
REMARK    1  A    between atoms: C1_2  and  C2_3 
REMARK    2  A    between atoms: C2_3  and  C3_4 
ROOT
ATOM      1  C3  UNL d   1      -1.482   1.718   2.131  0.00  0.00    -0.075 A 
ATOM      2  C4  UNL d   1      -1.629   0.324   2.087  0.00  0.00     0.002 A 
ATOM      3  C5  UNL d   1      -0.666  -0.471   1.466  0.00  0.00     0.002 A 
ATOM      4  C6  UNL d   1       0.449   0.116   0.872  0.00  0.00    -0.004 A 
ATOM      5  C7  UNL d   1       0.598   1.501   0.895  0.00  0.00     0.002 A 
ATOM      6  C8  UNL d   1      -0.362   2.299   1.521  0.00  0.00     0.002 A 
ENDROOT
BRANCH   1   7
ATOM      7  C2  UNL d   1      -2.505   2.582   2.829  0.00  0.00     0.056 C 
BRANCH   7   8
ATOM      8  C1  UNL d   1      -3.596   1.791   3.558  0.00  0.00     0.007 C 
ATOM      9  C   UNL d   1      -4.448   2.652   4.481  0.00  0.00     0.009 C 
ENDBRANCH   7   8
ENDBRANCH   1   7
TORSDOF 2
ENDMDL
