MODEL 1
REMARK minimizedAffinity -0.0190908406
REMARK minimizedRMSD -1
REMARK  2 active torsions:
REMARK  status: ('A' for Active; 'I' for Inactive)
REMARK    1  A    between atoms: C1_2  and  C2_3 
REMARK    2  A    between atoms: C2_3  and  C3_4 
ROOT
ATOM      1  C3  UNL d   1      -2.041   1.687   2.114  0.00  0.00    -0.075 A 
ATOM      2  C4  UNL d   1      -2.095   0.292   1.983  0.00  0.00     0.002 A 
ATOM      3  C5  UNL d   1      -1.007  -0.414   1.469  0.00  0.00     0.002 A 
ATOM      4  C6  UNL d   1       0.143   0.265   1.072  0.00  0.00    -0.004 A 
ATOM      5  C7  UNL d   1       0.201   1.653   1.182  0.00  0.00     0.002 A 
ATOM      6  C8  UNL d   1      -0.885   2.361   1.700  0.00  0.00     0.002 A 
ENDROOT
BRANCH   1   7
ATOM      7  C2  UNL d   1      -3.204   2.454   2.697  0.00  0.00     0.056 C 
BRANCH   7   8
ATOM      8  C1  UNL d   1      -4.064   1.639   3.669  0.00  0.00     0.007 C 
ATOM      9  C   UNL d   1      -4.702   2.487   4.762  0.00  0.00     0.009 C 
ENDBRANCH   7   8
ENDBRANCH   1   7
TORSDOF 2
ENDMDL
