MODEL 1
REMARK minimizedAffinity 3.27543402
REMARK minimizedRMSD -1
REMARK  2 active torsions:
REMARK  status: ('A' for Active; 'I' for Inactive)
REMARK    1  A    between atoms: C1_2  and  C2_3 
REMARK    2  A    between atoms: C2_3  and  C3_4 
ROOT
ATOM      1  C3  UNL d   1      -1.365   1.688   2.065  0.00  0.00    -0.075 A 
ATOM      2  C4  UNL d   1      -0.667   2.324   1.028  0.00  0.00     0.002 A 
ATOM      3  C5  UNL d   1       0.217   1.605   0.224  0.00  0.00     0.002 A 
ATOM      4  C6  UNL d   1       0.422   0.245   0.451  0.00  0.00    -0.004 A 
ATOM      5  C7  UNL d   1      -0.254  -0.393   1.489  0.00  0.00     0.002 A 
ATOM      6  C8  UNL d   1      -1.142   0.323   2.292  0.00  0.00     0.002 A 
ENDROOT
BRANCH   1   7
ATOM      7  C2  UNL d   1      -2.345   2.455   2.920  0.00  0.00     0.056 C 
BRANCH   7   8
ATOM      8  C1  UNL d   1      -3.516   1.611   3.435  0.00  0.00     0.007 C 
ATOM      9  C   UNL d   1      -4.469   2.391   4.332  0.00  0.00     0.009 C 
ENDBRANCH   7   8
ENDBRANCH   1   7
TORSDOF 2
ENDMDL
