MODEL 1
REMARK minimizedAffinity 1.41766405
REMARK minimizedRMSD -1
REMARK  2 active torsions:
REMARK  status: ('A' for Active; 'I' for Inactive)
REMARK    1  A    between atoms: C1_2  and  C2_3 
REMARK    2  A    between atoms: C2_3  and  C3_4 
ROOT
ATOM      1  C3  UNL d   1      -1.658   1.843   2.112  0.00  0.00    -0.075 A 
ATOM      2  C4  UNL d   1      -1.697   0.449   2.251  0.00  0.00     0.002 A 
ATOM      3  C5  UNL d   1      -0.670  -0.344   1.737  0.00  0.00     0.002 A 
ATOM      4  C6  UNL d   1       0.401   0.246   1.069  0.00  0.00    -0.004 A 
ATOM      5  C7  UNL d   1       0.441   1.630   0.910  0.00  0.00     0.002 A 
ATOM      6  C8  UNL d   1      -0.583   2.425   1.428  0.00  0.00     0.002 A 
ENDROOT
BRANCH   1   7
ATOM      7  C2  UNL d   1      -2.752   2.709   2.692  0.00  0.00     0.056 C 
BRANCH   7   8
ATOM      8  C1  UNL d   1      -3.715   1.959   3.618  0.00  0.00     0.007 C 
ATOM      9  C   UNL d   1      -4.538   2.884   4.504  0.00  0.00     0.009 C 
ENDBRANCH   7   8
ENDBRANCH   1   7
TORSDOF 2
ENDMDL
