MODEL 1
REMARK minimizedAffinity -5.18036795
REMARK minimizedRMSD -1
REMARK  2 active torsions:
REMARK  status: ('A' for Active; 'I' for Inactive)
REMARK    1  A    between atoms: C1_2  and  C2_3 
REMARK    2  A    between atoms: C2_3  and  C3_4 
ROOT
ATOM      1  C3  UNL d   1      -0.421   1.018   1.096  0.00  0.00    -0.075 A 
ATOM      2  C4  UNL d   1      -1.481   1.858   1.467  0.00  0.00     0.002 A 
ATOM      3  C5  UNL d   1      -2.697   1.320   1.888  0.00  0.00     0.002 A 
ATOM      4  C6  UNL d   1      -2.873  -0.061   1.933  0.00  0.00    -0.004 A 
ATOM      5  C7  UNL d   1      -1.833  -0.905   1.551  0.00  0.00     0.002 A 
ATOM      6  C8  UNL d   1      -0.613  -0.369   1.134  0.00  0.00     0.002 A 
ENDROOT
BRANCH   1   7
ATOM      7  C2  UNL d   1       0.908   1.594   0.668  0.00  0.00     0.056 C 
BRANCH   7   8
ATOM      8  C1  UNL d   1       2.040   0.564   0.598  0.00  0.00     0.007 C 
ATOM      9  C   UNL d   1       2.753   0.545  -0.747  0.00  0.00     0.009 C 
ENDBRANCH   7   8
ENDBRANCH   1   7
TORSDOF 2
ENDMDL
