MODEL 1
REMARK minimizedAffinity 2.20028067
REMARK minimizedRMSD -1
REMARK  2 active torsions:
REMARK  status: ('A' for Active; 'I' for Inactive)
REMARK    1  A    between atoms: C1_2  and  C2_3 
REMARK    2  A    between atoms: C2_3  and  C3_4 
ROOT
ATOM      1  C3  UNL d   1      -1.306  -0.038   2.079  0.00  0.00    -0.075 A 
ATOM      2  C4  UNL d   1      -1.221   1.282   1.612  0.00  0.00     0.002 A 
ATOM      3  C5  UNL d   1      -0.199   1.660   0.741  0.00  0.00     0.002 A 
ATOM      4  C6  UNL d   1       0.755   0.730   0.334  0.00  0.00    -0.004 A 
ATOM      5  C7  UNL d   1       0.690  -0.580   0.805  0.00  0.00     0.002 A 
ATOM      6  C8  UNL d   1      -0.334  -0.963   1.674  0.00  0.00     0.002 A 
ENDROOT
BRANCH   1   7
ATOM      7  C2  UNL d   1      -2.426  -0.461   2.999  0.00  0.00     0.056 C 
BRANCH   7   8
ATOM      8  C1  UNL d   1      -2.013  -1.498   4.049  0.00  0.00     0.007 C 
ATOM      9  C   UNL d   1      -3.194  -2.086   4.808  0.00  0.00     0.009 C 
ENDBRANCH   7   8
ENDBRANCH   1   7
TORSDOF 2
ENDMDL
