MODEL 1
REMARK minimizedAffinity 5.7561059
REMARK minimizedRMSD -1
REMARK  2 active torsions:
REMARK  status: ('A' for Active; 'I' for Inactive)
REMARK    1  A    between atoms: C1_2  and  C2_3 
REMARK    2  A    between atoms: C2_3  and  C3_4 
ROOT
ATOM      1  C3  UNL d   1      -2.719   3.291   1.895  0.00  0.00    -0.075 A 
ATOM      2  C4  UNL d   1      -3.636   3.395   2.951  0.00  0.00     0.002 A 
ATOM      3  C5  UNL d   1      -4.848   4.063   2.774  0.00  0.00     0.002 A 
ATOM      4  C6  UNL d   1      -5.153   4.644   1.544  0.00  0.00    -0.004 A 
ATOM      5  C7  UNL d   1      -4.243   4.561   0.493  0.00  0.00     0.002 A 
ATOM      6  C8  UNL d   1      -3.031   3.889   0.667  0.00  0.00     0.002 A 
ENDROOT
BRANCH   1   7
ATOM      7  C2  UNL d   1      -1.419   2.543   2.072  0.00  0.00     0.056 C 
BRANCH   7   8
ATOM      8  C1  UNL d   1      -1.050   1.645   0.887  0.00  0.00     0.007 C 
ATOM      9  C   UNL d   1      -0.934   0.174   1.262  0.00  0.00     0.009 C 
ENDBRANCH   7   8
ENDBRANCH   1   7
TORSDOF 2
ENDMDL
