MODEL 1
REMARK minimizedAffinity -3.00280094
REMARK minimizedRMSD -1
REMARK  2 active torsions:
REMARK  status: ('A' for Active; 'I' for Inactive)
REMARK    1  A    between atoms: C1_2  and  C2_3 
REMARK    2  A    between atoms: C2_3  and  C3_4 
ROOT
ATOM      1  C3  UNL d   1       0.664   0.657   0.845  0.00  0.00    -0.075 A 
ATOM      2  C4  UNL d   1      -0.592   0.033   0.842  0.00  0.00     0.002 A 
ATOM      3  C5  UNL d   1      -1.663   0.594   1.538  0.00  0.00     0.002 A 
ATOM      4  C6  UNL d   1      -1.491   1.777   2.254  0.00  0.00    -0.004 A 
ATOM      5  C7  UNL d   1      -0.243   2.396   2.278  0.00  0.00     0.002 A 
ATOM      6  C8  UNL d   1       0.829   1.840   1.578  0.00  0.00     0.002 A 
ENDROOT
BRANCH   1   7
ATOM      7  C2  UNL d   1       1.820   0.072   0.070  0.00  0.00     0.056 C 
BRANCH   7   8
ATOM      8  C1  UNL d   1       2.196   0.867  -1.185  0.00  0.00     0.007 C 
ATOM      9  C   UNL d   1       3.077   0.085  -2.150  0.00  0.00     0.009 C 
ENDBRANCH   7   8
ENDBRANCH   1   7
TORSDOF 2
ENDMDL
