MODEL 1
REMARK minimizedAffinity -3.14028215
REMARK minimizedRMSD -1
REMARK  2 active torsions:
REMARK  status: ('A' for Active; 'I' for Inactive)
REMARK    1  A    between atoms: C1_2  and  C2_3 
REMARK    2  A    between atoms: C2_3  and  C3_4 
ROOT
ATOM      1  C3  UNL d   1       0.611   2.421   0.716  0.00  0.00    -0.075 A 
ATOM      2  C4  UNL d   1       0.588   1.037   0.941  0.00  0.00     0.002 A 
ATOM      3  C5  UNL d   1      -0.575   0.412   1.391  0.00  0.00     0.002 A 
ATOM      4  C6  UNL d   1      -1.724   1.162   1.631  0.00  0.00    -0.004 A 
ATOM      5  C7  UNL d   1      -1.708   2.540   1.426  0.00  0.00     0.002 A 
ATOM      6  C8  UNL d   1      -0.547   3.167   0.971  0.00  0.00     0.002 A 
ENDROOT
BRANCH   1   7
ATOM      7  C2  UNL d   1       1.858   3.099   0.200  0.00  0.00     0.056 C 
BRANCH   7   8
ATOM      8  C1  UNL d   1       2.104   4.489   0.796  0.00  0.00     0.007 C 
ATOM      9  C   UNL d   1       3.560   4.928   0.716  0.00  0.00     0.009 C 
ENDBRANCH   7   8
ENDBRANCH   1   7
TORSDOF 2
ENDMDL
