MODEL 1
REMARK minimizedAffinity 3.12117267
REMARK minimizedRMSD -1
REMARK  2 active torsions:
REMARK  status: ('A' for Active; 'I' for Inactive)
REMARK    1  A    between atoms: C1_2  and  C2_3 
REMARK    2  A    between atoms: C2_3  and  C3_4 
ROOT
ATOM      1  C3  UNL d   1      -3.737  -3.587  -1.783  0.00  0.00    -0.075 A 
ATOM      2  C4  UNL d   1      -3.771  -4.799  -2.488  0.00  0.00     0.002 A 
ATOM      3  C5  UNL d   1      -3.445  -5.998  -1.853  0.00  0.00     0.002 A 
ATOM      4  C6  UNL d   1      -3.072  -5.999  -0.511  0.00  0.00    -0.004 A 
ATOM      5  C7  UNL d   1      -3.019  -4.799   0.195  0.00  0.00     0.002 A 
ATOM      6  C8  UNL d   1      -3.349  -3.599  -0.437  0.00  0.00     0.002 A 
ENDROOT
BRANCH   1   7
ATOM      7  C2  UNL d   1      -4.117  -2.291  -2.457  0.00  0.00     0.056 C 
BRANCH   7   8
ATOM      8  C1  UNL d   1      -2.978  -1.644  -3.253  0.00  0.00     0.007 C 
ATOM      9  C   UNL d   1      -2.213  -2.636  -4.119  0.00  0.00     0.009 C 
ENDBRANCH   7   8
ENDBRANCH   1   7
TORSDOF 2
ENDMDL
