MODEL 1
REMARK minimizedAffinity -3.33222818
REMARK minimizedRMSD -1
REMARK  2 active torsions:
REMARK  status: ('A' for Active; 'I' for Inactive)
REMARK    1  A    between atoms: C1_2  and  C2_3 
REMARK    2  A    between atoms: C2_3  and  C3_4 
ROOT
ATOM      1  C3  UNL d   1      -1.720   1.436   1.785  0.00  0.00    -0.075 A 
ATOM      2  C4  UNL d   1      -0.506   2.090   1.529  0.00  0.00     0.002 A 
ATOM      3  C5  UNL d   1       0.605   1.373   1.082  0.00  0.00     0.002 A 
ATOM      4  C6  UNL d   1       0.519  -0.005   0.896  0.00  0.00    -0.004 A 
ATOM      5  C7  UNL d   1      -0.677  -0.667   1.163  0.00  0.00     0.002 A 
ATOM      6  C8  UNL d   1      -1.791   0.048   1.606  0.00  0.00     0.002 A 
ENDROOT
BRANCH   1   7
ATOM      7  C2  UNL d   1      -2.933   2.210   2.240  0.00  0.00     0.056 C 
BRANCH   7   8
ATOM      8  C1  UNL d   1      -3.877   1.414   3.147  0.00  0.00     0.007 C 
ATOM      9  C   UNL d   1      -4.634   2.286   4.140  0.00  0.00     0.009 C 
ENDBRANCH   7   8
ENDBRANCH   1   7
TORSDOF 2
ENDMDL
