MODEL 1
REMARK minimizedAffinity 0.7749933
REMARK minimizedRMSD -1
REMARK  2 active torsions:
REMARK  status: ('A' for Active; 'I' for Inactive)
REMARK    1  A    between atoms: C1_2  and  C2_3 
REMARK    2  A    between atoms: C2_3  and  C3_4 
ROOT
ATOM      1  C3  UNL d   1      -2.214   0.713   2.343  0.00  0.00    -0.075 A 
ATOM      2  C4  UNL d   1      -1.518   1.872   1.974  0.00  0.00     0.002 A 
ATOM      3  C5  UNL d   1      -0.348   1.786   1.218  0.00  0.00     0.002 A 
ATOM      4  C6  UNL d   1       0.144   0.541   0.831  0.00  0.00    -0.004 A 
ATOM      5  C7  UNL d   1      -0.530  -0.618   1.207  0.00  0.00     0.002 A 
ATOM      6  C8  UNL d   1      -1.703  -0.534   1.959  0.00  0.00     0.002 A 
ENDROOT
BRANCH   1   7
ATOM      7  C2  UNL d   1      -3.497   0.801   3.136  0.00  0.00     0.056 C 
BRANCH   7   8
ATOM      8  C1  UNL d   1      -3.936   2.234   3.453  0.00  0.00     0.007 C 
ATOM      9  C   UNL d   1      -4.595   2.372   4.819  0.00  0.00     0.009 C 
ENDBRANCH   7   8
ENDBRANCH   1   7
TORSDOF 2
ENDMDL
