MODEL 1
REMARK minimizedAffinity 15.7135754
REMARK minimizedRMSD -1
REMARK  1 active torsions:
REMARK  status: ('A' for Active; 'I' for Inactive)
REMARK    1  A    between atoms: C1_2  and  C2_3 
ROOT
ATOM      1  C2  UNL d   1      -2.704  -3.786  -0.123  0.00  0.00    -0.073 A 
ATOM      2  C3  UNL d   1      -3.468  -4.939  -0.341  0.00  0.00    -0.002 A 
ATOM      3  C4  UNL d   1      -3.435  -5.990   0.576  0.00  0.00     0.004 A 
ATOM      4  C5  UNL d   1      -2.646  -5.897   1.723  0.00  0.00    -0.004 A 
ATOM      5  C6  UNL d   1      -1.886  -4.749   1.964  0.00  0.00    -0.075 A 
ATOM      6  C7  UNL d   1      -1.030  -4.634   3.192  0.00  0.00     0.076 C 
ATOM      7  C8  UNL d   1      -1.921  -3.699   1.037  0.00  0.00     0.001 A 
ENDROOT
BRANCH   1   8
ATOM      8  C1  UNL d   1      -2.741  -2.646  -1.108  0.00  0.00     0.053 C 
ATOM      9  C   UNL d   1      -3.249  -3.087  -2.471  0.00  0.00     0.018 C 
ENDBRANCH   1   8
TORSDOF 1
ENDMDL
