MODEL 1
REMARK minimizedAffinity 14.9657478
REMARK minimizedRMSD -1
REMARK  1 active torsions:
REMARK  status: ('A' for Active; 'I' for Inactive)
REMARK    1  A    between atoms: C1_2  and  C2_3 
ROOT
ATOM      1  C2  UNL d   1      -2.435  -2.950  -0.611  0.00  0.00    -0.073 A 
ATOM      2  C3  UNL d   1      -1.285  -2.423  -0.012  0.00  0.00    -0.002 A 
ATOM      3  C4  UNL d   1      -0.722  -3.046   1.102  0.00  0.00     0.004 A 
ATOM      4  C5  UNL d   1      -1.297  -4.205   1.624  0.00  0.00    -0.004 A 
ATOM      5  C6  UNL d   1      -2.439  -4.753   1.033  0.00  0.00    -0.075 A 
ATOM      6  C7  UNL d   1      -3.071  -5.998   1.584  0.00  0.00     0.076 C 
ATOM      7  C8  UNL d   1      -3.001  -4.120  -0.084  0.00  0.00     0.001 A 
ENDROOT
BRANCH   1   8
ATOM      8  C1  UNL d   1      -3.044  -2.284  -1.818  0.00  0.00     0.053 C 
ATOM      9  C   UNL d   1      -3.055  -3.202  -3.030  0.00  0.00     0.018 C 
ENDBRANCH   1   8
TORSDOF 1
ENDMDL
