MODEL 1
REMARK minimizedAffinity 8.62873936
REMARK minimizedRMSD -1
REMARK  1 active torsions:
REMARK  status: ('A' for Active; 'I' for Inactive)
REMARK    1  A    between atoms: C1_2  and  C2_3 
ROOT
ATOM      1  C2  UNL d   1       2.305   2.611   0.300  0.00  0.00    -0.073 A 
ATOM      2  C3  UNL d   1       2.007   1.469   1.052  0.00  0.00    -0.002 A 
ATOM      3  C4  UNL d   1       2.267   0.199   0.536  0.00  0.00     0.004 A 
ATOM      4  C5  UNL d   1       2.832   0.058  -0.731  0.00  0.00    -0.004 A 
ATOM      5  C6  UNL d   1       3.147   1.187  -1.493  0.00  0.00    -0.075 A 
ATOM      6  C7  UNL d   1       3.754   1.053  -2.859  0.00  0.00     0.076 C 
ATOM      7  C8  UNL d   1       2.881   2.460  -0.969  0.00  0.00     0.001 A 
ENDROOT
BRANCH   1   8
ATOM      8  C1  UNL d   1       2.032   3.985   0.856  0.00  0.00     0.053 C 
ATOM      9  C   UNL d   1       3.276   4.860   0.850  0.00  0.00     0.018 C 
ENDBRANCH   1   8
TORSDOF 1
ENDMDL
