MODEL 1
REMARK minimizedAffinity 20.1477489
REMARK minimizedRMSD -1
REMARK  1 active torsions:
REMARK  status: ('A' for Active; 'I' for Inactive)
REMARK    1  A    between atoms: C1_2  and  C2_3 
ROOT
ATOM      1  C2  UNL d   1       2.757   1.184  -2.085  0.00  0.00    -0.073 A 
ATOM      2  C3  UNL d   1       2.664  -0.068  -1.467  0.00  0.00    -0.002 A 
ATOM      3  C4  UNL d   1       2.015  -0.202  -0.239  0.00  0.00     0.004 A 
ATOM      4  C5  UNL d   1       1.446   0.911   0.379  0.00  0.00    -0.004 A 
ATOM      5  C6  UNL d   1       1.518   2.169  -0.228  0.00  0.00    -0.075 A 
ATOM      6  C7  UNL d   1       0.914   3.377   0.425  0.00  0.00     0.076 C 
ATOM      7  C8  UNL d   1       2.174   2.296  -1.460  0.00  0.00     0.001 A 
ENDROOT
BRANCH   1   8
ATOM      8  C1  UNL d   1       3.451   1.332  -3.414  0.00  0.00     0.053 C 
ATOM      9  C   UNL d   1       4.699   2.195  -3.312  0.00  0.00     0.018 C 
ENDBRANCH   1   8
TORSDOF 1
ENDMDL
