MODEL 1
REMARK minimizedAffinity 14.2563086
REMARK minimizedRMSD -1
REMARK  1 active torsions:
REMARK  status: ('A' for Active; 'I' for Inactive)
REMARK    1  A    between atoms: C1_2  and  C2_3 
ROOT
ATOM      1  C2  UNL d   1       2.736   0.069   1.514  0.00  0.00    -0.073 A 
ATOM      2  C3  UNL d   1       3.165  -0.114   2.833  0.00  0.00    -0.002 A 
ATOM      3  C4  UNL d   1       4.504  -0.399   3.106  0.00  0.00     0.004 A 
ATOM      4  C5  UNL d   1       5.427  -0.498   2.065  0.00  0.00    -0.004 A 
ATOM      5  C6  UNL d   1       5.020  -0.307   0.741  0.00  0.00    -0.075 A 
ATOM      6  C7  UNL d   1       6.000  -0.411  -0.391  0.00  0.00     0.076 C 
ATOM      7  C8  UNL d   1       3.673  -0.023   0.475  0.00  0.00     0.001 A 
ENDROOT
BRANCH   1   8
ATOM      8  C1  UNL d   1       1.293   0.383   1.215  0.00  0.00     0.053 C 
ATOM      9  C   UNL d   1       0.760   1.504   2.094  0.00  0.00     0.018 C 
ENDBRANCH   1   8
TORSDOF 1
ENDMDL
