MODEL 1
REMARK minimizedAffinity 16.9065628
REMARK minimizedRMSD -1
REMARK  1 active torsions:
REMARK  status: ('A' for Active; 'I' for Inactive)
REMARK    1  A    between atoms: C1_2  and  C2_3 
ROOT
ATOM      1  C2  UNL d   1      -3.186  -3.287  -2.231  0.00  0.00    -0.073 A 
ATOM      2  C3  UNL d   1      -2.773  -4.625  -2.220  0.00  0.00    -0.002 A 
ATOM      3  C4  UNL d   1      -2.249  -5.210  -3.373  0.00  0.00     0.004 A 
ATOM      4  C5  UNL d   1      -2.126  -4.464  -4.545  0.00  0.00    -0.004 A 
ATOM      5  C6  UNL d   1      -2.522  -3.123  -4.573  0.00  0.00    -0.075 A 
ATOM      6  C7  UNL d   1      -2.398  -2.308  -5.827  0.00  0.00     0.076 C 
ATOM      7  C8  UNL d   1      -3.050  -2.543  -3.412  0.00  0.00     0.001 A 
ENDROOT
BRANCH   1   8
ATOM      8  C1  UNL d   1      -3.747  -2.649  -0.987  0.00  0.00     0.053 C 
ATOM      9  C   UNL d   1      -2.775  -2.726   0.180  0.00  0.00     0.018 C 
ENDBRANCH   1   8
TORSDOF 1
ENDMDL
