MODEL 1
REMARK minimizedAffinity 13.4323444
REMARK minimizedRMSD -1
REMARK  1 active torsions:
REMARK  status: ('A' for Active; 'I' for Inactive)
REMARK    1  A    between atoms: C1_2  and  C2_3 
ROOT
ATOM      1  C2  UNL d   1       1.567   1.092   1.966  0.00  0.00    -0.073 A 
ATOM      2  C3  UNL d   1       1.265   1.444   0.646  0.00  0.00    -0.002 A 
ATOM      3  C4  UNL d   1       2.210   1.264  -0.366  0.00  0.00     0.004 A 
ATOM      4  C5  UNL d   1       3.461   0.723  -0.070  0.00  0.00    -0.004 A 
ATOM      5  C6  UNL d   1       3.777   0.353   1.242  0.00  0.00    -0.075 A 
ATOM      6  C7  UNL d   1       5.119  -0.228   1.577  0.00  0.00     0.076 C 
ATOM      7  C8  UNL d   1       2.824   0.540   2.252  0.00  0.00     0.001 A 
ENDROOT
BRANCH   1   8
ATOM      8  C1  UNL d   1       0.548   1.279   3.060  0.00  0.00     0.053 C 
ATOM      9  C   UNL d   1       0.980   0.618   4.360  0.00  0.00     0.018 C 
ENDBRANCH   1   8
TORSDOF 1
ENDMDL
