MODEL 1
REMARK minimizedAffinity 10.9406261
REMARK minimizedRMSD -1
REMARK  1 active torsions:
REMARK  status: ('A' for Active; 'I' for Inactive)
REMARK    1  A    between atoms: C1_2  and  C2_3 
ROOT
ATOM      1  C2  UNL d   1      -2.314  -2.613  -0.696  0.00  0.00    -0.073 A 
ATOM      2  C3  UNL d   1      -1.096  -2.953  -0.097  0.00  0.00    -0.002 A 
ATOM      3  C4  UNL d   1      -0.865  -2.658   1.247  0.00  0.00     0.004 A 
ATOM      4  C5  UNL d   1      -1.850  -2.027   2.007  0.00  0.00    -0.004 A 
ATOM      5  C6  UNL d   1      -3.079  -1.689   1.429  0.00  0.00    -0.075 A 
ATOM      6  C7  UNL d   1      -4.148  -1.008   2.232  0.00  0.00     0.076 C 
ATOM      7  C8  UNL d   1      -3.302  -1.987   0.078  0.00  0.00     0.001 A 
ENDROOT
BRANCH   1   8
ATOM      8  C1  UNL d   1      -2.571  -2.935  -2.146  0.00  0.00     0.053 C 
ATOM      9  C   UNL d   1      -3.919  -3.609  -2.350  0.00  0.00     0.018 C 
ENDBRANCH   1   8
TORSDOF 1
ENDMDL
