MODEL 1
REMARK minimizedAffinity 20.406847
REMARK minimizedRMSD -1
REMARK  1 active torsions:
REMARK  status: ('A' for Active; 'I' for Inactive)
REMARK    1  A    between atoms: C1_2  and  C2_3 
ROOT
ATOM      1  C2  UNL d   1      -2.953  -3.006  -1.278  0.00  0.00    -0.073 A 
ATOM      2  C3  UNL d   1      -2.596  -1.760  -0.749  0.00  0.00    -0.002 A 
ATOM      3  C4  UNL d   1      -1.852  -1.681   0.429  0.00  0.00     0.004 A 
ATOM      4  C5  UNL d   1      -1.452  -2.845   1.086  0.00  0.00    -0.004 A 
ATOM      5  C6  UNL d   1      -1.789  -4.099   0.567  0.00  0.00    -0.075 A 
ATOM      6  C7  UNL d   1      -1.368  -5.360   1.262  0.00  0.00     0.076 C 
ATOM      7  C8  UNL d   1      -2.539  -4.170  -0.615  0.00  0.00     0.001 A 
ENDROOT
BRANCH   1   8
ATOM      8  C1  UNL d   1      -3.751  -3.096  -2.553  0.00  0.00     0.053 C 
ATOM      9  C   UNL d   1      -5.164  -3.600  -2.307  0.00  0.00     0.018 C 
ENDBRANCH   1   8
TORSDOF 1
ENDMDL
