MODEL 1
REMARK minimizedAffinity 15.9452991
REMARK minimizedRMSD -1
REMARK  1 active torsions:
REMARK  status: ('A' for Active; 'I' for Inactive)
REMARK    1  A    between atoms: C1_2  and  C2_3 
ROOT
ATOM      1  C2  UNL d   1      -0.289  -0.954   0.452  0.00  0.00    -0.073 A 
ATOM      2  C3  UNL d   1      -0.476  -1.700   1.621  0.00  0.00    -0.002 A 
ATOM      3  C4  UNL d   1      -1.426  -2.722   1.660  0.00  0.00     0.004 A 
ATOM      4  C5  UNL d   1      -2.192  -3.011   0.531  0.00  0.00    -0.004 A 
ATOM      5  C6  UNL d   1      -2.011  -2.284  -0.650  0.00  0.00    -0.075 A 
ATOM      6  C7  UNL d   1      -2.829  -2.581  -1.872  0.00  0.00     0.076 C 
ATOM      7  C8  UNL d   1      -1.057  -1.258  -0.680  0.00  0.00     0.001 A 
ENDROOT
BRANCH   1   8
ATOM      8  C1  UNL d   1       0.741   0.146   0.403  0.00  0.00     0.053 C 
ATOM      9  C   UNL d   1       0.878   0.858   1.740  0.00  0.00     0.018 C 
ENDBRANCH   1   8
TORSDOF 1
ENDMDL
