MODEL 1
REMARK minimizedAffinity 17.3991566
REMARK minimizedRMSD -1
REMARK  1 active torsions:
REMARK  status: ('A' for Active; 'I' for Inactive)
REMARK    1  A    between atoms: C1_2  and  C2_3 
ROOT
ATOM      1  C2  UNL d   1      -2.264  -2.766   0.184  0.00  0.00    -0.073 A 
ATOM      2  C3  UNL d   1      -1.519  -1.859   0.946  0.00  0.00    -0.002 A 
ATOM      3  C4  UNL d   1      -0.838  -2.287   2.086  0.00  0.00     0.004 A 
ATOM      4  C5  UNL d   1      -0.888  -3.626   2.472  0.00  0.00    -0.004 A 
ATOM      5  C6  UNL d   1      -1.617  -4.551   1.717  0.00  0.00    -0.075 A 
ATOM      6  C7  UNL d   1      -1.683  -5.995   2.120  0.00  0.00     0.076 C 
ATOM      7  C8  UNL d   1      -2.301  -4.113   0.575  0.00  0.00     0.001 A 
ENDROOT
BRANCH   1   8
ATOM      8  C1  UNL d   1      -2.995  -2.310  -1.052  0.00  0.00     0.053 C 
ATOM      9  C   UNL d   1      -3.009  -3.378  -2.134  0.00  0.00     0.018 C 
ENDBRANCH   1   8
TORSDOF 1
ENDMDL
