MODEL 1
REMARK minimizedAffinity -0.201641306
REMARK minimizedRMSD -1
REMARK  0 active torsions:
REMARK  status: ('A' for Active; 'I' for Inactive)
ROOT
ATOM      1  C   UNL d   1       1.763  -1.868   1.571  0.00  0.00     0.124 A 
ATOM      2  C1  UNL d   1       0.684  -1.072   1.929  0.00  0.00     0.062 A 
ATOM      3  C2  UNL d   1       0.059  -0.271   0.978  0.00  0.00     0.162 A 
ATOM      4  C3  UNL d   1       0.511  -0.262  -0.341  0.00  0.00    -0.034 A 
ATOM      5  C4  UNL d   1       1.598  -1.064  -0.694  0.00  0.00     0.162 A 
ATOM      6  C5  UNL d   1       2.219  -1.864   0.260  0.00  0.00     0.062 A 
ATOM      7  F   UNL d   1       3.261  -2.632  -0.088  0.00  0.00    -0.097 F 
ATOM      8  F1  UNL d   1       2.058  -1.080  -1.954  0.00  0.00    -0.096 F 
ATOM      9  I   UNL d   1      -0.421   0.935  -1.766  0.00  0.00    -0.060 I 
ATOM     10  F2  UNL d   1      -0.982   0.488   1.353  0.00  0.00    -0.096 F 
ATOM     11  F3  UNL d   1       0.242  -1.075   3.195  0.00  0.00    -0.097 F 
ATOM     12  F4  UNL d   1       2.363  -2.638   2.488  0.00  0.00    -0.092 F 
ENDROOT
TORSDOF 0
ENDMDL
