MODEL 1
REMARK minimizedAffinity -5.4851532
REMARK minimizedRMSD -1
REMARK  0 active torsions:
REMARK  status: ('A' for Active; 'I' for Inactive)
ROOT
ATOM      1  C   UNL d   1       1.735  -1.214   2.376  0.00  0.00     0.124 A 
ATOM      2  C1  UNL d   1       0.395  -0.852   2.345  0.00  0.00     0.062 A 
ATOM      3  C2  UNL d   1      -0.192  -0.443   1.151  0.00  0.00     0.162 A 
ATOM      4  C3  UNL d   1       0.560  -0.394  -0.022  0.00  0.00    -0.034 A 
ATOM      5  C4  UNL d   1       1.907  -0.758   0.017  0.00  0.00     0.162 A 
ATOM      6  C5  UNL d   1       2.489  -1.167   1.212  0.00  0.00     0.062 A 
ATOM      7  F   UNL d   1       3.784  -1.516   1.240  0.00  0.00    -0.097 F 
ATOM      8  F1  UNL d   1       2.659  -0.722  -1.093  0.00  0.00    -0.096 F 
ATOM      9  I   UNL d   1      -0.314   0.218  -1.809  0.00  0.00    -0.060 I 
ATOM     10  F2  UNL d   1      -1.489  -0.099   1.151  0.00  0.00    -0.096 F 
ATOM     11  F3  UNL d   1      -0.336  -0.896   3.468  0.00  0.00    -0.097 F 
ATOM     12  F4  UNL d   1       2.297  -1.607   3.526  0.00  0.00    -0.092 F 
ENDROOT
TORSDOF 0
ENDMDL
