MODEL 1
REMARK minimizedAffinity -3.65072489
REMARK minimizedRMSD -1
REMARK  0 active torsions:
REMARK  status: ('A' for Active; 'I' for Inactive)
ROOT
ATOM      1  C   UNL d   1       2.251  -1.512   2.276  0.00  0.00     0.124 A 
ATOM      2  C1  UNL d   1       1.174  -0.741   2.690  0.00  0.00     0.062 A 
ATOM      3  C2  UNL d   1       0.233  -0.299   1.765  0.00  0.00     0.162 A 
ATOM      4  C3  UNL d   1       0.365  -0.627   0.415  0.00  0.00    -0.034 A 
ATOM      5  C4  UNL d   1       1.452  -1.402   0.006  0.00  0.00     0.162 A 
ATOM      6  C5  UNL d   1       2.389  -1.842   0.935  0.00  0.00     0.062 A 
ATOM      7  F   UNL d   1       3.429  -2.587   0.534  0.00  0.00    -0.097 F 
ATOM      8  F1  UNL d   1       1.609  -1.736  -1.283  0.00  0.00    -0.096 F 
ATOM      9  I   UNL d   1      -1.040   0.033  -0.972  0.00  0.00    -0.060 I 
ATOM     10  F2  UNL d   1      -0.798   0.445   2.193  0.00  0.00    -0.096 F 
ATOM     11  F3  UNL d   1       1.039  -0.421   3.985  0.00  0.00    -0.097 F 
ATOM     12  F4  UNL d   1       3.155  -1.936   3.169  0.00  0.00    -0.092 F 
ENDROOT
TORSDOF 0
ENDMDL
