MODEL 1
REMARK minimizedAffinity -5.03027058
REMARK minimizedRMSD -1
REMARK  0 active torsions:
REMARK  status: ('A' for Active; 'I' for Inactive)
ROOT
ATOM      1  C   UNL d   1       2.288  -1.447   2.125  0.00  0.00     0.124 A 
ATOM      2  C1  UNL d   1       2.484  -1.851   0.811  0.00  0.00     0.062 A 
ATOM      3  C2  UNL d   1       1.677  -1.347  -0.204  0.00  0.00     0.162 A 
ATOM      4  C3  UNL d   1       0.666  -0.431   0.089  0.00  0.00    -0.034 A 
ATOM      5  C4  UNL d   1       0.475  -0.030   1.413  0.00  0.00     0.162 A 
ATOM      6  C5  UNL d   1       1.284  -0.537   2.424  0.00  0.00     0.062 A 
ATOM      7  F   UNL d   1       1.093  -0.146   3.692  0.00  0.00    -0.097 F 
ATOM      8  F1  UNL d   1      -0.488   0.849   1.730  0.00  0.00    -0.096 F 
ATOM      9  I   UNL d   1      -0.543   0.326  -1.426  0.00  0.00    -0.060 I 
ATOM     10  F2  UNL d   1       1.889  -1.755  -1.464  0.00  0.00    -0.096 F 
ATOM     11  F3  UNL d   1       3.453  -2.731   0.520  0.00  0.00    -0.097 F 
ATOM     12  F4  UNL d   1       3.066  -1.935   3.100  0.00  0.00    -0.092 F 
ENDROOT
TORSDOF 0
ENDMDL
