MODEL 1
REMARK minimizedAffinity -2.70704293
REMARK minimizedRMSD -1
REMARK  0 active torsions:
REMARK  status: ('A' for Active; 'I' for Inactive)
ROOT
ATOM      1  C   UNL d   1       1.583  -1.171   1.697  0.00  0.00     0.124 A 
ATOM      2  C1  UNL d   1       1.783  -1.451   0.352  0.00  0.00     0.062 A 
ATOM      3  C2  UNL d   1       0.983  -0.850  -0.615  0.00  0.00     0.162 A 
ATOM      4  C3  UNL d   1      -0.025   0.039  -0.240  0.00  0.00    -0.034 A 
ATOM      5  C4  UNL d   1      -0.221   0.315   1.114  0.00  0.00     0.162 A 
ATOM      6  C5  UNL d   1       0.582  -0.289   2.076  0.00  0.00     0.062 A 
ATOM      7  F   UNL d   1       0.387  -0.017   3.375  0.00  0.00    -0.097 F 
ATOM      8  F1  UNL d   1      -1.181   1.164   1.509  0.00  0.00    -0.096 F 
ATOM      9  I   UNL d   1      -1.224   0.940  -1.683  0.00  0.00    -0.060 I 
ATOM     10  F2  UNL d   1       1.198  -1.139  -1.907  0.00  0.00    -0.096 F 
ATOM     11  F3  UNL d   1       2.750  -2.304  -0.017  0.00  0.00    -0.097 F 
ATOM     12  F4  UNL d   1       2.354  -1.752   2.625  0.00  0.00    -0.092 F 
ENDROOT
TORSDOF 0
ENDMDL
