MODEL 1
REMARK minimizedAffinity -1.31944942
REMARK minimizedRMSD -1
REMARK  0 active torsions:
REMARK  status: ('A' for Active; 'I' for Inactive)
ROOT
ATOM      1  C   UNL d   1       2.152  -1.781   0.479  0.00  0.00     0.124 A 
ATOM      2  C1  UNL d   1       1.232  -1.443  -0.504  0.00  0.00     0.062 A 
ATOM      3  C2  UNL d   1       0.007  -0.883  -0.153  0.00  0.00     0.162 A 
ATOM      4  C3  UNL d   1      -0.305  -0.657   1.188  0.00  0.00    -0.034 A 
ATOM      5  C4  UNL d   1       0.625  -1.001   2.171  0.00  0.00     0.162 A 
ATOM      6  C5  UNL d   1       1.848  -1.560   1.814  0.00  0.00     0.062 A 
ATOM      7  F   UNL d   1       2.735  -1.887   2.765  0.00  0.00    -0.097 F 
ATOM      8  F1  UNL d   1       0.357  -0.797   3.469  0.00  0.00    -0.096 F 
ATOM      9  I   UNL d   1      -2.136   0.181   1.717  0.00  0.00    -0.060 I 
ATOM     10  F2  UNL d   1      -0.863  -0.565  -1.123  0.00  0.00    -0.096 F 
ATOM     11  F3  UNL d   1       1.523  -1.656  -1.795  0.00  0.00    -0.097 F 
ATOM     12  F4  UNL d   1       3.329  -2.321   0.138  0.00  0.00    -0.092 F 
ENDROOT
TORSDOF 0
ENDMDL
