MODEL 1
REMARK minimizedAffinity 14.9076328
REMARK minimizedRMSD -1
REMARK  0 active torsions:
REMARK  status: ('A' for Active; 'I' for Inactive)
ROOT
ATOM      1  O1  BZF d   1       1.253   2.378   1.317  0.00  0.00    -0.204 OA
ATOM      2  C2  BZF d   1       0.399   3.163   0.566  0.00  0.00     0.174 A 
ATOM      3  C3  BZF d   1      -0.875   3.019   0.983  0.00  0.00    -0.012 A 
ATOM      4  C3A BZF d   1      -0.802   2.155   2.122  0.00  0.00    -0.107 A 
ATOM      5  C4  BZF d   1      -1.738   1.654   2.981  0.00  0.00     0.055 A 
ATOM      6  C5  BZF d   1      -1.348   0.779   3.945  0.00  0.00    -0.016 A 
ATOM      7  C6  BZF d   1      -0.033   0.382   4.076  0.00  0.00     0.022 A 
ATOM      8  C7  BZF d   1       0.931   0.856   3.251  0.00  0.00     0.029 A 
ATOM      9  C7A BZF d   1       0.546   1.765   2.296  0.00  0.00     0.058 A 
ENDROOT
TORSDOF 0
ENDMDL
