MODEL 1
REMARK minimizedAffinity 15.0214548
REMARK minimizedRMSD -1
REMARK  0 active torsions:
REMARK  status: ('A' for Active; 'I' for Inactive)
ROOT
ATOM      1  O1  BZF d   1      -0.097   2.478   1.416  0.00  0.00    -0.204 OA
ATOM      2  C2  BZF d   1       0.495   1.675   0.460  0.00  0.00     0.174 A 
ATOM      3  C3  BZF d   1       0.725   2.370  -0.673  0.00  0.00    -0.012 A 
ATOM      4  C3A BZF d   1       0.331   3.713  -0.377  0.00  0.00    -0.107 A 
ATOM      5  C4  BZF d   1       0.336   4.873  -1.098  0.00  0.00     0.055 A 
ATOM      6  C5  BZF d   1      -0.183   5.999  -0.541  0.00  0.00    -0.016 A 
ATOM      7  C6  BZF d   1      -0.720   5.999   0.730  0.00  0.00     0.022 A 
ATOM      8  C7  BZF d   1      -0.743   4.874   1.485  0.00  0.00     0.029 A 
ATOM      9  C7A BZF d   1      -0.188   3.743   0.938  0.00  0.00     0.058 A 
ENDROOT
TORSDOF 0
ENDMDL
