MODEL 1
REMARK minimizedAffinity 9.43542862
REMARK minimizedRMSD -1
REMARK  0 active torsions:
REMARK  status: ('A' for Active; 'I' for Inactive)
ROOT
ATOM      1  O1  BZF d   1      -1.090   3.706   2.799  0.00  0.00    -0.204 OA
ATOM      2  C2  BZF d   1      -0.470   2.472   2.779  0.00  0.00     0.174 A 
ATOM      3  C3  BZF d   1       0.189   2.287   1.617  0.00  0.00    -0.012 A 
ATOM      4  C3A BZF d   1       0.044   3.518   0.902  0.00  0.00    -0.107 A 
ATOM      5  C4  BZF d   1       0.491   3.957  -0.311  0.00  0.00     0.055 A 
ATOM      6  C5  BZF d   1       0.113   5.186  -0.749  0.00  0.00    -0.016 A 
ATOM      7  C6  BZF d   1      -0.715   6.000  -0.003  0.00  0.00     0.022 A 
ATOM      8  C7  BZF d   1      -1.180   5.609   1.209  0.00  0.00     0.029 A 
ATOM      9  C7A BZF d   1      -0.772   4.381   1.669  0.00  0.00     0.058 A 
ENDROOT
TORSDOF 0
ENDMDL
