MODEL 1
REMARK minimizedAffinity 17.0162563
REMARK minimizedRMSD -1
REMARK  0 active torsions:
REMARK  status: ('A' for Active; 'I' for Inactive)
ROOT
ATOM      1  O1  BZF d   1       0.135  -1.039   4.596  0.00  0.00    -0.204 OA
ATOM      2  C2  BZF d   1       1.268  -1.830   4.632  0.00  0.00     0.174 A 
ATOM      3  C3  BZF d   1       2.245  -1.300   3.868  0.00  0.00    -0.012 A 
ATOM      4  C3A BZF d   1       1.720  -0.056   3.394  0.00  0.00    -0.107 A 
ATOM      5  C4  BZF d   1       2.225   0.936   2.603  0.00  0.00     0.055 A 
ATOM      6  C5  BZF d   1       1.428   1.985   2.270  0.00  0.00    -0.016 A 
ATOM      7  C6  BZF d   1       0.122   2.072   2.706  0.00  0.00     0.022 A 
ATOM      8  C7  BZF d   1      -0.421   1.115   3.497  0.00  0.00     0.029 A 
ATOM      9  C7A BZF d   1       0.392   0.070   3.862  0.00  0.00     0.058 A 
ENDROOT
TORSDOF 0
ENDMDL
