MODEL 1
REMARK minimizedAffinity 14.9310198
REMARK minimizedRMSD -1
REMARK  0 active torsions:
REMARK  status: ('A' for Active; 'I' for Inactive)
ROOT
ATOM      1  O1  BZF d   1       0.237  -0.547  -2.990  0.00  0.00    -0.204 OA
ATOM      2  C2  BZF d   1      -0.779  -1.207  -3.653  0.00  0.00     0.174 A 
ATOM      3  C3  BZF d   1      -1.925  -1.157  -2.943  0.00  0.00    -0.012 A 
ATOM      4  C3A BZF d   1      -1.628  -0.341  -1.806  0.00  0.00    -0.107 A 
ATOM      5  C4  BZF d   1      -2.366   0.090  -0.741  0.00  0.00     0.055 A 
ATOM      6  C5  BZF d   1      -1.757   0.814   0.234  0.00  0.00    -0.016 A 
ATOM      7  C6  BZF d   1      -0.413   1.121   0.180  0.00  0.00     0.022 A 
ATOM      8  C7  BZF d   1       0.359   0.719  -0.859  0.00  0.00     0.029 A 
ATOM      9  C7A BZF d   1      -0.260   0.015  -1.863  0.00  0.00     0.058 A 
ENDROOT
TORSDOF 0
ENDMDL
