MODEL 1
REMARK minimizedAffinity 5.58614874
REMARK minimizedRMSD -1
REMARK  0 active torsions:
REMARK  status: ('A' for Active; 'I' for Inactive)
ROOT
ATOM      1  O1  BZF d   1       1.340   4.954  -0.469  0.00  0.00    -0.204 OA
ATOM      2  C2  BZF d   1       0.275   4.141  -0.807  0.00  0.00     0.174 A 
ATOM      3  C3  BZF d   1      -0.021   3.296   0.201  0.00  0.00    -0.012 A 
ATOM      4  C3A BZF d   1       0.859   3.661   1.269  0.00  0.00    -0.107 A 
ATOM      5  C4  BZF d   1       1.034   3.196   2.541  0.00  0.00     0.055 A 
ATOM      6  C5  BZF d   1       2.028   3.721   3.304  0.00  0.00    -0.016 A 
ATOM      7  C6  BZF d   1       2.868   4.706   2.826  0.00  0.00     0.022 A 
ATOM      8  C7  BZF d   1       2.729   5.202   1.573  0.00  0.00     0.029 A 
ATOM      9  C7A BZF d   1       1.705   4.697   0.810  0.00  0.00     0.058 A 
ENDROOT
TORSDOF 0
ENDMDL
