MODEL 1
REMARK minimizedAffinity 13.0024614
REMARK minimizedRMSD -1
REMARK  0 active torsions:
REMARK  status: ('A' for Active; 'I' for Inactive)
ROOT
ATOM      1  O1  BZF d   1      -0.695   3.065   1.352  0.00  0.00    -0.204 OA
ATOM      2  C2  BZF d   1       0.503   2.378   1.391  0.00  0.00     0.174 A 
ATOM      3  C3  BZF d   1       1.396   2.925   0.541  0.00  0.00    -0.012 A 
ATOM      4  C3A BZF d   1       0.743   4.078  -0.000  0.00  0.00    -0.107 A 
ATOM      5  C4  BZF d   1       1.123   5.041  -0.890  0.00  0.00     0.055 A 
ATOM      6  C5  BZF d   1       0.223   5.989  -1.263  0.00  0.00    -0.016 A 
ATOM      7  C6  BZF d   1      -1.065   6.000  -0.770  0.00  0.00     0.022 A 
ATOM      8  C7  BZF d   1      -1.487   5.068   0.119  0.00  0.00     0.029 A 
ATOM      9  C7A BZF d   1      -0.570   4.128   0.522  0.00  0.00     0.058 A 
ENDROOT
TORSDOF 0
ENDMDL
