MODEL 1
REMARK minimizedAffinity -2.82404709
REMARK minimizedRMSD -1
REMARK  2 active torsions:
REMARK  status: ('A' for Active; 'I' for Inactive)
REMARK    1  A    between atoms: C2'_3  and  C1'_4 
REMARK    2  A    between atoms: C1'_4  and  C1_5 
ROOT
ATOM      1  C1  I4B d   1      -5.565   4.389  -3.379  0.00  0.00    -0.075 A 
ATOM      2  C2  I4B d   1      -6.000   3.732  -4.504  0.00  0.00     0.003 A 
ATOM      3  C3  I4B d   1      -5.633   4.200  -5.789  0.00  0.00     0.002 A 
ATOM      4  C4  I4B d   1      -4.877   5.348  -5.904  0.00  0.00    -0.004 A 
ATOM      5  C5  I4B d   1      -4.418   6.000  -4.762  0.00  0.00     0.002 A 
ATOM      6  C6  I4B d   1      -4.754   5.510  -3.492  0.00  0.00     0.003 A 
ENDROOT
BRANCH   1   7
ATOM      7  C1' I4B d   1      -5.999   3.887  -2.039  0.00  0.00     0.060 C 
BRANCH   7   8
ATOM      8  C2' I4B d   1      -5.346   2.539  -1.811  0.00  0.00    -0.013 C 
ATOM      9  C4' I4B d   1      -3.845   2.640  -1.889  0.00  0.00     0.013 C 
ATOM     10  C3' I4B d   1      -5.786   2.032  -0.470  0.00  0.00     0.013 C 
ENDBRANCH   7   8
ENDBRANCH   1   7
TORSDOF 2
ENDMDL
