MODEL 1
REMARK minimizedAffinity 4.87144232
REMARK minimizedRMSD -1
REMARK  2 active torsions:
REMARK  status: ('A' for Active; 'I' for Inactive)
REMARK    1  A    between atoms: C2'_3  and  C1'_4 
REMARK    2  A    between atoms: C1'_4  and  C1_5 
ROOT
ATOM      1  C1  I4B d   1      -5.925   3.736  -3.535  0.00  0.00    -0.075 A 
ATOM      2  C2  I4B d   1      -5.998   4.507  -2.402  0.00  0.00     0.003 A 
ATOM      3  C3  I4B d   1      -5.965   3.901  -1.123  0.00  0.00     0.002 A 
ATOM      4  C4  I4B d   1      -5.911   2.525  -1.024  0.00  0.00    -0.004 A 
ATOM      5  C5  I4B d   1      -5.814   1.746  -2.174  0.00  0.00     0.002 A 
ATOM      6  C6  I4B d   1      -5.809   2.355  -3.437  0.00  0.00     0.003 A 
ENDROOT
BRANCH   1   7
ATOM      7  C1' I4B d   1      -5.996   4.407  -4.870  0.00  0.00     0.060 C 
BRANCH   7   8
ATOM      8  C2' I4B d   1      -4.687   5.136  -5.095  0.00  0.00    -0.013 C 
ATOM      9  C4' I4B d   1      -3.985   5.412  -3.791  0.00  0.00     0.013 C 
ATOM     10  C3' I4B d   1      -3.838   4.294  -6.000  0.00  0.00     0.013 C 
ENDBRANCH   7   8
ENDBRANCH   1   7
TORSDOF 2
ENDMDL
