MODEL 1
REMARK minimizedAffinity 2.86213207
REMARK minimizedRMSD -1
REMARK  2 active torsions:
REMARK  status: ('A' for Active; 'I' for Inactive)
REMARK    1  A    between atoms: C2'_3  and  C1'_4 
REMARK    2  A    between atoms: C1'_4  and  C1_5 
ROOT
ATOM      1  C1  I4B d   1      -5.362   4.015  -3.579  0.00  0.00    -0.075 A 
ATOM      2  C2  I4B d   1      -6.000   3.722  -4.758  0.00  0.00     0.003 A 
ATOM      3  C3  I4B d   1      -5.438   4.129  -5.992  0.00  0.00     0.002 A 
ATOM      4  C4  I4B d   1      -4.272   4.866  -5.998  0.00  0.00    -0.004 A 
ATOM      5  C5  I4B d   1      -3.615   5.143  -4.803  0.00  0.00     0.002 A 
ATOM      6  C6  I4B d   1      -4.156   4.704  -3.586  0.00  0.00     0.003 A 
ENDROOT
BRANCH   1   7
ATOM      7  C1' I4B d   1      -6.000   3.598  -2.291  0.00  0.00     0.060 C 
BRANCH   7   8
ATOM      8  C2' I4B d   1      -5.353   2.302  -1.848  0.00  0.00    -0.013 C 
ATOM      9  C4' I4B d   1      -6.000   1.115  -2.512  0.00  0.00     0.013 C 
ATOM     10  C3' I4B d   1      -3.892   2.377  -2.178  0.00  0.00     0.013 C 
ENDBRANCH   7   8
ENDBRANCH   1   7
TORSDOF 2
ENDMDL
