MODEL 1
REMARK minimizedAffinity -0.283953905
REMARK minimizedRMSD -1
REMARK  2 active torsions:
REMARK  status: ('A' for Active; 'I' for Inactive)
REMARK    1  A    between atoms: C2'_3  and  C1'_4 
REMARK    2  A    between atoms: C1'_4  and  C1_5 
ROOT
ATOM      1  C1  I4B d   1       0.274  -1.565  -1.939  0.00  0.00    -0.075 A 
ATOM      2  C2  I4B d   1       0.756  -2.307  -0.890  0.00  0.00     0.003 A 
ATOM      3  C3  I4B d   1       0.647  -3.719  -0.906  0.00  0.00     0.002 A 
ATOM      4  C4  I4B d   1       0.007  -4.339  -1.960  0.00  0.00    -0.004 A 
ATOM      5  C5  I4B d   1      -0.460  -3.587  -3.033  0.00  0.00     0.002 A 
ATOM      6  C6  I4B d   1      -0.315  -2.192  -3.029  0.00  0.00     0.003 A 
ENDROOT
BRANCH   1   7
ATOM      7  C1' I4B d   1       0.377  -0.074  -1.874  0.00  0.00     0.060 C 
BRANCH   7   8
ATOM      8  C2' I4B d   1      -0.097   0.368  -0.504  0.00  0.00    -0.013 C 
ATOM      9  C4' I4B d   1       0.226   1.817  -0.257  0.00  0.00     0.013 C 
ATOM     10  C3' I4B d   1      -1.575   0.121  -0.424  0.00  0.00     0.013 C 
ENDBRANCH   7   8
ENDBRANCH   1   7
TORSDOF 2
ENDMDL
