MODEL 1
REMARK minimizedAffinity 10.1447601
REMARK minimizedRMSD -1
REMARK  1 active torsions:
REMARK  status: ('A' for Active; 'I' for Inactive)
REMARK    1  A    between atoms: C1_2  and  C2_3 
ROOT
ATOM      1  C2  UNL d   1       1.340   0.491  -1.131  0.00  0.00    -0.081 A 
ATOM      2  C3  UNL d   1       1.593  -0.773  -0.584  0.00  0.00     0.006 A 
ATOM      3  C4  UNL d   1       1.097  -1.924  -1.200  0.00  0.00     0.002 A 
ATOM      4  C5  UNL d   1       0.346  -1.832  -2.376  0.00  0.00    -0.080 A 
ATOM      5  C6  UNL d   1      -0.167  -3.062  -3.064  0.00  0.00     0.076 C 
ATOM      6  C7  UNL d   1       0.078  -0.569  -2.914  0.00  0.00     0.002 A 
ATOM      7  C8  UNL d   1       0.573   0.583  -2.298  0.00  0.00     0.006 A 
ENDROOT
BRANCH   1   8
ATOM      8  C1  UNL d   1       1.928   1.729  -0.505  0.00  0.00     0.054 C 
ATOM      9  C   UNL d   1       3.448   1.714  -0.570  0.00  0.00     0.018 C 
ENDBRANCH   1   8
TORSDOF 1
ENDMDL
