MODEL 1
REMARK minimizedAffinity 4.87402105
REMARK minimizedRMSD -1
REMARK  1 active torsions:
REMARK  status: ('A' for Active; 'I' for Inactive)
REMARK    1  A    between atoms: C1_2  and  C2_3 
ROOT
ATOM      1  C2  UNL d   1      -1.789   3.123   1.962  0.00  0.00    -0.081 A 
ATOM      2  C3  UNL d   1      -2.089   2.619   3.234  0.00  0.00     0.006 A 
ATOM      3  C4  UNL d   1      -3.389   2.215   3.547  0.00  0.00     0.002 A 
ATOM      4  C5  UNL d   1      -4.409   2.302   2.594  0.00  0.00    -0.080 A 
ATOM      5  C6  UNL d   1      -5.802   1.845   2.908  0.00  0.00     0.076 C 
ATOM      6  C7  UNL d   1      -4.113   2.823   1.329  0.00  0.00     0.002 A 
ATOM      7  C8  UNL d   1      -2.814   3.227   1.015  0.00  0.00     0.006 A 
ENDROOT
BRANCH   1   8
ATOM      8  C1  UNL d   1      -0.375   3.498   1.600  0.00  0.00     0.054 C 
ATOM      9  C   UNL d   1       0.355   2.335   0.943  0.00  0.00     0.018 C 
ENDBRANCH   1   8
TORSDOF 1
ENDMDL
