MODEL 1
REMARK minimizedAffinity 9.40654087
REMARK minimizedRMSD -1
REMARK  1 active torsions:
REMARK  status: ('A' for Active; 'I' for Inactive)
REMARK    1  A    between atoms: C1_2  and  C2_3 
ROOT
ATOM      1  C2  UNL d   1       1.726  -2.985  -1.643  0.00  0.00    -0.081 A 
ATOM      2  C3  UNL d   1       0.844  -3.120  -2.722  0.00  0.00     0.006 A 
ATOM      3  C4  UNL d   1       0.070  -2.036  -3.143  0.00  0.00     0.002 A 
ATOM      4  C5  UNL d   1       0.171  -0.798  -2.500  0.00  0.00    -0.080 A 
ATOM      5  C6  UNL d   1      -0.632   0.381  -2.962  0.00  0.00     0.076 C 
ATOM      6  C7  UNL d   1       1.040  -0.668  -1.411  0.00  0.00     0.002 A 
ATOM      7  C8  UNL d   1       1.813  -1.751  -0.988  0.00  0.00     0.006 A 
ENDROOT
BRANCH   1   8
ATOM      8  C1  UNL d   1       2.610  -4.133  -1.227  0.00  0.00     0.054 C 
ATOM      9  C   UNL d   1       3.411  -4.670  -2.404  0.00  0.00     0.018 C 
ENDBRANCH   1   8
TORSDOF 1
ENDMDL
