MODEL 1
REMARK minimizedAffinity 19.6331177
REMARK minimizedRMSD -1
REMARK  1 active torsions:
REMARK  status: ('A' for Active; 'I' for Inactive)
REMARK    1  A    between atoms: C1_2  and  C2_3 
ROOT
ATOM      1  C2  UNL d   1      -3.349   0.461  -5.092  0.00  0.00    -0.081 A 
ATOM      2  C3  UNL d   1      -3.740  -0.850  -5.391  0.00  0.00     0.006 A 
ATOM      3  C4  UNL d   1      -3.434  -1.897  -4.517  0.00  0.00     0.002 A 
ATOM      4  C5  UNL d   1      -2.741  -1.649  -3.328  0.00  0.00    -0.080 A 
ATOM      5  C6  UNL d   1      -2.433  -2.759  -2.367  0.00  0.00     0.076 C 
ATOM      6  C7  UNL d   1      -2.335  -0.342  -3.037  0.00  0.00     0.002 A 
ATOM      7  C8  UNL d   1      -2.640   0.705  -3.911  0.00  0.00     0.006 A 
ENDROOT
BRANCH   1   8
ATOM      8  C1  UNL d   1      -3.734   1.601  -6.000  0.00  0.00     0.054 C 
ATOM      9  C   UNL d   1      -2.693   2.711  -5.964  0.00  0.00     0.018 C 
ENDBRANCH   1   8
TORSDOF 1
ENDMDL
