MODEL 1
REMARK minimizedAffinity -0.670643151
REMARK minimizedRMSD -1
REMARK  1 active torsions:
REMARK  status: ('A' for Active; 'I' for Inactive)
REMARK    1  A    between atoms: C1_2  and  C2_3 
ROOT
ATOM      1  C2  UNL d   1      -0.195  -0.974  -2.185  0.00  0.00    -0.081 A 
ATOM      2  C3  UNL d   1       0.400  -0.098  -3.102  0.00  0.00     0.006 A 
ATOM      3  C4  UNL d   1       1.267   0.906  -2.663  0.00  0.00     0.002 A 
ATOM      4  C5  UNL d   1       1.560   1.045  -1.303  0.00  0.00    -0.080 A 
ATOM      5  C6  UNL d   1       2.512   2.099  -0.821  0.00  0.00     0.076 C 
ATOM      6  C7  UNL d   1       0.952   0.182  -0.385  0.00  0.00     0.002 A 
ATOM      7  C8  UNL d   1       0.085  -0.821  -0.823  0.00  0.00     0.006 A 
ENDROOT
BRANCH   1   8
ATOM      8  C1  UNL d   1      -1.079  -2.097  -2.661  0.00  0.00     0.054 C 
ATOM      9  C   UNL d   1      -2.550  -1.713  -2.590  0.00  0.00     0.018 C 
ENDBRANCH   1   8
TORSDOF 1
ENDMDL
