MODEL 1
REMARK minimizedAffinity 3.97738624
REMARK minimizedRMSD -1
REMARK  1 active torsions:
REMARK  status: ('A' for Active; 'I' for Inactive)
REMARK    1  A    between atoms: C1_2  and  C2_3 
ROOT
ATOM      1  C2  UNL d   1       1.943  -2.388  -1.254  0.00  0.00    -0.081 A 
ATOM      2  C3  UNL d   1       1.140  -2.086  -2.360  0.00  0.00     0.006 A 
ATOM      3  C4  UNL d   1       0.671  -0.786  -2.562  0.00  0.00     0.002 A 
ATOM      4  C5  UNL d   1       1.004   0.235  -1.666  0.00  0.00    -0.080 A 
ATOM      5  C6  UNL d   1       0.533   1.642  -1.887  0.00  0.00     0.076 C 
ATOM      6  C7  UNL d   1       1.793  -0.069  -0.551  0.00  0.00     0.002 A 
ATOM      7  C8  UNL d   1       2.261  -1.369  -0.349  0.00  0.00     0.006 A 
ENDROOT
BRANCH   1   8
ATOM      8  C1  UNL d   1       2.504  -3.775  -1.069  0.00  0.00     0.054 C 
ATOM      9  C   UNL d   1       3.010  -4.347  -2.386  0.00  0.00     0.018 C 
ENDBRANCH   1   8
TORSDOF 1
ENDMDL
