MODEL 1
REMARK minimizedAffinity 12.1320677
REMARK minimizedRMSD -1
REMARK  1 active torsions:
REMARK  status: ('A' for Active; 'I' for Inactive)
REMARK    1  A    between atoms: C1_2  and  C2_3 
ROOT
ATOM      1  C2  UNL d   1       1.311  -3.146  -1.111  0.00  0.00    -0.081 A 
ATOM      2  C3  UNL d   1       2.057  -4.234  -1.579  0.00  0.00     0.006 A 
ATOM      3  C4  UNL d   1       1.560  -5.046  -2.602  0.00  0.00     0.002 A 
ATOM      4  C5  UNL d   1       0.313  -4.779  -3.177  0.00  0.00    -0.080 A 
ATOM      5  C6  UNL d   1      -0.219  -5.625  -4.296  0.00  0.00     0.076 C 
ATOM      6  C7  UNL d   1      -0.440  -3.702  -2.697  0.00  0.00     0.002 A 
ATOM      7  C8  UNL d   1       0.056  -2.891  -1.675  0.00  0.00     0.006 A 
ENDROOT
BRANCH   1   8
ATOM      8  C1  UNL d   1       1.872  -2.230  -0.053  0.00  0.00     0.054 C 
ATOM      9  C   UNL d   1       1.708  -0.768  -0.444  0.00  0.00     0.018 C 
ENDBRANCH   1   8
TORSDOF 1
ENDMDL
