MODEL 1
REMARK minimizedAffinity 8.14373016
REMARK minimizedRMSD -1
REMARK  1 active torsions:
REMARK  status: ('A' for Active; 'I' for Inactive)
REMARK    1  A    between atoms: C1_2  and  C2_3 
ROOT
ATOM      1  C2  UNL d   1      -1.640  -3.770   1.571  0.00  0.00    -0.081 A 
ATOM      2  C3  UNL d   1      -0.413  -3.123   1.384  0.00  0.00     0.006 A 
ATOM      3  C4  UNL d   1       0.044  -2.829   0.097  0.00  0.00     0.002 A 
ATOM      4  C5  UNL d   1      -0.721  -3.171  -1.023  0.00  0.00    -0.080 A 
ATOM      5  C6  UNL d   1      -0.256  -2.835  -2.409  0.00  0.00     0.076 C 
ATOM      6  C7  UNL d   1      -1.939  -3.834  -0.837  0.00  0.00     0.002 A 
ATOM      7  C8  UNL d   1      -2.396  -4.128   0.449  0.00  0.00     0.006 A 
ENDROOT
BRANCH   1   8
ATOM      8  C1  UNL d   1      -2.166  -4.030   2.960  0.00  0.00     0.054 C 
ATOM      9  C   UNL d   1      -3.236  -3.018   3.344  0.00  0.00     0.018 C 
ENDBRANCH   1   8
TORSDOF 1
ENDMDL
