MODEL 1
REMARK minimizedAffinity 6.69869423
REMARK minimizedRMSD -1
REMARK  1 active torsions:
REMARK  status: ('A' for Active; 'I' for Inactive)
REMARK    1  A    between atoms: C1_2  and  C2_3 
ROOT
ATOM      1  C2  UNL d   1      -4.665  -3.544  -5.252  0.00  0.00    -0.081 A 
ATOM      2  C3  UNL d   1      -4.183  -3.239  -3.973  0.00  0.00     0.006 A 
ATOM      3  C4  UNL d   1      -3.073  -3.911  -3.456  0.00  0.00     0.002 A 
ATOM      4  C5  UNL d   1      -2.423  -4.893  -4.211  0.00  0.00    -0.080 A 
ATOM      5  C6  UNL d   1      -1.212  -5.602  -3.680  0.00  0.00     0.076 C 
ATOM      6  C7  UNL d   1      -2.915  -5.210  -5.482  0.00  0.00     0.002 A 
ATOM      7  C8  UNL d   1      -4.025  -4.539  -5.999  0.00  0.00     0.006 A 
ENDROOT
BRANCH   1   8
ATOM      8  C1  UNL d   1      -5.822  -2.775  -5.838  0.00  0.00     0.054 C 
ATOM      9  C   UNL d   1      -5.950  -1.398  -5.202  0.00  0.00     0.018 C 
ENDBRANCH   1   8
TORSDOF 1
ENDMDL
