MODEL 1
REMARK minimizedAffinity 4.7937398
REMARK minimizedRMSD -1
REMARK  1 active torsions:
REMARK  status: ('A' for Active; 'I' for Inactive)
REMARK    1  A    between atoms: C1_2  and  C2_3 
ROOT
ATOM      1  C2  UNL d   1       0.827   3.624  -0.590  0.00  0.00    -0.081 A 
ATOM      2  C3  UNL d   1       1.763   2.592  -0.736  0.00  0.00     0.006 A 
ATOM      3  C4  UNL d   1       1.453   1.456  -1.487  0.00  0.00     0.002 A 
ATOM      4  C5  UNL d   1       0.207   1.337  -2.113  0.00  0.00    -0.080 A 
ATOM      5  C6  UNL d   1      -0.127   0.137  -2.948  0.00  0.00     0.076 C 
ATOM      6  C7  UNL d   1      -0.734   2.360  -1.953  0.00  0.00     0.002 A 
ATOM      7  C8  UNL d   1      -0.425   3.495  -1.201  0.00  0.00     0.006 A 
ENDROOT
BRANCH   1   8
ATOM      8  C1  UNL d   1       1.182   4.879   0.166  0.00  0.00     0.054 C 
ATOM      9  C   UNL d   1       1.587   5.999  -0.780  0.00  0.00     0.018 C 
ENDBRANCH   1   8
TORSDOF 1
ENDMDL
