MODEL 1
REMARK minimizedAffinity 12.2493296
REMARK minimizedRMSD -1
REMARK  1 active torsions:
REMARK  status: ('A' for Active; 'I' for Inactive)
REMARK    1  A    between atoms: C1_2  and  C2_3 
ROOT
ATOM      1  C2  UNL d   1       2.708  -0.934  -0.561  0.00  0.00    -0.081 A 
ATOM      2  C3  UNL d   1       2.651  -2.233  -1.081  0.00  0.00     0.006 A 
ATOM      3  C4  UNL d   1       1.419  -2.848  -1.317  0.00  0.00     0.002 A 
ATOM      4  C5  UNL d   1       0.225  -2.172  -1.043  0.00  0.00    -0.080 A 
ATOM      5  C6  UNL d   1      -1.105  -2.809  -1.320  0.00  0.00     0.076 C 
ATOM      6  C7  UNL d   1       0.282  -0.881  -0.507  0.00  0.00     0.002 A 
ATOM      7  C8  UNL d   1       1.514  -0.266  -0.271  0.00  0.00     0.006 A 
ENDROOT
BRANCH   1   8
ATOM      8  C1  UNL d   1       4.034  -0.244  -0.367  0.00  0.00     0.054 C 
ATOM      9  C   UNL d   1       3.935   1.243  -0.676  0.00  0.00     0.018 C 
ENDBRANCH   1   8
TORSDOF 1
ENDMDL
