MODEL 1
REMARK minimizedAffinity 5.81578064
REMARK minimizedRMSD -1
REMARK  1 active torsions:
REMARK  status: ('A' for Active; 'I' for Inactive)
REMARK    1  A    between atoms: C1_2  and  C2_3 
ROOT
ATOM      1  C2  UNL d   1      -4.152  -0.030  -5.274  0.00  0.00    -0.081 A 
ATOM      2  C3  UNL d   1      -3.224  -0.080  -4.227  0.00  0.00     0.006 A 
ATOM      3  C4  UNL d   1      -2.855   1.085  -3.551  0.00  0.00     0.002 A 
ATOM      4  C5  UNL d   1      -3.413   2.318  -3.905  0.00  0.00    -0.080 A 
ATOM      5  C6  UNL d   1      -3.048   3.572  -3.168  0.00  0.00     0.076 C 
ATOM      6  C7  UNL d   1      -4.327   2.371  -4.963  0.00  0.00     0.002 A 
ATOM      7  C8  UNL d   1      -4.696   1.206  -5.640  0.00  0.00     0.006 A 
ENDROOT
BRANCH   1   8
ATOM      8  C1  UNL d   1      -4.600  -1.294  -5.963  0.00  0.00     0.054 C 
ATOM      9  C   UNL d   1      -3.694  -2.465  -5.613  0.00  0.00     0.018 C 
ENDBRANCH   1   8
TORSDOF 1
ENDMDL
