MODEL 1
REMARK minimizedAffinity 14.9940653
REMARK minimizedRMSD -1
REMARK  0 active torsions:
REMARK  status: ('A' for Active; 'I' for Inactive)
ROOT
ATOM      1  N1  IND d   1       1.366   1.501  -1.894  0.00  0.00    -0.196 N 
ATOM      2  C2  IND d   1       0.337   2.042  -1.175  0.00  0.00     0.054 A 
ATOM      3  C3  IND d   1      -0.677   2.392  -1.998  0.00  0.00    -0.031 A 
ATOM      4  C4  IND d   1      -0.904   2.077  -4.542  0.00  0.00     0.051 A 
ATOM      5  C5  IND d   1      -0.207   1.662  -5.643  0.00  0.00    -0.031 A 
ATOM      6  C6  IND d   1       1.075   1.159  -5.547  0.00  0.00     0.015 A 
ATOM      7  C7  IND d   1       1.706   1.042  -4.341  0.00  0.00    -0.016 A 
ATOM      8  C8  IND d   1       1.004   1.469  -3.223  0.00  0.00    -0.047 A 
ATOM      9  C9  IND d   1      -0.281   2.019  -3.318  0.00  0.00    -0.096 A 
ATOM     10  HN1 IND d   1       2.114   1.227  -1.570  0.00  0.00     0.298 HD
ENDROOT
TORSDOF 0
ENDMDL
