MODEL 1
REMARK minimizedAffinity 1.72790384
REMARK minimizedRMSD -1
REMARK  0 active torsions:
REMARK  status: ('A' for Active; 'I' for Inactive)
ROOT
ATOM      1  N1  IND d   1      -3.837   1.925  -5.245  0.00  0.00    -0.196 N 
ATOM      2  C2  IND d   1      -5.113   1.813  -5.723  0.00  0.00     0.054 A 
ATOM      3  C3  IND d   1      -5.621   3.035  -6.000  0.00  0.00    -0.031 A 
ATOM      4  C4  IND d   1      -4.498   5.346  -5.842  0.00  0.00     0.051 A 
ATOM      5  C5  IND d   1      -3.351   5.960  -5.424  0.00  0.00    -0.031 A 
ATOM      6  C6  IND d   1      -2.284   5.246  -4.918  0.00  0.00     0.015 A 
ATOM      7  C7  IND d   1      -2.321   3.884  -4.820  0.00  0.00    -0.016 A 
ATOM      8  C8  IND d   1      -3.488   3.257  -5.237  0.00  0.00    -0.047 A 
ATOM      9  C9  IND d   1      -4.589   3.981  -5.712  0.00  0.00    -0.096 A 
ATOM     10  HN1 IND d   1      -3.337   1.273  -4.992  0.00  0.00     0.298 HD
ENDROOT
TORSDOF 0
ENDMDL
