MODEL 1
REMARK minimizedAffinity 14.9455385
REMARK minimizedRMSD -1
REMARK  0 active torsions:
REMARK  status: ('A' for Active; 'I' for Inactive)
ROOT
ATOM      1  N1  IND d   1      -1.354  -3.515   6.000  0.00  0.00    -0.196 N 
ATOM      2  C2  IND d   1      -0.409  -4.131   5.227  0.00  0.00     0.054 A 
ATOM      3  C3  IND d   1       0.048  -3.283   4.279  0.00  0.00    -0.031 A 
ATOM      4  C4  IND d   1      -0.539  -0.809   3.876  0.00  0.00     0.051 A 
ATOM      5  C5  IND d   1      -1.377   0.182   4.303  0.00  0.00    -0.031 A 
ATOM      6  C6  IND d   1      -2.266  -0.011   5.340  0.00  0.00     0.015 A 
ATOM      7  C7  IND d   1      -2.342  -1.205   6.000  0.00  0.00    -0.016 A 
ATOM      8  C8  IND d   1      -1.498  -2.217   5.564  0.00  0.00    -0.047 A 
ATOM      9  C9  IND d   1      -0.624  -2.040   4.484  0.00  0.00    -0.096 A 
ATOM     10  HN1 IND d   1      -1.785  -3.878   6.649  0.00  0.00     0.298 HD
ENDROOT
TORSDOF 0
ENDMDL
