MODEL 1
REMARK minimizedAffinity 11.6048269
REMARK minimizedRMSD -1
REMARK  0 active torsions:
REMARK  status: ('A' for Active; 'I' for Inactive)
ROOT
ATOM      1  N1  IND d   1      -2.983   2.094  -4.837  0.00  0.00    -0.196 N 
ATOM      2  C2  IND d   1      -4.296   2.236  -5.190  0.00  0.00     0.054 A 
ATOM      3  C3  IND d   1      -4.621   3.545  -5.276  0.00  0.00    -0.031 A 
ATOM      4  C4  IND d   1      -3.130   5.623  -4.979  0.00  0.00     0.051 A 
ATOM      5  C5  IND d   1      -1.868   6.000  -4.615  0.00  0.00    -0.031 A 
ATOM      6  C6  IND d   1      -0.892   5.075  -4.304  0.00  0.00     0.015 A 
ATOM      7  C7  IND d   1      -1.141   3.733  -4.355  0.00  0.00    -0.016 A 
ATOM      8  C8  IND d   1      -2.423   3.347  -4.717  0.00  0.00    -0.047 A 
ATOM      9  C9  IND d   1      -3.430   4.281  -4.993  0.00  0.00    -0.096 A 
ATOM     10  HN1 IND d   1      -2.576   1.347  -4.711  0.00  0.00     0.298 HD
ENDROOT
TORSDOF 0
ENDMDL
