MODEL 1
REMARK minimizedAffinity 11.048152
REMARK minimizedRMSD -1
REMARK  0 active torsions:
REMARK  status: ('A' for Active; 'I' for Inactive)
ROOT
ATOM      1  N1  IND d   1      -3.981   1.385  -4.874  0.00  0.00    -0.196 N 
ATOM      2  C2  IND d   1      -5.164   1.501  -5.550  0.00  0.00     0.054 A 
ATOM      3  C3  IND d   1      -5.325   2.766  -6.000  0.00  0.00    -0.031 A 
ATOM      4  C4  IND d   1      -3.730   4.779  -5.829  0.00  0.00     0.051 A 
ATOM      5  C5  IND d   1      -2.545   5.171  -5.271  0.00  0.00    -0.031 A 
ATOM      6  C6  IND d   1      -1.762   4.302  -4.539  0.00  0.00     0.015 A 
ATOM      7  C7  IND d   1      -2.130   3.000  -4.347  0.00  0.00    -0.016 A 
ATOM      8  C8  IND d   1      -3.335   2.601  -4.907  0.00  0.00    -0.047 A 
ATOM      9  C9  IND d   1      -4.156   3.490  -5.614  0.00  0.00    -0.096 A 
ATOM     10  HN1 IND d   1      -3.690   0.671  -4.492  0.00  0.00     0.298 HD
ENDROOT
TORSDOF 0
ENDMDL
