MODEL 1
REMARK minimizedAffinity 15.8367929
REMARK minimizedRMSD -1
REMARK  0 active torsions:
REMARK  status: ('A' for Active; 'I' for Inactive)
ROOT
ATOM      1  N1  IND d   1      -0.844  -4.793   4.591  0.00  0.00    -0.196 N 
ATOM      2  C2  IND d   1       0.258  -4.553   5.363  0.00  0.00     0.054 A 
ATOM      3  C3  IND d   1       0.137  -3.366   6.000  0.00  0.00    -0.031 A 
ATOM      4  C4  IND d   1      -1.829  -1.703   6.000  0.00  0.00     0.051 A 
ATOM      5  C5  IND d   1      -3.043  -1.471   5.417  0.00  0.00    -0.031 A 
ATOM      6  C6  IND d   1      -3.598  -2.352   4.512  0.00  0.00     0.015 A 
ATOM      7  C7  IND d   1      -2.963  -3.511   4.165  0.00  0.00    -0.016 A 
ATOM      8  C8  IND d   1      -1.727  -3.747   4.749  0.00  0.00    -0.047 A 
ATOM      9  C9  IND d   1      -1.139  -2.835   5.635  0.00  0.00    -0.096 A 
ATOM     10  HN1 IND d   1      -0.966  -5.482   4.091  0.00  0.00     0.298 HD
ENDROOT
TORSDOF 0
ENDMDL
