MODEL 1
REMARK minimizedAffinity 21.9754219
REMARK minimizedRMSD -1
REMARK  0 active torsions:
REMARK  status: ('A' for Active; 'I' for Inactive)
ROOT
ATOM      1  N1  IND d   1      -5.880   5.999   1.033  0.00  0.00    -0.196 N 
ATOM      2  C2  IND d   1      -5.999   5.945   2.394  0.00  0.00     0.054 A 
ATOM      3  C3  IND d   1      -5.276   4.917   2.889  0.00  0.00    -0.031 A 
ATOM      4  C4  IND d   1      -3.740   3.256   1.661  0.00  0.00     0.051 A 
ATOM      5  C5  IND d   1      -3.338   2.884   0.408  0.00  0.00    -0.031 A 
ATOM      6  C6  IND d   1      -3.770   3.547  -0.722  0.00  0.00     0.015 A 
ATOM      7  C7  IND d   1      -4.614   4.618  -0.642  0.00  0.00    -0.016 A 
ATOM      8  C8  IND d   1      -5.029   4.993   0.628  0.00  0.00    -0.047 A 
ATOM      9  C9  IND d   1      -4.628   4.298   1.776  0.00  0.00    -0.096 A 
ATOM     10  HN1 IND d   1      -6.270   6.565   0.517  0.00  0.00     0.298 HD
ENDROOT
TORSDOF 0
ENDMDL
