MODEL 1
REMARK minimizedAffinity 9.72888184
REMARK minimizedRMSD -1
REMARK  0 active torsions:
REMARK  status: ('A' for Active; 'I' for Inactive)
ROOT
ATOM      1  N1  IND d   1      -4.784  -5.476   4.127  0.00  0.00    -0.196 N 
ATOM      2  C2  IND d   1      -5.998  -5.350   4.742  0.00  0.00     0.054 A 
ATOM      3  C3  IND d   1      -5.996  -4.283   5.572  0.00  0.00    -0.031 A 
ATOM      4  C4  IND d   1      -4.144  -2.547   6.000  0.00  0.00     0.051 A 
ATOM      5  C5  IND d   1      -2.842  -2.263   5.696  0.00  0.00    -0.031 A 
ATOM      6  C6  IND d   1      -2.107  -3.051   4.834  0.00  0.00     0.015 A 
ATOM      7  C7  IND d   1      -2.652  -4.150   4.232  0.00  0.00    -0.016 A 
ATOM      8  C8  IND d   1      -3.972  -4.444   4.544  0.00  0.00    -0.047 A 
ATOM      9  C9  IND d   1      -4.710  -3.673   5.451  0.00  0.00    -0.096 A 
ATOM     10  HN1 IND d   1      -4.564  -6.096   3.573  0.00  0.00     0.298 HD
ENDROOT
TORSDOF 0
ENDMDL
