MODEL 1
REMARK minimizedAffinity 14.0558729
REMARK minimizedRMSD -1
REMARK  0 active torsions:
REMARK  status: ('A' for Active; 'I' for Inactive)
ROOT
ATOM      1  N1  IND d   1      -0.848  -3.769   3.570  0.00  0.00    -0.196 N 
ATOM      2  C2  IND d   1      -1.317  -3.189   4.715  0.00  0.00     0.054 A 
ATOM      3  C3  IND d   1      -0.763  -1.967   4.884  0.00  0.00    -0.031 A 
ATOM      4  C4  IND d   1       0.858  -0.681   3.354  0.00  0.00     0.051 A 
ATOM      5  C5  IND d   1       1.598  -0.815   2.212  0.00  0.00    -0.031 A 
ATOM      6  C6  IND d   1       1.558  -1.964   1.448  0.00  0.00     0.015 A 
ATOM      7  C7  IND d   1       0.763  -3.020   1.793  0.00  0.00    -0.016 A 
ATOM      8  C8  IND d   1       0.016  -2.890   2.955  0.00  0.00    -0.047 A 
ATOM      9  C9  IND d   1       0.086  -1.744   3.757  0.00  0.00    -0.096 A 
ATOM     10  HN1 IND d   1      -1.058  -4.552   3.282  0.00  0.00     0.298 HD
ENDROOT
TORSDOF 0
ENDMDL
