MODEL 1
REMARK minimizedAffinity 4.87931871
REMARK minimizedRMSD -1
REMARK  0 active torsions:
REMARK  status: ('A' for Active; 'I' for Inactive)
ROOT
ATOM      1  N1  IND d   1      -3.476   1.598  -5.161  0.00  0.00    -0.196 N 
ATOM      2  C2  IND d   1      -4.752   1.506  -5.641  0.00  0.00     0.054 A 
ATOM      3  C3  IND d   1      -5.212   2.729  -5.991  0.00  0.00    -0.031 A 
ATOM      4  C4  IND d   1      -4.005   5.002  -5.954  0.00  0.00     0.051 A 
ATOM      5  C5  IND d   1      -2.838   5.596  -5.563  0.00  0.00    -0.031 A 
ATOM      6  C6  IND d   1      -1.802   4.873  -5.009  0.00  0.00     0.015 A 
ATOM      7  C7  IND d   1      -1.891   3.521  -4.835  0.00  0.00    -0.016 A 
ATOM      8  C8  IND d   1      -3.077   2.915  -5.225  0.00  0.00    -0.047 A 
ATOM      9  C9  IND d   1      -4.148   3.650  -5.749  0.00  0.00    -0.096 A 
ATOM     10  HN1 IND d   1      -3.002   0.943  -4.868  0.00  0.00     0.298 HD
ENDROOT
TORSDOF 0
ENDMDL
