MODEL 1
REMARK minimizedAffinity 21.9370289
REMARK minimizedRMSD -1
REMARK  0 active torsions:
REMARK  status: ('A' for Active; 'I' for Inactive)
ROOT
ATOM      1  N1  IND d   1      -5.064   4.233   1.687  0.00  0.00    -0.196 N 
ATOM      2  C2  IND d   1      -4.992   5.528   1.257  0.00  0.00     0.054 A 
ATOM      3  C3  IND d   1      -3.921   5.696   0.448  0.00  0.00    -0.031 A 
ATOM      4  C4  IND d   1      -2.214   3.959  -0.386  0.00  0.00     0.051 A 
ATOM      5  C5  IND d   1      -1.847   2.651  -0.236  0.00  0.00    -0.031 A 
ATOM      6  C6  IND d   1      -2.549   1.785   0.577  0.00  0.00     0.015 A 
ATOM      7  C7  IND d   1      -3.657   2.194   1.265  0.00  0.00    -0.016 A 
ATOM      8  C8  IND d   1      -4.028   3.524   1.120  0.00  0.00    -0.047 A 
ATOM      9  C9  IND d   1      -3.294   4.417   0.330  0.00  0.00    -0.096 A 
ATOM     10  HN1 IND d   1      -5.657   3.915   2.222  0.00  0.00     0.298 HD
ENDROOT
TORSDOF 0
ENDMDL
