MODEL 1
REMARK minimizedAffinity 17.1968708
REMARK minimizedRMSD -1
REMARK  0 active torsions:
REMARK  status: ('A' for Active; 'I' for Inactive)
ROOT
ATOM      1  N1  IND d   1       0.848   0.834   1.926  0.00  0.00    -0.196 N 
ATOM      2  C2  IND d   1       0.248   0.263   3.014  0.00  0.00     0.054 A 
ATOM      3  C3  IND d   1      -1.090   0.446   2.964  0.00  0.00    -0.031 A 
ATOM      4  C4  IND d   1      -2.521   1.565   1.140  0.00  0.00     0.051 A 
ATOM      5  C5  IND d   1      -2.420   2.267  -0.029  0.00  0.00    -0.031 A 
ATOM      6  C6  IND d   1      -1.201   2.530  -0.618  0.00  0.00     0.015 A 
ATOM      7  C7  IND d   1      -0.032   2.089  -0.065  0.00  0.00    -0.016 A 
ATOM      8  C8  IND d   1      -0.130   1.382   1.125  0.00  0.00    -0.047 A 
ATOM      9  C9  IND d   1      -1.361   1.149   1.750  0.00  0.00    -0.096 A 
ATOM     10  HN1 IND d   1       1.693   0.849   1.769  0.00  0.00     0.298 HD
ENDROOT
TORSDOF 0
ENDMDL
