MODEL 1
REMARK minimizedAffinity 3.6818819
REMARK minimizedRMSD -1
REMARK  0 active torsions:
REMARK  status: ('A' for Active; 'I' for Inactive)
ROOT
ATOM      1  N1  IND d   1      -4.206   2.937  -5.999  0.00  0.00    -0.196 N 
ATOM      2  C2  IND d   1      -3.989   1.819  -5.243  0.00  0.00     0.054 A 
ATOM      3  C3  IND d   1      -3.023   2.050  -4.326  0.00  0.00    -0.031 A 
ATOM      4  C4  IND d   1      -1.733   4.220  -3.822  0.00  0.00     0.051 A 
ATOM      5  C5  IND d   1      -1.558   5.499  -4.272  0.00  0.00    -0.031 A 
ATOM      6  C6  IND d   1      -2.273   6.000  -5.340  0.00  0.00     0.015 A 
ATOM      7  C7  IND d   1      -3.202   5.241  -5.994  0.00  0.00    -0.016 A 
ATOM      8  C8  IND d   1      -3.377   3.940  -5.545  0.00  0.00    -0.047 A 
ATOM      9  C9  IND d   1      -2.624   3.412  -4.488  0.00  0.00    -0.096 A 
ATOM     10  HN1 IND d   1      -4.765   3.003  -6.649  0.00  0.00     0.298 HD
ENDROOT
TORSDOF 0
ENDMDL
