MODEL 1
REMARK minimizedAffinity 7.28761292
REMARK minimizedRMSD -1
REMARK  0 active torsions:
REMARK  status: ('A' for Active; 'I' for Inactive)
ROOT
ATOM      1  N1  IND d   1      -5.598  -2.988   5.999  0.00  0.00    -0.196 N 
ATOM      2  C2  IND d   1      -5.944  -4.193   5.454  0.00  0.00     0.054 A 
ATOM      3  C3  IND d   1      -4.899  -4.722   4.780  0.00  0.00    -0.031 A 
ATOM      4  C4  IND d   1      -2.496  -3.833   4.529  0.00  0.00     0.051 A 
ATOM      5  C5  IND d   1      -1.711  -2.753   4.820  0.00  0.00    -0.031 A 
ATOM      6  C6  IND d   1      -2.191  -1.675   5.536  0.00  0.00     0.015 A 
ATOM      7  C7  IND d   1      -3.475  -1.643   6.000  0.00  0.00    -0.016 A 
ATOM      8  C8  IND d   1      -4.277  -2.735   5.700  0.00  0.00    -0.047 A 
ATOM      9  C9  IND d   1      -3.809  -3.812   4.937  0.00  0.00    -0.096 A 
ATOM     10  HN1 IND d   1      -6.117  -2.475   6.453  0.00  0.00     0.298 HD
ENDROOT
TORSDOF 0
ENDMDL
