MODEL 1
REMARK minimizedAffinity 2.78060675
REMARK minimizedRMSD -1
REMARK  0 active torsions:
REMARK  status: ('A' for Active; 'I' for Inactive)
ROOT
ATOM      1  N1  IND d   1      -4.722   3.382  -5.325  0.00  0.00    -0.196 N 
ATOM      2  C2  IND d   1      -4.417   2.124  -4.885  0.00  0.00     0.054 A 
ATOM      3  C3  IND d   1      -3.118   2.057  -4.517  0.00  0.00    -0.031 A 
ATOM      4  C4  IND d   1      -1.336   3.914  -4.456  0.00  0.00     0.051 A 
ATOM      5  C5  IND d   1      -1.131   5.222  -4.797  0.00  0.00    -0.031 A 
ATOM      6  C6  IND d   1      -2.134   5.999  -5.339  0.00  0.00     0.015 A 
ATOM      7  C7  IND d   1      -3.388   5.499  -5.552  0.00  0.00    -0.016 A 
ATOM      8  C8  IND d   1      -3.597   4.170  -5.214  0.00  0.00    -0.047 A 
ATOM      9  C9  IND d   1      -2.572   3.364  -4.702  0.00  0.00    -0.096 A 
ATOM     10  HN1 IND d   1      -5.487   3.638  -5.621  0.00  0.00     0.298 HD
ENDROOT
TORSDOF 0
ENDMDL
