MODEL 1
REMARK minimizedAffinity 0.261405647
REMARK minimizedRMSD -1
REMARK  0 active torsions:
REMARK  status: ('A' for Active; 'I' for Inactive)
ROOT
ATOM      1  N1  IND d   1      -4.522   2.118  -5.135  0.00  0.00    -0.196 N 
ATOM      2  C2  IND d   1      -5.743   2.257  -5.734  0.00  0.00     0.054 A 
ATOM      3  C3  IND d   1      -5.993   3.559  -5.998  0.00  0.00    -0.031 A 
ATOM      4  C4  IND d   1      -4.495   5.619  -5.626  0.00  0.00     0.051 A 
ATOM      5  C5  IND d   1      -3.304   6.000  -5.074  0.00  0.00    -0.031 A 
ATOM      6  C6  IND d   1      -2.439   5.087  -4.506  0.00  0.00     0.015 A 
ATOM      7  C7  IND d   1      -2.730   3.752  -4.478  0.00  0.00    -0.016 A 
ATOM      8  C8  IND d   1      -3.942   3.363  -5.031  0.00  0.00    -0.047 A 
ATOM      9  C9  IND d   1      -4.843   4.290  -5.571  0.00  0.00    -0.096 A 
ATOM     10  HN1 IND d   1      -4.175   1.378  -4.869  0.00  0.00     0.298 HD
ENDROOT
TORSDOF 0
ENDMDL
