MODEL 1
REMARK minimizedAffinity 0.465114534
REMARK minimizedRMSD -1
REMARK  0 active torsions:
REMARK  status: ('A' for Active; 'I' for Inactive)
ROOT
ATOM      1  N1  IND d   1      -3.488   2.078  -5.233  0.00  0.00    -0.196 N 
ATOM      2  C2  IND d   1      -4.783   2.111  -5.670  0.00  0.00     0.054 A 
ATOM      3  C3  IND d   1      -5.136   3.374  -5.999  0.00  0.00    -0.031 A 
ATOM      4  C4  IND d   1      -3.717   5.522  -5.996  0.00  0.00     0.051 A 
ATOM      5  C5  IND d   1      -2.486   6.000  -5.642  0.00  0.00    -0.031 A 
ATOM      6  C6  IND d   1      -1.506   5.177  -5.126  0.00  0.00     0.015 A 
ATOM      7  C7  IND d   1      -1.717   3.838  -4.954  0.00  0.00    -0.016 A 
ATOM      8  C8  IND d   1      -2.968   3.351  -5.306  0.00  0.00    -0.047 A 
ATOM      9  C9  IND d   1      -3.981   4.189  -5.790  0.00  0.00    -0.096 A 
ATOM     10  HN1 IND d   1      -3.069   1.379  -4.958  0.00  0.00     0.298 HD
ENDROOT
TORSDOF 0
ENDMDL
