MODEL 1
REMARK minimizedAffinity 1.2397666
REMARK minimizedRMSD -1
REMARK  2 active torsions:
REMARK  status: ('A' for Active; 'I' for Inactive)
REMARK    1  A    between atoms: C1_2  and  C2_3 
REMARK    2  A    between atoms: C2_3  and  C3_4 
ROOT
ATOM      1  C3  UNL d   1      -4.061   0.330   4.828  0.00  0.00    -0.075 A 
ATOM      2  C4  UNL d   1      -4.823  -0.806   4.519  0.00  0.00     0.002 A 
ATOM      3  C5  UNL d   1      -4.465  -1.630   3.452  0.00  0.00     0.002 A 
ATOM      4  C6  UNL d   1      -3.350  -1.325   2.676  0.00  0.00    -0.004 A 
ATOM      5  C7  UNL d   1      -2.595  -0.190   2.963  0.00  0.00     0.002 A 
ATOM      6  C8  UNL d   1      -2.948   0.635   4.033  0.00  0.00     0.002 A 
ENDROOT
BRANCH   1   7
ATOM      7  C2  UNL d   1      -4.425   1.210   6.000  0.00  0.00     0.056 C 
BRANCH   7   8
ATOM      8  C1  UNL d   1      -4.319   2.711   5.710  0.00  0.00     0.007 C 
ATOM      9  C   UNL d   1      -5.638   3.451   5.883  0.00  0.00     0.009 C 
ENDBRANCH   7   8
ENDBRANCH   1   7
TORSDOF 2
ENDMDL
