MODEL 1
REMARK minimizedAffinity 6.65859747
REMARK minimizedRMSD -1
REMARK  2 active torsions:
REMARK  status: ('A' for Active; 'I' for Inactive)
REMARK    1  A    between atoms: C1_2  and  C2_3 
REMARK    2  A    between atoms: C2_3  and  C3_4 
ROOT
ATOM      1  C3  UNL d   1      -4.185  -1.346   2.562  0.00  0.00    -0.075 A 
ATOM      2  C4  UNL d   1      -2.827  -1.045   2.740  0.00  0.00     0.002 A 
ATOM      3  C5  UNL d   1      -2.255   0.053   2.097  0.00  0.00     0.002 A 
ATOM      4  C6  UNL d   1      -3.028   0.856   1.261  0.00  0.00    -0.004 A 
ATOM      5  C7  UNL d   1      -4.374   0.556   1.064  0.00  0.00     0.002 A 
ATOM      6  C8  UNL d   1      -4.951  -0.539   1.710  0.00  0.00     0.002 A 
ENDROOT
BRANCH   1   7
ATOM      7  C2  UNL d   1      -4.818  -2.515   3.279  0.00  0.00     0.056 C 
BRANCH   7   8
ATOM      8  C1  UNL d   1      -5.202  -3.678   2.357  0.00  0.00     0.007 C 
ATOM      9  C   UNL d   1      -5.801  -4.862   3.103  0.00  0.00     0.009 C 
ENDBRANCH   7   8
ENDBRANCH   1   7
TORSDOF 2
ENDMDL
