MODEL 1
REMARK minimizedAffinity 7.84296942
REMARK minimizedRMSD -1
REMARK  2 active torsions:
REMARK  status: ('A' for Active; 'I' for Inactive)
REMARK    1  A    between atoms: C1_2  and  C2_3 
REMARK    2  A    between atoms: C2_3  and  C3_4 
ROOT
ATOM      1  C3  UNL d   1       3.094   3.342  -3.185  0.00  0.00    -0.075 A 
ATOM      2  C4  UNL d   1       3.072   2.304  -2.243  0.00  0.00     0.002 A 
ATOM      3  C5  UNL d   1       2.043   2.221  -1.304  0.00  0.00     0.002 A 
ATOM      4  C6  UNL d   1       1.031   3.178  -1.289  0.00  0.00    -0.004 A 
ATOM      5  C7  UNL d   1       1.052   4.223  -2.210  0.00  0.00     0.002 A 
ATOM      6  C8  UNL d   1       2.077   4.307  -3.153  0.00  0.00     0.002 A 
ENDROOT
BRANCH   1   7
ATOM      7  C2  UNL d   1       4.188   3.421  -4.223  0.00  0.00     0.056 C 
BRANCH   7   8
ATOM      8  C1  UNL d   1       5.556   3.819  -3.657  0.00  0.00     0.007 C 
ATOM      9  C   UNL d   1       5.492   5.012  -2.714  0.00  0.00     0.009 C 
ENDBRANCH   7   8
ENDBRANCH   1   7
TORSDOF 2
ENDMDL
