MODEL 1
REMARK minimizedAffinity 6.84313869
REMARK minimizedRMSD -1
REMARK  2 active torsions:
REMARK  status: ('A' for Active; 'I' for Inactive)
REMARK    1  A    between atoms: C1_2  and  C2_3 
REMARK    2  A    between atoms: C2_3  and  C3_4 
ROOT
ATOM      1  C3  UNL d   1       4.016   3.069  -1.133  0.00  0.00    -0.075 A 
ATOM      2  C4  UNL d   1       3.175   2.285  -0.331  0.00  0.00     0.002 A 
ATOM      3  C5  UNL d   1       3.246   2.366   1.060  0.00  0.00     0.002 A 
ATOM      4  C6  UNL d   1       4.164   3.222   1.665  0.00  0.00    -0.004 A 
ATOM      5  C7  UNL d   1       5.016   3.993   0.878  0.00  0.00     0.002 A 
ATOM      6  C8  UNL d   1       4.944   3.917  -0.514  0.00  0.00     0.002 A 
ENDROOT
BRANCH   1   7
ATOM      7  C2  UNL d   1       3.924   3.008  -2.639  0.00  0.00     0.056 C 
BRANCH   7   8
ATOM      8  C1  UNL d   1       4.287   4.321  -3.340  0.00  0.00     0.007 C 
ATOM      9  C   UNL d   1       4.794   4.123  -4.763  0.00  0.00     0.009 C 
ENDBRANCH   7   8
ENDBRANCH   1   7
TORSDOF 2
ENDMDL
