MODEL 1
REMARK minimizedAffinity 9.78659058
REMARK minimizedRMSD -1
REMARK  2 active torsions:
REMARK  status: ('A' for Active; 'I' for Inactive)
REMARK    1  A    between atoms: C1_2  and  C2_3 
REMARK    2  A    between atoms: C2_3  and  C3_4 
ROOT
ATOM      1  C3  UNL d   1       3.643   3.024  -3.750  0.00  0.00    -0.075 A 
ATOM      2  C4  UNL d   1       3.158   4.295  -4.092  0.00  0.00     0.002 A 
ATOM      3  C5  UNL d   1       3.873   5.113  -4.968  0.00  0.00     0.002 A 
ATOM      4  C6  UNL d   1       5.082   4.676  -5.504  0.00  0.00    -0.004 A 
ATOM      5  C7  UNL d   1       5.581   3.422  -5.158  0.00  0.00     0.002 A 
ATOM      6  C8  UNL d   1       4.866   2.600  -4.285  0.00  0.00     0.002 A 
ENDROOT
BRANCH   1   7
ATOM      7  C2  UNL d   1       2.860   2.123  -2.825  0.00  0.00     0.056 C 
BRANCH   7   8
ATOM      8  C1  UNL d   1       3.620   1.718  -1.558  0.00  0.00     0.007 C 
ATOM      9  C   UNL d   1       2.703   1.310  -0.412  0.00  0.00     0.009 C 
ENDBRANCH   7   8
ENDBRANCH   1   7
TORSDOF 2
ENDMDL
