MODEL 1
REMARK minimizedAffinity 10.774168
REMARK minimizedRMSD -1
REMARK  2 active torsions:
REMARK  status: ('A' for Active; 'I' for Inactive)
REMARK    1  A    between atoms: C1_2  and  C2_3 
REMARK    2  A    between atoms: C2_3  and  C3_4 
ROOT
ATOM      1  C3  UNL d   1      -2.147  -1.425   1.758  0.00  0.00    -0.075 A 
ATOM      2  C4  UNL d   1      -1.493  -0.825   2.844  0.00  0.00     0.002 A 
ATOM      3  C5  UNL d   1      -1.902   0.423   3.316  0.00  0.00     0.002 A 
ATOM      4  C6  UNL d   1      -2.961   1.090   2.703  0.00  0.00    -0.004 A 
ATOM      5  C7  UNL d   1      -3.607   0.511   1.613  0.00  0.00     0.002 A 
ATOM      6  C8  UNL d   1      -3.202  -0.740   1.142  0.00  0.00     0.002 A 
ENDROOT
BRANCH   1   7
ATOM      7  C2  UNL d   1      -1.728  -2.788   1.261  0.00  0.00     0.056 C 
BRANCH   7   8
ATOM      8  C1  UNL d   1      -2.848  -3.833   1.288  0.00  0.00     0.007 C 
ATOM      9  C   UNL d   1      -3.848  -3.613   2.415  0.00  0.00     0.009 C 
ENDBRANCH   7   8
ENDBRANCH   1   7
TORSDOF 2
ENDMDL
