MODEL 1
REMARK minimizedAffinity 8.19313431
REMARK minimizedRMSD -1
REMARK  2 active torsions:
REMARK  status: ('A' for Active; 'I' for Inactive)
REMARK    1  A    between atoms: C1_2  and  C2_3 
REMARK    2  A    between atoms: C2_3  and  C3_4 
ROOT
ATOM      1  C3  UNL d   1      -4.316  -5.220   2.769  0.00  0.00    -0.075 A 
ATOM      2  C4  UNL d   1      -3.648  -5.999   1.813  0.00  0.00     0.002 A 
ATOM      3  C5  UNL d   1      -2.635  -5.445   1.030  0.00  0.00     0.002 A 
ATOM      4  C6  UNL d   1      -2.284  -4.105   1.185  0.00  0.00    -0.004 A 
ATOM      5  C7  UNL d   1      -2.952  -3.318   2.120  0.00  0.00     0.002 A 
ATOM      6  C8  UNL d   1      -3.963  -3.871   2.908  0.00  0.00     0.002 A 
ENDROOT
BRANCH   1   7
ATOM      7  C2  UNL d   1      -5.392  -5.822   3.640  0.00  0.00     0.056 C 
BRANCH   7   8
ATOM      8  C1  UNL d   1      -5.041  -5.858   5.131  0.00  0.00     0.007 C 
ATOM      9  C   UNL d   1      -5.641  -4.701   5.918  0.00  0.00     0.009 C 
ENDBRANCH   7   8
ENDBRANCH   1   7
TORSDOF 2
ENDMDL
