MODEL 1
REMARK minimizedAffinity 13.9273624
REMARK minimizedRMSD -1
REMARK  2 active torsions:
REMARK  status: ('A' for Active; 'I' for Inactive)
REMARK    1  A    between atoms: C1_2  and  C2_3 
REMARK    2  A    between atoms: C2_3  and  C3_4 
ROOT
ATOM      1  C3  UNL d   1      -4.349  -3.634   3.724  0.00  0.00    -0.075 A 
ATOM      2  C4  UNL d   1      -4.584  -3.642   5.106  0.00  0.00     0.002 A 
ATOM      3  C5  UNL d   1      -4.957  -4.820   5.754  0.00  0.00     0.002 A 
ATOM      4  C6  UNL d   1      -5.109  -6.000   5.029  0.00  0.00    -0.004 A 
ATOM      5  C7  UNL d   1      -4.894  -5.999   3.653  0.00  0.00     0.002 A 
ATOM      6  C8  UNL d   1      -4.517  -4.823   3.002  0.00  0.00     0.002 A 
ENDROOT
BRANCH   1   7
ATOM      7  C2  UNL d   1      -3.917  -2.369   3.021  0.00  0.00     0.056 C 
BRANCH   7   8
ATOM      8  C1  UNL d   1      -2.400  -2.241   2.845  0.00  0.00     0.007 C 
ATOM      9  C   UNL d   1      -1.972  -0.885   2.300  0.00  0.00     0.009 C 
ENDBRANCH   7   8
ENDBRANCH   1   7
TORSDOF 2
ENDMDL
