MODEL 1
REMARK minimizedAffinity 9.37601852
REMARK minimizedRMSD -1
REMARK  2 active torsions:
REMARK  status: ('A' for Active; 'I' for Inactive)
REMARK    1  A    between atoms: C1_2  and  C2_3 
REMARK    2  A    between atoms: C2_3  and  C3_4 
ROOT
ATOM      1  C3  UNL d   1       3.565   3.165  -3.005  0.00  0.00    -0.075 A 
ATOM      2  C4  UNL d   1       2.417   3.783  -3.521  0.00  0.00     0.002 A 
ATOM      3  C5  UNL d   1       1.148   3.312  -3.185  0.00  0.00     0.002 A 
ATOM      4  C6  UNL d   1       1.010   2.214  -2.339  0.00  0.00    -0.004 A 
ATOM      5  C7  UNL d   1       2.144   1.582  -1.833  0.00  0.00     0.002 A 
ATOM      6  C8  UNL d   1       3.416   2.054  -2.164  0.00  0.00     0.002 A 
ENDROOT
BRANCH   1   7
ATOM      7  C2  UNL d   1       4.942   3.688  -3.341  0.00  0.00     0.056 C 
BRANCH   7   8
ATOM      8  C1  UNL d   1       5.383   4.878  -2.483  0.00  0.00     0.007 C 
ATOM      9  C   UNL d   1       5.998   4.464  -1.153  0.00  0.00     0.009 C 
ENDBRANCH   7   8
ENDBRANCH   1   7
TORSDOF 2
ENDMDL
