MODEL 1
REMARK minimizedAffinity -5.30062103
REMARK minimizedRMSD -1
REMARK  2 active torsions:
REMARK  status: ('A' for Active; 'I' for Inactive)
REMARK    1  A    between atoms: C2'_3  and  C1'_4 
REMARK    2  A    between atoms: C1'_4  and  C1_5 
ROOT
ATOM      1  C1  I4B d   1       0.255  -0.957   0.783  0.00  0.00    -0.075 A 
ATOM      2  C2  I4B d   1      -1.103  -1.157   0.795  0.00  0.00     0.003 A 
ATOM      3  C3  I4B d   1      -1.858  -0.845   1.952  0.00  0.00     0.002 A 
ATOM      4  C4  I4B d   1      -1.213  -0.387   3.082  0.00  0.00    -0.004 A 
ATOM      5  C5  I4B d   1       0.161  -0.164   3.060  0.00  0.00     0.002 A 
ATOM      6  C6  I4B d   1       0.898  -0.439   1.899  0.00  0.00     0.003 A 
ENDROOT
BRANCH   1   7
ATOM      7  C1' I4B d   1       1.027  -1.328  -0.444  0.00  0.00     0.060 C 
BRANCH   7   8
ATOM      8  C2' I4B d   1       0.298  -0.759  -1.644  0.00  0.00    -0.013 C 
ATOM      9  C4' I4B d   1       0.214   0.743  -1.569  0.00  0.00     0.013 C 
ATOM     10  C3' I4B d   1       1.025  -1.199  -2.879  0.00  0.00     0.013 C 
ENDBRANCH   7   8
ENDBRANCH   1   7
TORSDOF 2
ENDMDL
