MODEL 1
REMARK minimizedAffinity -6.77462101
REMARK minimizedRMSD -1
REMARK  2 active torsions:
REMARK  status: ('A' for Active; 'I' for Inactive)
REMARK    1  A    between atoms: C2'_3  and  C1'_4 
REMARK    2  A    between atoms: C1'_4  and  C1_5 
ROOT
ATOM      1  C1  I4B d   1      -0.554   0.122   1.113  0.00  0.00    -0.075 A 
ATOM      2  C2  I4B d   1       0.054  -0.228   2.293  0.00  0.00     0.003 A 
ATOM      3  C3  I4B d   1      -0.722  -0.464   3.453  0.00  0.00     0.002 A 
ATOM      4  C4  I4B d   1      -2.090  -0.290   3.402  0.00  0.00    -0.004 A 
ATOM      5  C5  I4B d   1      -2.708   0.044   2.200  0.00  0.00     0.002 A 
ATOM      6  C6  I4B d   1      -1.937   0.239   1.045  0.00  0.00     0.003 A 
ENDROOT
BRANCH   1   7
ATOM      7  C1' I4B d   1       0.299   0.396  -0.084  0.00  0.00     0.060 C 
BRANCH   7   8
ATOM      8  C2' I4B d   1      -0.548   0.175  -1.321  0.00  0.00    -0.013 C 
ATOM      9  C4' I4B d   1      -1.203   1.455  -1.769  0.00  0.00     0.013 C 
ATOM     10  C3' I4B d   1       0.337  -0.385  -2.394  0.00  0.00     0.013 C 
ENDBRANCH   7   8
ENDBRANCH   1   7
TORSDOF 2
ENDMDL
