MODEL 1
REMARK minimizedAffinity -5.54945898
REMARK minimizedRMSD -1
REMARK  2 active torsions:
REMARK  status: ('A' for Active; 'I' for Inactive)
REMARK    1  A    between atoms: C2'_3  and  C1'_4 
REMARK    2  A    between atoms: C1'_4  and  C1_5 
ROOT
ATOM      1  C1  I4B d   1       0.148   0.559   0.608  0.00  0.00    -0.075 A 
ATOM      2  C2  I4B d   1       0.855   0.616   1.782  0.00  0.00     0.003 A 
ATOM      3  C3  I4B d   1       0.281   0.136   2.984  0.00  0.00     0.002 A 
ATOM      4  C4  I4B d   1      -1.013  -0.344   2.975  0.00  0.00    -0.004 A 
ATOM      5  C5  I4B d   1      -1.720  -0.423   1.779  0.00  0.00     0.002 A 
ATOM      6  C6  I4B d   1      -1.132   0.020   0.585  0.00  0.00     0.003 A 
ENDROOT
BRANCH   1   7
ATOM      7  C1' I4B d   1       0.772   1.105  -0.637  0.00  0.00     0.060 C 
BRANCH   7   8
ATOM      8  C2' I4B d   1      -0.088   0.688  -1.813  0.00  0.00    -0.013 C 
ATOM      9  C4' I4B d   1      -0.958   1.823  -2.282  0.00  0.00     0.013 C 
ATOM     10  C3' I4B d   1       0.822   0.215  -2.907  0.00  0.00     0.013 C 
ENDBRANCH   7   8
ENDBRANCH   1   7
TORSDOF 2
ENDMDL
