MODEL 1
REMARK minimizedAffinity -3.37974501
REMARK minimizedRMSD -1
REMARK  2 active torsions:
REMARK  status: ('A' for Active; 'I' for Inactive)
REMARK    1  A    between atoms: C2'_3  and  C1'_4 
REMARK    2  A    between atoms: C1'_4  and  C1_5 
ROOT
ATOM      1  C1  I4B d   1       0.035   0.191   1.072  0.00  0.00    -0.075 A 
ATOM      2  C2  I4B d   1       0.581   0.359   2.320  0.00  0.00     0.003 A 
ATOM      3  C3  I4B d   1      -0.120  -0.077   3.470  0.00  0.00     0.002 A 
ATOM      4  C4  I4B d   1      -1.379  -0.626   3.330  0.00  0.00    -0.004 A 
ATOM      5  C5  I4B d   1      -1.922  -0.816   2.063  0.00  0.00     0.002 A 
ATOM      6  C6  I4B d   1      -1.205  -0.416   0.925  0.00  0.00     0.003 A 
ENDROOT
BRANCH   1   7
ATOM      7  C1' I4B d   1       0.789   0.693  -0.118  0.00  0.00     0.060 C 
BRANCH   7   8
ATOM      8  C2' I4B d   1       0.020   0.293  -1.361  0.00  0.00    -0.013 C 
ATOM      9  C4' I4B d   1      -0.959   1.363  -1.764  0.00  0.00     0.013 C 
ATOM     10  C3' I4B d   1       1.012   0.027  -2.454  0.00  0.00     0.013 C 
ENDBRANCH   7   8
ENDBRANCH   1   7
TORSDOF 2
ENDMDL
