MODEL 1
REMARK minimizedAffinity -5.44220877
REMARK minimizedRMSD -1
REMARK  2 active torsions:
REMARK  status: ('A' for Active; 'I' for Inactive)
REMARK    1  A    between atoms: C2'_3  and  C1'_4 
REMARK    2  A    between atoms: C1'_4  and  C1_5 
ROOT
ATOM      1  C1  I4B d   1      -0.532  -0.052   0.333  0.00  0.00    -0.075 A 
ATOM      2  C2  I4B d   1       0.736   0.218   0.784  0.00  0.00     0.003 A 
ATOM      3  C3  I4B d   1       0.997   0.295   2.174  0.00  0.00     0.002 A 
ATOM      4  C4  I4B d   1      -0.042   0.146   3.070  0.00  0.00    -0.004 A 
ATOM      5  C5  I4B d   1      -1.322  -0.151   2.611  0.00  0.00     0.002 A 
ATOM      6  C6  I4B d   1      -1.567  -0.263   1.235  0.00  0.00     0.003 A 
ENDROOT
BRANCH   1   7
ATOM      7  C1' I4B d   1      -0.779  -0.093  -1.142  0.00  0.00     0.060 C 
BRANCH   7   8
ATOM      8  C2' I4B d   1       0.231   0.818  -1.809  0.00  0.00    -0.013 C 
ATOM      9  C4' I4B d   1       0.812   0.177  -3.042  0.00  0.00     0.013 C 
ATOM     10  C3' I4B d   1      -0.459   2.107  -2.143  0.00  0.00     0.013 C 
ENDBRANCH   7   8
ENDBRANCH   1   7
TORSDOF 2
ENDMDL
