MODEL 1
REMARK minimizedAffinity -4.78998709
REMARK minimizedRMSD -1
REMARK  2 active torsions:
REMARK  status: ('A' for Active; 'I' for Inactive)
REMARK    1  A    between atoms: C2'_3  and  C1'_4 
REMARK    2  A    between atoms: C1'_4  and  C1_5 
ROOT
ATOM      1  C1  I4B d   1      -0.069   0.247  -0.026  0.00  0.00    -0.075 A 
ATOM      2  C2  I4B d   1      -1.006  -0.425   0.719  0.00  0.00     0.003 A 
ATOM      3  C3  I4B d   1      -0.829  -0.581   2.115  0.00  0.00     0.002 A 
ATOM      4  C4  I4B d   1       0.316  -0.097   2.713  0.00  0.00    -0.004 A 
ATOM      5  C5  I4B d   1       1.254   0.604   1.961  0.00  0.00     0.002 A 
ATOM      6  C6  I4B d   1       1.055   0.789   0.585  0.00  0.00     0.003 A 
ENDROOT
BRANCH   1   7
ATOM      7  C1' I4B d   1      -0.271   0.365  -1.503  0.00  0.00     0.060 C 
BRANCH   7   8
ATOM      8  C2' I4B d   1       0.578  -0.694  -2.177  0.00  0.00    -0.013 C 
ATOM      9  C4' I4B d   1      -0.279  -1.751  -2.821  0.00  0.00     0.013 C 
ATOM     10  C3' I4B d   1       1.451  -0.013  -3.188  0.00  0.00     0.013 C 
ENDBRANCH   7   8
ENDBRANCH   1   7
TORSDOF 2
ENDMDL
