MODEL 1
REMARK minimizedAffinity 3.01291013
REMARK minimizedRMSD -1
REMARK  2 active torsions:
REMARK  status: ('A' for Active; 'I' for Inactive)
REMARK    1  A    between atoms: C2'_3  and  C1'_4 
REMARK    2  A    between atoms: C1'_4  and  C1_5 
ROOT
ATOM      1  C1  I4B d   1       0.732   0.033   1.045  0.00  0.00    -0.075 A 
ATOM      2  C2  I4B d   1       1.530   1.120   1.301  0.00  0.00     0.003 A 
ATOM      3  C3  I4B d   1       1.547   1.702   2.592  0.00  0.00     0.002 A 
ATOM      4  C4  I4B d   1       0.719   1.201   3.575  0.00  0.00    -0.004 A 
ATOM      5  C5  I4B d   1      -0.073   0.085   3.320  0.00  0.00     0.002 A 
ATOM      6  C6  I4B d   1      -0.057  -0.511   2.050  0.00  0.00     0.003 A 
ENDROOT
BRANCH   1   7
ATOM      7  C1' I4B d   1       0.713  -0.537  -0.338  0.00  0.00     0.060 C 
BRANCH   7   8
ATOM      8  C2' I4B d   1       0.223   0.542  -1.281  0.00  0.00    -0.013 C 
ATOM      9  C4' I4B d   1       0.759   0.334  -2.674  0.00  0.00     0.013 C 
ATOM     10  C3' I4B d   1      -1.276   0.522  -1.269  0.00  0.00     0.013 C 
ENDBRANCH   7   8
ENDBRANCH   1   7
TORSDOF 2
ENDMDL
