MODEL 1
REMARK minimizedAffinity -2.79195261
REMARK minimizedRMSD -1
REMARK  2 active torsions:
REMARK  status: ('A' for Active; 'I' for Inactive)
REMARK    1  A    between atoms: C2'_3  and  C1'_4 
REMARK    2  A    between atoms: C1'_4  and  C1_5 
ROOT
ATOM      1  C1  I4B d   1       0.494   0.161  -1.079  0.00  0.00    -0.075 A 
ATOM      2  C2  I4B d   1      -0.753  -0.181  -0.617  0.00  0.00     0.003 A 
ATOM      3  C3  I4B d   1      -1.025  -0.175   0.772  0.00  0.00     0.002 A 
ATOM      4  C4  I4B d   1      -0.014   0.130   1.661  0.00  0.00    -0.004 A 
ATOM      5  C5  I4B d   1       1.243   0.498   1.190  0.00  0.00     0.002 A 
ATOM      6  C6  I4B d   1       1.495   0.526  -0.189  0.00  0.00     0.003 A 
ENDROOT
BRANCH   1   7
ATOM      7  C1' I4B d   1       0.756   0.111  -2.551  0.00  0.00     0.060 C 
BRANCH   7   8
ATOM      8  C2' I4B d   1       0.966  -1.338  -2.939  0.00  0.00    -0.013 C 
ATOM      9  C4' I4B d   1      -0.185  -1.856  -3.761  0.00  0.00     0.013 C 
ATOM     10  C3' I4B d   1       2.258  -1.432  -3.696  0.00  0.00     0.013 C 
ENDBRANCH   7   8
ENDBRANCH   1   7
TORSDOF 2
ENDMDL
