MODEL 1
REMARK minimizedAffinity -4.21902514
REMARK minimizedRMSD -1
REMARK  2 active torsions:
REMARK  status: ('A' for Active; 'I' for Inactive)
REMARK    1  A    between atoms: C2'_3  and  C1'_4 
REMARK    2  A    between atoms: C1'_4  and  C1_5 
ROOT
ATOM      1  C1  I4B d   1       0.181   0.340   0.849  0.00  0.00    -0.075 A 
ATOM      2  C2  I4B d   1      -0.928  -0.460   0.727  0.00  0.00     0.003 A 
ATOM      3  C3  I4B d   1      -1.520  -1.037   1.876  0.00  0.00     0.002 A 
ATOM      4  C4  I4B d   1      -0.944  -0.831   3.113  0.00  0.00    -0.004 A 
ATOM      5  C5  I4B d   1       0.166  -0.002   3.238  0.00  0.00     0.002 A 
ATOM      6  C6  I4B d   1       0.726   0.598   2.100  0.00  0.00     0.003 A 
ENDROOT
BRANCH   1   7
ATOM      7  C1' I4B d   1       0.801   0.907  -0.389  0.00  0.00     0.060 C 
BRANCH   7   8
ATOM      8  C2' I4B d   1      -0.040   0.473  -1.573  0.00  0.00    -0.013 C 
ATOM      9  C4' I4B d   1      -0.985   1.565  -2.000  0.00  0.00     0.013 C 
ATOM     10  C3' I4B d   1       0.889   0.094  -2.687  0.00  0.00     0.013 C 
ENDBRANCH   7   8
ENDBRANCH   1   7
TORSDOF 2
ENDMDL
