MODEL 1
REMARK minimizedAffinity -4.01956415
REMARK minimizedRMSD -1
REMARK  2 active torsions:
REMARK  status: ('A' for Active; 'I' for Inactive)
REMARK    1  A    between atoms: C2'_3  and  C1'_4 
REMARK    2  A    between atoms: C1'_4  and  C1_5 
ROOT
ATOM      1  C1  I4B d   1      -0.674   0.971   1.393  0.00  0.00    -0.075 A 
ATOM      2  C2  I4B d   1      -1.962   1.101   0.939  0.00  0.00     0.003 A 
ATOM      3  C3  I4B d   1      -3.043   0.611   1.710  0.00  0.00     0.002 A 
ATOM      4  C4  I4B d   1      -2.789  -0.044   2.898  0.00  0.00    -0.004 A 
ATOM      5  C5  I4B d   1      -1.484  -0.155   3.368  0.00  0.00     0.002 A 
ATOM      6  C6  I4B d   1      -0.420   0.366   2.618  0.00  0.00     0.003 A 
ENDROOT
BRANCH   1   7
ATOM      7  C1' I4B d   1       0.447   1.471   0.538  0.00  0.00     0.060 C 
BRANCH   7   8
ATOM      8  C2' I4B d   1       1.146   0.270  -0.065  0.00  0.00    -0.013 C 
ATOM      9  C4' I4B d   1       1.032  -0.935   0.832  0.00  0.00     0.013 C 
ATOM     10  C3' I4B d   1       0.534   0.004  -1.408  0.00  0.00     0.013 C 
ENDBRANCH   7   8
ENDBRANCH   1   7
TORSDOF 2
ENDMDL
