MODEL 1
REMARK minimizedAffinity -5.60233736
REMARK minimizedRMSD -1
REMARK  2 active torsions:
REMARK  status: ('A' for Active; 'I' for Inactive)
REMARK    1  A    between atoms: C2'_3  and  C1'_4 
REMARK    2  A    between atoms: C1'_4  and  C1_5 
ROOT
ATOM      1  C1  I4B d   1      -0.312   0.026   0.859  0.00  0.00    -0.075 A 
ATOM      2  C2  I4B d   1       0.242  -0.271   2.079  0.00  0.00     0.003 A 
ATOM      3  C3  I4B d   1      -0.590  -0.554   3.189  0.00  0.00     0.002 A 
ATOM      4  C4  I4B d   1      -1.961  -0.480   3.048  0.00  0.00    -0.004 A 
ATOM      5  C5  I4B d   1      -2.521  -0.201   1.805  0.00  0.00     0.002 A 
ATOM      6  C6  I4B d   1      -1.692   0.041   0.700  0.00  0.00     0.003 A 
ENDROOT
BRANCH   1   7
ATOM      7  C1' I4B d   1       0.595   0.352  -0.285  0.00  0.00     0.060 C 
BRANCH   7   8
ATOM      8  C2' I4B d   1      -0.162   0.091  -1.571  0.00  0.00    -0.013 C 
ATOM      9  C4' I4B d   1      -0.774   1.357  -2.110  0.00  0.00     0.013 C 
ATOM     10  C3' I4B d   1       0.794  -0.511  -2.557  0.00  0.00     0.013 C 
ENDBRANCH   7   8
ENDBRANCH   1   7
TORSDOF 2
ENDMDL
