MODEL 1
REMARK minimizedAffinity 20.6088638
REMARK minimizedRMSD -1
REMARK  0 active torsions:
REMARK  status: ('A' for Active; 'I' for Inactive)
ROOT
ATOM      1  C   UNL d   1       2.355  -2.492   4.670  0.00  0.00     0.124 A 
ATOM      2  C1  UNL d   1       2.022  -1.268   4.108  0.00  0.00     0.062 A 
ATOM      3  C2  UNL d   1       1.874  -1.148   2.729  0.00  0.00     0.162 A 
ATOM      4  C3  UNL d   1       2.058  -2.256   1.903  0.00  0.00    -0.034 A 
ATOM      5  C4  UNL d   1       2.393  -3.484   2.475  0.00  0.00     0.162 A 
ATOM      6  C5  UNL d   1       2.540  -3.599   3.854  0.00  0.00     0.062 A 
ATOM      7  F   UNL d   1       2.862  -4.783   4.395  0.00  0.00    -0.097 F 
ATOM      8  F1  UNL d   1       2.577  -4.570   1.710  0.00  0.00    -0.096 F 
ATOM      9  I   UNL d   1       1.837  -2.081  -0.160  0.00  0.00    -0.060 I 
ATOM     10  F2  UNL d   1       1.552   0.048   2.213  0.00  0.00    -0.096 F 
ATOM     11  F3  UNL d   1       1.843  -0.197   4.895  0.00  0.00    -0.097 F 
ATOM     12  F4  UNL d   1       2.498  -2.605   5.997  0.00  0.00    -0.092 F 
ENDROOT
TORSDOF 0
ENDMDL
