MODEL 1
REMARK minimizedAffinity 20.2429981
REMARK minimizedRMSD -1
REMARK  0 active torsions:
REMARK  status: ('A' for Active; 'I' for Inactive)
ROOT
ATOM      1  C   UNL d   1       3.081   1.793   3.392  0.00  0.00     0.124 A 
ATOM      2  C1  UNL d   1       2.570   1.412   4.625  0.00  0.00     0.062 A 
ATOM      3  C2  UNL d   1       2.008   0.150   4.791  0.00  0.00     0.162 A 
ATOM      4  C3  UNL d   1       1.955  -0.743   3.720  0.00  0.00    -0.034 A 
ATOM      5  C4  UNL d   1       2.470  -0.352   2.482  0.00  0.00     0.162 A 
ATOM      6  C5  UNL d   1       3.031   0.911   2.322  0.00  0.00     0.062 A 
ATOM      7  F   UNL d   1       3.524   1.277   1.130  0.00  0.00    -0.097 F 
ATOM      8  F1  UNL d   1       2.436  -1.185   1.432  0.00  0.00    -0.096 F 
ATOM      9  I   UNL d   1       1.116  -2.632   3.963  0.00  0.00    -0.060 I 
ATOM     10  F2  UNL d   1       1.523  -0.192   5.994  0.00  0.00    -0.096 F 
ATOM     11  F3  UNL d   1       2.617   2.263   5.661  0.00  0.00    -0.097 F 
ATOM     12  F4  UNL d   1       3.620   3.009   3.236  0.00  0.00    -0.092 F 
ENDROOT
TORSDOF 0
ENDMDL
