MODEL 1
REMARK minimizedAffinity 28.561779
REMARK minimizedRMSD -1
REMARK  0 active torsions:
REMARK  status: ('A' for Active; 'I' for Inactive)
ROOT
ATOM      1  C   UNL d   1       2.962   1.933   2.303  0.00  0.00     0.124 A 
ATOM      2  C1  UNL d   1       2.643   1.931   3.653  0.00  0.00     0.062 A 
ATOM      3  C2  UNL d   1       2.310   0.740   4.292  0.00  0.00     0.162 A 
ATOM      4  C3  UNL d   1       2.295  -0.460   3.581  0.00  0.00    -0.034 A 
ATOM      5  C4  UNL d   1       2.617  -0.450   2.222  0.00  0.00     0.162 A 
ATOM      6  C5  UNL d   1       2.950   0.743   1.589  0.00  0.00     0.062 A 
ATOM      7  F   UNL d   1       3.258   0.743   0.284  0.00  0.00    -0.097 F 
ATOM      8  F1  UNL d   1       2.614  -1.585   1.509  0.00  0.00    -0.096 F 
ATOM      9  I   UNL d   1       1.798  -2.243   4.532  0.00  0.00    -0.060 I 
ATOM     10  F2  UNL d   1       2.005   0.768   5.598  0.00  0.00    -0.096 F 
ATOM     11  F3  UNL d   1       2.653   3.080   4.345  0.00  0.00    -0.097 F 
ATOM     12  F4  UNL d   1       3.282   3.081   1.690  0.00  0.00    -0.092 F 
ENDROOT
TORSDOF 0
ENDMDL
