MODEL 1
REMARK minimizedAffinity 9.33488941
REMARK minimizedRMSD -1
REMARK  0 active torsions:
REMARK  status: ('A' for Active; 'I' for Inactive)
ROOT
ATOM      1  C   UNL d   1       3.373  -0.152   2.007  0.00  0.00     0.124 A 
ATOM      2  C1  UNL d   1       2.294  -0.398   2.844  0.00  0.00     0.062 A 
ATOM      3  C2  UNL d   1       2.456  -1.179   3.984  0.00  0.00     0.162 A 
ATOM      4  C3  UNL d   1       3.703  -1.720   4.295  0.00  0.00    -0.034 A 
ATOM      5  C4  UNL d   1       4.784  -1.469   3.448  0.00  0.00     0.162 A 
ATOM      6  C5  UNL d   1       4.617  -0.687   2.310  0.00  0.00     0.062 A 
ATOM      7  F   UNL d   1       5.661  -0.450   1.502  0.00  0.00    -0.097 F 
ATOM      8  F1  UNL d   1       5.998  -1.973   3.718  0.00  0.00    -0.096 F 
ATOM      9  I   UNL d   1       3.950  -2.889   5.999  0.00  0.00    -0.060 I 
ATOM     10  F2  UNL d   1       1.395  -1.401   4.775  0.00  0.00    -0.096 F 
ATOM     11  F3  UNL d   1       1.091   0.118   2.553  0.00  0.00    -0.097 F 
ATOM     12  F4  UNL d   1       3.214   0.600   0.910  0.00  0.00    -0.092 F 
ENDROOT
TORSDOF 0
ENDMDL
