MODEL 1
REMARK minimizedAffinity 6.6417942
REMARK minimizedRMSD -1
REMARK  0 active torsions:
REMARK  status: ('A' for Active; 'I' for Inactive)
ROOT
ATOM      1  C   UNL d   1       1.950  -1.236   2.931  0.00  0.00     0.124 A 
ATOM      2  C1  UNL d   1       3.198  -0.974   2.381  0.00  0.00     0.062 A 
ATOM      3  C2  UNL d   1       4.346  -1.496   2.969  0.00  0.00     0.162 A 
ATOM      4  C3  UNL d   1       4.252  -2.286   4.115  0.00  0.00    -0.034 A 
ATOM      5  C4  UNL d   1       2.995  -2.545   4.663  0.00  0.00     0.162 A 
ATOM      6  C5  UNL d   1       1.850  -2.021   4.071  0.00  0.00     0.062 A 
ATOM      7  F   UNL d   1       0.646  -2.275   4.604  0.00  0.00    -0.097 F 
ATOM      8  F1  UNL d   1       2.869  -3.301   5.763  0.00  0.00    -0.096 F 
ATOM      9  I   UNL d   1       5.967  -3.069   4.998  0.00  0.00    -0.060 I 
ATOM     10  F2  UNL d   1       5.538  -1.226   2.417  0.00  0.00    -0.096 F 
ATOM     11  F3  UNL d   1       3.297  -0.215   1.280  0.00  0.00    -0.097 F 
ATOM     12  F4  UNL d   1       0.847  -0.732   2.363  0.00  0.00    -0.092 F 
ENDROOT
TORSDOF 0
ENDMDL
