MODEL 1
REMARK minimizedAffinity 12.5203371
REMARK minimizedRMSD -1
REMARK  0 active torsions:
REMARK  status: ('A' for Active; 'I' for Inactive)
ROOT
ATOM      1  C   UNL d   1       2.407  -1.424   3.088  0.00  0.00     0.124 A 
ATOM      2  C1  UNL d   1       2.126  -2.273   4.149  0.00  0.00     0.062 A 
ATOM      3  C2  UNL d   1       3.150  -2.716   4.981  0.00  0.00     0.162 A 
ATOM      4  C3  UNL d   1       4.466  -2.310   4.756  0.00  0.00    -0.034 A 
ATOM      5  C4  UNL d   1       4.741  -1.457   3.686  0.00  0.00     0.162 A 
ATOM      6  C5  UNL d   1       3.714  -1.017   2.857  0.00  0.00     0.062 A 
ATOM      7  F   UNL d   1       3.987  -0.196   1.832  0.00  0.00    -0.097 F 
ATOM      8  F1  UNL d   1       5.994  -1.047   3.441  0.00  0.00    -0.096 F 
ATOM      9  I   UNL d   1       6.000  -2.970   5.998  0.00  0.00    -0.060 I 
ATOM     10  F2  UNL d   1       2.850  -3.536   6.000  0.00  0.00    -0.096 F 
ATOM     11  F3  UNL d   1       0.865  -2.668   4.374  0.00  0.00    -0.097 F 
ATOM     12  F4  UNL d   1       1.420  -0.999   2.288  0.00  0.00    -0.092 F 
ENDROOT
TORSDOF 0
ENDMDL
