MODEL 1
REMARK minimizedAffinity 13.2731142
REMARK minimizedRMSD -1
REMARK  0 active torsions:
REMARK  status: ('A' for Active; 'I' for Inactive)
ROOT
ATOM      1  C   UNL d   1       3.481  -2.553   4.886  0.00  0.00     0.124 A 
ATOM      2  C1  UNL d   1       4.715  -2.243   4.332  0.00  0.00     0.062 A 
ATOM      3  C2  UNL d   1       4.791  -1.447   3.193  0.00  0.00     0.162 A 
ATOM      4  C3  UNL d   1       3.629  -0.954   2.600  0.00  0.00    -0.034 A 
ATOM      5  C4  UNL d   1       2.391  -1.271   3.162  0.00  0.00     0.162 A 
ATOM      6  C5  UNL d   1       2.320  -2.067   4.301  0.00  0.00     0.062 A 
ATOM      7  F   UNL d   1       1.127  -2.365   4.834  0.00  0.00    -0.097 F 
ATOM      8  F1  UNL d   1       1.254  -0.814   2.617  0.00  0.00    -0.096 F 
ATOM      9  I   UNL d   1       3.738   0.236   0.896  0.00  0.00    -0.060 I 
ATOM     10  F2  UNL d   1       5.997  -1.163   2.679  0.00  0.00    -0.096 F 
ATOM     11  F3  UNL d   1       5.838  -2.711   4.895  0.00  0.00    -0.097 F 
ATOM     12  F4  UNL d   1       3.411  -3.319   5.982  0.00  0.00    -0.092 F 
ENDROOT
TORSDOF 0
ENDMDL
