MODEL 1
REMARK minimizedAffinity 6.37432575
REMARK minimizedRMSD -1
REMARK  0 active torsions:
REMARK  status: ('A' for Active; 'I' for Inactive)
ROOT
ATOM      1  C   UNL d   1       2.249  -1.329   3.199  0.00  0.00     0.124 A 
ATOM      2  C1  UNL d   1       3.557  -0.922   2.976  0.00  0.00     0.062 A 
ATOM      3  C2  UNL d   1       4.587  -1.412   3.774  0.00  0.00     0.162 A 
ATOM      4  C3  UNL d   1       4.313  -2.314   4.802  0.00  0.00    -0.034 A 
ATOM      5  C4  UNL d   1       2.995  -2.718   5.020  0.00  0.00     0.162 A 
ATOM      6  C5  UNL d   1       1.969  -2.225   4.220  0.00  0.00     0.062 A 
ATOM      7  F   UNL d   1       0.705  -2.619   4.436  0.00  0.00    -0.097 F 
ATOM      8  F1  UNL d   1       2.696  -3.584   5.999  0.00  0.00    -0.096 F 
ATOM      9  I   UNL d   1       5.851  -3.049   5.997  0.00  0.00    -0.060 I 
ATOM     10  F2  UNL d   1       5.842  -1.002   3.537  0.00  0.00    -0.096 F 
ATOM     11  F3  UNL d   1       3.830  -0.055   1.991  0.00  0.00    -0.097 F 
ATOM     12  F4  UNL d   1       1.259  -0.855   2.430  0.00  0.00    -0.092 F 
ENDROOT
TORSDOF 0
ENDMDL
