MODEL 1
REMARK minimizedAffinity 27.626152
REMARK minimizedRMSD -1
REMARK  0 active torsions:
REMARK  status: ('A' for Active; 'I' for Inactive)
ROOT
ATOM      1  C   UNL d   1       3.676  -1.667   4.132  0.00  0.00     0.124 A 
ATOM      2  C1  UNL d   1       4.853  -1.632   3.398  0.00  0.00     0.062 A 
ATOM      3  C2  UNL d   1       4.848  -1.161   2.088  0.00  0.00     0.162 A 
ATOM      4  C3  UNL d   1       3.660  -0.719   1.505  0.00  0.00    -0.034 A 
ATOM      5  C4  UNL d   1       2.480  -0.759   2.249  0.00  0.00     0.162 A 
ATOM      6  C5  UNL d   1       2.491  -1.231   3.558  0.00  0.00     0.062 A 
ATOM      7  F   UNL d   1       1.353  -1.264   4.266  0.00  0.00    -0.097 F 
ATOM      8  F1  UNL d   1       1.321  -0.342   1.719  0.00  0.00    -0.096 F 
ATOM      9  I   UNL d   1       3.647  -0.014  -0.453  0.00  0.00    -0.060 I 
ATOM     10  F2  UNL d   1       6.000  -1.138   1.402  0.00  0.00    -0.096 F 
ATOM     11  F3  UNL d   1       6.000  -2.054   3.951  0.00  0.00    -0.097 F 
ATOM     12  F4  UNL d   1       3.684  -2.122   5.392  0.00  0.00    -0.092 F 
ENDROOT
TORSDOF 0
ENDMDL
