MODEL 1
REMARK minimizedAffinity 21.5628948
REMARK minimizedRMSD -1
REMARK  0 active torsions:
REMARK  status: ('A' for Active; 'I' for Inactive)
ROOT
ATOM      1  C   UNL d   1       3.186  -0.416   2.038  0.00  0.00     0.124 A 
ATOM      2  C1  UNL d   1       4.296  -1.209   2.295  0.00  0.00     0.062 A 
ATOM      3  C2  UNL d   1       4.212  -2.256   3.208  0.00  0.00     0.162 A 
ATOM      4  C3  UNL d   1       3.013  -2.517   3.872  0.00  0.00    -0.034 A 
ATOM      5  C4  UNL d   1       1.902  -1.714   3.610  0.00  0.00     0.162 A 
ATOM      6  C5  UNL d   1       1.991  -0.669   2.696  0.00  0.00     0.062 A 
ATOM      7  F   UNL d   1       0.917   0.096   2.450  0.00  0.00    -0.097 F 
ATOM      8  F1  UNL d   1       0.734  -1.937   4.230  0.00  0.00    -0.096 F 
ATOM      9  I   UNL d   1       2.884  -4.081   5.239  0.00  0.00    -0.060 I 
ATOM     10  F2  UNL d   1       5.301  -3.007   3.436  0.00  0.00    -0.096 F 
ATOM     11  F3  UNL d   1       5.453  -0.967   1.662  0.00  0.00    -0.097 F 
ATOM     12  F4  UNL d   1       3.270   0.591   1.160  0.00  0.00    -0.092 F 
ENDROOT
TORSDOF 0
ENDMDL
