MODEL 1
REMARK minimizedAffinity 2.11430264
REMARK minimizedRMSD -1
REMARK  1 active torsions:
REMARK  status: ('A' for Active; 'I' for Inactive)
REMARK    1  A    between atoms: C1_2  and  C2_3 
ROOT
ATOM      1  C2  UNL d   1       4.510  -0.824  -0.208  0.00  0.00    -0.077 A 
ATOM      2  C3  UNL d   1       3.351  -1.586  -0.410  0.00  0.00     0.002 A 
ATOM      3  C4  UNL d   1       2.182  -0.983  -0.880  0.00  0.00     0.002 A 
ATOM      4  C5  UNL d   1       2.164   0.383  -1.156  0.00  0.00    -0.004 A 
ATOM      5  C6  UNL d   1       3.311   1.149  -0.957  0.00  0.00     0.002 A 
ATOM      6  C7  UNL d   1       4.479   0.549  -0.486  0.00  0.00     0.002 A 
ENDROOT
BRANCH   1   7
ATOM      7  C1  UNL d   1       5.785  -1.481   0.252  0.00  0.00     0.055 C 
ATOM      8  C   UNL d   1       5.635  -2.994   0.318  0.00  0.00     0.019 C 
ENDBRANCH   1   7
TORSDOF 1
ENDMDL
