MODEL 1
REMARK minimizedAffinity 11.6803207
REMARK minimizedRMSD -1
REMARK  1 active torsions:
REMARK  status: ('A' for Active; 'I' for Inactive)
REMARK    1  A    between atoms: C1_2  and  C2_3 
ROOT
ATOM      1  C2  UNL d   1       1.921   0.021   0.529  0.00  0.00    -0.077 A 
ATOM      2  C3  UNL d   1       1.764  -1.371   0.589  0.00  0.00     0.002 A 
ATOM      3  C4  UNL d   1       1.213  -1.971   1.723  0.00  0.00     0.002 A 
ATOM      4  C5  UNL d   1       0.811  -1.188   2.803  0.00  0.00    -0.004 A 
ATOM      5  C6  UNL d   1       0.965   0.197   2.753  0.00  0.00     0.002 A 
ATOM      6  C7  UNL d   1       1.516   0.799   1.621  0.00  0.00     0.002 A 
ENDROOT
BRANCH   1   7
ATOM      7  C1  UNL d   1       2.469   0.674  -0.713  0.00  0.00     0.055 C 
ATOM      8  C   UNL d   1       1.491   0.566  -1.873  0.00  0.00     0.019 C 
ENDBRANCH   1   7
TORSDOF 1
ENDMDL
