MODEL 1
REMARK minimizedAffinity -1.38958144
REMARK minimizedRMSD -1
REMARK  1 active torsions:
REMARK  status: ('A' for Active; 'I' for Inactive)
REMARK    1  A    between atoms: C1_2  and  C2_3 
ROOT
ATOM      1  C2  UNL d   1       4.042  -0.700  -0.407  0.00  0.00    -0.077 A 
ATOM      2  C3  UNL d   1       5.415  -0.756  -0.127  0.00  0.00     0.002 A 
ATOM      3  C4  UNL d   1       5.996  -1.942   0.325  0.00  0.00     0.002 A 
ATOM      4  C5  UNL d   1       5.213  -3.082   0.497  0.00  0.00    -0.004 A 
ATOM      5  C6  UNL d   1       3.846  -3.036   0.223  0.00  0.00     0.002 A 
ATOM      6  C7  UNL d   1       3.264  -1.850  -0.228  0.00  0.00     0.002 A 
ENDROOT
BRANCH   1   7
ATOM      7  C1  UNL d   1       3.423   0.565  -0.942  0.00  0.00     0.055 C 
ATOM      8  C   UNL d   1       2.280   0.260  -1.898  0.00  0.00     0.019 C 
ENDBRANCH   1   7
TORSDOF 1
ENDMDL
