MODEL 1
REMARK minimizedAffinity 3.5454185
REMARK minimizedRMSD -1
REMARK  1 active torsions:
REMARK  status: ('A' for Active; 'I' for Inactive)
REMARK    1  A    between atoms: C1_2  and  C2_3 
ROOT
ATOM      1  C2  UNL d   1       3.580  -1.576  -0.461  0.00  0.00    -0.077 A 
ATOM      2  C3  UNL d   1       4.800  -0.887  -0.423  0.00  0.00     0.002 A 
ATOM      3  C4  UNL d   1       4.842   0.488  -0.663  0.00  0.00     0.002 A 
ATOM      4  C5  UNL d   1       3.668   1.185  -0.938  0.00  0.00    -0.004 A 
ATOM      5  C6  UNL d   1       2.450   0.509  -0.979  0.00  0.00     0.002 A 
ATOM      6  C7  UNL d   1       2.405  -0.866  -0.741  0.00  0.00     0.002 A 
ENDROOT
BRANCH   1   7
ATOM      7  C1  UNL d   1       3.525  -3.050  -0.154  0.00  0.00     0.055 C 
ATOM      8  C   UNL d   1       2.553  -3.344   0.979  0.00  0.00     0.019 C 
ENDBRANCH   1   7
TORSDOF 1
ENDMDL
