MODEL 1
REMARK minimizedAffinity 0.677686512
REMARK minimizedRMSD -1
REMARK  1 active torsions:
REMARK  status: ('A' for Active; 'I' for Inactive)
REMARK    1  A    between atoms: C1_2  and  C2_3 
ROOT
ATOM      1  C2  UNL d   1       0.473  -0.514  -0.301  0.00  0.00    -0.077 A 
ATOM      2  C3  UNL d   1       0.385  -0.597   1.096  0.00  0.00     0.002 A 
ATOM      3  C4  UNL d   1      -0.847  -0.448   1.736  0.00  0.00     0.002 A 
ATOM      4  C5  UNL d   1      -2.000  -0.220   0.988  0.00  0.00    -0.004 A 
ATOM      5  C6  UNL d   1      -1.922  -0.134  -0.401  0.00  0.00     0.002 A 
ATOM      6  C7  UNL d   1      -0.692  -0.281  -1.043  0.00  0.00     0.002 A 
ENDROOT
BRANCH   1   7
ATOM      7  C1  UNL d   1       1.793  -0.723  -0.996  0.00  0.00     0.055 C 
ATOM      8  C   UNL d   1       2.602   0.565  -1.047  0.00  0.00     0.019 C 
ENDBRANCH   1   7
TORSDOF 1
ENDMDL
