MODEL 1
REMARK minimizedAffinity -0.400137126
REMARK minimizedRMSD -1
REMARK  0 active torsions:
REMARK  status: ('A' for Active; 'I' for Inactive)
ROOT
ATOM      1  C4' PXY d   1      -3.004  -1.152   3.388  0.00  0.00     0.077 C 
ATOM      2  C1' PXY d   1      -2.686   2.997  -0.624  0.00  0.00     0.077 C 
ATOM      3  C1  PXY d   1      -2.776   1.901   0.420  0.00  0.00    -0.082 A 
ATOM      4  C2  PXY d   1      -2.649   2.207   1.701  0.00  0.00     0.003 A 
ATOM      5  C3  PXY d   1      -2.696   1.224   2.656  0.00  0.00     0.003 A 
ATOM      6  C4  PXY d   1      -2.929  -0.078   2.300  0.00  0.00    -0.082 A 
ATOM      7  C5  PXY d   1      -3.071  -0.395   0.995  0.00  0.00     0.003 A 
ATOM      8  C6  PXY d   1      -2.979   0.611   0.038  0.00  0.00     0.003 A 
ENDROOT
TORSDOF 0
ENDMDL
