MODEL 1
REMARK minimizedAffinity 3.28224754
REMARK minimizedRMSD -1
REMARK  0 active torsions:
REMARK  status: ('A' for Active; 'I' for Inactive)
ROOT
ATOM      1  C4' PXY d   1      -2.995  -0.009   0.045  0.00  0.00     0.077 C 
ATOM      2  C1' PXY d   1      -3.949   5.685   0.330  0.00  0.00     0.077 C 
ATOM      3  C1  PXY d   1      -3.689   4.194   0.247  0.00  0.00    -0.082 A 
ATOM      4  C2  PXY d   1      -4.651   3.344   0.566  0.00  0.00     0.003 A 
ATOM      5  C3  PXY d   1      -4.423   1.992   0.527  0.00  0.00     0.003 A 
ATOM      6  C4  PXY d   1      -3.215   1.505   0.105  0.00  0.00    -0.082 A 
ATOM      7  C5  PXY d   1      -2.232   2.366  -0.233  0.00  0.00     0.003 A 
ATOM      8  C6  PXY d   1      -2.470   3.735  -0.147  0.00  0.00     0.003 A 
ENDROOT
TORSDOF 0
ENDMDL
