MODEL 1
REMARK minimizedAffinity -1.92998564
REMARK minimizedRMSD -1
REMARK  0 active torsions:
REMARK  status: ('A' for Active; 'I' for Inactive)
ROOT
ATOM      1  C4' PXY d   1      -0.217   1.447  -1.609  0.00  0.00     0.077 C 
ATOM      2  C1' PXY d   1       3.917   1.339  -5.648  0.00  0.00     0.077 C 
ATOM      3  C1  PXY d   1       2.837   1.356  -4.584  0.00  0.00    -0.082 A 
ATOM      4  C2  PXY d   1       1.728   2.047  -4.790  0.00  0.00     0.003 A 
ATOM      5  C3  PXY d   1       0.755   2.099  -3.825  0.00  0.00     0.003 A 
ATOM      6  C4  PXY d   1       0.896   1.394  -2.660  0.00  0.00    -0.082 A 
ATOM      7  C5  PXY d   1       2.021   0.679  -2.447  0.00  0.00     0.003 A 
ATOM      8  C6  PXY d   1       3.014   0.672  -3.422  0.00  0.00     0.003 A 
ENDROOT
TORSDOF 0
ENDMDL
