MODEL 1
REMARK minimizedAffinity 5.26278591
REMARK minimizedRMSD -1
REMARK  0 active torsions:
REMARK  status: ('A' for Active; 'I' for Inactive)
ROOT
ATOM      1  C4' PXY d   1      -3.297   2.215  -1.187  0.00  0.00     0.077 C 
ATOM      2  C1' PXY d   1      -2.664  -1.172   3.454  0.00  0.00     0.077 C 
ATOM      3  C1  PXY d   1      -2.832  -0.273   2.245  0.00  0.00    -0.082 A 
ATOM      4  C2  PXY d   1      -3.185  -0.799   1.083  0.00  0.00     0.003 A 
ATOM      5  C3  PXY d   1      -3.310  -0.006  -0.028  0.00  0.00     0.003 A 
ATOM      6  C4  PXY d   1      -3.125   1.348   0.062  0.00  0.00    -0.082 A 
ATOM      7  C5  PXY d   1      -2.776   1.894   1.247  0.00  0.00     0.003 A 
ATOM      8  C6  PXY d   1      -2.613   1.065   2.353  0.00  0.00     0.003 A 
ENDROOT
TORSDOF 0
ENDMDL
