MODEL 1
REMARK minimizedAffinity -0.116116077
REMARK minimizedRMSD -1
REMARK  0 active torsions:
REMARK  status: ('A' for Active; 'I' for Inactive)
ROOT
ATOM      1  C4' PXY d   1      -4.147   5.897   2.947  0.00  0.00     0.077 C 
ATOM      2  C1' PXY d   1      -1.943   2.302  -1.007  0.00  0.00     0.077 C 
ATOM      3  C1  PXY d   1      -2.517   3.255   0.023  0.00  0.00    -0.082 A 
ATOM      4  C2  PXY d   1      -2.690   2.845   1.269  0.00  0.00     0.003 A 
ATOM      5  C3  PXY d   1      -3.238   3.683   2.206  0.00  0.00     0.003 A 
ATOM      6  C4  PXY d   1      -3.562   4.972   1.876  0.00  0.00    -0.082 A 
ATOM      7  C5  PXY d   1      -3.379   5.401   0.610  0.00  0.00     0.003 A 
ATOM      8  C6  PXY d   1      -2.860   4.522  -0.336  0.00  0.00     0.003 A 
ENDROOT
TORSDOF 0
ENDMDL
