MODEL 1
REMARK minimizedAffinity -2.45652485
REMARK minimizedRMSD -1
REMARK  0 active torsions:
REMARK  status: ('A' for Active; 'I' for Inactive)
ROOT
ATOM      1  C4' PXY d   1      -2.868  -1.011   2.619  0.00  0.00     0.077 C 
ATOM      2  C1' PXY d   1      -2.965   4.124  -0.035  0.00  0.00     0.077 C 
ATOM      3  C1  PXY d   1      -2.948   2.772   0.652  0.00  0.00    -0.082 A 
ATOM      4  C2  PXY d   1      -2.687   2.700   1.947  0.00  0.00     0.003 A 
ATOM      5  C3  PXY d   1      -2.636   1.484   2.578  0.00  0.00     0.003 A 
ATOM      6  C4  PXY d   1      -2.906   0.333   1.886  0.00  0.00    -0.082 A 
ATOM      7  C5  PXY d   1      -3.183   0.399   0.567  0.00  0.00     0.003 A 
ATOM      8  C6  PXY d   1      -3.190   1.640  -0.063  0.00  0.00     0.003 A 
ENDROOT
TORSDOF 0
ENDMDL
