MODEL 1
REMARK minimizedAffinity -4.31643629
REMARK minimizedRMSD -1
REMARK  0 active torsions:
REMARK  status: ('A' for Active; 'I' for Inactive)
ROOT
ATOM      1  C4' PXY d   1      -5.190  -0.325  -1.105  0.00  0.00     0.077 C 
ATOM      2  C1' PXY d   1      -1.819  -0.547   3.586  0.00  0.00     0.077 C 
ATOM      3  C1  PXY d   1      -2.693  -0.485   2.349  0.00  0.00    -0.082 A 
ATOM      4  C2  PXY d   1      -4.001  -0.339   2.479  0.00  0.00     0.003 A 
ATOM      5  C3  PXY d   1      -4.810  -0.313   1.371  0.00  0.00     0.003 A 
ATOM      6  C4  PXY d   1      -4.268  -0.384   0.116  0.00  0.00    -0.082 A 
ATOM      7  C5  PXY d   1      -2.933  -0.522  -0.025  0.00  0.00     0.003 A 
ATOM      8  C6  PXY d   1      -2.133  -0.588   1.112  0.00  0.00     0.003 A 
ENDROOT
TORSDOF 0
ENDMDL
