MODEL 1
REMARK minimizedAffinity 6.20924759
REMARK minimizedRMSD -1
REMARK  0 active torsions:
REMARK  status: ('A' for Active; 'I' for Inactive)
ROOT
ATOM      1  C4' PXY d   1      -6.000   0.738  -1.635  0.00  0.00     0.077 C 
ATOM      2  C1' PXY d   1      -3.115   0.112   3.335  0.00  0.00     0.077 C 
ATOM      3  C1  PXY d   1      -3.862   0.283   2.027  0.00  0.00    -0.082 A 
ATOM      4  C2  PXY d   1      -5.183   0.210   2.013  0.00  0.00     0.003 A 
ATOM      5  C3  PXY d   1      -5.872   0.331   0.834  0.00  0.00     0.003 A 
ATOM      6  C4  PXY d   1      -5.205   0.581  -0.336  0.00  0.00    -0.082 A 
ATOM      7  C5  PXY d   1      -3.858   0.667  -0.328  0.00  0.00     0.003 A 
ATOM      8  C6  PXY d   1      -3.175   0.501   0.873  0.00  0.00     0.003 A 
ENDROOT
TORSDOF 0
ENDMDL
