MODEL 1
REMARK minimizedAffinity -2.73447132
REMARK minimizedRMSD -1
REMARK  0 active torsions:
REMARK  status: ('A' for Active; 'I' for Inactive)
ROOT
ATOM      1  C4' PXY d   1      -3.262  -0.324   3.822  0.00  0.00     0.077 C 
ATOM      2  C1' PXY d   1      -1.300   1.713  -1.220  0.00  0.00     0.077 C 
ATOM      3  C1  PXY d   1      -1.819   1.168   0.096  0.00  0.00    -0.082 A 
ATOM      4  C2  PXY d   1      -2.120   2.004   1.077  0.00  0.00     0.003 A 
ATOM      5  C3  PXY d   1      -2.560   1.526   2.285  0.00  0.00     0.003 A 
ATOM      6  C4  PXY d   1      -2.744   0.182   2.472  0.00  0.00    -0.082 A 
ATOM      7  C5  PXY d   1      -2.450  -0.676   1.473  0.00  0.00     0.003 A 
ATOM      8  C6  PXY d   1      -1.965  -0.174   0.269  0.00  0.00     0.003 A 
ENDROOT
TORSDOF 0
ENDMDL
