MODEL 1
REMARK minimizedAffinity 13.5441532
REMARK minimizedRMSD -1
REMARK  0 active torsions:
REMARK  status: ('A' for Active; 'I' for Inactive)
ROOT
ATOM      1  C4' PXY d   1      -1.960   0.931   0.352  0.00  0.00     0.077 C 
ATOM      2  C1' PXY d   1      -4.269  -0.950   5.306  0.00  0.00     0.077 C 
ATOM      3  C1  PXY d   1      -3.658  -0.447   4.013  0.00  0.00    -0.082 A 
ATOM      4  C2  PXY d   1      -4.207  -0.780   2.857  0.00  0.00     0.003 A 
ATOM      5  C3  PXY d   1      -3.649  -0.360   1.677  0.00  0.00     0.003 A 
ATOM      6  C4  PXY d   1      -2.548   0.454   1.683  0.00  0.00    -0.082 A 
ATOM      7  C5  PXY d   1      -1.988   0.807   2.859  0.00  0.00     0.003 A 
ATOM      8  C6  PXY d   1      -2.545   0.336   4.044  0.00  0.00     0.003 A 
ENDROOT
TORSDOF 0
ENDMDL
