MODEL 1
REMARK minimizedAffinity 4.45512819
REMARK minimizedRMSD -1
REMARK  0 active torsions:
REMARK  status: ('A' for Active; 'I' for Inactive)
ROOT
ATOM      1  C4' PXY d   1      -5.664  -2.168   3.827  0.00  0.00     0.077 C 
ATOM      2  C1' PXY d   1      -2.624   2.685   3.039  0.00  0.00     0.077 C 
ATOM      3  C1  PXY d   1      -3.417   1.411   3.258  0.00  0.00    -0.082 A 
ATOM      4  C2  PXY d   1      -3.764   0.670   2.218  0.00  0.00     0.003 A 
ATOM      5  C3  PXY d   1      -4.508  -0.468   2.396  0.00  0.00     0.003 A 
ATOM      6  C4  PXY d   1      -4.855  -0.880   3.654  0.00  0.00    -0.082 A 
ATOM      7  C5  PXY d   1      -4.496  -0.135   4.721  0.00  0.00     0.003 A 
ATOM      8  C6  PXY d   1      -3.776   1.039   4.517  0.00  0.00     0.003 A 
ENDROOT
TORSDOF 0
ENDMDL
