MODEL 1
REMARK minimizedAffinity 3.23423123
REMARK minimizedRMSD -1
REMARK  0 active torsions:
REMARK  status: ('A' for Active; 'I' for Inactive)
ROOT
ATOM      1  C4' PXY d   1       5.996   0.297   5.911  0.00  0.00     0.077 C 
ATOM      2  C1' PXY d   1       3.422   2.676   1.314  0.00  0.00     0.077 C 
ATOM      3  C1  PXY d   1       4.087   2.043   2.521  0.00  0.00    -0.082 A 
ATOM      4  C2  PXY d   1       4.901   2.766   3.273  0.00  0.00     0.003 A 
ATOM      5  C3  PXY d   1       5.536   2.201   4.349  0.00  0.00     0.003 A 
ATOM      6  C4  PXY d   1       5.295   0.897   4.689  0.00  0.00    -0.082 A 
ATOM      7  C5  PXY d   1       4.457   0.156   3.933  0.00  0.00     0.003 A 
ATOM      8  C6  PXY d   1       3.855   0.736   2.821  0.00  0.00     0.003 A 
ENDROOT
TORSDOF 0
ENDMDL
