MODEL 1
REMARK minimizedAffinity -2.13768458
REMARK minimizedRMSD -1
REMARK  0 active torsions:
REMARK  status: ('A' for Active; 'I' for Inactive)
ROOT
ATOM      1  C4' PXY d   1      -3.352   4.109   0.145  0.00  0.00     0.077 C 
ATOM      2  C1' PXY d   1      -2.243  -1.503   0.978  0.00  0.00     0.077 C 
ATOM      3  C1  PXY d   1      -2.532  -0.029   0.772  0.00  0.00    -0.082 A 
ATOM      4  C2  PXY d   1      -3.295   0.353  -0.239  0.00  0.00     0.003 A 
ATOM      5  C3  PXY d   1      -3.540   1.685  -0.458  0.00  0.00     0.003 A 
ATOM      6  C4  PXY d   1      -3.042   2.631   0.397  0.00  0.00    -0.082 A 
ATOM      7  C5  PXY d   1      -2.271   2.248   1.437  0.00  0.00     0.003 A 
ATOM      8  C6  PXY d   1      -2.001   0.895   1.618  0.00  0.00     0.003 A 
ENDROOT
TORSDOF 0
ENDMDL
