MODEL 1
REMARK minimizedAffinity -2.8249836
REMARK minimizedRMSD -1
REMARK  0 active torsions:
REMARK  status: ('A' for Active; 'I' for Inactive)
ROOT
ATOM      1  C4' PXY d   1      -2.290  -2.096   0.906  0.00  0.00     0.077 C 
ATOM      2  C1' PXY d   1      -2.734   3.658   1.243  0.00  0.00     0.077 C 
ATOM      3  C1  PXY d   1      -2.612   2.149   1.166  0.00  0.00    -0.082 A 
ATOM      4  C2  PXY d   1      -2.629   1.550  -0.014  0.00  0.00     0.003 A 
ATOM      5  C3  PXY d   1      -2.552   0.184  -0.100  0.00  0.00     0.003 A 
ATOM      6  C4  PXY d   1      -2.401  -0.574   1.031  0.00  0.00    -0.082 A 
ATOM      7  C5  PXY d   1      -2.372   0.030   2.238  0.00  0.00     0.003 A 
ATOM      8  C6  PXY d   1      -2.493   1.415   2.306  0.00  0.00     0.003 A 
ENDROOT
TORSDOF 0
ENDMDL
