MODEL 1
REMARK minimizedAffinity -2.81529427
REMARK minimizedRMSD -1
REMARK  0 active torsions:
REMARK  status: ('A' for Active; 'I' for Inactive)
ROOT
ATOM      1  C4' PXY d   1      -2.698  -1.175   3.440  0.00  0.00     0.077 C 
ATOM      2  C1' PXY d   1      -2.426   2.642  -0.893  0.00  0.00     0.077 C 
ATOM      3  C1  PXY d   1      -2.503   1.632   0.236  0.00  0.00    -0.082 A 
ATOM      4  C2  PXY d   1      -2.480   2.051   1.491  0.00  0.00     0.003 A 
ATOM      5  C3  PXY d   1      -2.517   1.150   2.523  0.00  0.00     0.003 A 
ATOM      6  C4  PXY d   1      -2.632  -0.191   2.269  0.00  0.00    -0.082 A 
ATOM      7  C5  PXY d   1      -2.667  -0.625   0.992  0.00  0.00     0.003 A 
ATOM      8  C6  PXY d   1      -2.587   0.303  -0.043  0.00  0.00     0.003 A 
ENDROOT
TORSDOF 0
ENDMDL
