MODEL 1
REMARK minimizedAffinity 6.15484667
REMARK minimizedRMSD -1
REMARK  0 active torsions:
REMARK  status: ('A' for Active; 'I' for Inactive)
ROOT
ATOM      1  C4' PXY d   1      -5.506   0.241  -0.975  0.00  0.00     0.077 C 
ATOM      2  C1' PXY d   1      -2.212  -0.163   3.757  0.00  0.00     0.077 C 
ATOM      3  C1  PXY d   1      -3.066  -0.050   2.510  0.00  0.00    -0.082 A 
ATOM      4  C2  PXY d   1      -4.378  -0.202   2.600  0.00  0.00     0.003 A 
ATOM      5  C3  PXY d   1      -5.162  -0.135   1.478  0.00  0.00     0.003 A 
ATOM      6  C4  PXY d   1      -4.605   0.144   0.259  0.00  0.00    -0.082 A 
ATOM      7  C5  PXY d   1      -3.269   0.311   0.161  0.00  0.00     0.003 A 
ATOM      8  C6  PXY d   1      -2.485   0.198   1.305  0.00  0.00     0.003 A 
ENDROOT
TORSDOF 0
ENDMDL
