MODEL 1
REMARK minimizedAffinity -3.57500505
REMARK minimizedRMSD -1
REMARK  0 active torsions:
REMARK  status: ('A' for Active; 'I' for Inactive)
ROOT
ATOM      1  C4' PXY d   1      -2.421  -1.562   1.191  0.00  0.00     0.077 C 
ATOM      2  C1' PXY d   1      -4.488   2.236   5.028  0.00  0.00     0.077 C 
ATOM      3  C1  PXY d   1      -3.940   1.250   4.016  0.00  0.00    -0.082 A 
ATOM      4  C2  PXY d   1      -4.600   0.130   3.769  0.00  0.00     0.003 A 
ATOM      5  C3  PXY d   1      -4.102  -0.788   2.881  0.00  0.00     0.003 A 
ATOM      6  C4  PXY d   1      -2.943  -0.533   2.198  0.00  0.00    -0.082 A 
ATOM      7  C5  PXY d   1      -2.268   0.612   2.436  0.00  0.00     0.003 A 
ATOM      8  C6  PXY d   1      -2.770   1.512   3.372  0.00  0.00     0.003 A 
ENDROOT
TORSDOF 0
ENDMDL
