MODEL 1
REMARK minimizedAffinity -2.88636231
REMARK minimizedRMSD -1
REMARK  0 active torsions:
REMARK  status: ('A' for Active; 'I' for Inactive)
ROOT
ATOM      1  C4' PXY d   1      -2.712   2.933  -0.095  0.00  0.00     0.077 C 
ATOM      2  C1' PXY d   1      -3.375  -1.468   3.595  0.00  0.00     0.077 C 
ATOM      3  C1  PXY d   1      -3.199  -0.322   2.618  0.00  0.00    -0.082 A 
ATOM      4  C2  PXY d   1      -2.844   0.871   3.066  0.00  0.00     0.003 A 
ATOM      5  C3  PXY d   1      -2.712   1.926   2.200  0.00  0.00     0.003 A 
ATOM      6  C4  PXY d   1      -2.892   1.745   0.855  0.00  0.00    -0.082 A 
ATOM      7  C5  PXY d   1      -3.243   0.528   0.388  0.00  0.00     0.003 A 
ATOM      8  C6  PXY d   1      -3.413  -0.520   1.289  0.00  0.00     0.003 A 
ENDROOT
TORSDOF 0
ENDMDL
