MODEL 1
REMARK minimizedAffinity 0.0970506892
REMARK minimizedRMSD -1
REMARK  0 active torsions:
REMARK  status: ('A' for Active; 'I' for Inactive)
ROOT
ATOM      1  C4' PXY d   1      -2.817   3.869  -0.387  0.00  0.00     0.077 C 
ATOM      2  C1' PXY d   1      -3.165  -0.537   3.338  0.00  0.00     0.077 C 
ATOM      3  C1  PXY d   1      -3.072   0.610   2.352  0.00  0.00    -0.082 A 
ATOM      4  C2  PXY d   1      -2.721   1.812   2.778  0.00  0.00     0.003 A 
ATOM      5  C3  PXY d   1      -2.663   2.868   1.904  0.00  0.00     0.003 A 
ATOM      6  C4  PXY d   1      -2.915   2.679   0.572  0.00  0.00    -0.082 A 
ATOM      7  C5  PXY d   1      -3.264   1.453   0.128  0.00  0.00     0.003 A 
ATOM      8  C6  PXY d   1      -3.358   0.404   1.037  0.00  0.00     0.003 A 
ENDROOT
TORSDOF 0
ENDMDL
