MODEL 1
REMARK minimizedAffinity 1.97361147
REMARK minimizedRMSD -1
REMARK  0 active torsions:
REMARK  status: ('A' for Active; 'I' for Inactive)
ROOT
ATOM      1  C4' PXY d   1      -3.056   0.766  -0.664  0.00  0.00     0.077 C 
ATOM      2  C1' PXY d   1      -2.828  -0.243   5.023  0.00  0.00     0.077 C 
ATOM      3  C1  PXY d   1      -2.885   0.009   3.529  0.00  0.00    -0.082 A 
ATOM      4  C2  PXY d   1      -2.653   1.225   3.062  0.00  0.00     0.003 A 
ATOM      5  C3  PXY d   1      -2.732   1.477   1.716  0.00  0.00     0.003 A 
ATOM      6  C4  PXY d   1      -3.000   0.464   0.836  0.00  0.00    -0.082 A 
ATOM      7  C5  PXY d   1      -3.228  -0.782   1.304  0.00  0.00     0.003 A 
ATOM      8  C6  PXY d   1      -3.183  -1.009   2.676  0.00  0.00     0.003 A 
ENDROOT
TORSDOF 0
ENDMDL
