MODEL 1
REMARK minimizedAffinity -4.87250948
REMARK minimizedRMSD -1
REMARK  3 active torsions:
REMARK  status: ('A' for Active; 'I' for Inactive)
REMARK    1  A    between atoms: C3'_2  and  C2'_3 
REMARK    2  A    between atoms: C2'_3  and  C1'_4 
REMARK    3  A    between atoms: C1'_4  and  C1_5 
ROOT
ATOM      1  C1  N4B d   1       0.130   0.221   0.277  0.00  0.00    -0.075 A 
ATOM      2  C2  N4B d   1      -0.996   1.050   0.080  0.00  0.00     0.002 A 
ATOM      3  C3  N4B d   1      -1.364   1.950   1.050  0.00  0.00     0.002 A 
ATOM      4  C4  N4B d   1      -0.637   2.025   2.228  0.00  0.00    -0.004 A 
ATOM      5  C5  N4B d   1       0.464   1.238   2.400  0.00  0.00     0.002 A 
ATOM      6  C6  N4B d   1       0.849   0.332   1.432  0.00  0.00     0.002 A 
ENDROOT
BRANCH   1   7
ATOM      7  C1' N4B d   1       0.521  -0.838  -0.718  0.00  0.00     0.057 C 
BRANCH   7   8
ATOM      8  C2' N4B d   1       0.482  -2.203  -0.038  0.00  0.00     0.009 C 
BRANCH   8   9
ATOM      9  C3' N4B d   1       0.107  -3.310  -1.007  0.00  0.00     0.004 C 
ATOM     10  C4' N4B d   1      -1.330  -3.251  -1.430  0.00  0.00     0.003 C 
ENDBRANCH   8   9
ENDBRANCH   7   8
ENDBRANCH   1   7
TORSDOF 3
ENDMDL
