MODEL 1
REMARK minimizedAffinity -5.26315928
REMARK minimizedRMSD -1
REMARK  3 active torsions:
REMARK  status: ('A' for Active; 'I' for Inactive)
REMARK    1  A    between atoms: C3'_2  and  C2'_3 
REMARK    2  A    between atoms: C2'_3  and  C1'_4 
REMARK    3  A    between atoms: C1'_4  and  C1_5 
ROOT
ATOM      1  C1  N4B d   1      -0.186   0.620   0.281  0.00  0.00    -0.075 A 
ATOM      2  C2  N4B d   1      -0.881   1.849   0.294  0.00  0.00     0.002 A 
ATOM      3  C3  N4B d   1      -1.036   2.537   1.473  0.00  0.00     0.002 A 
ATOM      4  C4  N4B d   1      -0.524   2.009   2.648  0.00  0.00    -0.004 A 
ATOM      5  C5  N4B d   1       0.168   0.834   2.623  0.00  0.00     0.002 A 
ATOM      6  C6  N4B d   1       0.335   0.133   1.445  0.00  0.00     0.002 A 
ENDROOT
BRANCH   1   7
ATOM      7  C1' N4B d   1      -0.065  -0.211  -0.967  0.00  0.00     0.057 C 
BRANCH   7   8
ATOM      8  C2' N4B d   1      -0.003  -1.686  -0.583  0.00  0.00     0.009 C 
BRANCH   8   9
ATOM      9  C3' N4B d   1      -0.999  -2.520  -1.369  0.00  0.00     0.004 C 
ATOM     10  C4' N4B d   1      -0.688  -3.987  -1.330  0.00  0.00     0.003 C 
ENDBRANCH   8   9
ENDBRANCH   7   8
ENDBRANCH   1   7
TORSDOF 3
ENDMDL
