MODEL 1
REMARK minimizedAffinity -6.60463476
REMARK minimizedRMSD -1
REMARK  3 active torsions:
REMARK  status: ('A' for Active; 'I' for Inactive)
REMARK    1  A    between atoms: C3'_2  and  C2'_3 
REMARK    2  A    between atoms: C2'_3  and  C1'_4 
REMARK    3  A    between atoms: C1'_4  and  C1_5 
ROOT
ATOM      1  C1  N4B d   1      -0.162   0.493  -0.121  0.00  0.00    -0.075 A 
ATOM      2  C2  N4B d   1      -0.537   1.851  -0.218  0.00  0.00     0.002 A 
ATOM      3  C3  N4B d   1      -0.782   2.579   0.920  0.00  0.00     0.002 A 
ATOM      4  C4  N4B d   1      -0.678   1.968   2.161  0.00  0.00    -0.004 A 
ATOM      5  C5  N4B d   1      -0.291   0.663   2.247  0.00  0.00     0.002 A 
ATOM      6  C6  N4B d   1      -0.038  -0.080   1.112  0.00  0.00     0.002 A 
ENDROOT
BRANCH   1   7
ATOM      7  C1' N4B d   1       0.032  -0.367  -1.340  0.00  0.00     0.057 C 
BRANCH   7   8
ATOM      8  C2' N4B d   1      -1.117  -1.366  -1.437  0.00  0.00     0.009 C 
BRANCH   8   9
ATOM      9  C3' N4B d   1      -0.648  -2.725  -1.927  0.00  0.00     0.004 C 
ATOM     10  C4' N4B d   1       0.651  -3.149  -1.309  0.00  0.00     0.003 C 
ENDBRANCH   8   9
ENDBRANCH   7   8
ENDBRANCH   1   7
TORSDOF 3
ENDMDL
