MODEL 1
REMARK minimizedAffinity -3.10091186
REMARK minimizedRMSD -1
REMARK  3 active torsions:
REMARK  status: ('A' for Active; 'I' for Inactive)
REMARK    1  A    between atoms: C3'_2  and  C2'_3 
REMARK    2  A    between atoms: C2'_3  and  C1'_4 
REMARK    3  A    between atoms: C1'_4  and  C1_5 
ROOT
ATOM      1  C1  N4B d   1      -0.117   0.263   0.369  0.00  0.00    -0.075 A 
ATOM      2  C2  N4B d   1      -0.456   1.623   0.193  0.00  0.00     0.002 A 
ATOM      3  C3  N4B d   1      -0.124   2.544   1.156  0.00  0.00     0.002 A 
ATOM      4  C4  N4B d   1       0.526   2.127   2.308  0.00  0.00    -0.004 A 
ATOM      5  C5  N4B d   1       0.872   0.817   2.460  0.00  0.00     0.002 A 
ATOM      6  C6  N4B d   1       0.549  -0.119   1.498  0.00  0.00     0.002 A 
ENDROOT
BRANCH   1   7
ATOM      7  C1' N4B d   1      -0.534  -0.794  -0.617  0.00  0.00     0.057 C 
BRANCH   7   8
ATOM      8  C2' N4B d   1       0.711  -1.392  -1.266  0.00  0.00     0.009 C 
BRANCH   8   9
ATOM      9  C3' N4B d   1       0.587  -2.894  -1.455  0.00  0.00     0.004 C 
ATOM     10  C4' N4B d   1      -0.833  -3.341  -1.637  0.00  0.00     0.003 C 
ENDBRANCH   8   9
ENDBRANCH   7   8
ENDBRANCH   1   7
TORSDOF 3
ENDMDL
