MODEL 1
REMARK minimizedAffinity -2.48050642
REMARK minimizedRMSD -1
REMARK  3 active torsions:
REMARK  status: ('A' for Active; 'I' for Inactive)
REMARK    1  A    between atoms: C3'_2  and  C2'_3 
REMARK    2  A    between atoms: C2'_3  and  C1'_4 
REMARK    3  A    between atoms: C1'_4  and  C1_5 
ROOT
ATOM      1  C1  N4B d   1       0.393   0.069   0.202  0.00  0.00    -0.075 A 
ATOM      2  C2  N4B d   1       0.857  -0.495   1.411  0.00  0.00     0.002 A 
ATOM      3  C3  N4B d   1       0.916   0.273   2.548  0.00  0.00     0.002 A 
ATOM      4  C4  N4B d   1       0.535   1.605   2.498  0.00  0.00    -0.004 A 
ATOM      5  C5  N4B d   1       0.063   2.135   1.332  0.00  0.00     0.002 A 
ATOM      6  C6  N4B d   1      -0.005   1.375   0.182  0.00  0.00     0.002 A 
ENDROOT
BRANCH   1   7
ATOM      7  C1' N4B d   1       0.391  -0.706  -1.087  0.00  0.00     0.057 C 
BRANCH   7   8
ATOM      8  C2' N4B d   1      -0.256  -2.067  -0.852  0.00  0.00     0.009 C 
BRANCH   8   9
ATOM      9  C3' N4B d   1       0.705  -3.210  -1.132  0.00  0.00     0.004 C 
ATOM     10  C4' N4B d   1       0.094  -4.557  -0.887  0.00  0.00     0.003 C 
ENDBRANCH   8   9
ENDBRANCH   7   8
ENDBRANCH   1   7
TORSDOF 3
ENDMDL
