MODEL 1
REMARK minimizedAffinity -4.75036097
REMARK minimizedRMSD -1
REMARK  3 active torsions:
REMARK  status: ('A' for Active; 'I' for Inactive)
REMARK    1  A    between atoms: C3'_2  and  C2'_3 
REMARK    2  A    between atoms: C2'_3  and  C1'_4 
REMARK    3  A    between atoms: C1'_4  and  C1_5 
ROOT
ATOM      1  C1  N4B d   1      -0.205   0.220   0.391  0.00  0.00    -0.075 A 
ATOM      2  C2  N4B d   1       0.818  -0.249   1.245  0.00  0.00     0.002 A 
ATOM      3  C3  N4B d   1       1.239   0.524   2.299  0.00  0.00     0.002 A 
ATOM      4  C4  N4B d   1       0.668   1.770   2.508  0.00  0.00    -0.004 A 
ATOM      5  C5  N4B d   1      -0.337   2.204   1.694  0.00  0.00     0.002 A 
ATOM      6  C6  N4B d   1      -0.773   1.437   0.633  0.00  0.00     0.002 A 
ENDROOT
BRANCH   1   7
ATOM      7  C1' N4B d   1      -0.639  -0.551  -0.826  0.00  0.00     0.057 C 
BRANCH   7   8
ATOM      8  C2' N4B d   1       0.572  -1.253  -1.432  0.00  0.00     0.009 C 
BRANCH   8   9
ATOM      9  C3' N4B d   1       0.360  -2.753  -1.549  0.00  0.00     0.004 C 
ATOM     10  C4' N4B d   1      -0.733  -3.111  -2.512  0.00  0.00     0.003 C 
ENDBRANCH   8   9
ENDBRANCH   7   8
ENDBRANCH   1   7
TORSDOF 3
ENDMDL
