MODEL 1
REMARK minimizedAffinity -5.31181097
REMARK minimizedRMSD -1
REMARK  3 active torsions:
REMARK  status: ('A' for Active; 'I' for Inactive)
REMARK    1  A    between atoms: C3'_2  and  C2'_3 
REMARK    2  A    between atoms: C2'_3  and  C1'_4 
REMARK    3  A    between atoms: C1'_4  and  C1_5 
ROOT
ATOM      1  C1  N4B d   1       0.421  -0.449  -0.357  0.00  0.00    -0.075 A 
ATOM      2  C2  N4B d   1       1.104  -0.815   0.823  0.00  0.00     0.002 A 
ATOM      3  C3  N4B d   1       0.835  -0.163   2.002  0.00  0.00     0.002 A 
ATOM      4  C4  N4B d   1      -0.094   0.866   2.020  0.00  0.00    -0.004 A 
ATOM      5  C5  N4B d   1      -0.768   1.196   0.881  0.00  0.00     0.002 A 
ATOM      6  C6  N4B d   1      -0.511   0.547  -0.310  0.00  0.00     0.002 A 
ENDROOT
BRANCH   1   7
ATOM      7  C1' N4B d   1       0.742  -1.075  -1.687  0.00  0.00     0.057 C 
BRANCH   7   8
ATOM      8  C2' N4B d   1       0.702  -2.594  -1.549  0.00  0.00     0.009 C 
BRANCH   8   9
ATOM      9  C3' N4B d   1      -0.437  -3.207  -2.345  0.00  0.00     0.004 C 
ATOM     10  C4' N4B d   1      -1.194  -4.244  -1.571  0.00  0.00     0.003 C 
ENDBRANCH   8   9
ENDBRANCH   7   8
ENDBRANCH   1   7
TORSDOF 3
ENDMDL
