MODEL 1
REMARK minimizedAffinity -6.16870928
REMARK minimizedRMSD -1
REMARK  3 active torsions:
REMARK  status: ('A' for Active; 'I' for Inactive)
REMARK    1  A    between atoms: C3'_2  and  C2'_3 
REMARK    2  A    between atoms: C2'_3  and  C1'_4 
REMARK    3  A    between atoms: C1'_4  and  C1_5 
ROOT
ATOM      1  C1  N4B d   1      -0.280   0.380   0.358  0.00  0.00    -0.075 A 
ATOM      2  C2  N4B d   1      -0.755   1.415  -0.477  0.00  0.00     0.002 A 
ATOM      3  C3  N4B d   1      -0.775   2.710  -0.021  0.00  0.00     0.002 A 
ATOM      4  C4  N4B d   1      -0.344   2.991   1.267  0.00  0.00    -0.004 A 
ATOM      5  C5  N4B d   1       0.137   1.989   2.058  0.00  0.00     0.002 A 
ATOM      6  C6  N4B d   1       0.167   0.683   1.612  0.00  0.00     0.002 A 
ENDROOT
BRANCH   1   7
ATOM      7  C1' N4B d   1      -0.319  -1.063  -0.065  0.00  0.00     0.057 C 
BRANCH   7   8
ATOM      8  C2' N4B d   1       0.949  -1.390  -0.849  0.00  0.00     0.009 C 
BRANCH   8   9
ATOM      9  C3' N4B d   1       0.975  -2.837  -1.309  0.00  0.00     0.004 C 
ATOM     10  C4' N4B d   1      -0.387  -3.360  -1.659  0.00  0.00     0.003 C 
ENDBRANCH   8   9
ENDBRANCH   7   8
ENDBRANCH   1   7
TORSDOF 3
ENDMDL
