MODEL 1
REMARK minimizedAffinity -4.63794947
REMARK minimizedRMSD -1
REMARK  3 active torsions:
REMARK  status: ('A' for Active; 'I' for Inactive)
REMARK    1  A    between atoms: C3'_2  and  C2'_3 
REMARK    2  A    between atoms: C2'_3  and  C1'_4 
REMARK    3  A    between atoms: C1'_4  and  C1_5 
ROOT
ATOM      1  C1  N4B d   1      -0.050   1.957   1.997  0.00  0.00    -0.075 A 
ATOM      2  C2  N4B d   1       1.107   1.844   2.800  0.00  0.00     0.002 A 
ATOM      3  C3  N4B d   1       2.044   2.848   2.799  0.00  0.00     0.002 A 
ATOM      4  C4  N4B d   1       1.857   3.960   1.991  0.00  0.00    -0.004 A 
ATOM      5  C5  N4B d   1       0.725   4.072   1.238  0.00  0.00     0.002 A 
ATOM      6  C6  N4B d   1      -0.227   3.073   1.233  0.00  0.00     0.002 A 
ENDROOT
BRANCH   1   7
ATOM      7  C1' N4B d   1      -1.060   0.847   1.901  0.00  0.00     0.057 C 
BRANCH   7   8
ATOM      8  C2' N4B d   1      -0.391  -0.390   1.308  0.00  0.00     0.009 C 
BRANCH   8   9
ATOM      9  C3' N4B d   1      -0.120  -0.231  -0.179  0.00  0.00     0.004 C 
ATOM     10  C4' N4B d   1       0.336  -1.505  -0.825  0.00  0.00     0.003 C 
ENDBRANCH   8   9
ENDBRANCH   7   8
ENDBRANCH   1   7
TORSDOF 3
ENDMDL
