MODEL 1
REMARK minimizedAffinity -1.80547643
REMARK minimizedRMSD -1
REMARK  3 active torsions:
REMARK  status: ('A' for Active; 'I' for Inactive)
REMARK    1  A    between atoms: C3'_2  and  C2'_3 
REMARK    2  A    between atoms: C2'_3  and  C1'_4 
REMARK    3  A    between atoms: C1'_4  and  C1_5 
ROOT
ATOM      1  C1  N4B d   1      -0.308   0.378  -0.016  0.00  0.00    -0.075 A 
ATOM      2  C2  N4B d   1       0.395   0.309   1.207  0.00  0.00     0.002 A 
ATOM      3  C3  N4B d   1       0.090   1.179   2.224  0.00  0.00     0.002 A 
ATOM      4  C4  N4B d   1      -0.897   2.135   2.036  0.00  0.00    -0.004 A 
ATOM      5  C5  N4B d   1      -1.589   2.178   0.862  0.00  0.00     0.002 A 
ATOM      6  C6  N4B d   1      -1.296   1.307  -0.168  0.00  0.00     0.002 A 
ENDROOT
BRANCH   1   7
ATOM      7  C1' N4B d   1       0.048  -0.496  -1.187  0.00  0.00     0.057 C 
BRANCH   7   8
ATOM      8  C2' N4B d   1      -0.067  -1.960  -0.773  0.00  0.00     0.009 C 
BRANCH   8   9
ATOM      9  C3' N4B d   1      -0.470  -2.850  -1.937  0.00  0.00     0.004 C 
ATOM     10  C4' N4B d   1       0.040  -4.253  -1.799  0.00  0.00     0.003 C 
ENDBRANCH   8   9
ENDBRANCH   7   8
ENDBRANCH   1   7
TORSDOF 3
ENDMDL
