MODEL 1
REMARK minimizedAffinity 8.45808983
REMARK minimizedRMSD -1
REMARK  0 active torsions:
REMARK  status: ('A' for Active; 'I' for Inactive)
ROOT
ATOM      1  N1  IND d   1       3.073   3.030  -3.761  0.00  0.00    -0.196 N 
ATOM      2  C2  IND d   1       1.819   3.572  -3.735  0.00  0.00     0.054 A 
ATOM      3  C3  IND d   1       1.800   4.745  -4.406  0.00  0.00    -0.031 A 
ATOM      4  C4  IND d   1       3.686   5.914  -5.710  0.00  0.00     0.051 A 
ATOM      5  C5  IND d   1       5.021   5.821  -5.990  0.00  0.00    -0.031 A 
ATOM      6  C6  IND d   1       5.789   4.769  -5.535  0.00  0.00     0.015 A 
ATOM      7  C7  IND d   1       5.247   3.762  -4.788  0.00  0.00    -0.016 A 
ATOM      8  C8  IND d   1       3.894   3.857  -4.496  0.00  0.00    -0.047 A 
ATOM      9  C9  IND d   1       3.118   4.944  -4.920  0.00  0.00    -0.096 A 
ATOM     10  HN1 IND d   1       3.310   2.295  -3.382  0.00  0.00     0.298 HD
ENDROOT
TORSDOF 0
ENDMDL
