MODEL 1
REMARK minimizedAffinity 5.53377438
REMARK minimizedRMSD -1
REMARK  0 active torsions:
REMARK  status: ('A' for Active; 'I' for Inactive)
ROOT
ATOM      1  N1  IND d   1       1.328  -1.267  -2.637  0.00  0.00    -0.196 N 
ATOM      2  C2  IND d   1       1.332  -1.165  -1.274  0.00  0.00     0.054 A 
ATOM      3  C3  IND d   1       0.066  -1.098  -0.804  0.00  0.00    -0.031 A 
ATOM      4  C4  IND d   1      -2.164  -1.239  -2.083  0.00  0.00     0.051 A 
ATOM      5  C5  IND d   1      -2.678  -1.299  -3.348  0.00  0.00    -0.031 A 
ATOM      6  C6  IND d   1      -1.867  -1.355  -4.463  0.00  0.00     0.015 A 
ATOM      7  C7  IND d   1      -0.505  -1.365  -4.353  0.00  0.00    -0.016 A 
ATOM      8  C8  IND d   1       0.021  -1.297  -3.071  0.00  0.00    -0.047 A 
ATOM      9  C9  IND d   1      -0.797  -1.197  -1.938  0.00  0.00    -0.096 A 
ATOM     10  HN1 IND d   1       2.025  -1.306  -3.139  0.00  0.00     0.298 HD
ENDROOT
TORSDOF 0
ENDMDL
