MODEL 1
REMARK minimizedAffinity 3.83500934
REMARK minimizedRMSD -1
REMARK  0 active torsions:
REMARK  status: ('A' for Active; 'I' for Inactive)
ROOT
ATOM      1  N1  IND d   1       0.917  -1.283  -0.088  0.00  0.00    -0.196 N 
ATOM      2  C2  IND d   1       1.275  -1.429  -1.399  0.00  0.00     0.054 A 
ATOM      3  C3  IND d   1       1.612  -0.233  -1.932  0.00  0.00    -0.031 A 
ATOM      4  C4  IND d   1       1.745   2.078  -0.807  0.00  0.00     0.051 A 
ATOM      5  C5  IND d   1       1.478   2.721   0.370  0.00  0.00    -0.031 A 
ATOM      6  C6  IND d   1       1.004   2.047   1.477  0.00  0.00     0.015 A 
ATOM      7  C7  IND d   1       0.788   0.699   1.452  0.00  0.00    -0.016 A 
ATOM      8  C8  IND d   1       1.051   0.044   0.257  0.00  0.00    -0.047 A 
ATOM      9  C9  IND d   1       1.492   0.729  -0.883  0.00  0.00    -0.096 A 
ATOM     10  HN1 IND d   1       0.652  -1.913   0.433  0.00  0.00     0.298 HD
ENDROOT
TORSDOF 0
ENDMDL
