MODEL 1
REMARK minimizedAffinity 1.99188685
REMARK minimizedRMSD -1
REMARK  0 active torsions:
REMARK  status: ('A' for Active; 'I' for Inactive)
ROOT
ATOM      1  N1  IND d   1      -0.568   5.974  -4.098  0.00  0.00    -0.196 N 
ATOM      2  C2  IND d   1       0.465   5.975  -3.202  0.00  0.00     0.054 A 
ATOM      3  C3  IND d   1      -0.011   5.999  -1.936  0.00  0.00    -0.031 A 
ATOM      4  C4  IND d   1      -2.446   5.937  -1.102  0.00  0.00     0.051 A 
ATOM      5  C5  IND d   1      -3.737   5.967  -1.547  0.00  0.00    -0.031 A 
ATOM      6  C6  IND d   1      -4.045   5.999  -2.892  0.00  0.00     0.015 A 
ATOM      7  C7  IND d   1      -3.068   5.990  -3.847  0.00  0.00    -0.016 A 
ATOM      8  C8  IND d   1      -1.755   5.967  -3.399  0.00  0.00    -0.047 A 
ATOM      9  C9  IND d   1      -1.436   5.978  -2.035  0.00  0.00    -0.096 A 
ATOM     10  HN1 IND d   1      -0.489   5.977  -4.954  0.00  0.00     0.298 HD
ENDROOT
TORSDOF 0
ENDMDL
