MODEL 1
REMARK minimizedAffinity 5.84214449
REMARK minimizedRMSD -1
REMARK  0 active torsions:
REMARK  status: ('A' for Active; 'I' for Inactive)
ROOT
ATOM      1  N1  IND d   1       3.800   3.880  -5.281  0.00  0.00    -0.196 N 
ATOM      2  C2  IND d   1       4.492   5.006  -5.631  0.00  0.00     0.054 A 
ATOM      3  C3  IND d   1       3.638   5.988  -5.997  0.00  0.00    -0.031 A 
ATOM      4  C4  IND d   1       1.063   5.999  -6.000  0.00  0.00     0.051 A 
ATOM      5  C5  IND d   1      -0.018   5.188  -5.796  0.00  0.00    -0.031 A 
ATOM      6  C6  IND d   1       0.121   3.874  -5.399  0.00  0.00     0.015 A 
ATOM      7  C7  IND d   1       1.352   3.322  -5.180  0.00  0.00    -0.016 A 
ATOM      8  C8  IND d   1       2.452   4.141  -5.393  0.00  0.00    -0.047 A 
ATOM      9  C9  IND d   1       2.319   5.463  -5.836  0.00  0.00    -0.096 A 
ATOM     10  HN1 IND d   1       4.149   3.134  -5.033  0.00  0.00     0.298 HD
ENDROOT
TORSDOF 0
ENDMDL
