MODEL 1
REMARK minimizedAffinity 5.75242281
REMARK minimizedRMSD -1
REMARK  0 active torsions:
REMARK  status: ('A' for Active; 'I' for Inactive)
ROOT
ATOM      1  N1  IND d   1      -4.272   5.993  -2.791  0.00  0.00    -0.196 N 
ATOM      2  C2  IND d   1      -4.415   5.989  -1.431  0.00  0.00     0.054 A 
ATOM      3  C3  IND d   1      -3.204   5.944  -0.831  0.00  0.00    -0.031 A 
ATOM      4  C4  IND d   1      -0.855   5.974  -1.884  0.00  0.00     0.051 A 
ATOM      5  C5  IND d   1      -0.215   5.938  -3.092  0.00  0.00    -0.031 A 
ATOM      6  C6  IND d   1      -0.909   5.921  -4.284  0.00  0.00     0.015 A 
ATOM      7  C7  IND d   1      -2.274   5.951  -4.314  0.00  0.00    -0.016 A 
ATOM      8  C8  IND d   1      -2.927   5.980  -3.090  0.00  0.00    -0.047 A 
ATOM      9  C9  IND d   1      -2.230   5.955  -1.876  0.00  0.00    -0.096 A 
ATOM     10  HN1 IND d   1      -4.914   6.002  -3.362  0.00  0.00     0.298 HD
ENDROOT
TORSDOF 0
ENDMDL
