MODEL 1
REMARK minimizedAffinity 0.620899439
REMARK minimizedRMSD -1
REMARK  0 active torsions:
REMARK  status: ('A' for Active; 'I' for Inactive)
ROOT
ATOM      1  N1  IND d   1      -4.098   5.998  -2.089  0.00  0.00    -0.196 N 
ATOM      2  C2  IND d   1      -4.415   5.982  -0.760  0.00  0.00     0.054 A 
ATOM      3  C3  IND d   1      -3.291   5.942  -0.009  0.00  0.00    -0.031 A 
ATOM      4  C4  IND d   1      -0.827   6.000  -0.750  0.00  0.00     0.051 A 
ATOM      5  C5  IND d   1      -0.036   5.979  -1.865  0.00  0.00    -0.031 A 
ATOM      6  C6  IND d   1      -0.570   5.965  -3.137  0.00  0.00     0.015 A 
ATOM      7  C7  IND d   1      -1.921   5.984  -3.343  0.00  0.00    -0.016 A 
ATOM      8  C8  IND d   1      -2.726   5.999  -2.213  0.00  0.00    -0.047 A 
ATOM      9  C9  IND d   1      -2.191   5.969  -0.919  0.00  0.00    -0.096 A 
ATOM     10  HN1 IND d   1      -4.662   6.006  -2.739  0.00  0.00     0.298 HD
ENDROOT
TORSDOF 0
ENDMDL
