MODEL 1
REMARK minimizedAffinity 2.73675132
REMARK minimizedRMSD -1
REMARK  0 active torsions:
REMARK  status: ('A' for Active; 'I' for Inactive)
ROOT
ATOM      1  N1  IND d   1       1.289   3.319   1.687  0.00  0.00    -0.196 N 
ATOM      2  C2  IND d   1       1.874   3.484   0.463  0.00  0.00     0.054 A 
ATOM      3  C3  IND d   1       1.766   2.351  -0.267  0.00  0.00    -0.031 A 
ATOM      4  C4  IND d   1       0.582   0.140   0.313  0.00  0.00     0.051 A 
ATOM      5  C5  IND d   1      -0.065  -0.501   1.332  0.00  0.00    -0.031 A 
ATOM      6  C6  IND d   1      -0.302   0.113   2.545  0.00  0.00     0.015 A 
ATOM      7  C7  IND d   1       0.093   1.399   2.782  0.00  0.00    -0.016 A 
ATOM      8  C8  IND d   1       0.757   2.050   1.751  0.00  0.00    -0.047 A 
ATOM      9  C9  IND d   1       1.037   1.418   0.533  0.00  0.00    -0.096 A 
ATOM     10  HN1 IND d   1       1.259   3.909   2.312  0.00  0.00     0.298 HD
ENDROOT
TORSDOF 0
ENDMDL
