MODEL 1
REMARK minimizedAffinity -1.83843446
REMARK minimizedRMSD -1
REMARK  0 active torsions:
REMARK  status: ('A' for Active; 'I' for Inactive)
ROOT
ATOM      1  N1  IND d   1       0.648   6.000  -2.714  0.00  0.00    -0.196 N 
ATOM      2  C2  IND d   1       0.958   5.985  -4.045  0.00  0.00     0.054 A 
ATOM      3  C3  IND d   1      -0.169   5.944  -4.790  0.00  0.00    -0.031 A 
ATOM      4  C4  IND d   1      -2.630   5.998  -4.036  0.00  0.00     0.051 A 
ATOM      5  C5  IND d   1      -3.415   5.975  -2.918  0.00  0.00    -0.031 A 
ATOM      6  C6  IND d   1      -2.874   5.961  -1.648  0.00  0.00     0.015 A 
ATOM      7  C7  IND d   1      -1.523   5.982  -1.449  0.00  0.00    -0.016 A 
ATOM      8  C8  IND d   1      -0.723   5.998  -2.583  0.00  0.00    -0.047 A 
ATOM      9  C9  IND d   1      -1.265   5.969  -3.874  0.00  0.00    -0.096 A 
ATOM     10  HN1 IND d   1       1.215   6.008  -2.067  0.00  0.00     0.298 HD
ENDROOT
TORSDOF 0
ENDMDL
