MODEL 1
REMARK minimizedAffinity -0.107888013
REMARK minimizedRMSD -1
REMARK  0 active torsions:
REMARK  status: ('A' for Active; 'I' for Inactive)
ROOT
ATOM      1  N1  IND d   1      -0.710   5.987  -6.000  0.00  0.00    -0.196 N 
ATOM      2  C2  IND d   1       0.645   5.982  -5.822  0.00  0.00     0.054 A 
ATOM      3  C3  IND d   1       0.947   5.994  -4.504  0.00  0.00    -0.031 A 
ATOM      4  C4  IND d   1      -0.624   5.923  -2.466  0.00  0.00     0.051 A 
ATOM      5  C5  IND d   1      -1.947   5.956  -2.124  0.00  0.00    -0.031 A 
ATOM      6  C6  IND d   1      -2.945   5.999  -3.075  0.00  0.00     0.015 A 
ATOM      7  C7  IND d   1      -2.657   6.000  -4.411  0.00  0.00    -0.016 A 
ATOM      8  C8  IND d   1      -1.315   5.973  -4.762  0.00  0.00    -0.047 A 
ATOM      9  C9  IND d   1      -0.296   5.972  -3.800  0.00  0.00    -0.096 A 
ATOM     10  HN1 IND d   1      -1.117   5.998  -6.757  0.00  0.00     0.298 HD
ENDROOT
TORSDOF 0
ENDMDL
