MODEL 1
REMARK minimizedAffinity -0.622795761
REMARK minimizedRMSD -1
REMARK  0 active torsions:
REMARK  status: ('A' for Active; 'I' for Inactive)
ROOT
ATOM      1  N1  IND d   1       1.140   5.992  -3.704  0.00  0.00    -0.196 N 
ATOM      2  C2  IND d   1       1.145   5.976  -5.071  0.00  0.00     0.054 A 
ATOM      3  C3  IND d   1      -0.121   5.938  -5.545  0.00  0.00    -0.031 A 
ATOM      4  C4  IND d   1      -2.351   6.000  -4.262  0.00  0.00     0.051 A 
ATOM      5  C5  IND d   1      -2.867   5.980  -2.996  0.00  0.00    -0.031 A 
ATOM      6  C6  IND d   1      -2.057   5.965  -1.879  0.00  0.00     0.015 A 
ATOM      7  C7  IND d   1      -0.695   5.981  -1.987  0.00  0.00    -0.016 A 
ATOM      8  C8  IND d   1      -0.168   5.995  -3.270  0.00  0.00    -0.047 A 
ATOM      9  C9  IND d   1      -0.985   5.967  -4.408  0.00  0.00    -0.096 A 
ATOM     10  HN1 IND d   1       1.836   5.999  -3.200  0.00  0.00     0.298 HD
ENDROOT
TORSDOF 0
ENDMDL
