MODEL 1
REMARK minimizedAffinity 5.50860453
REMARK minimizedRMSD -1
REMARK  0 active torsions:
REMARK  status: ('A' for Active; 'I' for Inactive)
ROOT
ATOM      1  N1  IND d   1       2.118   0.399   3.453  0.00  0.00    -0.196 N 
ATOM      2  C2  IND d   1       1.680   0.631   4.727  0.00  0.00     0.054 A 
ATOM      3  C3  IND d   1       0.336   0.771   4.745  0.00  0.00    -0.031 A 
ATOM      4  C4  IND d   1      -1.357   0.555   2.817  0.00  0.00     0.051 A 
ATOM      5  C5  IND d   1      -1.431   0.385   1.463  0.00  0.00    -0.031 A 
ATOM      6  C6  IND d   1      -0.304   0.206   0.688  0.00  0.00     0.015 A 
ATOM      7  C7  IND d   1       0.945   0.177   1.242  0.00  0.00    -0.016 A 
ATOM      8  C8  IND d   1       1.025   0.356   2.615  0.00  0.00    -0.047 A 
ATOM      9  C9  IND d   1      -0.113   0.581   3.402  0.00  0.00    -0.096 A 
ATOM     10  HN1 IND d   1       2.937   0.298   3.215  0.00  0.00     0.298 HD
ENDROOT
TORSDOF 0
ENDMDL
