MODEL 1
REMARK minimizedAffinity 3.41329122
REMARK minimizedRMSD -1
REMARK  0 active torsions:
REMARK  status: ('A' for Active; 'I' for Inactive)
ROOT
ATOM      1  N1  IND d   1       0.794   3.219   1.655  0.00  0.00    -0.196 N 
ATOM      2  C2  IND d   1       1.471   3.201   0.468  0.00  0.00     0.054 A 
ATOM      3  C3  IND d   1       1.567   1.936  -0.000  0.00  0.00    -0.031 A 
ATOM      4  C4  IND d   1       0.597  -0.243   0.967  0.00  0.00     0.051 A 
ATOM      5  C5  IND d   1      -0.068  -0.737   2.055  0.00  0.00    -0.031 A 
ATOM      6  C6  IND d   1      -0.490   0.079   3.084  0.00  0.00     0.015 A 
ATOM      7  C7  IND d   1      -0.272   1.428   3.059  0.00  0.00    -0.016 A 
ATOM      8  C8  IND d   1       0.408   1.932   1.959  0.00  0.00    -0.047 A 
ATOM      9  C9  IND d   1       0.876   1.103   0.932  0.00  0.00    -0.096 A 
ATOM     10  HN1 IND d   1       0.635   3.917   2.132  0.00  0.00     0.298 HD
ENDROOT
TORSDOF 0
ENDMDL
