MODEL 1
REMARK minimizedAffinity 8.1093483
REMARK minimizedRMSD -1
REMARK  0 active torsions:
REMARK  status: ('A' for Active; 'I' for Inactive)
ROOT
ATOM      1  N1  IND d   1       2.417   6.000  -5.593  0.00  0.00    -0.196 N 
ATOM      2  C2  IND d   1       3.311   5.011  -5.897  0.00  0.00     0.054 A 
ATOM      3  C3  IND d   1       2.801   3.801  -5.577  0.00  0.00    -0.031 A 
ATOM      4  C4  IND d   1       0.481   3.201  -4.637  0.00  0.00     0.051 A 
ATOM      5  C5  IND d   1      -0.669   3.767  -4.162  0.00  0.00    -0.031 A 
ATOM      6  C6  IND d   1      -0.853   5.135  -4.143  0.00  0.00     0.015 A 
ATOM      7  C7  IND d   1       0.105   5.990  -4.609  0.00  0.00    -0.016 A 
ATOM      8  C8  IND d   1       1.276   5.418  -5.085  0.00  0.00    -0.047 A 
ATOM      9  C9  IND d   1       1.486   4.033  -5.068  0.00  0.00    -0.096 A 
ATOM     10  HN1 IND d   1       2.546   6.843  -5.700  0.00  0.00     0.298 HD
ENDROOT
TORSDOF 0
ENDMDL
