MODEL 1
REMARK minimizedAffinity 5.09829378
REMARK minimizedRMSD -1
REMARK  0 active torsions:
REMARK  status: ('A' for Active; 'I' for Inactive)
ROOT
ATOM      1  N1  IND d   1       0.412   2.533   1.420  0.00  0.00    -0.196 N 
ATOM      2  C2  IND d   1       1.503   2.945   0.707  0.00  0.00     0.054 A 
ATOM      3  C3  IND d   1       1.962   1.941  -0.074  0.00  0.00    -0.031 A 
ATOM      4  C4  IND d   1       1.016  -0.428  -0.415  0.00  0.00     0.051 A 
ATOM      5  C5  IND d   1       0.051  -1.280   0.046  0.00  0.00    -0.031 A 
ATOM      6  C6  IND d   1      -0.862  -0.895   1.006  0.00  0.00     0.015 A 
ATOM      7  C7  IND d   1      -0.852   0.365   1.535  0.00  0.00    -0.016 A 
ATOM      8  C8  IND d   1       0.130   1.229   1.074  0.00  0.00    -0.047 A 
ATOM      9  C9  IND d   1       1.086   0.831   0.131  0.00  0.00    -0.096 A 
ATOM     10  HN1 IND d   1      -0.024   3.008   1.988  0.00  0.00     0.298 HD
ENDROOT
TORSDOF 0
ENDMDL
