MODEL 1
REMARK minimizedAffinity 2.56030679
REMARK minimizedRMSD -1
REMARK  0 active torsions:
REMARK  status: ('A' for Active; 'I' for Inactive)
ROOT
ATOM      1  N1  IND d   1       0.635   5.993  -3.366  0.00  0.00    -0.196 N 
ATOM      2  C2  IND d   1       0.801   5.971  -4.723  0.00  0.00     0.054 A 
ATOM      3  C3  IND d   1      -0.399   5.930  -5.343  0.00  0.00    -0.031 A 
ATOM      4  C4  IND d   1      -2.766   5.995  -4.331  0.00  0.00     0.051 A 
ATOM      5  C5  IND d   1      -3.427   5.980  -3.135  0.00  0.00    -0.031 A 
ATOM      6  C6  IND d   1      -2.754   5.971  -1.930  0.00  0.00     0.015 A 
ATOM      7  C7  IND d   1      -1.389   5.989  -1.877  0.00  0.00    -0.016 A 
ATOM      8  C8  IND d   1      -0.714   5.997  -3.089  0.00  0.00    -0.047 A 
ATOM      9  C9  IND d   1      -1.391   5.963  -4.315  0.00  0.00    -0.096 A 
ATOM     10  HN1 IND d   1       1.268   6.003  -2.783  0.00  0.00     0.298 HD
ENDROOT
TORSDOF 0
ENDMDL
