MODEL 1
REMARK minimizedAffinity 2.12604666
REMARK minimizedRMSD -1
REMARK  0 active torsions:
REMARK  status: ('A' for Active; 'I' for Inactive)
ROOT
ATOM      1  N1  IND d   1       1.187  -0.908  -0.323  0.00  0.00    -0.196 N 
ATOM      2  C2  IND d   1       1.427  -0.991  -1.666  0.00  0.00     0.054 A 
ATOM      3  C3  IND d   1       1.747   0.225  -2.163  0.00  0.00    -0.031 A 
ATOM      4  C4  IND d   1       2.036   2.469  -0.935  0.00  0.00     0.051 A 
ATOM      5  C5  IND d   1       1.888   3.052   0.292  0.00  0.00    -0.031 A 
ATOM      6  C6  IND d   1       1.493   2.330   1.400  0.00  0.00     0.015 A 
ATOM      7  C7  IND d   1       1.242   0.990   1.324  0.00  0.00    -0.016 A 
ATOM      8  C8  IND d   1       1.385   0.395   0.078  0.00  0.00    -0.047 A 
ATOM      9  C9  IND d   1       1.744   1.131  -1.059  0.00  0.00    -0.096 A 
ATOM     10  HN1 IND d   1       0.952  -1.560   0.186  0.00  0.00     0.298 HD
ENDROOT
TORSDOF 0
ENDMDL
