MODEL 1
REMARK minimizedAffinity 4.86159325
REMARK minimizedRMSD -1
REMARK  1 active torsions:
REMARK  status: ('A' for Active; 'I' for Inactive)
REMARK    1  A    between atoms: C1_2  and  C2_3 
ROOT
ATOM      1  C2  UNL d   1       1.855  -2.287   2.429  0.00  0.00    -0.076 A 
ATOM      2  C3  UNL d   1       2.256  -3.262   3.359  0.00  0.00     0.004 A 
ATOM      3  C4  UNL d   1       1.939  -3.137   4.710  0.00  0.00    -0.003 A 
ATOM      4  C5  UNL d   1       1.216  -2.036   5.154  0.00  0.00     0.000 A 
ATOM      5  C6  UNL d   1       0.795  -1.067   4.243  0.00  0.00     0.000 A 
ATOM      6  C7  UNL d   1       1.092  -1.186   2.874  0.00  0.00    -0.073 A 
ATOM      7  C8  UNL d   1       0.618  -0.109   1.937  0.00  0.00     0.078 C 
ENDROOT
BRANCH   1   8
ATOM      8  C1  UNL d   1       2.251  -2.462   0.980  0.00  0.00     0.053 C 
ATOM      9  C   UNL d   1       3.590  -1.816   0.660  0.00  0.00     0.018 C 
ENDBRANCH   1   8
TORSDOF 1
ENDMDL
