MODEL 1
REMARK minimizedAffinity 5.69945431
REMARK minimizedRMSD -1
REMARK  1 active torsions:
REMARK  status: ('A' for Active; 'I' for Inactive)
REMARK    1  A    between atoms: C1_2  and  C2_3 
ROOT
ATOM      1  C2  UNL d   1      -2.264  -0.430   0.235  0.00  0.00    -0.076 A 
ATOM      2  C3  UNL d   1      -3.334  -1.006  -0.471  0.00  0.00     0.004 A 
ATOM      3  C4  UNL d   1      -3.358  -2.371  -0.750  0.00  0.00    -0.003 A 
ATOM      4  C5  UNL d   1      -2.311  -3.183  -0.326  0.00  0.00     0.000 A 
ATOM      5  C6  UNL d   1      -1.250  -2.631   0.391  0.00  0.00     0.000 A 
ATOM      6  C7  UNL d   1      -1.219  -1.259   0.694  0.00  0.00    -0.073 A 
ATOM      7  C8  UNL d   1      -0.047  -0.717   1.465  0.00  0.00     0.078 C 
ENDROOT
BRANCH   1   8
ATOM      8  C1  UNL d   1      -2.280   1.062   0.484  0.00  0.00     0.053 C 
ATOM      9  C   UNL d   1      -1.150   1.784  -0.233  0.00  0.00     0.018 C 
ENDBRANCH   1   8
TORSDOF 1
ENDMDL
