MODEL 1
REMARK minimizedAffinity 7.90863657
REMARK minimizedRMSD -1
REMARK  1 active torsions:
REMARK  status: ('A' for Active; 'I' for Inactive)
REMARK    1  A    between atoms: C1_2  and  C2_3 
ROOT
ATOM      1  C2  UNL d   1       2.067  -2.285   2.227  0.00  0.00    -0.076 A 
ATOM      2  C3  UNL d   1       2.486  -3.359   3.031  0.00  0.00     0.004 A 
ATOM      3  C4  UNL d   1       2.248  -3.364   4.404  0.00  0.00    -0.003 A 
ATOM      4  C5  UNL d   1       1.586  -2.294   4.996  0.00  0.00     0.000 A 
ATOM      5  C6  UNL d   1       1.148  -1.227   4.212  0.00  0.00     0.000 A 
ATOM      6  C7  UNL d   1       1.366  -1.215   2.823  0.00  0.00    -0.073 A 
ATOM      7  C8  UNL d   1       0.877  -0.036   2.027  0.00  0.00     0.078 C 
ENDROOT
BRANCH   1   8
ATOM      8  C1  UNL d   1       2.377  -2.322   0.748  0.00  0.00     0.053 C 
ATOM      9  C   UNL d   1       3.838  -2.640   0.466  0.00  0.00     0.018 C 
ENDBRANCH   1   8
TORSDOF 1
ENDMDL
