MODEL 1
REMARK minimizedAffinity 9.3216095
REMARK minimizedRMSD -1
REMARK  1 active torsions:
REMARK  status: ('A' for Active; 'I' for Inactive)
REMARK    1  A    between atoms: C1_2  and  C2_3 
ROOT
ATOM      1  C2  UNL d   1       2.581  -2.685   3.513  0.00  0.00    -0.076 A 
ATOM      2  C3  UNL d   1       2.486  -2.215   2.192  0.00  0.00     0.004 A 
ATOM      3  C4  UNL d   1       1.846  -1.010   1.903  0.00  0.00    -0.003 A 
ATOM      4  C5  UNL d   1       1.292  -0.256   2.932  0.00  0.00     0.000 A 
ATOM      5  C6  UNL d   1       1.393  -0.698   4.250  0.00  0.00     0.000 A 
ATOM      6  C7  UNL d   1       2.048  -1.903   4.560  0.00  0.00    -0.073 A 
ATOM      7  C8  UNL d   1       2.122  -2.335   5.999  0.00  0.00     0.078 C 
ENDROOT
BRANCH   1   8
ATOM      8  C1  UNL d   1       3.261  -4.012   3.762  0.00  0.00     0.053 C 
ATOM      9  C   UNL d   1       2.403  -5.195   3.343  0.00  0.00     0.018 C 
ENDBRANCH   1   8
TORSDOF 1
ENDMDL
