MODEL 1
REMARK minimizedAffinity 4.56101608
REMARK minimizedRMSD -1
REMARK  1 active torsions:
REMARK  status: ('A' for Active; 'I' for Inactive)
REMARK    1  A    between atoms: C1_2  and  C2_3 
ROOT
ATOM      1  C2  UNL d   1       1.649  -1.512   4.314  0.00  0.00    -0.076 A 
ATOM      2  C3  UNL d   1       1.861  -2.498   3.336  0.00  0.00     0.004 A 
ATOM      3  C4  UNL d   1       1.792  -2.189   1.979  0.00  0.00    -0.003 A 
ATOM      4  C5  UNL d   1       1.511  -0.888   1.577  0.00  0.00     0.000 A 
ATOM      5  C6  UNL d   1       1.315   0.107   2.534  0.00  0.00     0.000 A 
ATOM      6  C7  UNL d   1       1.397  -0.184   3.907  0.00  0.00    -0.073 A 
ATOM      7  C8  UNL d   1       1.171   0.927   4.895  0.00  0.00     0.078 C 
ENDROOT
BRANCH   1   8
ATOM      8  C1  UNL d   1       1.709  -1.912   5.771  0.00  0.00     0.053 C 
ATOM      9  C   UNL d   1       2.541  -3.165   5.998  0.00  0.00     0.018 C 
ENDBRANCH   1   8
TORSDOF 1
ENDMDL
