MODEL 1
REMARK minimizedAffinity 11.5339947
REMARK minimizedRMSD -1
REMARK  1 active torsions:
REMARK  status: ('A' for Active; 'I' for Inactive)
REMARK    1  A    between atoms: C1_2  and  C2_3 
ROOT
ATOM      1  C2  UNL d   1      -0.378  -1.470   1.499  0.00  0.00    -0.076 A 
ATOM      2  C3  UNL d   1      -1.613  -0.880   1.183  0.00  0.00     0.004 A 
ATOM      3  C4  UNL d   1      -2.515  -1.514   0.330  0.00  0.00    -0.003 A 
ATOM      4  C5  UNL d   1      -2.195  -2.750  -0.220  0.00  0.00     0.000 A 
ATOM      5  C6  UNL d   1      -0.981  -3.359   0.096  0.00  0.00     0.000 A 
ATOM      6  C7  UNL d   1      -0.068  -2.741   0.968  0.00  0.00    -0.073 A 
ATOM      7  C8  UNL d   1       1.229  -3.440   1.270  0.00  0.00     0.078 C 
ENDROOT
BRANCH   1   8
ATOM      8  C1  UNL d   1       0.571  -0.723   2.409  0.00  0.00     0.053 C 
ATOM      9  C   UNL d   1       1.090   0.561   1.781  0.00  0.00     0.018 C 
ENDBRANCH   1   8
TORSDOF 1
ENDMDL
