MODEL 1
REMARK minimizedAffinity 3.1937542
REMARK minimizedRMSD -1
REMARK  1 active torsions:
REMARK  status: ('A' for Active; 'I' for Inactive)
REMARK    1  A    between atoms: C1_2  and  C2_3 
ROOT
ATOM      1  C2  UNL d   1       1.986  -3.031   3.134  0.00  0.00    -0.076 A 
ATOM      2  C3  UNL d   1       2.013  -2.533   1.820  0.00  0.00     0.004 A 
ATOM      3  C4  UNL d   1       1.440  -1.302   1.507  0.00  0.00    -0.003 A 
ATOM      4  C5  UNL d   1       0.830  -0.548   2.504  0.00  0.00     0.000 A 
ATOM      5  C6  UNL d   1       0.809  -1.018   3.817  0.00  0.00     0.000 A 
ATOM      6  C7  UNL d   1       1.397  -2.250   4.152  0.00  0.00    -0.073 A 
ATOM      7  C8  UNL d   1       1.340  -2.712   5.582  0.00  0.00     0.078 C 
ENDROOT
BRANCH   1   8
ATOM      8  C1  UNL d   1       2.600  -4.385   3.408  0.00  0.00     0.053 C 
ATOM      9  C   UNL d   1       1.730  -5.530   2.913  0.00  0.00     0.018 C 
ENDBRANCH   1   8
TORSDOF 1
ENDMDL
