MODEL 1
REMARK minimizedAffinity -3.27912259
REMARK minimizedRMSD -1
REMARK  0 active torsions:
REMARK  status: ('A' for Active; 'I' for Inactive)
ROOT
ATOM      1  C   UNL d   1       0.417   0.014   0.387  0.00  0.00     0.172 C 
ATOM      2  N   UNL d   1      -0.664  -0.937   0.482  0.00  0.00    -0.070 N 
ATOM      3  C1  UNL d   1      -1.766  -0.977  -0.330  0.00  0.00    -0.004 A 
ATOM      4  C2  UNL d   1      -2.558  -2.027   0.084  0.00  0.00    -0.047 A 
ATOM      5  C3  UNL d   1      -1.910  -2.638   1.184  0.00  0.00    -0.047 A 
ATOM      6  C4  UNL d   1      -0.740  -1.944   1.409  0.00  0.00    -0.004 A 
ENDROOT
TORSDOF 0
ENDMDL
