MODEL 1
REMARK minimizedAffinity -2.28692651
REMARK minimizedRMSD -1
REMARK  0 active torsions:
REMARK  status: ('A' for Active; 'I' for Inactive)
ROOT
ATOM      1  C   UNL d   1      -0.715   0.235   0.419  0.00  0.00     0.172 C 
ATOM      2  N   UNL d   1      -1.429  -0.991   0.686  0.00  0.00    -0.070 N 
ATOM      3  C1  UNL d   1      -2.635  -1.347   0.143  0.00  0.00    -0.004 A 
ATOM      4  C2  UNL d   1      -2.976  -2.584   0.647  0.00  0.00    -0.047 A 
ATOM      5  C3  UNL d   1      -1.940  -2.984   1.524  0.00  0.00    -0.047 A 
ATOM      6  C4  UNL d   1      -0.996  -1.979   1.529  0.00  0.00    -0.004 A 
ENDROOT
TORSDOF 0
ENDMDL
