MODEL 1
REMARK minimizedAffinity -2.16823745
REMARK minimizedRMSD -1
REMARK  0 active torsions:
REMARK  status: ('A' for Active; 'I' for Inactive)
ROOT
ATOM      1  C   UNL d   1      -1.880  -0.742  -0.705  0.00  0.00     0.172 C 
ATOM      2  N   UNL d   1      -0.551  -0.622  -0.154  0.00  0.00    -0.070 N 
ATOM      3  C1  UNL d   1       0.388   0.301  -0.528  0.00  0.00    -0.004 A 
ATOM      4  C2  UNL d   1       1.518   0.086   0.231  0.00  0.00    -0.047 A 
ATOM      5  C3  UNL d   1       1.249  -1.005   1.091  0.00  0.00    -0.047 A 
ATOM      6  C4  UNL d   1      -0.039  -1.424   0.832  0.00  0.00    -0.004 A 
ENDROOT
TORSDOF 0
ENDMDL
