MODEL 1
REMARK minimizedAffinity -2.89006972
REMARK minimizedRMSD -1
REMARK  0 active torsions:
REMARK  status: ('A' for Active; 'I' for Inactive)
ROOT
ATOM      1  C   UNL d   1       2.642   2.334   1.020  0.00  0.00     0.172 C 
ATOM      2  N   UNL d   1       1.515   1.464   0.782  0.00  0.00    -0.070 N 
ATOM      3  C1  UNL d   1       1.541   0.303   0.055  0.00  0.00    -0.004 A 
ATOM      4  C2  UNL d   1       0.270  -0.230   0.065  0.00  0.00    -0.047 A 
ATOM      5  C3  UNL d   1      -0.548   0.640   0.823  0.00  0.00    -0.047 A 
ATOM      6  C4  UNL d   1       0.247   1.680   1.255  0.00  0.00    -0.004 A 
ENDROOT
TORSDOF 0
ENDMDL
