MODEL 1
REMARK minimizedAffinity -4.22441053
REMARK minimizedRMSD -1
REMARK  0 active torsions:
REMARK  status: ('A' for Active; 'I' for Inactive)
ROOT
ATOM      1  C   UNL d   1      -0.199   0.306   0.130  0.00  0.00     0.172 C 
ATOM      2  N   UNL d   1      -1.115  -0.773   0.415  0.00  0.00    -0.070 N 
ATOM      3  C1  UNL d   1      -0.870  -1.828   1.253  0.00  0.00    -0.004 A 
ATOM      4  C2  UNL d   1      -1.987  -2.634   1.254  0.00  0.00    -0.047 A 
ATOM      5  C3  UNL d   1      -2.936  -2.045   0.386  0.00  0.00    -0.047 A 
ATOM      6  C4  UNL d   1      -2.370  -0.894  -0.121  0.00  0.00    -0.004 A 
ENDROOT
TORSDOF 0
ENDMDL
