MODEL 1
REMARK minimizedAffinity -2.79649401
REMARK minimizedRMSD -1
REMARK  0 active torsions:
REMARK  status: ('A' for Active; 'I' for Inactive)
ROOT
ATOM      1  C   UNL d   1       0.923   0.128   0.176  0.00  0.00     0.172 C 
ATOM      2  N   UNL d   1      -0.419  -0.104  -0.304  0.00  0.00    -0.070 N 
ATOM      3  C1  UNL d   1      -1.482  -0.506   0.460  0.00  0.00    -0.004 A 
ATOM      4  C2  UNL d   1      -2.579  -0.612  -0.367  0.00  0.00    -0.047 A 
ATOM      5  C3  UNL d   1      -2.161  -0.263  -1.673  0.00  0.00    -0.047 A 
ATOM      6  C4  UNL d   1      -0.819   0.047  -1.605  0.00  0.00    -0.004 A 
ENDROOT
TORSDOF 0
ENDMDL
