MODEL 1
REMARK minimizedAffinity -2.20337939
REMARK minimizedRMSD -1
REMARK  0 active torsions:
REMARK  status: ('A' for Active; 'I' for Inactive)
ROOT
ATOM      1  C   UNL d   1       1.301   2.068   1.127  0.00  0.00     0.172 C 
ATOM      2  N   UNL d   1       0.350   1.291   0.368  0.00  0.00    -0.070 N 
ATOM      3  C1  UNL d   1      -0.841   1.750  -0.128  0.00  0.00    -0.004 A 
ATOM      4  C2  UNL d   1      -1.453   0.707  -0.789  0.00  0.00    -0.047 A 
ATOM      5  C3  UNL d   1      -0.601  -0.418  -0.685  0.00  0.00    -0.047 A 
ATOM      6  C4  UNL d   1       0.508  -0.029   0.036  0.00  0.00    -0.004 A 
ENDROOT
TORSDOF 0
ENDMDL
