MODEL 1
REMARK minimizedAffinity -2.45598269
REMARK minimizedRMSD -1
REMARK  0 active torsions:
REMARK  status: ('A' for Active; 'I' for Inactive)
ROOT
ATOM      1  C   UNL d   1       0.516   0.024   0.038  0.00  0.00     0.172 C 
ATOM      2  N   UNL d   1      -0.800  -0.250  -0.490  0.00  0.00    -0.070 N 
ATOM      3  C1  UNL d   1      -1.452  -1.452  -0.426  0.00  0.00    -0.004 A 
ATOM      4  C2  UNL d   1      -2.676  -1.302  -1.040  0.00  0.00    -0.047 A 
ATOM      5  C3  UNL d   1      -2.763   0.038  -1.489  0.00  0.00    -0.047 A 
ATOM      6  C4  UNL d   1      -1.588   0.666  -1.136  0.00  0.00    -0.004 A 
ENDROOT
TORSDOF 0
ENDMDL
