MODEL 1
REMARK minimizedAffinity 0.867153466
REMARK minimizedRMSD -1
REMARK  0 active torsions:
REMARK  status: ('A' for Active; 'I' for Inactive)
ROOT
ATOM      1  C   UNL d   1       4.155   3.400  -2.407  0.00  0.00     0.172 C 
ATOM      2  N   UNL d   1       4.640   3.397  -3.767  0.00  0.00    -0.070 N 
ATOM      3  C1  UNL d   1       5.956   3.392  -4.145  0.00  0.00    -0.004 A 
ATOM      4  C2  UNL d   1       6.000   3.389  -5.523  0.00  0.00    -0.047 A 
ATOM      5  C3  UNL d   1       4.664   3.394  -5.989  0.00  0.00    -0.047 A 
ATOM      6  C4  UNL d   1       3.842   3.399  -4.881  0.00  0.00    -0.004 A 
ENDROOT
TORSDOF 0
ENDMDL
