MODEL 1
REMARK minimizedAffinity -2.92511439
REMARK minimizedRMSD -1
REMARK  0 active torsions:
REMARK  status: ('A' for Active; 'I' for Inactive)
ROOT
ATOM      1  C   UNL d   1       0.656   0.408   0.390  0.00  0.00     0.172 C 
ATOM      2  N   UNL d   1      -0.710   0.066   0.072  0.00  0.00    -0.070 N 
ATOM      3  C1  UNL d   1      -1.674  -0.293   0.976  0.00  0.00    -0.004 A 
ATOM      4  C2  UNL d   1      -2.837  -0.539   0.278  0.00  0.00    -0.047 A 
ATOM      5  C3  UNL d   1      -2.562  -0.322  -1.093  0.00  0.00    -0.047 A 
ATOM      6  C4  UNL d   1      -1.238   0.052  -1.192  0.00  0.00    -0.004 A 
ENDROOT
TORSDOF 0
ENDMDL
