MODEL 1
REMARK minimizedAffinity -2.28871274
REMARK minimizedRMSD -1
REMARK  0 active torsions:
REMARK  status: ('A' for Active; 'I' for Inactive)
ROOT
ATOM      1  C   UNL d   1       0.049   0.379   0.123  0.00  0.00     0.172 C 
ATOM      2  N   UNL d   1      -1.226  -0.278  -0.048  0.00  0.00    -0.070 N 
ATOM      3  C1  UNL d   1      -2.301  -0.165   0.791  0.00  0.00    -0.004 A 
ATOM      4  C2  UNL d   1      -3.319  -0.942   0.281  0.00  0.00    -0.047 A 
ATOM      5  C3  UNL d   1      -2.838  -1.543  -0.906  0.00  0.00    -0.047 A 
ATOM      6  C4  UNL d   1      -1.539  -1.115  -1.086  0.00  0.00    -0.004 A 
ENDROOT
TORSDOF 0
ENDMDL
