MODEL 1
REMARK minimizedAffinity -3.11660957
REMARK minimizedRMSD -1
REMARK  0 active torsions:
REMARK  status: ('A' for Active; 'I' for Inactive)
ROOT
ATOM      1  C   UNL d   1       1.940   3.437   1.150  0.00  0.00     0.172 C 
ATOM      2  N   UNL d   1       1.500   2.149   0.668  0.00  0.00    -0.070 N 
ATOM      3  C1  UNL d   1       0.197   1.753   0.525  0.00  0.00    -0.004 A 
ATOM      4  C2  UNL d   1       0.198   0.463   0.040  0.00  0.00    -0.047 A 
ATOM      5  C3  UNL d   1       1.549   0.070  -0.112  0.00  0.00    -0.047 A 
ATOM      6  C4  UNL d   1       2.333   1.132   0.284  0.00  0.00    -0.004 A 
ENDROOT
TORSDOF 0
ENDMDL
