MODEL 1
REMARK minimizedAffinity -3.21817803
REMARK minimizedRMSD -1
REMARK  0 active torsions:
REMARK  status: ('A' for Active; 'I' for Inactive)
ROOT
ATOM      1  C   UNL d   1       1.036   0.296   0.148  0.00  0.00     0.172 C 
ATOM      2  N   UNL d   1      -0.276   0.030  -0.393  0.00  0.00    -0.070 N 
ATOM      3  C1  UNL d   1      -0.886   0.738  -1.394  0.00  0.00    -0.004 A 
ATOM      4  C2  UNL d   1      -2.121   0.172  -1.620  0.00  0.00    -0.047 A 
ATOM      5  C3  UNL d   1      -2.260  -0.914  -0.723  0.00  0.00    -0.047 A 
ATOM      6  C4  UNL d   1      -1.104  -0.979   0.025  0.00  0.00    -0.004 A 
ENDROOT
TORSDOF 0
ENDMDL
