MODEL 1
REMARK minimizedAffinity -3.5526886
REMARK minimizedRMSD -1
REMARK  0 active torsions:
REMARK  status: ('A' for Active; 'I' for Inactive)
ROOT
ATOM      1  C   UNL d   1      -0.899   0.324   0.079  0.00  0.00     0.172 C 
ATOM      2  N   UNL d   1      -1.490  -0.959   0.381  0.00  0.00    -0.070 N 
ATOM      3  C1  UNL d   1      -0.949  -1.914   1.200  0.00  0.00    -0.004 A 
ATOM      4  C2  UNL d   1      -1.815  -2.985   1.228  0.00  0.00    -0.047 A 
ATOM      5  C3  UNL d   1      -2.914  -2.664   0.397  0.00  0.00    -0.047 A 
ATOM      6  C4  UNL d   1      -2.687  -1.403  -0.115  0.00  0.00    -0.004 A 
ENDROOT
TORSDOF 0
ENDMDL
