MODEL 1
REMARK minimizedAffinity -3.9788754
REMARK minimizedRMSD -1
REMARK  0 active torsions:
REMARK  status: ('A' for Active; 'I' for Inactive)
ROOT
ATOM      1  C   UNL d   1      -3.080  -1.309   0.330  0.00  0.00     0.172 C 
ATOM      2  N   UNL d   1      -1.898  -0.636  -0.153  0.00  0.00    -0.070 N 
ATOM      3  C1  UNL d   1      -1.705  -0.177  -1.429  0.00  0.00    -0.004 A 
ATOM      4  C2  UNL d   1      -0.456   0.402  -1.485  0.00  0.00    -0.047 A 
ATOM      5  C3  UNL d   1       0.123   0.287  -0.198  0.00  0.00    -0.047 A 
ATOM      6  C4  UNL d   1      -0.792  -0.359   0.607  0.00  0.00    -0.004 A 
ENDROOT
TORSDOF 0
ENDMDL
