MODEL 1
REMARK minimizedAffinity -1.19926906
REMARK minimizedRMSD -1
REMARK  0 active torsions:
REMARK  status: ('A' for Active; 'I' for Inactive)
ROOT
ATOM      1  C   UNL d   1      -2.476  -1.107  -1.320  0.00  0.00     0.172 C 
ATOM      2  N   UNL d   1      -1.333  -0.594  -0.601  0.00  0.00    -0.070 N 
ATOM      3  C1  UNL d   1      -0.901  -1.027   0.625  0.00  0.00    -0.004 A 
ATOM      4  C2  UNL d   1       0.214  -0.290   0.963  0.00  0.00    -0.047 A 
ATOM      5  C3  UNL d   1       0.459   0.617  -0.095  0.00  0.00    -0.047 A 
ATOM      6  C4  UNL d   1      -0.513   0.407  -1.050  0.00  0.00    -0.004 A 
ENDROOT
TORSDOF 0
ENDMDL
