MODEL 1
REMARK minimizedAffinity 4.16533518
REMARK minimizedRMSD -1
REMARK  0 active torsions:
REMARK  status: ('A' for Active; 'I' for Inactive)
ROOT
ATOM      1  C   UNL d   1       1.593  -4.393   4.392  0.00  0.00     0.020 A 
ATOM      2  C1  UNL d   1       2.677  -4.810   5.164  0.00  0.00     0.020 A 
ATOM      3  C2  UNL d   1       3.948  -4.283   4.925  0.00  0.00     0.034 A 
ATOM      4  C3  UNL d   1       4.139  -3.336   3.912  0.00  0.00     0.017 A 
ATOM      5  C4  UNL d   1       3.050  -2.919   3.137  0.00  0.00     0.017 A 
ATOM      6  C5  UNL d   1       1.780  -3.450   3.381  0.00  0.00     0.034 A 
ATOM      7 Cl   UNL d   1       3.207  -1.754   1.870  0.00  0.00    -0.070 Cl
ATOM      8 Cl1  UNL d   1       5.737  -2.726   3.673  0.00  0.00    -0.070 Cl
ENDROOT
TORSDOF 0
ENDMDL
