MODEL 1
REMARK minimizedAffinity 7.53987932
REMARK minimizedRMSD -1
REMARK  0 active torsions:
REMARK  status: ('A' for Active; 'I' for Inactive)
ROOT
ATOM      1  C   UNL d   1       4.441  -3.052   3.862  0.00  0.00     0.020 A 
ATOM      2  C1  UNL d   1       3.797  -4.208   4.302  0.00  0.00     0.020 A 
ATOM      3  C2  UNL d   1       2.423  -4.360   4.103  0.00  0.00     0.034 A 
ATOM      4  C3  UNL d   1       1.690  -3.355   3.461  0.00  0.00     0.017 A 
ATOM      5  C4  UNL d   1       2.337  -2.196   3.020  0.00  0.00     0.017 A 
ATOM      6  C5  UNL d   1       3.713  -2.048   3.223  0.00  0.00     0.034 A 
ATOM      7 Cl   UNL d   1       1.499  -0.913   2.221  0.00  0.00    -0.070 Cl
ATOM      8 Cl1  UNL d   1      -0.006  -3.611   3.248  0.00  0.00    -0.070 Cl
ENDROOT
TORSDOF 0
ENDMDL
