MODEL 1
REMARK minimizedAffinity 8.95589256
REMARK minimizedRMSD -1
REMARK  0 active torsions:
REMARK  status: ('A' for Active; 'I' for Inactive)
ROOT
ATOM      1  C   UNL d   1       3.415  -2.954   2.380  0.00  0.00     0.020 A 
ATOM      2  C1  UNL d   1       2.840  -4.223   2.340  0.00  0.00     0.020 A 
ATOM      3  C2  UNL d   1       1.573  -4.434   2.889  0.00  0.00     0.034 A 
ATOM      4  C3  UNL d   1       0.877  -3.373   3.480  0.00  0.00     0.017 A 
ATOM      5  C4  UNL d   1       1.455  -2.099   3.519  0.00  0.00     0.017 A 
ATOM      6  C5  UNL d   1       2.723  -1.894   2.968  0.00  0.00     0.034 A 
ATOM      7 Cl   UNL d   1       0.657  -0.741   4.231  0.00  0.00    -0.070 Cl
ATOM      8 Cl1  UNL d   1      -0.685  -3.705   4.138  0.00  0.00    -0.070 Cl
ENDROOT
TORSDOF 0
ENDMDL
