MODEL 1
REMARK minimizedAffinity 3.38203168
REMARK minimizedRMSD -1
REMARK  0 active torsions:
REMARK  status: ('A' for Active; 'I' for Inactive)
ROOT
ATOM      1  C   UNL d   1       1.343  -3.736   4.134  0.00  0.00     0.020 A 
ATOM      2  C1  UNL d   1       2.080  -4.008   2.982  0.00  0.00     0.020 A 
ATOM      3  C2  UNL d   1       2.566  -2.958   2.200  0.00  0.00     0.034 A 
ATOM      4  C3  UNL d   1       2.315  -1.631   2.569  0.00  0.00     0.017 A 
ATOM      5  C4  UNL d   1       1.575  -1.359   3.725  0.00  0.00     0.017 A 
ATOM      6  C5  UNL d   1       1.091  -2.415   4.505  0.00  0.00     0.034 A 
ATOM      7 Cl   UNL d   1       1.225   0.252   4.245  0.00  0.00    -0.070 Cl
ATOM      8 Cl1  UNL d   1       2.947  -0.383   1.556  0.00  0.00    -0.070 Cl
ENDROOT
TORSDOF 0
ENDMDL
