MODEL 1
REMARK minimizedAffinity 5.6048398
REMARK minimizedRMSD -1
REMARK  0 active torsions:
REMARK  status: ('A' for Active; 'I' for Inactive)
ROOT
ATOM      1  C   UNL d   1       1.125  -2.199   2.622  0.00  0.00     0.020 A 
ATOM      2  C1  UNL d   1       2.147  -1.448   2.044  0.00  0.00     0.020 A 
ATOM      3  C2  UNL d   1       3.476  -1.682   2.405  0.00  0.00     0.034 A 
ATOM      4  C3  UNL d   1       3.785  -2.669   3.348  0.00  0.00     0.017 A 
ATOM      5  C4  UNL d   1       2.758  -3.422   3.928  0.00  0.00     0.017 A 
ATOM      6  C5  UNL d   1       1.430  -3.184   3.562  0.00  0.00     0.034 A 
ATOM      7 Cl   UNL d   1       3.062  -4.657   5.098  0.00  0.00    -0.070 Cl
ATOM      8 Cl1  UNL d   1       5.450  -2.904   3.747  0.00  0.00    -0.070 Cl
ENDROOT
TORSDOF 0
ENDMDL
