MODEL 1
REMARK minimizedAffinity -0.785881937
REMARK minimizedRMSD -1
REMARK  0 active torsions:
REMARK  status: ('A' for Active; 'I' for Inactive)
ROOT
ATOM      1  C   UNL d   1       3.540  -5.998  -1.161  0.00  0.00     0.020 A 
ATOM      2  C1  UNL d   1       4.858  -5.997  -1.615  0.00  0.00     0.020 A 
ATOM      3  C2  UNL d   1       5.124  -5.998  -2.986  0.00  0.00     0.034 A 
ATOM      4  C3  UNL d   1       4.071  -5.998  -3.908  0.00  0.00     0.017 A 
ATOM      5  C4  UNL d   1       2.748  -5.998  -3.451  0.00  0.00     0.017 A 
ATOM      6  C5  UNL d   1       2.487  -5.998  -2.077  0.00  0.00     0.034 A 
ATOM      7 Cl   UNL d   1       1.396  -5.998  -4.527  0.00  0.00    -0.070 Cl
ATOM      8 Cl1  UNL d   1       4.474  -5.998  -5.588  0.00  0.00    -0.070 Cl
ENDROOT
TORSDOF 0
ENDMDL
