MODEL 1
REMARK minimizedAffinity 5.17507982
REMARK minimizedRMSD -1
REMARK  0 active torsions:
REMARK  status: ('A' for Active; 'I' for Inactive)
ROOT
ATOM      1  C   UNL d   1       2.077  -4.224   3.476  0.00  0.00     0.020 A 
ATOM      2  C1  UNL d   1       2.017  -3.624   2.219  0.00  0.00     0.020 A 
ATOM      3  C2  UNL d   1       1.869  -2.239   2.113  0.00  0.00     0.034 A 
ATOM      4  C3  UNL d   1       1.782  -1.450   3.265  0.00  0.00     0.017 A 
ATOM      5  C4  UNL d   1       1.843  -2.053   4.527  0.00  0.00     0.017 A 
ATOM      6  C5  UNL d   1       1.991  -3.440   4.628  0.00  0.00     0.034 A 
ATOM      7 Cl   UNL d   1       1.742  -1.145   5.994  0.00  0.00    -0.070 Cl
ATOM      8 Cl1  UNL d   1       1.601   0.256   3.059  0.00  0.00    -0.070 Cl
ENDROOT
TORSDOF 0
ENDMDL
