MODEL 1
REMARK minimizedAffinity 4.84654474
REMARK minimizedRMSD -1
REMARK  0 active torsions:
REMARK  status: ('A' for Active; 'I' for Inactive)
ROOT
ATOM      1  C   UNL d   1       0.812  -4.913   4.663  0.00  0.00     0.020 A 
ATOM      2  C1  UNL d   1       1.951  -5.303   5.366  0.00  0.00     0.020 A 
ATOM      3  C2  UNL d   1       3.114  -4.532   5.294  0.00  0.00     0.034 A 
ATOM      4  C3  UNL d   1       3.140  -3.368   4.517  0.00  0.00     0.017 A 
ATOM      5  C4  UNL d   1       1.995  -2.978   3.812  0.00  0.00     0.017 A 
ATOM      6  C5  UNL d   1       0.834  -3.753   3.888  0.00  0.00     0.034 A 
ATOM      7 Cl   UNL d   1       1.951  -1.554   2.833  0.00  0.00    -0.070 Cl
ATOM      8 Cl1  UNL d   1       4.611  -2.464   4.473  0.00  0.00    -0.070 Cl
ENDROOT
TORSDOF 0
ENDMDL
