MODEL 1
REMARK minimizedAffinity 10.7290306
REMARK minimizedRMSD -1
REMARK  0 active torsions:
REMARK  status: ('A' for Active; 'I' for Inactive)
ROOT
ATOM      1  C   UNL d   1       1.768  -1.019   3.261  0.00  0.00     0.020 A 
ATOM      2  C1  UNL d   1       1.843  -1.342   1.907  0.00  0.00     0.020 A 
ATOM      3  C2  UNL d   1       2.248  -0.378   0.981  0.00  0.00     0.034 A 
ATOM      4  C3  UNL d   1       2.580   0.913   1.408  0.00  0.00     0.017 A 
ATOM      5  C4  UNL d   1       2.505   1.236   2.767  0.00  0.00     0.017 A 
ATOM      6  C5  UNL d   1       2.099   0.267   3.690  0.00  0.00     0.034 A 
ATOM      7 Cl   UNL d   1       2.899   2.807   3.370  0.00  0.00    -0.070 Cl
ATOM      8 Cl1  UNL d   1       3.074   2.054   0.208  0.00  0.00    -0.070 Cl
ENDROOT
TORSDOF 0
ENDMDL
