MODEL 1
REMARK minimizedAffinity 8.23353004
REMARK minimizedRMSD -1
REMARK  0 active torsions:
REMARK  status: ('A' for Active; 'I' for Inactive)
ROOT
ATOM      1  C   UNL d   1       1.666  -1.091   1.857  0.00  0.00     0.020 A 
ATOM      2  C1  UNL d   1       1.272  -0.886   3.178  0.00  0.00     0.020 A 
ATOM      3  C2  UNL d   1       1.581   0.315   3.821  0.00  0.00     0.034 A 
ATOM      4  C3  UNL d   1       2.286   1.315   3.143  0.00  0.00     0.017 A 
ATOM      5  C4  UNL d   1       2.682   1.109   1.816  0.00  0.00     0.017 A 
ATOM      6  C5  UNL d   1       2.370  -0.095   1.177  0.00  0.00     0.034 A 
ATOM      7 Cl   UNL d   1       3.555   2.297   0.914  0.00  0.00    -0.070 Cl
ATOM      8 Cl1  UNL d   1       2.634   2.775   4.000  0.00  0.00    -0.070 Cl
ENDROOT
TORSDOF 0
ENDMDL
