MODEL 1
REMARK minimizedAffinity -5.58999777
REMARK minimizedRMSD -1
REMARK  1 active torsions:
REMARK  status: ('A' for Active; 'I' for Inactive)
REMARK    1  A    between atoms: C3_4  and  O_7 
ROOT
ATOM      1  C   UNL d   1       2.095  -1.268   2.616  0.00  0.00    -0.033 A 
ATOM      2  C1  UNL d   1       2.930  -1.917   1.705  0.00  0.00     0.039 A 
ATOM      3  C2  UNL d   1       2.601  -1.941   0.348  0.00  0.00    -0.080 A 
ATOM      4  C3  UNL d   1       1.437  -1.311  -0.084  0.00  0.00     0.150 A 
ATOM      5  C4  UNL d   1       0.603  -0.659   0.818  0.00  0.00    -0.007 A 
ATOM      6  C5  UNL d   1       0.932  -0.637   2.173  0.00  0.00     0.039 A 
ENDROOT
BRANCH   4   7
ATOM      7  O   UNL d   1       1.072  -1.311  -1.397  0.00  0.00    -0.526 OA
ATOM      8  H5  UNL d   1       1.728  -1.824  -1.899  0.00  0.00     0.418 HD
ENDBRANCH   4   7
TORSDOF 1
ENDMDL
