MODEL 1
REMARK minimizedAffinity -4.24152803
REMARK minimizedRMSD -1
REMARK  1 active torsions:
REMARK  status: ('A' for Active; 'I' for Inactive)
REMARK    1  A    between atoms: C3_4  and  O_7 
ROOT
ATOM      1  C   UNL d   1       0.931  -0.482   2.858  0.00  0.00    -0.033 A 
ATOM      2  C1  UNL d   1       1.735  -0.475   1.717  0.00  0.00     0.039 A 
ATOM      3  C2  UNL d   1       1.151  -0.393   0.451  0.00  0.00    -0.080 A 
ATOM      4  C3  UNL d   1      -0.234  -0.318   0.341  0.00  0.00     0.150 A 
ATOM      5  C4  UNL d   1      -1.041  -0.321   1.474  0.00  0.00    -0.007 A 
ATOM      6  C5  UNL d   1      -0.456  -0.404   2.737  0.00  0.00     0.039 A 
ENDROOT
BRANCH   4   7
ATOM      7  O   UNL d   1      -0.850  -0.241  -0.873  0.00  0.00    -0.526 OA
ATOM      8  H5  UNL d   1      -0.169  -0.278  -1.566  0.00  0.00     0.418 HD
ENDBRANCH   4   7
TORSDOF 1
ENDMDL
