MODEL 1
REMARK minimizedAffinity -4.27920437
REMARK minimizedRMSD -1
REMARK  1 active torsions:
REMARK  status: ('A' for Active; 'I' for Inactive)
REMARK    1  A    between atoms: C3_4  and  O_7 
ROOT
ATOM      1  C   UNL d   1       2.430  -1.342   3.148  0.00  0.00    -0.033 A 
ATOM      2  C1  UNL d   1       2.477  -1.831   1.841  0.00  0.00     0.039 A 
ATOM      3  C2  UNL d   1       1.609  -1.322   0.872  0.00  0.00    -0.080 A 
ATOM      4  C3  UNL d   1       0.702  -0.326   1.223  0.00  0.00     0.150 A 
ATOM      5  C4  UNL d   1       0.653   0.168   2.523  0.00  0.00    -0.007 A 
ATOM      6  C5  UNL d   1       1.519  -0.342   3.488  0.00  0.00     0.039 A 
ENDROOT
BRANCH   4   7
ATOM      7  O   UNL d   1      -0.168   0.198   0.314  0.00  0.00    -0.526 OA
ATOM      8  H5  UNL d   1      -0.040  -0.259  -0.534  0.00  0.00     0.418 HD
ENDBRANCH   4   7
TORSDOF 1
ENDMDL
