MODEL 1
REMARK minimizedAffinity -1.52421677
REMARK minimizedRMSD -1
REMARK  1 active torsions:
REMARK  status: ('A' for Active; 'I' for Inactive)
REMARK    1  A    between atoms: C3_4  and  O_7 
ROOT
ATOM      1  C   UNL d   1       0.663   1.466  -2.966  0.00  0.00    -0.033 A 
ATOM      2  C1  UNL d   1      -0.307   0.670  -2.354  0.00  0.00     0.039 A 
ATOM      3  C2  UNL d   1      -1.569   1.197  -2.073  0.00  0.00    -0.080 A 
ATOM      4  C3  UNL d   1      -1.848   2.519  -2.409  0.00  0.00     0.150 A 
ATOM      5  C4  UNL d   1      -0.888   3.316  -3.023  0.00  0.00    -0.007 A 
ATOM      6  C5  UNL d   1       0.372   2.789  -3.302  0.00  0.00     0.039 A 
ENDROOT
BRANCH   4   7
ATOM      7  O   UNL d   1      -3.064   3.079  -2.150  0.00  0.00    -0.526 OA
ATOM      8  H5  UNL d   1      -3.616   2.419  -1.698  0.00  0.00     0.418 HD
ENDBRANCH   4   7
TORSDOF 1
ENDMDL
