MODEL 1
REMARK minimizedAffinity -4.4964571
REMARK minimizedRMSD -1
REMARK  1 active torsions:
REMARK  status: ('A' for Active; 'I' for Inactive)
REMARK    1  A    between atoms: C3_4  and  O_7 
ROOT
ATOM      1  C   UNL d   1      -1.111   0.001   0.326  0.00  0.00    -0.033 A 
ATOM      2  C1  UNL d   1       0.251  -0.141   0.053  0.00  0.00     0.039 A 
ATOM      3  C2  UNL d   1       1.166  -0.254   1.101  0.00  0.00    -0.080 A 
ATOM      4  C3  UNL d   1       0.708  -0.224   2.415  0.00  0.00     0.150 A 
ATOM      5  C4  UNL d   1      -0.648  -0.086   2.694  0.00  0.00    -0.007 A 
ATOM      6  C5  UNL d   1      -1.561   0.027   1.646  0.00  0.00     0.039 A 
ENDROOT
BRANCH   4   7
ATOM      7  O   UNL d   1       1.564  -0.325   3.471  0.00  0.00    -0.526 OA
ATOM      8  H5  UNL d   1       2.471  -0.386   3.128  0.00  0.00     0.418 HD
ENDBRANCH   4   7
TORSDOF 1
ENDMDL
