MODEL 1
REMARK minimizedAffinity -3.7731545
REMARK minimizedRMSD -1
REMARK  1 active torsions:
REMARK  status: ('A' for Active; 'I' for Inactive)
REMARK    1  A    between atoms: C3_4  and  O_7 
ROOT
ATOM      1  C   UNL d   1      -1.116   0.102   0.406  0.00  0.00    -0.033 A 
ATOM      2  C1  UNL d   1      -1.596  -0.334   1.642  0.00  0.00     0.039 A 
ATOM      3  C2  UNL d   1      -0.702  -0.643   2.670  0.00  0.00    -0.080 A 
ATOM      4  C3  UNL d   1       0.666  -0.510   2.449  0.00  0.00     0.150 A 
ATOM      5  C4  UNL d   1       1.150  -0.071   1.221  0.00  0.00    -0.007 A 
ATOM      6  C5  UNL d   1       0.256   0.235   0.195  0.00  0.00     0.039 A 
ENDROOT
BRANCH   4   7
ATOM      7  O   UNL d   1       1.576  -0.803   3.420  0.00  0.00    -0.526 OA
ATOM      8  H5  UNL d   1       1.098  -1.121   4.204  0.00  0.00     0.418 HD
ENDBRANCH   4   7
TORSDOF 1
ENDMDL
