MODEL 1
REMARK minimizedAffinity -4.40642929
REMARK minimizedRMSD -1
REMARK  1 active torsions:
REMARK  status: ('A' for Active; 'I' for Inactive)
REMARK    1  A    between atoms: C3_4  and  O_7 
ROOT
ATOM      1  C   UNL d   1      -0.825   0.026   0.012  0.00  0.00    -0.033 A 
ATOM      2  C1  UNL d   1      -1.513  -0.263   1.192  0.00  0.00     0.039 A 
ATOM      3  C2  UNL d   1      -0.809  -0.494   2.375  0.00  0.00    -0.080 A 
ATOM      4  C3  UNL d   1       0.582  -0.432   2.365  0.00  0.00     0.150 A 
ATOM      5  C4  UNL d   1       1.274  -0.140   1.194  0.00  0.00    -0.007 A 
ATOM      6  C5  UNL d   1       0.569   0.089   0.014  0.00  0.00     0.039 A 
ENDROOT
BRANCH   4   7
ATOM      7  O   UNL d   1       1.313  -0.655   3.494  0.00  0.00    -0.526 OA
ATOM      8  H5  UNL d   1       0.703  -0.873   4.218  0.00  0.00     0.418 HD
ENDBRANCH   4   7
TORSDOF 1
ENDMDL
