MODEL 1
REMARK minimizedAffinity -3.49634361
REMARK minimizedRMSD -1
REMARK  1 active torsions:
REMARK  status: ('A' for Active; 'I' for Inactive)
REMARK    1  A    between atoms: C3_4  and  O_7 
ROOT
ATOM      1  C   UNL d   1      -0.048  -0.929   1.141  0.00  0.00    -0.033 A 
ATOM      2  C1  UNL d   1      -1.420  -0.921   1.397  0.00  0.00     0.039 A 
ATOM      3  C2  UNL d   1      -2.324  -0.671   0.363  0.00  0.00    -0.080 A 
ATOM      4  C3  UNL d   1      -1.843  -0.433  -0.922  0.00  0.00     0.150 A 
ATOM      5  C4  UNL d   1      -0.477  -0.443  -1.185  0.00  0.00    -0.007 A 
ATOM      6  C5  UNL d   1       0.424  -0.691  -0.150  0.00  0.00     0.039 A 
ENDROOT
BRANCH   4   7
ATOM      7  O   UNL d   1      -2.686  -0.180  -1.963  0.00  0.00    -0.526 OA
ATOM      8  H5  UNL d   1      -3.598  -0.176  -1.627  0.00  0.00     0.418 HD
ENDBRANCH   4   7
TORSDOF 1
ENDMDL
