MODEL 1
REMARK minimizedAffinity 2.12268901
REMARK minimizedRMSD -1
REMARK  1 active torsions:
REMARK  status: ('A' for Active; 'I' for Inactive)
REMARK    1  A    between atoms: C3_4  and  O_7 
ROOT
ATOM      1  C   UNL d   1      -5.407  -5.430  -5.882  0.00  0.00    -0.033 A 
ATOM      2  C1  UNL d   1      -4.486  -5.685  -4.864  0.00  0.00     0.039 A 
ATOM      3  C2  UNL d   1      -4.142  -4.676  -3.962  0.00  0.00    -0.080 A 
ATOM      4  C3  UNL d   1      -4.726  -3.419  -4.089  0.00  0.00     0.150 A 
ATOM      5  C4  UNL d   1      -5.647  -3.159  -5.099  0.00  0.00    -0.007 A 
ATOM      6  C5  UNL d   1      -5.989  -4.168  -5.998  0.00  0.00     0.039 A 
ENDROOT
BRANCH   4   7
ATOM      7  O   UNL d   1      -4.419  -2.401  -3.236  0.00  0.00    -0.526 OA
ATOM      8  H5  UNL d   1      -3.748  -2.717  -2.609  0.00  0.00     0.418 HD
ENDBRANCH   4   7
TORSDOF 1
ENDMDL
