MODEL 1
REMARK minimizedAffinity -2.37565851
REMARK minimizedRMSD -1
REMARK  1 active torsions:
REMARK  status: ('A' for Active; 'I' for Inactive)
REMARK    1  A    between atoms: C3_4  and  O_7 
ROOT
ATOM      1  C   UNL d   1       4.720  -0.843  -5.202  0.00  0.00    -0.033 A 
ATOM      2  C1  UNL d   1       5.904  -0.314  -5.721  0.00  0.00     0.039 A 
ATOM      3  C2  UNL d   1       6.000   1.051  -5.994  0.00  0.00    -0.080 A 
ATOM      4  C3  UNL d   1       4.907   1.877  -5.744  0.00  0.00     0.150 A 
ATOM      5  C4  UNL d   1       3.726   1.358  -5.224  0.00  0.00    -0.007 A 
ATOM      6  C5  UNL d   1       3.632  -0.006  -4.952  0.00  0.00     0.039 A 
ENDROOT
BRANCH   4   7
ATOM      7  O   UNL d   1       4.952   3.215  -6.000  0.00  0.00    -0.526 OA
ATOM      8  H5  UNL d   1       5.820   3.427  -6.383  0.00  0.00     0.418 HD
ENDBRANCH   4   7
TORSDOF 1
ENDMDL
