MODEL 1
REMARK minimizedAffinity 3.98882318
REMARK minimizedRMSD -1
REMARK  1 active torsions:
REMARK  status: ('A' for Active; 'I' for Inactive)
REMARK    1  A    between atoms: C3_4  and  O_7 
ROOT
ATOM      1  C   UNL d   1       1.895  -1.433   1.474  0.00  0.00    -0.033 A 
ATOM      2  C1  UNL d   1       2.070  -2.613   2.199  0.00  0.00     0.039 A 
ATOM      3  C2  UNL d   1       1.432  -2.780   3.429  0.00  0.00    -0.080 A 
ATOM      4  C3  UNL d   1       0.622  -1.761   3.922  0.00  0.00     0.150 A 
ATOM      5  C4  UNL d   1       0.439  -0.584   3.203  0.00  0.00    -0.007 A 
ATOM      6  C5  UNL d   1       1.078  -0.419   1.975  0.00  0.00     0.039 A 
ENDROOT
BRANCH   4   7
ATOM      7  O   UNL d   1      -0.018  -1.876   5.121  0.00  0.00    -0.526 OA
ATOM      8  H5  UNL d   1       0.224  -2.730   5.518  0.00  0.00     0.418 HD
ENDBRANCH   4   7
TORSDOF 1
ENDMDL
