MODEL 1
REMARK minimizedAffinity -1.2786653
REMARK minimizedRMSD -1
REMARK  1 active torsions:
REMARK  status: ('A' for Active; 'I' for Inactive)
REMARK    1  A    between atoms: C3_4  and  O_7 
ROOT
ATOM      1  C   UNL d   1      -1.900   1.840  -0.052  0.00  0.00    -0.033 A 
ATOM      2  C1  UNL d   1      -2.932   2.184  -0.927  0.00  0.00     0.039 A 
ATOM      3  C2  UNL d   1      -3.308   1.307  -1.946  0.00  0.00    -0.080 A 
ATOM      4  C3  UNL d   1      -2.646   0.090  -2.079  0.00  0.00     0.150 A 
ATOM      5  C4  UNL d   1      -1.620  -0.262  -1.208  0.00  0.00    -0.007 A 
ATOM      6  C5  UNL d   1      -1.245   0.616  -0.192  0.00  0.00     0.039 A 
ENDROOT
BRANCH   4   7
ATOM      7  O   UNL d   1      -2.974  -0.797  -3.060  0.00  0.00    -0.526 OA
ATOM      8  H5  UNL d   1      -3.680  -0.408  -3.603  0.00  0.00     0.418 HD
ENDBRANCH   4   7
TORSDOF 1
ENDMDL
