MODEL 1
REMARK minimizedAffinity 2.26501107
REMARK minimizedRMSD -1
REMARK  1 active torsions:
REMARK  status: ('A' for Active; 'I' for Inactive)
REMARK    1  A    between atoms: C3_4  and  O_7 
ROOT
ATOM      1  C   UNL d   1      -5.806  -2.928  -5.277  0.00  0.00    -0.033 A 
ATOM      2  C1  UNL d   1      -5.817  -4.123  -6.000  0.00  0.00     0.039 A 
ATOM      3  C2  UNL d   1      -4.967  -5.169  -5.636  0.00  0.00    -0.080 A 
ATOM      4  C3  UNL d   1      -4.113  -5.009  -4.548  0.00  0.00     0.150 A 
ATOM      5  C4  UNL d   1      -4.099  -3.822  -3.822  0.00  0.00    -0.007 A 
ATOM      6  C5  UNL d   1      -4.948  -2.778  -4.187  0.00  0.00     0.039 A 
ENDROOT
BRANCH   4   7
ATOM      7  O   UNL d   1      -3.262  -6.000  -4.158  0.00  0.00    -0.526 OA
ATOM      8  H5  UNL d   1      -3.361  -6.749  -4.770  0.00  0.00     0.418 HD
ENDBRANCH   4   7
TORSDOF 1
ENDMDL
