MODEL 1
REMARK minimizedAffinity -1.68800795
REMARK minimizedRMSD -1
REMARK  2 active torsions:
REMARK  status: ('A' for Active; 'I' for Inactive)
REMARK    1  A    between atoms: C1_2  and  C2_3 
REMARK    2  A    between atoms: C2_3  and  C3_4 
ROOT
ATOM      1  C3  UNL d   1       3.411  -3.775  -4.674  0.00  0.00    -0.075 A 
ATOM      2  C4  UNL d   1       3.772  -3.219  -5.910  0.00  0.00     0.002 A 
ATOM      3  C5  UNL d   1       4.159  -1.881  -5.999  0.00  0.00     0.002 A 
ATOM      4  C6  UNL d   1       4.180  -1.082  -4.858  0.00  0.00    -0.004 A 
ATOM      5  C7  UNL d   1       3.808  -1.620  -3.628  0.00  0.00     0.002 A 
ATOM      6  C8  UNL d   1       3.424  -2.959  -3.536  0.00  0.00     0.002 A 
ENDROOT
BRANCH   1   7
ATOM      7  C2  UNL d   1       3.019  -5.229  -4.567  0.00  0.00     0.056 C 
BRANCH   7   8
ATOM      8  C1  UNL d   1       3.754  -5.993  -3.460  0.00  0.00     0.007 C 
ATOM      9  C   UNL d   1       3.013  -5.984  -2.130  0.00  0.00     0.009 C 
ENDBRANCH   7   8
ENDBRANCH   1   7
TORSDOF 2
ENDMDL
