MODEL 1
REMARK minimizedAffinity -0.0328134857
REMARK minimizedRMSD -1
REMARK  2 active torsions:
REMARK  status: ('A' for Active; 'I' for Inactive)
REMARK    1  A    between atoms: C1_2  and  C2_3 
REMARK    2  A    between atoms: C2_3  and  C3_4 
ROOT
ATOM      1  C3  UNL d   1       5.055  -1.340  -5.860  0.00  0.00    -0.075 A 
ATOM      2  C4  UNL d   1       3.691  -1.663  -5.912  0.00  0.00     0.002 A 
ATOM      3  C5  UNL d   1       3.281  -2.995  -5.974  0.00  0.00     0.002 A 
ATOM      4  C6  UNL d   1       4.226  -4.018  -5.995  0.00  0.00    -0.004 A 
ATOM      5  C7  UNL d   1       5.584  -3.708  -5.960  0.00  0.00     0.002 A 
ATOM      6  C8  UNL d   1       5.997  -2.376  -5.893  0.00  0.00     0.002 A 
ENDROOT
BRANCH   1   7
ATOM      7  C2  UNL d   1       5.505   0.098  -5.763  0.00  0.00     0.056 C 
BRANCH   7   8
ATOM      8  C1  UNL d   1       4.418   1.060  -5.271  0.00  0.00     0.007 C 
ATOM      9  C   UNL d   1       4.474   2.425  -5.945  0.00  0.00     0.009 C 
ENDBRANCH   7   8
ENDBRANCH   1   7
TORSDOF 2
ENDMDL
