MODEL 1
REMARK minimizedAffinity 3.36719632
REMARK minimizedRMSD -1
REMARK  2 active torsions:
REMARK  status: ('A' for Active; 'I' for Inactive)
REMARK    1  A    between atoms: C1_2  and  C2_3 
REMARK    2  A    between atoms: C2_3  and  C3_4 
ROOT
ATOM      1  C3  UNL d   1       1.271   0.021   0.918  0.00  0.00    -0.075 A 
ATOM      2  C4  UNL d   1       1.973  -0.313   2.086  0.00  0.00     0.002 A 
ATOM      3  C5  UNL d   1       1.750  -1.535   2.721  0.00  0.00     0.002 A 
ATOM      4  C6  UNL d   1       0.819  -2.433   2.204  0.00  0.00    -0.004 A 
ATOM      5  C7  UNL d   1       0.104  -2.104   1.054  0.00  0.00     0.002 A 
ATOM      6  C8  UNL d   1       0.328  -0.884   0.414  0.00  0.00     0.002 A 
ENDROOT
BRANCH   1   7
ATOM      7  C2  UNL d   1       1.529   1.330   0.210  0.00  0.00     0.056 C 
BRANCH   7   8
ATOM      8  C1  UNL d   1       0.261   2.134  -0.095  0.00  0.00     0.007 C 
ATOM      9  C   UNL d   1      -0.357   2.772   1.142  0.00  0.00     0.009 C 
ENDBRANCH   7   8
ENDBRANCH   1   7
TORSDOF 2
ENDMDL
