MODEL 1
REMARK minimizedAffinity 9.0975008
REMARK minimizedRMSD -1
REMARK  2 active torsions:
REMARK  status: ('A' for Active; 'I' for Inactive)
REMARK    1  A    between atoms: C1_2  and  C2_3 
REMARK    2  A    between atoms: C2_3  and  C3_4 
ROOT
ATOM      1  C3  UNL d   1      -2.973   0.111  -3.700  0.00  0.00    -0.075 A 
ATOM      2  C4  UNL d   1      -3.565   0.417  -4.935  0.00  0.00     0.002 A 
ATOM      3  C5  UNL d   1      -4.246   1.620  -5.116  0.00  0.00     0.002 A 
ATOM      4  C6  UNL d   1      -4.354   2.528  -4.064  0.00  0.00    -0.004 A 
ATOM      5  C7  UNL d   1      -3.785   2.228  -2.829  0.00  0.00     0.002 A 
ATOM      6  C8  UNL d   1      -3.098   1.026  -2.646  0.00  0.00     0.002 A 
ENDROOT
BRANCH   1   7
ATOM      7  C2  UNL d   1      -2.209  -1.176  -3.507  0.00  0.00     0.056 C 
BRANCH   7   8
ATOM      8  C1  UNL d   1      -2.512  -1.889  -2.185  0.00  0.00     0.007 C 
ATOM      9  C   UNL d   1      -3.479  -3.056  -2.340  0.00  0.00     0.009 C 
ENDBRANCH   7   8
ENDBRANCH   1   7
TORSDOF 2
ENDMDL
