MODEL 1
REMARK minimizedAffinity -0.0844439268
REMARK minimizedRMSD -1
REMARK  2 active torsions:
REMARK  status: ('A' for Active; 'I' for Inactive)
REMARK    1  A    between atoms: C1_2  and  C2_3 
REMARK    2  A    between atoms: C2_3  and  C3_4 
ROOT
ATOM      1  C3  UNL d   1      -2.405  -1.462  -1.818  0.00  0.00    -0.075 A 
ATOM      2  C4  UNL d   1      -2.661  -0.092  -1.658  0.00  0.00     0.002 A 
ATOM      3  C5  UNL d   1      -3.142   0.668  -2.725  0.00  0.00     0.002 A 
ATOM      4  C6  UNL d   1      -3.363   0.072  -3.965  0.00  0.00    -0.004 A 
ATOM      5  C7  UNL d   1      -3.097  -1.284  -4.139  0.00  0.00     0.002 A 
ATOM      6  C8  UNL d   1      -2.619  -2.048  -3.073  0.00  0.00     0.002 A 
ENDROOT
BRANCH   1   7
ATOM      7  C2  UNL d   1      -1.912  -2.296  -0.660  0.00  0.00     0.056 C 
BRANCH   7   8
ATOM      8  C1  UNL d   1      -1.510  -1.478   0.572  0.00  0.00     0.007 C 
ATOM      9  C   UNL d   1      -0.599  -2.237   1.526  0.00  0.00     0.009 C 
ENDBRANCH   7   8
ENDBRANCH   1   7
TORSDOF 2
ENDMDL
