MODEL 1
REMARK minimizedAffinity 2.76778746
REMARK minimizedRMSD -1
REMARK  2 active torsions:
REMARK  status: ('A' for Active; 'I' for Inactive)
REMARK    1  A    between atoms: C1_2  and  C2_3 
REMARK    2  A    between atoms: C2_3  and  C3_4 
ROOT
ATOM      1  C3  UNL d   1       0.866  -0.371   0.599  0.00  0.00    -0.075 A 
ATOM      2  C4  UNL d   1       1.490   0.857   0.337  0.00  0.00     0.002 A 
ATOM      3  C5  UNL d   1       2.312   1.453   1.294  0.00  0.00     0.002 A 
ATOM      4  C6  UNL d   1       2.511   0.835   2.527  0.00  0.00    -0.004 A 
ATOM      5  C7  UNL d   1       1.883  -0.377   2.805  0.00  0.00     0.002 A 
ATOM      6  C8  UNL d   1       1.064  -0.977   1.847  0.00  0.00     0.002 A 
ENDROOT
BRANCH   1   7
ATOM      7  C2  UNL d   1      -0.001  -1.036  -0.443  0.00  0.00     0.056 C 
BRANCH   7   8
ATOM      8  C1  UNL d   1       0.612  -2.303  -1.049  0.00  0.00     0.007 C 
ATOM      9  C   UNL d   1      -0.430  -3.293  -1.553  0.00  0.00     0.009 C 
ENDBRANCH   7   8
ENDBRANCH   1   7
TORSDOF 2
ENDMDL
