MODEL 1
REMARK minimizedAffinity 1.5769316
REMARK minimizedRMSD -1
REMARK  2 active torsions:
REMARK  status: ('A' for Active; 'I' for Inactive)
REMARK    1  A    between atoms: C1_2  and  C2_3 
REMARK    2  A    between atoms: C2_3  and  C3_4 
ROOT
ATOM      1  C3  UNL d   1       3.815  -3.634  -5.900  0.00  0.00    -0.075 A 
ATOM      2  C4  UNL d   1       5.211  -3.718  -5.998  0.00  0.00     0.002 A 
ATOM      3  C5  UNL d   1       5.999  -2.573  -5.878  0.00  0.00     0.002 A 
ATOM      4  C6  UNL d   1       5.403  -1.332  -5.670  0.00  0.00    -0.004 A 
ATOM      5  C7  UNL d   1       4.016  -1.234  -5.588  0.00  0.00     0.002 A 
ATOM      6  C8  UNL d   1       3.224  -2.379  -5.702  0.00  0.00     0.002 A 
ENDROOT
BRANCH   1   7
ATOM      7  C2  UNL d   1       2.957  -4.874  -5.999  0.00  0.00     0.056 C 
BRANCH   7   8
ATOM      8  C1  UNL d   1       2.966  -5.740  -4.735  0.00  0.00     0.007 C 
ATOM      9  C   UNL d   1       2.489  -4.997  -3.494  0.00  0.00     0.009 C 
ENDBRANCH   7   8
ENDBRANCH   1   7
TORSDOF 2
ENDMDL
