MODEL 1
REMARK minimizedAffinity -2.7463696
REMARK minimizedRMSD -1
REMARK  2 active torsions:
REMARK  status: ('A' for Active; 'I' for Inactive)
REMARK    1  A    between atoms: C1_2  and  C2_3 
REMARK    2  A    between atoms: C2_3  and  C3_4 
ROOT
ATOM      1  C3  UNL d   1       2.110   0.268   1.953  0.00  0.00    -0.075 A 
ATOM      2  C4  UNL d   1       0.911  -0.419   1.711  0.00  0.00     0.002 A 
ATOM      3  C5  UNL d   1      -0.032   0.097   0.822  0.00  0.00     0.002 A 
ATOM      4  C6  UNL d   1       0.205   1.307   0.173  0.00  0.00    -0.004 A 
ATOM      5  C7  UNL d   1       1.385   2.005   0.419  0.00  0.00     0.002 A 
ATOM      6  C8  UNL d   1       2.333   1.490   1.305  0.00  0.00     0.002 A 
ENDROOT
BRANCH   1   7
ATOM      7  C2  UNL d   1       3.148  -0.299   2.892  0.00  0.00     0.056 C 
BRANCH   7   8
ATOM      8  C1  UNL d   1       2.581  -1.254   3.947  0.00  0.00     0.007 C 
ATOM      9  C   UNL d   1       2.172  -0.551   5.235  0.00  0.00     0.009 C 
ENDBRANCH   7   8
ENDBRANCH   1   7
TORSDOF 2
ENDMDL
