MODEL 1
REMARK minimizedAffinity -1.68974328
REMARK minimizedRMSD -1
REMARK  2 active torsions:
REMARK  status: ('A' for Active; 'I' for Inactive)
REMARK    1  A    between atoms: C1_2  and  C2_3 
REMARK    2  A    between atoms: C2_3  and  C3_4 
ROOT
ATOM      1  C3  UNL d   1       2.237   0.099   2.548  0.00  0.00    -0.075 A 
ATOM      2  C4  UNL d   1       2.528   1.306   1.895  0.00  0.00     0.002 A 
ATOM      3  C5  UNL d   1       1.703   1.775   0.872  0.00  0.00     0.002 A 
ATOM      4  C6  UNL d   1       0.585   1.041   0.483  0.00  0.00    -0.004 A 
ATOM      5  C7  UNL d   1       0.295  -0.167   1.113  0.00  0.00     0.002 A 
ATOM      6  C8  UNL d   1       1.116  -0.637   2.140  0.00  0.00     0.002 A 
ENDROOT
BRANCH   1   7
ATOM      7  C2  UNL d   1       3.109  -0.399   3.675  0.00  0.00     0.056 C 
BRANCH   7   8
ATOM      8  C1  UNL d   1       2.439  -1.456   4.561  0.00  0.00     0.007 C 
ATOM      9  C   UNL d   1       3.388  -2.074   5.579  0.00  0.00     0.009 C 
ENDBRANCH   7   8
ENDBRANCH   1   7
TORSDOF 2
ENDMDL
