MODEL 1
REMARK minimizedAffinity -2.7772727
REMARK minimizedRMSD -1
REMARK  0 active torsions:
REMARK  status: ('A' for Active; 'I' for Inactive)
ROOT
ATOM      1  C   UNL d   1      -0.526   1.366   2.709  0.00  0.00     0.020 A 
ATOM      2  C1  UNL d   1       0.764   1.056   2.281  0.00  0.00     0.020 A 
ATOM      3  C2  UNL d   1       0.977   0.599   0.978  0.00  0.00     0.034 A 
ATOM      4  C3  UNL d   1      -0.103   0.452   0.099  0.00  0.00     0.017 A 
ATOM      5  C4  UNL d   1      -1.397   0.764   0.530  0.00  0.00     0.017 A 
ATOM      6  C5  UNL d   1      -1.604   1.221   1.836  0.00  0.00     0.034 A 
ATOM      7 Cl   UNL d   1      -2.779   0.608  -0.496  0.00  0.00    -0.070 Cl
ATOM      8 Cl1  UNL d   1       0.233  -0.117  -1.497  0.00  0.00    -0.070 Cl
ENDROOT
TORSDOF 0
ENDMDL
