MODEL 1
REMARK minimizedAffinity -2.98386121
REMARK minimizedRMSD -1
REMARK  0 active torsions:
REMARK  status: ('A' for Active; 'I' for Inactive)
ROOT
ATOM      1  C   UNL d   1      -2.195   0.593   0.883  0.00  0.00     0.020 A 
ATOM      2  C1  UNL d   1      -1.624   1.036   2.075  0.00  0.00     0.020 A 
ATOM      3  C2  UNL d   1      -0.251   0.892   2.288  0.00  0.00     0.034 A 
ATOM      4  C3  UNL d   1       0.555   0.304   1.307  0.00  0.00     0.017 A 
ATOM      5  C4  UNL d   1      -0.019  -0.140   0.110  0.00  0.00     0.017 A 
ATOM      6  C5  UNL d   1      -1.394   0.006  -0.098  0.00  0.00     0.034 A 
ATOM      7 Cl   UNL d   1       0.912  -0.876  -1.147  0.00  0.00    -0.070 Cl
ATOM      8 Cl1  UNL d   1       2.245   0.159   1.637  0.00  0.00    -0.070 Cl
ENDROOT
TORSDOF 0
ENDMDL
