MODEL 1
REMARK minimizedAffinity -2.23229146
REMARK minimizedRMSD -1
REMARK  0 active torsions:
REMARK  status: ('A' for Active; 'I' for Inactive)
ROOT
ATOM      1  C   UNL d   1       1.109  -0.735  -1.117  0.00  0.00     0.020 A 
ATOM      2  C1  UNL d   1       1.708  -0.206   0.025  0.00  0.00     0.020 A 
ATOM      3  C2  UNL d   1       0.920   0.378   1.020  0.00  0.00     0.034 A 
ATOM      4  C3  UNL d   1      -0.470   0.434   0.874  0.00  0.00     0.017 A 
ATOM      5  C4  UNL d   1      -1.071  -0.097  -0.274  0.00  0.00     0.017 A 
ATOM      6  C5  UNL d   1      -0.277  -0.681  -1.266  0.00  0.00     0.034 A 
ATOM      7 Cl   UNL d   1      -2.780  -0.064  -0.525  0.00  0.00    -0.070 Cl
ATOM      8 Cl1  UNL d   1      -1.382   1.171   2.143  0.00  0.00    -0.070 Cl
ENDROOT
TORSDOF 0
ENDMDL
