MODEL 1
REMARK minimizedAffinity -3.11726594
REMARK minimizedRMSD -1
REMARK  0 active torsions:
REMARK  status: ('A' for Active; 'I' for Inactive)
ROOT
ATOM      1  C   UNL d   1      -1.118   1.271   2.662  0.00  0.00     0.020 A 
ATOM      2  C1  UNL d   1       0.178   1.461   2.183  0.00  0.00     0.020 A 
ATOM      3  C2  UNL d   1       0.564   0.887   0.970  0.00  0.00     0.034 A 
ATOM      4  C3  UNL d   1      -0.345   0.119   0.233  0.00  0.00     0.017 A 
ATOM      5  C4  UNL d   1      -1.645  -0.071   0.716  0.00  0.00     0.017 A 
ATOM      6  C5  UNL d   1      -2.027   0.507   1.930  0.00  0.00     0.034 A 
ATOM      7 Cl   UNL d   1      -2.823  -1.006  -0.137  0.00  0.00    -0.070 Cl
ATOM      8 Cl1  UNL d   1       0.202  -0.562  -1.258  0.00  0.00    -0.070 Cl
ENDROOT
TORSDOF 0
ENDMDL
