MODEL 1
REMARK minimizedAffinity -4.44236231
REMARK minimizedRMSD -1
REMARK  0 active torsions:
REMARK  status: ('A' for Active; 'I' for Inactive)
ROOT
ATOM      1  C   UNL d   1       0.841   0.875   2.493  0.00  0.00     0.020 A 
ATOM      2  C1  UNL d   1      -0.356   1.541   2.754  0.00  0.00     0.020 A 
ATOM      3  C2  UNL d   1      -1.390   1.514   1.816  0.00  0.00     0.034 A 
ATOM      4  C3  UNL d   1      -1.230   0.818   0.612  0.00  0.00     0.017 A 
ATOM      5  C4  UNL d   1      -0.029   0.149   0.351  0.00  0.00     0.017 A 
ATOM      6  C5  UNL d   1       1.004   0.180   1.294  0.00  0.00     0.034 A 
ATOM      7 Cl   UNL d   1       0.243  -0.731  -1.112  0.00  0.00    -0.070 Cl
ATOM      8 Cl1  UNL d   1      -2.551   0.825  -0.502  0.00  0.00    -0.070 Cl
ENDROOT
TORSDOF 0
ENDMDL
