MODEL 1
REMARK minimizedAffinity -3.64790797
REMARK minimizedRMSD -1
REMARK  0 active torsions:
REMARK  status: ('A' for Active; 'I' for Inactive)
ROOT
ATOM      1  C   UNL d   1       0.213   2.151   2.151  0.00  0.00     0.020 A 
ATOM      2  C1  UNL d   1      -0.909   1.581   2.753  0.00  0.00     0.020 A 
ATOM      3  C2  UNL d   1      -1.535   0.481   2.163  0.00  0.00     0.034 A 
ATOM      4  C3  UNL d   1      -1.040  -0.053   0.968  0.00  0.00     0.017 A 
ATOM      5  C4  UNL d   1       0.086   0.519   0.365  0.00  0.00     0.017 A 
ATOM      6  C5  UNL d   1       0.709   1.620   0.960  0.00  0.00     0.034 A 
ATOM      7 Cl   UNL d   1       0.755  -0.085  -1.110  0.00  0.00    -0.070 Cl
ATOM      8 Cl1  UNL d   1      -1.864  -1.414   0.294  0.00  0.00    -0.070 Cl
ENDROOT
TORSDOF 0
ENDMDL
