MODEL 1
REMARK minimizedAffinity -3.57049298
REMARK minimizedRMSD -1
REMARK  0 active torsions:
REMARK  status: ('A' for Active; 'I' for Inactive)
ROOT
ATOM      1  C   UNL d   1      -1.146  -0.222  -0.782  0.00  0.00     0.020 A 
ATOM      2  C1  UNL d   1       0.165  -0.650  -0.988  0.00  0.00     0.020 A 
ATOM      3  C2  UNL d   1       1.144  -0.389  -0.027  0.00  0.00     0.034 A 
ATOM      4  C3  UNL d   1       0.814   0.303   1.144  0.00  0.00     0.017 A 
ATOM      5  C4  UNL d   1      -0.502   0.733   1.350  0.00  0.00     0.017 A 
ATOM      6  C5  UNL d   1      -1.479   0.468   0.384  0.00  0.00     0.034 A 
ATOM      7 Cl   UNL d   1      -0.985   1.592   2.770  0.00  0.00    -0.070 Cl
ATOM      8 Cl1  UNL d   1       2.075   0.591   2.289  0.00  0.00    -0.070 Cl
ENDROOT
TORSDOF 0
ENDMDL
