MODEL 1
REMARK minimizedAffinity 1.48836184
REMARK minimizedRMSD -1
REMARK  0 active torsions:
REMARK  status: ('A' for Active; 'I' for Inactive)
ROOT
ATOM      1  C   UNL d   1       1.879  -0.323   1.066  0.00  0.00     0.124 A 
ATOM      2  C1  UNL d   1       1.185   0.825   1.418  0.00  0.00     0.062 A 
ATOM      3  C2  UNL d   1       0.331   1.435   0.504  0.00  0.00     0.162 A 
ATOM      4  C3  UNL d   1       0.165   0.897  -0.772  0.00  0.00    -0.034 A 
ATOM      5  C4  UNL d   1       0.868  -0.258  -1.120  0.00  0.00     0.162 A 
ATOM      6  C5  UNL d   1       1.720  -0.864  -0.203  0.00  0.00     0.062 A 
ATOM      7  F   UNL d   1       2.390  -1.974  -0.545  0.00  0.00    -0.097 F 
ATOM      8  F1  UNL d   1       0.732  -0.802  -2.338  0.00  0.00    -0.096 F 
ATOM      9  I   UNL d   1      -1.111   1.806  -2.141  0.00  0.00    -0.060 I 
ATOM     10  F2  UNL d   1      -0.328   2.544   0.873  0.00  0.00    -0.096 F 
ATOM     11  F3  UNL d   1       1.338   1.350   2.643  0.00  0.00    -0.097 F 
ATOM     12  F4  UNL d   1       2.701  -0.908   1.947  0.00  0.00    -0.092 F 
ENDROOT
TORSDOF 0
ENDMDL
