MODEL 1
REMARK minimizedAffinity 0.636146963
REMARK minimizedRMSD -1
REMARK  0 active torsions:
REMARK  status: ('A' for Active; 'I' for Inactive)
ROOT
ATOM      1  C   UNL d   1       0.790  -0.960   2.368  0.00  0.00     0.124 A 
ATOM      2  C1  UNL d   1       1.644  -0.629   1.325  0.00  0.00     0.062 A 
ATOM      3  C2  UNL d   1       1.165   0.075   0.224  0.00  0.00     0.162 A 
ATOM      4  C3  UNL d   1      -0.176   0.453   0.160  0.00  0.00    -0.034 A 
ATOM      5  C4  UNL d   1      -1.030   0.116   1.212  0.00  0.00     0.162 A 
ATOM      6  C5  UNL d   1      -0.546  -0.588   2.310  0.00  0.00     0.062 A 
ATOM      7  F   UNL d   1      -1.373  -0.907   3.316  0.00  0.00    -0.097 F 
ATOM      8  F1  UNL d   1      -2.325   0.464   1.183  0.00  0.00    -0.096 F 
ATOM      9  I   UNL d   1      -0.897   1.506  -1.485  0.00  0.00    -0.060 I 
ATOM     10  F2  UNL d   1       2.013   0.382  -0.769  0.00  0.00    -0.096 F 
ATOM     11  F3  UNL d   1       2.935  -0.988   1.378  0.00  0.00    -0.097 F 
ATOM     12  F4  UNL d   1       1.253  -1.638   3.425  0.00  0.00    -0.092 F 
ENDROOT
TORSDOF 0
ENDMDL
