MODEL 1
REMARK minimizedAffinity 0.449102134
REMARK minimizedRMSD -1
REMARK  0 active torsions:
REMARK  status: ('A' for Active; 'I' for Inactive)
ROOT
ATOM      1  C   UNL d   1       1.253  -0.800  -0.476  0.00  0.00     0.124 A 
ATOM      2  C1  UNL d   1       0.297  -0.204   0.334  0.00  0.00     0.062 A 
ATOM      3  C2  UNL d   1      -0.651   0.654  -0.216  0.00  0.00     0.162 A 
ATOM      4  C3  UNL d   1      -0.647   0.920  -1.586  0.00  0.00    -0.034 A 
ATOM      5  C4  UNL d   1       0.318   0.318  -2.394  0.00  0.00     0.162 A 
ATOM      6  C5  UNL d   1       1.263  -0.539  -1.839  0.00  0.00     0.062 A 
ATOM      7  F   UNL d   1       2.186  -1.114  -2.623  0.00  0.00    -0.097 F 
ATOM      8  F1  UNL d   1       0.350   0.552  -3.714  0.00  0.00    -0.096 F 
ATOM      9  I   UNL d   1      -2.063   2.203  -2.413  0.00  0.00    -0.060 I 
ATOM     10  F2  UNL d   1      -1.563   1.217   0.590  0.00  0.00    -0.096 F 
ATOM     11  F3  UNL d   1       0.286  -0.454   1.652  0.00  0.00    -0.097 F 
ATOM     12  F4  UNL d   1       2.164  -1.625   0.057  0.00  0.00    -0.092 F 
ENDROOT
TORSDOF 0
ENDMDL
