MODEL 1
REMARK minimizedAffinity -0.639554679
REMARK minimizedRMSD -1
REMARK  0 active torsions:
REMARK  status: ('A' for Active; 'I' for Inactive)
ROOT
ATOM      1  C   UNL d   1       0.756  -1.147   1.929  0.00  0.00     0.124 A 
ATOM      2  C1  UNL d   1       1.337  -0.472   0.864  0.00  0.00     0.062 A 
ATOM      3  C2  UNL d   1       0.539   0.202  -0.056  0.00  0.00     0.162 A 
ATOM      4  C3  UNL d   1      -0.848   0.206   0.085  0.00  0.00    -0.034 A 
ATOM      5  C4  UNL d   1      -1.426  -0.476   1.157  0.00  0.00     0.162 A 
ATOM      6  C5  UNL d   1      -0.624  -1.148   2.074  0.00  0.00     0.062 A 
ATOM      7  F   UNL d   1      -1.188  -1.800   3.102  0.00  0.00    -0.097 F 
ATOM      8  F1  UNL d   1      -2.757  -0.492   1.322  0.00  0.00    -0.096 F 
ATOM      9  I   UNL d   1      -2.044   1.214  -1.289  0.00  0.00    -0.060 I 
ATOM     10  F2  UNL d   1       1.128   0.846  -1.075  0.00  0.00    -0.096 F 
ATOM     11  F3  UNL d   1       2.670  -0.470   0.721  0.00  0.00    -0.097 F 
ATOM     12  F4  UNL d   1       1.525  -1.796   2.812  0.00  0.00    -0.092 F 
ENDROOT
TORSDOF 0
ENDMDL
