MODEL 1
REMARK minimizedAffinity -1.01114058
REMARK minimizedRMSD -1
REMARK  0 active torsions:
REMARK  status: ('A' for Active; 'I' for Inactive)
ROOT
ATOM      1  C   UNL d   1       0.395  -1.067   1.326  0.00  0.00     0.124 A 
ATOM      2  C1  UNL d   1      -0.503  -0.087   1.726  0.00  0.00     0.062 A 
ATOM      3  C2  UNL d   1      -0.932   0.880   0.821  0.00  0.00     0.162 A 
ATOM      4  C3  UNL d   1      -0.465   0.870  -0.493  0.00  0.00    -0.034 A 
ATOM      5  C4  UNL d   1       0.438  -0.119  -0.888  0.00  0.00     0.162 A 
ATOM      6  C5  UNL d   1       0.864  -1.082   0.020  0.00  0.00     0.062 A 
ATOM      7  F   UNL d   1       1.731  -2.029  -0.368  0.00  0.00    -0.097 F 
ATOM      8  F1  UNL d   1       0.906  -0.157  -2.144  0.00  0.00    -0.096 F 
ATOM      9  I   UNL d   1      -1.105   2.314  -1.849  0.00  0.00    -0.060 I 
ATOM     10  F2  UNL d   1      -1.800   1.816   1.235  0.00  0.00    -0.096 F 
ATOM     11  F3  UNL d   1      -0.957  -0.070   2.987  0.00  0.00    -0.097 F 
ATOM     12  F4  UNL d   1       0.807  -1.996   2.199  0.00  0.00    -0.092 F 
ENDROOT
TORSDOF 0
ENDMDL
