MODEL 1
REMARK minimizedAffinity -1.72016954
REMARK minimizedRMSD -1
REMARK  0 active torsions:
REMARK  status: ('A' for Active; 'I' for Inactive)
ROOT
ATOM      1  C   UNL d   1       1.180  -0.977   2.028  0.00  0.00     0.124 A 
ATOM      2  C1  UNL d   1       2.153  -0.555   1.134  0.00  0.00     0.062 A 
ATOM      3  C2  UNL d   1       1.801   0.208   0.024  0.00  0.00     0.162 A 
ATOM      4  C3  UNL d   1       0.468   0.554  -0.198  0.00  0.00    -0.034 A 
ATOM      5  C4  UNL d   1      -0.506   0.125   0.706  0.00  0.00     0.162 A 
ATOM      6  C5  UNL d   1      -0.149  -0.637   1.814  0.00  0.00     0.062 A 
ATOM      7  F   UNL d   1      -1.091  -1.044   2.677  0.00  0.00    -0.097 F 
ATOM      8  F1  UNL d   1      -1.796   0.440   0.523  0.00  0.00    -0.096 F 
ATOM      9  I   UNL d   1      -0.062   1.694  -1.856  0.00  0.00    -0.060 I 
ATOM     10  F2  UNL d   1       2.763   0.602  -0.824  0.00  0.00    -0.096 F 
ATOM     11  F3  UNL d   1       3.437  -0.883   1.339  0.00  0.00    -0.097 F 
ATOM     12  F4  UNL d   1       1.521  -1.711   3.095  0.00  0.00    -0.092 F 
ENDROOT
TORSDOF 0
ENDMDL
