MODEL 1
REMARK minimizedAffinity -3.06343865
REMARK minimizedRMSD -1
REMARK  0 active torsions:
REMARK  status: ('A' for Active; 'I' for Inactive)
ROOT
ATOM      1  C   UNL d   1      -4.846   2.407  -3.690  0.00  0.00     0.124 A 
ATOM      2  C1  UNL d   1      -4.718   1.087  -3.282  0.00  0.00     0.062 A 
ATOM      3  C2  UNL d   1      -3.521   0.636  -2.734  0.00  0.00     0.162 A 
ATOM      4  C3  UNL d   1      -2.441   1.507  -2.588  0.00  0.00    -0.034 A 
ATOM      5  C4  UNL d   1      -2.577   2.834  -3.001  0.00  0.00     0.162 A 
ATOM      6  C5  UNL d   1      -3.775   3.279  -3.549  0.00  0.00     0.062 A 
ATOM      7  F   UNL d   1      -3.897   4.556  -3.942  0.00  0.00    -0.097 F 
ATOM      8  F1  UNL d   1      -1.559   3.698  -2.876  0.00  0.00    -0.096 F 
ATOM      9  I   UNL d   1      -0.650   0.837  -1.769  0.00  0.00    -0.060 I 
ATOM     10  F2  UNL d   1      -3.426  -0.645  -2.348  0.00  0.00    -0.096 F 
ATOM     11  F3  UNL d   1      -5.751   0.242  -3.418  0.00  0.00    -0.097 F 
ATOM     12  F4  UNL d   1      -5.998   2.838  -4.218  0.00  0.00    -0.092 F 
ENDROOT
TORSDOF 0
ENDMDL
