MODEL 1
REMARK minimizedAffinity -2.63463902
REMARK minimizedRMSD -1
REMARK  0 active torsions:
REMARK  status: ('A' for Active; 'I' for Inactive)
ROOT
ATOM      1  C   UNL d   1       1.380  -0.711   1.901  0.00  0.00     0.124 A 
ATOM      2  C1  UNL d   1       1.808  -0.456   0.606  0.00  0.00     0.062 A 
ATOM      3  C2  UNL d   1       0.883  -0.159  -0.391  0.00  0.00     0.162 A 
ATOM      4  C3  UNL d   1      -0.479  -0.115  -0.097  0.00  0.00    -0.034 A 
ATOM      5  C4  UNL d   1      -0.902  -0.374   1.208  0.00  0.00     0.162 A 
ATOM      6  C5  UNL d   1       0.026  -0.670   2.201  0.00  0.00     0.062 A 
ATOM      7  F   UNL d   1      -0.390  -0.916   3.452  0.00  0.00    -0.097 F 
ATOM      8  F1  UNL d   1      -2.205  -0.340   1.526  0.00  0.00    -0.096 F 
ATOM      9  I   UNL d   1      -1.865   0.328  -1.585  0.00  0.00    -0.060 I 
ATOM     10  F2  UNL d   1       1.325   0.083  -1.634  0.00  0.00    -0.096 F 
ATOM     11  F3  UNL d   1       3.116  -0.496   0.313  0.00  0.00    -0.097 F 
ATOM     12  F4  UNL d   1       2.272  -0.997   2.858  0.00  0.00    -0.092 F 
ENDROOT
TORSDOF 0
ENDMDL
