MODEL 1
REMARK minimizedAffinity 10.2855539
REMARK minimizedRMSD -1
REMARK  0 active torsions:
REMARK  status: ('A' for Active; 'I' for Inactive)
ROOT
ATOM      1  C   UNL d   1       2.223  -0.543   0.230  0.00  0.00     0.124 A 
ATOM      2  C1  UNL d   1       2.180  -1.287   1.401  0.00  0.00     0.062 A 
ATOM      3  C2  UNL d   1       0.965  -1.761   1.885  0.00  0.00     0.162 A 
ATOM      4  C3  UNL d   1      -0.219  -1.494   1.197  0.00  0.00    -0.034 A 
ATOM      5  C4  UNL d   1      -0.168  -0.745   0.020  0.00  0.00     0.162 A 
ATOM      6  C5  UNL d   1       1.049  -0.273  -0.459  0.00  0.00     0.062 A 
ATOM      7  F   UNL d   1       1.088   0.445  -1.591  0.00  0.00    -0.097 F 
ATOM      8  F1  UNL d   1      -1.287  -0.470  -0.666  0.00  0.00    -0.096 F 
ATOM      9  I   UNL d   1      -2.039  -2.202   1.918  0.00  0.00    -0.060 I 
ATOM     10  F2  UNL d   1       0.953  -2.477   3.019  0.00  0.00    -0.096 F 
ATOM     11  F3  UNL d   1       3.313  -1.548   2.069  0.00  0.00    -0.097 F 
ATOM     12  F4  UNL d   1       3.394  -0.087  -0.233  0.00  0.00    -0.092 F 
ENDROOT
TORSDOF 0
ENDMDL
