MODEL 1
REMARK minimizedAffinity -5.81762981
REMARK minimizedRMSD -1
REMARK  1 active torsions:
REMARK  status: ('A' for Active; 'I' for Inactive)
REMARK    1  A    between atoms: C1_2  and  C2_3 
ROOT
ATOM      1  C2  UNL d   1       0.281  -0.204  -0.715  0.00  0.00    -0.081 A 
ATOM      2  C3  UNL d   1      -1.046   0.150  -0.439  0.00  0.00     0.006 A 
ATOM      3  C4  UNL d   1      -1.385   0.724   0.789  0.00  0.00     0.002 A 
ATOM      4  C5  UNL d   1      -0.403   0.961   1.757  0.00  0.00    -0.080 A 
ATOM      5  C6  UNL d   1      -0.749   1.604   3.067  0.00  0.00     0.076 C 
ATOM      6  C7  UNL d   1       0.919   0.591   1.488  0.00  0.00     0.002 A 
ATOM      7  C8  UNL d   1       1.259   0.016   0.261  0.00  0.00     0.006 A 
ENDROOT
BRANCH   1   8
ATOM      8  C1  UNL d   1       0.660  -0.763  -2.062  0.00  0.00     0.054 C 
ATOM      9  C   UNL d   1       1.487   0.233  -2.862  0.00  0.00     0.018 C 
ENDBRANCH   1   8
TORSDOF 1
ENDMDL
