MODEL 1
REMARK minimizedAffinity -4.29441118
REMARK minimizedRMSD -1
REMARK  1 active torsions:
REMARK  status: ('A' for Active; 'I' for Inactive)
REMARK    1  A    between atoms: C1_2  and  C2_3 
ROOT
ATOM      1  C2  UNL d   1       0.038  -0.553  -1.160  0.00  0.00    -0.081 A 
ATOM      2  C3  UNL d   1      -1.314  -0.292  -0.904  0.00  0.00     0.006 A 
ATOM      3  C4  UNL d   1      -1.710   0.265   0.314  0.00  0.00     0.002 A 
ATOM      4  C5  UNL d   1      -0.761   0.577   1.294  0.00  0.00    -0.080 A 
ATOM      5  C6  UNL d   1      -1.169   1.203   2.594  0.00  0.00     0.076 C 
ATOM      6  C7  UNL d   1       0.588   0.300   1.045  0.00  0.00     0.002 A 
ATOM      7  C8  UNL d   1       0.984  -0.257  -0.172  0.00  0.00     0.006 A 
ENDROOT
BRANCH   1   8
ATOM      8  C1  UNL d   1       0.475  -1.093  -2.497  0.00  0.00     0.054 C 
ATOM      9  C   UNL d   1       0.912   0.027  -3.430  0.00  0.00     0.018 C 
ENDBRANCH   1   8
TORSDOF 1
ENDMDL
