MODEL 1
REMARK minimizedAffinity -5.4413271
REMARK minimizedRMSD -1
REMARK  1 active torsions:
REMARK  status: ('A' for Active; 'I' for Inactive)
REMARK    1  A    between atoms: C1_2  and  C2_3 
ROOT
ATOM      1  C2  UNL d   1       0.137  -0.227  -0.993  0.00  0.00    -0.081 A 
ATOM      2  C3  UNL d   1       0.935  -0.618   0.089  0.00  0.00     0.006 A 
ATOM      3  C4  UNL d   1       0.566  -0.291   1.396  0.00  0.00     0.002 A 
ATOM      4  C5  UNL d   1      -0.610   0.425   1.644  0.00  0.00    -0.080 A 
ATOM      5  C6  UNL d   1      -1.033   0.756   3.044  0.00  0.00     0.076 C 
ATOM      6  C7  UNL d   1      -1.398   0.831   0.562  0.00  0.00     0.002 A 
ATOM      7  C8  UNL d   1      -1.030   0.505  -0.745  0.00  0.00     0.006 A 
ENDROOT
BRANCH   1   8
ATOM      8  C1  UNL d   1       0.498  -0.634  -2.398  0.00  0.00     0.054 C 
ATOM      9  C   UNL d   1       1.295   0.455  -3.102  0.00  0.00     0.018 C 
ENDBRANCH   1   8
TORSDOF 1
ENDMDL
