MODEL 1
REMARK minimizedAffinity -5.5541749
REMARK minimizedRMSD -1
REMARK  1 active torsions:
REMARK  status: ('A' for Active; 'I' for Inactive)
REMARK    1  A    between atoms: C1_2  and  C2_3 
ROOT
ATOM      1  C2  UNL d   1       0.009  -0.381  -1.116  0.00  0.00    -0.081 A 
ATOM      2  C3  UNL d   1      -1.304  -0.233  -0.651  0.00  0.00     0.006 A 
ATOM      3  C4  UNL d   1      -1.552   0.338   0.600  0.00  0.00     0.002 A 
ATOM      4  C5  UNL d   1      -0.493   0.777   1.402  0.00  0.00    -0.080 A 
ATOM      5  C6  UNL d   1      -0.747   1.419   2.733  0.00  0.00     0.076 C 
ATOM      6  C7  UNL d   1       0.819   0.613   0.945  0.00  0.00     0.002 A 
ATOM      7  C8  UNL d   1       1.068   0.042  -0.305  0.00  0.00     0.006 A 
ENDROOT
BRANCH   1   8
ATOM      8  C1  UNL d   1       0.276  -0.936  -2.492  0.00  0.00     0.054 C 
ATOM      9  C   UNL d   1       0.803   0.140  -3.430  0.00  0.00     0.018 C 
ENDBRANCH   1   8
TORSDOF 1
ENDMDL
