MODEL 1
REMARK minimizedAffinity -2.63224936
REMARK minimizedRMSD -1
REMARK  1 active torsions:
REMARK  status: ('A' for Active; 'I' for Inactive)
REMARK    1  A    between atoms: C1_2  and  C2_3 
ROOT
ATOM      1  C2  UNL d   1       1.209   0.261   1.224  0.00  0.00    -0.081 A 
ATOM      2  C3  UNL d   1       0.050   0.796   1.800  0.00  0.00     0.006 A 
ATOM      3  C4  UNL d   1      -1.193   0.613   1.190  0.00  0.00     0.002 A 
ATOM      4  C5  UNL d   1      -1.300  -0.114   0.000  0.00  0.00    -0.080 A 
ATOM      5  C6  UNL d   1      -2.632  -0.344  -0.649  0.00  0.00     0.076 C 
ATOM      6  C7  UNL d   1      -0.140  -0.634  -0.585  0.00  0.00     0.002 A 
ATOM      7  C8  UNL d   1       1.103  -0.450   0.024  0.00  0.00     0.006 A 
ENDROOT
BRANCH   1   8
ATOM      8  C1  UNL d   1       2.542   0.402   1.913  0.00  0.00     0.054 C 
ATOM      9  C   UNL d   1       3.340  -0.893   1.844  0.00  0.00     0.018 C 
ENDBRANCH   1   8
TORSDOF 1
ENDMDL
