MODEL 1
REMARK minimizedAffinity 4.37782812
REMARK minimizedRMSD -1
REMARK  2 active torsions:
REMARK  status: ('A' for Active; 'I' for Inactive)
REMARK    1  A    between atoms: C1_2  and  C2_3 
REMARK    2  A    between atoms: C2_3  and  C3_4 
ROOT
ATOM      1  C3  UNL d   1       3.792  -1.876  -0.595  0.00  0.00    -0.075 A 
ATOM      2  C4  UNL d   1       4.923  -1.911  -1.424  0.00  0.00     0.002 A 
ATOM      3  C5  UNL d   1       5.816  -2.980  -1.358  0.00  0.00     0.002 A 
ATOM      4  C6  UNL d   1       5.598  -4.020  -0.458  0.00  0.00    -0.004 A 
ATOM      5  C7  UNL d   1       4.486  -3.988   0.382  0.00  0.00     0.002 A 
ATOM      6  C8  UNL d   1       3.588  -2.921   0.315  0.00  0.00     0.002 A 
ENDROOT
BRANCH   1   7
ATOM      7  C2  UNL d   1       2.805  -0.736  -0.682  0.00  0.00     0.056 C 
BRANCH   7   8
ATOM      8  C1  UNL d   1       1.374  -1.174  -1.014  0.00  0.00     0.007 C 
ATOM      9  C   UNL d   1       0.454  -0.010  -1.356  0.00  0.00     0.009 C 
ENDBRANCH   7   8
ENDBRANCH   1   7
TORSDOF 2
ENDMDL
