MODEL 1
REMARK minimizedAffinity 12.5359011
REMARK minimizedRMSD -1
REMARK  2 active torsions:
REMARK  status: ('A' for Active; 'I' for Inactive)
REMARK    1  A    between atoms: C1_2  and  C2_3 
REMARK    2  A    between atoms: C2_3  and  C3_4 
ROOT
ATOM      1  C3  UNL d   1       4.300  -4.562  -3.253  0.00  0.00    -0.075 A 
ATOM      2  C4  UNL d   1       4.564  -3.639  -2.230  0.00  0.00     0.002 A 
ATOM      3  C5  UNL d   1       5.405  -2.550  -2.458  0.00  0.00     0.002 A 
ATOM      4  C6  UNL d   1       6.000  -2.374  -3.705  0.00  0.00    -0.004 A 
ATOM      5  C7  UNL d   1       5.759  -3.293  -4.724  0.00  0.00     0.002 A 
ATOM      6  C8  UNL d   1       4.914  -4.382  -4.500  0.00  0.00     0.002 A 
ENDROOT
BRANCH   1   7
ATOM      7  C2  UNL d   1       3.368  -5.727  -3.022  0.00  0.00     0.056 C 
BRANCH   7   8
ATOM      8  C1  UNL d   1       1.884  -5.346  -3.015  0.00  0.00     0.007 C 
ATOM      9  C   UNL d   1       1.101  -6.000  -1.884  0.00  0.00     0.009 C 
ENDBRANCH   7   8
ENDBRANCH   1   7
TORSDOF 2
ENDMDL
