MODEL 1
REMARK minimizedAffinity 10.0185175
REMARK minimizedRMSD -1
REMARK  2 active torsions:
REMARK  status: ('A' for Active; 'I' for Inactive)
REMARK    1  A    between atoms: C1_2  and  C2_3 
REMARK    2  A    between atoms: C2_3  and  C3_4 
ROOT
ATOM      1  C3  UNL d   1       0.405   4.021   1.471  0.00  0.00    -0.075 A 
ATOM      2  C4  UNL d   1       0.109   3.037   2.425  0.00  0.00     0.002 A 
ATOM      3  C5  UNL d   1       1.082   2.611   3.329  0.00  0.00     0.002 A 
ATOM      4  C6  UNL d   1       2.365   3.153   3.283  0.00  0.00    -0.004 A 
ATOM      5  C7  UNL d   1       2.675   4.118   2.328  0.00  0.00     0.002 A 
ATOM      6  C8  UNL d   1       1.702   4.551   1.426  0.00  0.00     0.002 A 
ENDROOT
BRANCH   1   7
ATOM      7  C2  UNL d   1      -0.652   4.509   0.509  0.00  0.00     0.056 C 
BRANCH   7   8
ATOM      8  C1  UNL d   1      -1.153   5.927   0.800  0.00  0.00     0.007 C 
ATOM      9  C   UNL d   1      -2.098   5.998   1.993  0.00  0.00     0.009 C 
ENDBRANCH   7   8
ENDBRANCH   1   7
TORSDOF 2
ENDMDL
