MODEL 1
REMARK minimizedAffinity 6.50429535
REMARK minimizedRMSD -1
REMARK  2 active torsions:
REMARK  status: ('A' for Active; 'I' for Inactive)
REMARK    1  A    between atoms: C1_2  and  C2_3 
REMARK    2  A    between atoms: C2_3  and  C3_4 
ROOT
ATOM      1  C3  UNL d   1      -0.026   3.920   1.284  0.00  0.00    -0.075 A 
ATOM      2  C4  UNL d   1       0.404   3.266   0.121  0.00  0.00     0.002 A 
ATOM      3  C5  UNL d   1       0.564   3.973  -1.071  0.00  0.00     0.002 A 
ATOM      4  C6  UNL d   1       0.286   5.337  -1.118  0.00  0.00    -0.004 A 
ATOM      5  C7  UNL d   1      -0.159   5.994   0.027  0.00  0.00     0.002 A 
ATOM      6  C8  UNL d   1      -0.315   5.290   1.223  0.00  0.00     0.002 A 
ENDROOT
BRANCH   1   7
ATOM      7  C2  UNL d   1      -0.173   3.167   2.585  0.00  0.00     0.056 C 
BRANCH   7   8
ATOM      8  C1  UNL d   1       1.086   2.404   3.009  0.00  0.00     0.007 C 
ATOM      9  C   UNL d   1       2.078   3.263   3.782  0.00  0.00     0.009 C 
ENDBRANCH   7   8
ENDBRANCH   1   7
TORSDOF 2
ENDMDL
