MODEL 1
REMARK minimizedAffinity 10.6485491
REMARK minimizedRMSD -1
REMARK  2 active torsions:
REMARK  status: ('A' for Active; 'I' for Inactive)
REMARK    1  A    between atoms: C1_2  and  C2_3 
REMARK    2  A    between atoms: C2_3  and  C3_4 
ROOT
ATOM      1  C3  UNL d   1      -3.841   0.196   3.677  0.00  0.00    -0.075 A 
ATOM      2  C4  UNL d   1      -3.729  -1.197   3.569  0.00  0.00     0.002 A 
ATOM      3  C5  UNL d   1      -4.654  -2.033   4.196  0.00  0.00     0.002 A 
ATOM      4  C6  UNL d   1      -5.694  -1.488   4.944  0.00  0.00    -0.004 A 
ATOM      5  C7  UNL d   1      -5.806  -0.105   5.071  0.00  0.00     0.002 A 
ATOM      6  C8  UNL d   1      -4.885   0.734   4.442  0.00  0.00     0.002 A 
ENDROOT
BRANCH   1   7
ATOM      7  C2  UNL d   1      -2.860   1.107   2.977  0.00  0.00     0.056 C 
BRANCH   7   8
ATOM      8  C1  UNL d   1      -1.881   1.812   3.921  0.00  0.00     0.007 C 
ATOM      9  C   UNL d   1      -0.667   2.389   3.205  0.00  0.00     0.009 C 
ENDBRANCH   7   8
ENDBRANCH   1   7
TORSDOF 2
ENDMDL
