MODEL 1
REMARK minimizedAffinity 7.65206814
REMARK minimizedRMSD -1
REMARK  2 active torsions:
REMARK  status: ('A' for Active; 'I' for Inactive)
REMARK    1  A    between atoms: C1_2  and  C2_3 
REMARK    2  A    between atoms: C2_3  and  C3_4 
ROOT
ATOM      1  C3  UNL d   1       5.441  -2.199  -1.288  0.00  0.00    -0.075 A 
ATOM      2  C4  UNL d   1       5.797  -3.320  -0.525  0.00  0.00     0.002 A 
ATOM      3  C5  UNL d   1       5.256  -3.513   0.747  0.00  0.00     0.002 A 
ATOM      4  C6  UNL d   1       4.362  -2.584   1.274  0.00  0.00    -0.004 A 
ATOM      5  C7  UNL d   1       4.013  -1.458   0.531  0.00  0.00     0.002 A 
ATOM      6  C8  UNL d   1       4.550  -1.265  -0.743  0.00  0.00     0.002 A 
ENDROOT
BRANCH   1   7
ATOM      7  C2  UNL d   1       6.000  -2.000  -2.677  0.00  0.00     0.056 C 
BRANCH   7   8
ATOM      8  C1  UNL d   1       5.086  -2.510  -3.796  0.00  0.00     0.007 C 
ATOM      9  C   UNL d   1       5.620  -3.760  -4.484  0.00  0.00     0.009 C 
ENDBRANCH   7   8
ENDBRANCH   1   7
TORSDOF 2
ENDMDL
