MODEL 1
REMARK minimizedAffinity 10.103467
REMARK minimizedRMSD -1
REMARK  3 active torsions:
REMARK  status: ('A' for Active; 'I' for Inactive)
REMARK    1  A    between atoms: C3'_2  and  C2'_3 
REMARK    2  A    between atoms: C2'_3  and  C1'_4 
REMARK    3  A    between atoms: C1'_4  and  C1_5 
ROOT
ATOM      1  C1  N4B d   1       0.267   2.466   2.923  0.00  0.00    -0.075 A 
ATOM      2  C2  N4B d   1      -0.749   1.802   3.645  0.00  0.00     0.002 A 
ATOM      3  C3  N4B d   1      -0.443   0.697   4.401  0.00  0.00     0.002 A 
ATOM      4  C4  N4B d   1       0.862   0.229   4.435  0.00  0.00    -0.004 A 
ATOM      5  C5  N4B d   1       1.842   0.892   3.755  0.00  0.00     0.002 A 
ATOM      6  C6  N4B d   1       1.549   2.006   2.994  0.00  0.00     0.002 A 
ENDROOT
BRANCH   1   7
ATOM      7  C1' N4B d   1      -0.034   3.627   2.014  0.00  0.00     0.057 C 
BRANCH   7   8
ATOM      8  C2' N4B d   1       0.282   3.232   0.575  0.00  0.00     0.009 C 
BRANCH   8   9
ATOM      9  C3' N4B d   1       0.413   4.444  -0.331  0.00  0.00     0.004 C 
ATOM     10  C4' N4B d   1       1.659   5.235  -0.066  0.00  0.00     0.003 C 
ENDBRANCH   8   9
ENDBRANCH   7   8
ENDBRANCH   1   7
TORSDOF 3
ENDMDL
