MODEL 1
REMARK minimizedAffinity 12.7304392
REMARK minimizedRMSD -1
REMARK  3 active torsions:
REMARK  status: ('A' for Active; 'I' for Inactive)
REMARK    1  A    between atoms: C3'_2  and  C2'_3 
REMARK    2  A    between atoms: C2'_3  and  C1'_4 
REMARK    3  A    between atoms: C1'_4  and  C1_5 
ROOT
ATOM      1  C1  N4B d   1      -0.428   1.750  -0.149  0.00  0.00    -0.075 A 
ATOM      2  C2  N4B d   1      -1.790   1.489  -0.412  0.00  0.00     0.002 A 
ATOM      3  C3  N4B d   1      -2.142   0.505  -1.303  0.00  0.00     0.002 A 
ATOM      4  C4  N4B d   1      -1.152  -0.216  -1.954  0.00  0.00    -0.004 A 
ATOM      5  C5  N4B d   1       0.162   0.025  -1.676  0.00  0.00     0.002 A 
ATOM      6  C6  N4B d   1       0.529   1.008  -0.780  0.00  0.00     0.002 A 
ENDROOT
BRANCH   1   7
ATOM      7  C1' N4B d   1       0.006   2.873   0.752  0.00  0.00     0.057 C 
BRANCH   7   8
ATOM      8  C2' N4B d   1       0.690   3.951  -0.085  0.00  0.00     0.009 C 
BRANCH   8   9
ATOM      9  C3' N4B d   1       0.070   5.320   0.136  0.00  0.00     0.004 C 
ATOM     10  C4' N4B d   1      -0.308   6.000  -1.147  0.00  0.00     0.003 C 
ENDBRANCH   8   9
ENDBRANCH   7   8
ENDBRANCH   1   7
TORSDOF 3
ENDMDL
