MODEL 1
REMARK minimizedAffinity 10.9518404
REMARK minimizedRMSD -1
REMARK  3 active torsions:
REMARK  status: ('A' for Active; 'I' for Inactive)
REMARK    1  A    between atoms: C3'_2  and  C2'_3 
REMARK    2  A    between atoms: C2'_3  and  C1'_4 
REMARK    3  A    between atoms: C1'_4  and  C1_5 
ROOT
ATOM      1  C1  N4B d   1      -0.279   1.097  -0.244  0.00  0.00    -0.075 A 
ATOM      2  C2  N4B d   1      -1.668   0.846  -0.217  0.00  0.00     0.002 A 
ATOM      3  C3  N4B d   1      -2.214  -0.086  -1.065  0.00  0.00     0.002 A 
ATOM      4  C4  N4B d   1      -1.396  -0.763  -1.958  0.00  0.00    -0.004 A 
ATOM      5  C5  N4B d   1      -0.052  -0.533  -1.960  0.00  0.00     0.002 A 
ATOM      6  C6  N4B d   1       0.511   0.398  -1.110  0.00  0.00     0.002 A 
ENDROOT
BRANCH   1   7
ATOM      7  C1' N4B d   1       0.351   2.168   0.605  0.00  0.00     0.057 C 
BRANCH   7   8
ATOM      8  C2' N4B d   1      -0.434   3.466   0.437  0.00  0.00     0.009 C 
BRANCH   8   9
ATOM      9  C3' N4B d   1       0.082   4.295  -0.727  0.00  0.00     0.004 C 
ATOM     10  C4' N4B d   1      -0.635   5.605  -0.868  0.00  0.00     0.003 C 
ENDBRANCH   8   9
ENDBRANCH   7   8
ENDBRANCH   1   7
TORSDOF 3
ENDMDL
