MODEL 1
REMARK minimizedAffinity 9.18590546
REMARK minimizedRMSD -1
REMARK  3 active torsions:
REMARK  status: ('A' for Active; 'I' for Inactive)
REMARK    1  A    between atoms: C3'_2  and  C2'_3 
REMARK    2  A    between atoms: C2'_3  and  C1'_4 
REMARK    3  A    between atoms: C1'_4  and  C1_5 
ROOT
ATOM      1  C1  N4B d   1       0.336   3.382   0.128  0.00  0.00    -0.075 A 
ATOM      2  C2  N4B d   1       1.115   4.166  -0.751  0.00  0.00     0.002 A 
ATOM      3  C3  N4B d   1       0.761   5.469  -1.006  0.00  0.00     0.002 A 
ATOM      4  C4  N4B d   1      -0.374   6.000  -0.411  0.00  0.00    -0.004 A 
ATOM      5  C5  N4B d   1      -1.106   5.244   0.457  0.00  0.00     0.002 A 
ATOM      6  C6  N4B d   1      -0.760   3.935   0.725  0.00  0.00     0.002 A 
ENDROOT
BRANCH   1   7
ATOM      7  C1' N4B d   1       0.634   1.928   0.370  0.00  0.00     0.057 C 
BRANCH   7   8
ATOM      8  C2' N4B d   1       0.826   1.226  -0.971  0.00  0.00     0.009 C 
BRANCH   8   9
ATOM      9  C3' N4B d   1       0.228  -0.171  -0.972  0.00  0.00     0.004 C 
ATOM     10  C4' N4B d   1      -0.629  -0.434  -2.174  0.00  0.00     0.003 C 
ENDBRANCH   8   9
ENDBRANCH   7   8
ENDBRANCH   1   7
TORSDOF 3
ENDMDL
