MODEL 1
REMARK minimizedAffinity 10.2412491
REMARK minimizedRMSD -1
REMARK  0 active torsions:
REMARK  status: ('A' for Active; 'I' for Inactive)
ROOT
ATOM      1  C4' PXY d   1      -5.999  -2.718   5.999  0.00  0.00     0.077 C 
ATOM      2  C1' PXY d   1      -4.470   1.061   1.900  0.00  0.00     0.077 C 
ATOM      3  C1  PXY d   1      -4.865   0.077   2.984  0.00  0.00    -0.082 A 
ATOM      4  C2  PXY d   1      -5.131  -1.178   2.662  0.00  0.00     0.003 A 
ATOM      5  C3  PXY d   1      -5.521  -2.073   3.625  0.00  0.00     0.003 A 
ATOM      6  C4  PXY d   1      -5.587  -1.692   4.939  0.00  0.00    -0.082 A 
ATOM      7  C5  PXY d   1      -5.307  -0.416   5.277  0.00  0.00     0.003 A 
ATOM      8  C6  PXY d   1      -4.953   0.488   4.279  0.00  0.00     0.003 A 
ENDROOT
TORSDOF 0
ENDMDL
