MODEL 1
REMARK minimizedAffinity 8.16080952
REMARK minimizedRMSD -1
REMARK  0 active torsions:
REMARK  status: ('A' for Active; 'I' for Inactive)
ROOT
ATOM      1  C4' PXY d   1      -3.539   1.234   5.380  0.00  0.00     0.077 C 
ATOM      2  C1' PXY d   1      -5.344  -3.185   2.120  0.00  0.00     0.077 C 
ATOM      3  C1  PXY d   1      -4.861  -2.024   2.966  0.00  0.00    -0.082 A 
ATOM      4  C2  PXY d   1      -5.144  -1.994   4.258  0.00  0.00     0.003 A 
ATOM      5  C3  PXY d   1      -4.742  -0.936   5.032  0.00  0.00     0.003 A 
ATOM      6  C4  PXY d   1      -3.998   0.077   4.488  0.00  0.00    -0.082 A 
ATOM      7  C5  PXY d   1      -3.697   0.049   3.173  0.00  0.00     0.003 A 
ATOM      8  C6  PXY d   1      -4.149  -1.014   2.396  0.00  0.00     0.003 A 
ENDROOT
TORSDOF 0
ENDMDL
