MODEL 1
REMARK minimizedAffinity 2.41134715
REMARK minimizedRMSD -1
REMARK  0 active torsions:
REMARK  status: ('A' for Active; 'I' for Inactive)
ROOT
ATOM      1  C4' PXY d   1      -5.114  -1.924   2.534  0.00  0.00     0.077 C 
ATOM      2  C1' PXY d   1      -3.306   2.563   5.698  0.00  0.00     0.077 C 
ATOM      3  C1  PXY d   1      -3.779   1.379   4.879  0.00  0.00    -0.082 A 
ATOM      4  C2  PXY d   1      -3.660   1.405   3.561  0.00  0.00     0.003 A 
ATOM      5  C3  PXY d   1      -4.111   0.356   2.803  0.00  0.00     0.003 A 
ATOM      6  C4  PXY d   1      -4.642  -0.754   3.402  0.00  0.00    -0.082 A 
ATOM      7  C5  PXY d   1      -4.757  -0.794   4.747  0.00  0.00     0.003 A 
ATOM      8  C6  PXY d   1      -4.330   0.299   5.496  0.00  0.00     0.003 A 
ENDROOT
TORSDOF 0
ENDMDL
