MODEL 1
REMARK minimizedAffinity 12.4706392
REMARK minimizedRMSD -1
REMARK  0 active torsions:
REMARK  status: ('A' for Active; 'I' for Inactive)
ROOT
ATOM      1  C4' PXY d   1      -1.390  -4.127  -0.265  0.00  0.00     0.077 C 
ATOM      2  C1' PXY d   1       0.229  -0.766   4.151  0.00  0.00     0.077 C 
ATOM      3  C1  PXY d   1      -0.208  -1.643   2.994  0.00  0.00    -0.082 A 
ATOM      4  C2  PXY d   1       0.489  -2.727   2.695  0.00  0.00     0.003 A 
ATOM      5  C3  PXY d   1       0.127  -3.514   1.633  0.00  0.00     0.003 A 
ATOM      6  C4  PXY d   1      -0.992  -3.217   0.901  0.00  0.00    -0.082 A 
ATOM      7  C5  PXY d   1      -1.714  -2.118   1.205  0.00  0.00     0.003 A 
ATOM      8  C6  PXY d   1      -1.306  -1.310   2.262  0.00  0.00     0.003 A 
ENDROOT
TORSDOF 0
ENDMDL
