MODEL 1
REMARK minimizedAffinity -1.64639616
REMARK minimizedRMSD -1
REMARK  0 active torsions:
REMARK  status: ('A' for Active; 'I' for Inactive)
ROOT
ATOM      1  C4' PXY d   1      -0.739  -1.788   2.156  0.00  0.00     0.077 C 
ATOM      2  C1' PXY d   1       3.655  -3.944  -0.921  0.00  0.00     0.077 C 
ATOM      3  C1  PXY d   1       2.497  -3.390  -0.114  0.00  0.00    -0.082 A 
ATOM      4  C2  PXY d   1       2.251  -2.090  -0.130  0.00  0.00     0.003 A 
ATOM      5  C3  PXY d   1       1.227  -1.568   0.618  0.00  0.00     0.003 A 
ATOM      6  C4  PXY d   1       0.414  -2.392   1.349  0.00  0.00    -0.082 A 
ATOM      7  C5  PXY d   1       0.652  -3.721   1.362  0.00  0.00     0.003 A 
ATOM      8  C6  PXY d   1       1.721  -4.226   0.628  0.00  0.00     0.003 A 
ENDROOT
TORSDOF 0
ENDMDL
