MODEL 1
REMARK minimizedAffinity -3.36936307
REMARK minimizedRMSD -1
REMARK  0 active torsions:
REMARK  status: ('A' for Active; 'I' for Inactive)
ROOT
ATOM      1  C4' PXY d   1       4.089  -4.181  -1.218  0.00  0.00     0.077 C 
ATOM      2  C1' PXY d   1      -0.430  -1.785   1.476  0.00  0.00     0.077 C 
ATOM      3  C1  PXY d   1       0.756  -2.423   0.778  0.00  0.00    -0.082 A 
ATOM      4  C2  PXY d   1       1.537  -1.683   0.009  0.00  0.00     0.003 A 
ATOM      5  C3  PXY d   1       2.595  -2.250  -0.655  0.00  0.00     0.003 A 
ATOM      6  C4  PXY d   1       2.887  -3.577  -0.487  0.00  0.00    -0.082 A 
ATOM      7  C5  PXY d   1       2.100  -4.336   0.306  0.00  0.00     0.003 A 
ATOM      8  C6  PXY d   1       1.008  -3.750   0.938  0.00  0.00     0.003 A 
ENDROOT
TORSDOF 0
ENDMDL
