MODEL 1
REMARK minimizedAffinity -3.50528502
REMARK minimizedRMSD -1
REMARK  0 active torsions:
REMARK  status: ('A' for Active; 'I' for Inactive)
ROOT
ATOM      1  C4' PXY d   1       6.000  -6.000   0.129  0.00  0.00     0.077 C 
ATOM      2  C1' PXY d   1       3.448  -1.624  -2.656  0.00  0.00     0.077 C 
ATOM      3  C1  PXY d   1       4.108  -2.771  -1.916  0.00  0.00    -0.082 A 
ATOM      4  C2  PXY d   1       5.395  -3.017  -2.105  0.00  0.00     0.003 A 
ATOM      5  C3  PXY d   1       6.000  -4.070  -1.468  0.00  0.00     0.003 A 
ATOM      6  C4  PXY d   1       5.294  -4.847  -0.589  0.00  0.00    -0.082 A 
ATOM      7  C5  PXY d   1       3.984  -4.595  -0.383  0.00  0.00     0.003 A 
ATOM      8  C6  PXY d   1       3.378  -3.547  -1.070  0.00  0.00     0.003 A 
ENDROOT
TORSDOF 0
ENDMDL
