MODEL 1
REMARK minimizedAffinity -4.7969656
REMARK minimizedRMSD -1
REMARK  0 active torsions:
REMARK  status: ('A' for Active; 'I' for Inactive)
ROOT
ATOM      1  C4' PXY d   1       6.000  -5.736  -1.120  0.00  0.00     0.077 C 
ATOM      2  C1' PXY d   1       1.306  -2.596   0.112  0.00  0.00     0.077 C 
ATOM      3  C1  PXY d   1       2.537  -3.415  -0.223  0.00  0.00    -0.082 A 
ATOM      4  C2  PXY d   1       2.795  -4.518   0.460  0.00  0.00     0.003 A 
ATOM      5  C3  PXY d   1       3.921  -5.252   0.192  0.00  0.00     0.003 A 
ATOM      6  C4  PXY d   1       4.763  -4.884  -0.823  0.00  0.00    -0.082 A 
ATOM      7  C5  PXY d   1       4.501  -3.766  -1.532  0.00  0.00     0.003 A 
ATOM      8  C6  PXY d   1       3.375  -3.011  -1.216  0.00  0.00     0.003 A 
ENDROOT
TORSDOF 0
ENDMDL
