MODEL 1
REMARK minimizedAffinity -2.77067542
REMARK minimizedRMSD -1
REMARK  0 active torsions:
REMARK  status: ('A' for Active; 'I' for Inactive)
ROOT
ATOM      1  C4' PXY d   1       6.000  -5.196  -1.351  0.00  0.00     0.077 C 
ATOM      2  C1' PXY d   1       1.199  -2.639   0.606  0.00  0.00     0.077 C 
ATOM      3  C1  PXY d   1       2.455  -3.306   0.080  0.00  0.00    -0.082 A 
ATOM      4  C2  PXY d   1       3.015  -4.284   0.774  0.00  0.00     0.003 A 
ATOM      5  C3  PXY d   1       4.169  -4.876   0.329  0.00  0.00     0.003 A 
ATOM      6  C4  PXY d   1       4.726  -4.500  -0.864  0.00  0.00    -0.082 A 
ATOM      7  C5  PXY d   1       4.154  -3.510  -1.582  0.00  0.00     0.003 A 
ATOM      8  C6  PXY d   1       3.006  -2.894  -1.093  0.00  0.00     0.003 A 
ENDROOT
TORSDOF 0
ENDMDL
