MODEL 1
REMARK minimizedAffinity -4.21869802
REMARK minimizedRMSD -1
REMARK  0 active torsions:
REMARK  status: ('A' for Active; 'I' for Inactive)
ROOT
ATOM      1  C4' PXY d   1       0.535  -2.683   0.627  0.00  0.00     0.077 C 
ATOM      2  C1' PXY d   1       5.614  -4.032  -1.781  0.00  0.00     0.077 C 
ATOM      3  C1  PXY d   1       4.282  -3.667  -1.156  0.00  0.00    -0.082 A 
ATOM      4  C2  PXY d   1       3.929  -4.213  -0.004  0.00  0.00     0.003 A 
ATOM      5  C3  PXY d   1       2.714  -3.918   0.560  0.00  0.00     0.003 A 
ATOM      6  C4  PXY d   1       1.875  -3.015  -0.036  0.00  0.00    -0.082 A 
ATOM      7  C5  PXY d   1       2.233  -2.445  -1.206  0.00  0.00     0.003 A 
ATOM      8  C6  PXY d   1       3.453  -2.789  -1.782  0.00  0.00     0.003 A 
ENDROOT
TORSDOF 0
ENDMDL
