MODEL 1
REMARK minimizedAffinity -2.64861202
REMARK minimizedRMSD -1
REMARK  0 active torsions:
REMARK  status: ('A' for Active; 'I' for Inactive)
ROOT
ATOM      1  C4' PXY d   1      -0.067  -2.278   1.809  0.00  0.00     0.077 C 
ATOM      2  C1' PXY d   1       3.962  -4.295  -1.812  0.00  0.00     0.077 C 
ATOM      3  C1  PXY d   1       2.898  -3.777  -0.864  0.00  0.00    -0.082 A 
ATOM      4  C2  PXY d   1       2.791  -2.475  -0.650  0.00  0.00     0.003 A 
ATOM      5  C3  PXY d   1       1.856  -1.992   0.228  0.00  0.00     0.003 A 
ATOM      6  C4  PXY d   1       0.986  -2.845   0.853  0.00  0.00    -0.082 A 
ATOM      7  C5  PXY d   1       1.082  -4.173   0.632  0.00  0.00     0.003 A 
ATOM      8  C6  PXY d   1       2.065  -4.647  -0.232  0.00  0.00     0.003 A 
ENDROOT
TORSDOF 0
ENDMDL
