MODEL 1
REMARK minimizedAffinity -2.03877831
REMARK minimizedRMSD -1
REMARK  0 active torsions:
REMARK  status: ('A' for Active; 'I' for Inactive)
ROOT
ATOM      1  C4' PXY d   1       0.511  -3.750  -0.731  0.00  0.00     0.077 C 
ATOM      2  C1' PXY d   1       5.999  -2.209   0.231  0.00  0.00     0.077 C 
ATOM      3  C1  PXY d   1       4.564  -2.623  -0.029  0.00  0.00    -0.082 A 
ATOM      4  C2  PXY d   1       3.591  -1.738   0.118  0.00  0.00     0.003 A 
ATOM      5  C3  PXY d   1       2.285  -2.104  -0.082  0.00  0.00     0.003 A 
ATOM      6  C4  PXY d   1       1.976  -3.374  -0.488  0.00  0.00    -0.082 A 
ATOM      7  C5  PXY d   1       2.963  -4.280  -0.651  0.00  0.00     0.003 A 
ATOM      8  C6  PXY d   1       4.279  -3.900  -0.403  0.00  0.00     0.003 A 
ENDROOT
TORSDOF 0
ENDMDL
