MODEL 1
REMARK minimizedAffinity 8.2282877
REMARK minimizedRMSD -1
REMARK  0 active torsions:
REMARK  status: ('A' for Active; 'I' for Inactive)
ROOT
ATOM      1  C4' PXY d   1      -2.620   0.528   1.938  0.00  0.00     0.077 C 
ATOM      2  C1' PXY d   1       0.519  -4.228   0.967  0.00  0.00     0.077 C 
ATOM      3  C1  PXY d   1      -0.313  -2.985   1.213  0.00  0.00    -0.082 A 
ATOM      4  C2  PXY d   1       0.263  -1.899   1.703  0.00  0.00     0.003 A 
ATOM      5  C3  PXY d   1      -0.481  -0.776   1.962  0.00  0.00     0.003 A 
ATOM      6  C4  PXY d   1      -1.817  -0.747   1.665  0.00  0.00    -0.082 A 
ATOM      7  C5  PXY d   1      -2.410  -1.847   1.155  0.00  0.00     0.003 A 
ATOM      8  C6  PXY d   1      -1.646  -2.990   0.939  0.00  0.00     0.003 A 
ENDROOT
TORSDOF 0
ENDMDL
