MODEL 1
REMARK minimizedAffinity 1.74508727
REMARK minimizedRMSD -1
REMARK  0 active torsions:
REMARK  status: ('A' for Active; 'I' for Inactive)
ROOT
ATOM      1  C4' PXY d   1       5.991  -3.723  -2.710  0.00  0.00     0.077 C 
ATOM      2  C1' PXY d   1       5.989  -5.565   2.770  0.00  0.00     0.077 C 
ATOM      3  C1  PXY d   1       5.995  -5.093   1.329  0.00  0.00    -0.082 A 
ATOM      4  C2  PXY d   1       6.000  -3.797   1.065  0.00  0.00     0.003 A 
ATOM      5  C3  PXY d   1       5.973  -3.353  -0.232  0.00  0.00     0.003 A 
ATOM      6  C4  PXY d   1       5.994  -4.245  -1.270  0.00  0.00    -0.082 A 
ATOM      7  C5  PXY d   1       6.000  -5.569  -1.009  0.00  0.00     0.003 A 
ATOM      8  C6  PXY d   1       5.986  -6.000   0.314  0.00  0.00     0.003 A 
ENDROOT
TORSDOF 0
ENDMDL
