MODEL 1
REMARK minimizedAffinity 5.36164331
REMARK minimizedRMSD -1
REMARK  0 active torsions:
REMARK  status: ('A' for Active; 'I' for Inactive)
ROOT
ATOM      1  C4' PXY d   1      -3.983  -3.730  -4.474  0.00  0.00     0.077 C 
ATOM      2  C1' PXY d   1       1.243  -5.681  -5.991  0.00  0.00     0.077 C 
ATOM      3  C1  PXY d   1      -0.132  -5.181  -5.593  0.00  0.00    -0.082 A 
ATOM      4  C2  PXY d   1      -0.495  -3.947  -5.901  0.00  0.00     0.003 A 
ATOM      5  C3  PXY d   1      -1.722  -3.469  -5.521  0.00  0.00     0.003 A 
ATOM      6  C4  PXY d   1      -2.609  -4.280  -4.865  0.00  0.00    -0.082 A 
ATOM      7  C5  PXY d   1      -2.251  -5.544  -4.556  0.00  0.00     0.003 A 
ATOM      8  C6  PXY d   1      -0.984  -5.997  -4.915  0.00  0.00     0.003 A 
ENDROOT
TORSDOF 0
ENDMDL
