MODEL 1
REMARK minimizedAffinity 11.8594513
REMARK minimizedRMSD -1
REMARK  0 active torsions:
REMARK  status: ('A' for Active; 'I' for Inactive)
ROOT
ATOM      1  C4' PXY d   1      -3.878   4.431  -0.890  0.00  0.00     0.077 C 
ATOM      2  C1' PXY d   1      -3.019  -0.515   1.977  0.00  0.00     0.077 C 
ATOM      3  C1  PXY d   1      -3.240   0.789   1.236  0.00  0.00    -0.082 A 
ATOM      4  C2  PXY d   1      -4.120   0.839   0.249  0.00  0.00     0.003 A 
ATOM      5  C3  PXY d   1      -4.309   2.002  -0.453  0.00  0.00     0.003 A 
ATOM      6  C4  PXY d   1      -3.629   3.138  -0.108  0.00  0.00    -0.082 A 
ATOM      7  C5  PXY d   1      -2.737   3.098   0.905  0.00  0.00     0.003 A 
ATOM      8  C6  PXY d   1      -2.529   1.898   1.578  0.00  0.00     0.003 A 
ENDROOT
TORSDOF 0
ENDMDL
