MODEL 1
REMARK minimizedAffinity 8.35885334
REMARK minimizedRMSD -1
REMARK  0 active torsions:
REMARK  status: ('A' for Active; 'I' for Inactive)
ROOT
ATOM      1  C4' PXY d   1      -0.166   5.124  -4.930  0.00  0.00     0.077 C 
ATOM      2  C1' PXY d   1       1.612   3.109   0.188  0.00  0.00     0.077 C 
ATOM      3  C1  PXY d   1       1.156   3.632  -1.160  0.00  0.00    -0.082 A 
ATOM      4  C2  PXY d   1       0.343   4.675  -1.216  0.00  0.00     0.003 A 
ATOM      5  C3  PXY d   1      -0.104   5.141  -2.425  0.00  0.00     0.003 A 
ATOM      6  C4  PXY d   1       0.327   4.568  -3.592  0.00  0.00    -0.082 A 
ATOM      7  C5  PXY d   1       1.165   3.511  -3.543  0.00  0.00     0.003 A 
ATOM      8  C6  PXY d   1       1.575   3.027  -2.304  0.00  0.00     0.003 A 
ENDROOT
TORSDOF 0
ENDMDL
