MODEL 1
REMARK minimizedAffinity -0.705791593
REMARK minimizedRMSD -1
REMARK  0 active torsions:
REMARK  status: ('A' for Active; 'I' for Inactive)
ROOT
ATOM      1  C4' PXY d   1       5.208  -5.241  -0.347  0.00  0.00     0.077 C 
ATOM      2  C1' PXY d   1       0.590  -1.949   0.769  0.00  0.00     0.077 C 
ATOM      3  C1  PXY d   1       1.807  -2.802   0.471  0.00  0.00    -0.082 A 
ATOM      4  C2  PXY d   1       1.676  -4.114   0.367  0.00  0.00     0.003 A 
ATOM      5  C3  PXY d   1       2.772  -4.904   0.130  0.00  0.00     0.003 A 
ATOM      6  C4  PXY d   1       4.005  -4.340  -0.056  0.00  0.00    -0.082 A 
ATOM      7  C5  PXY d   1       4.145  -3.000   0.037  0.00  0.00     0.003 A 
ATOM      8  C6  PXY d   1       3.028  -2.220   0.320  0.00  0.00     0.003 A 
ENDROOT
TORSDOF 0
ENDMDL
