MODEL 1
REMARK minimizedAffinity 2.24531746
REMARK minimizedRMSD -1
REMARK  0 active torsions:
REMARK  status: ('A' for Active; 'I' for Inactive)
ROOT
ATOM      1  C4' PXY d   1       5.993   5.625   0.678  0.00  0.00     0.077 C 
ATOM      2  C1' PXY d   1       0.323   4.502   0.764  0.00  0.00     0.077 C 
ATOM      3  C1  PXY d   1       1.813   4.785   0.737  0.00  0.00    -0.082 A 
ATOM      4  C2  PXY d   1       2.318   5.709   1.537  0.00  0.00     0.003 A 
ATOM      5  C3  PXY d   1       3.657   6.000   1.503  0.00  0.00     0.003 A 
ATOM      6  C4  PXY d   1       4.497   5.300   0.679  0.00  0.00    -0.082 A 
ATOM      7  C5  PXY d   1       3.991   4.348  -0.134  0.00  0.00     0.003 A 
ATOM      8  C6  PXY d   1       2.622   4.096  -0.113  0.00  0.00     0.003 A 
ENDROOT
TORSDOF 0
ENDMDL
