MODEL 1
REMARK minimizedAffinity 7.33619928
REMARK minimizedRMSD -1
REMARK  0 active torsions:
REMARK  status: ('A' for Active; 'I' for Inactive)
ROOT
ATOM      1  C4' PXY d   1      -0.314   3.968   0.283  0.00  0.00     0.077 C 
ATOM      2  C1' PXY d   1       5.112   5.492   1.568  0.00  0.00     0.077 C 
ATOM      3  C1  PXY d   1       3.694   5.082   1.224  0.00  0.00    -0.082 A 
ATOM      4  C2  PXY d   1       2.738   5.997   1.193  0.00  0.00     0.003 A 
ATOM      5  C3  PXY d   1       1.444   5.638   0.916  0.00  0.00     0.003 A 
ATOM      6  C4  PXY d   1       1.134   4.339   0.615  0.00  0.00    -0.082 A 
ATOM      7  C5  PXY d   1       2.106   3.402   0.634  0.00  0.00     0.003 A 
ATOM      8  C6  PXY d   1       3.406   3.779   0.958  0.00  0.00     0.003 A 
ENDROOT
TORSDOF 0
ENDMDL
