MODEL 1
REMARK minimizedAffinity 4.58655024
REMARK minimizedRMSD -1
REMARK  0 active torsions:
REMARK  status: ('A' for Active; 'I' for Inactive)
ROOT
ATOM      1  C4' PXY d   1       2.235   2.014   2.380  0.00  0.00     0.077 C 
ATOM      2  C1' PXY d   1      -3.422   1.308   3.338  0.00  0.00     0.077 C 
ATOM      3  C1  PXY d   1      -1.939   1.503   3.095  0.00  0.00    -0.082 A 
ATOM      4  C2  PXY d   1      -1.400   1.082   1.962  0.00  0.00     0.003 A 
ATOM      5  C3  PXY d   1      -0.054   1.222   1.740  0.00  0.00     0.003 A 
ATOM      6  C4  PXY d   1       0.739   1.847   2.664  0.00  0.00    -0.082 A 
ATOM      7  C5  PXY d   1       0.196   2.288   3.818  0.00  0.00     0.003 A 
ATOM      8  C6  PXY d   1      -1.165   2.100   4.042  0.00  0.00     0.003 A 
ENDROOT
TORSDOF 0
ENDMDL
