MODEL 1
REMARK minimizedAffinity 14.1104126
REMARK minimizedRMSD -1
REMARK  0 active torsions:
REMARK  status: ('A' for Active; 'I' for Inactive)
ROOT
ATOM      1  C4' PXY d   1       1.636  -0.159  -2.559  0.00  0.00     0.077 C 
ATOM      2  C1' PXY d   1      -3.299  -2.599  -4.323  0.00  0.00     0.077 C 
ATOM      3  C1  PXY d   1      -2.009  -1.948  -3.864  0.00  0.00    -0.082 A 
ATOM      4  C2  PXY d   1      -0.889  -2.652  -3.851  0.00  0.00     0.003 A 
ATOM      5  C3  PXY d   1       0.279  -2.087  -3.407  0.00  0.00     0.003 A 
ATOM      6  C4  PXY d   1       0.312  -0.773  -3.024  0.00  0.00    -0.082 A 
ATOM      7  C5  PXY d   1      -0.824  -0.046  -3.044  0.00  0.00     0.003 A 
ATOM      8  C6  PXY d   1      -2.008  -0.649  -3.459  0.00  0.00     0.003 A 
ENDROOT
TORSDOF 0
ENDMDL
