MODEL 1
REMARK minimizedAffinity 6.50309229
REMARK minimizedRMSD -1
REMARK  0 active torsions:
REMARK  status: ('A' for Active; 'I' for Inactive)
ROOT
ATOM      1  C4' PXY d   1       0.037   5.518  -2.975  0.00  0.00     0.077 C 
ATOM      2  C1' PXY d   1      -4.583   3.811  -6.000  0.00  0.00     0.077 C 
ATOM      3  C1  PXY d   1      -3.370   4.269  -5.215  0.00  0.00    -0.082 A 
ATOM      4  C2  PXY d   1      -2.679   3.390  -4.507  0.00  0.00     0.003 A 
ATOM      5  C3  PXY d   1      -1.598   3.793  -3.766  0.00  0.00     0.003 A 
ATOM      6  C4  PXY d   1      -1.189   5.099  -3.791  0.00  0.00    -0.082 A 
ATOM      7  C5  PXY d   1      -1.883   6.000  -4.518  0.00  0.00     0.003 A 
ATOM      8  C6  PXY d   1      -3.002   5.578  -5.231  0.00  0.00     0.003 A 
ENDROOT
TORSDOF 0
ENDMDL
