MODEL 1
REMARK minimizedAffinity 15.4431324
REMARK minimizedRMSD -1
REMARK  0 active torsions:
REMARK  status: ('A' for Active; 'I' for Inactive)
ROOT
ATOM      1  C4' PXY d   1      -0.918  -3.766  -2.545  0.00  0.00     0.077 C 
ATOM      2  C1' PXY d   1      -5.774  -3.461  -5.667  0.00  0.00     0.077 C 
ATOM      3  C1  PXY d   1      -4.506  -3.550  -4.840  0.00  0.00    -0.082 A 
ATOM      4  C2  PXY d   1      -3.635  -2.555  -4.871  0.00  0.00     0.003 A 
ATOM      5  C3  PXY d   1      -2.468  -2.632  -4.154  0.00  0.00     0.003 A 
ATOM      6  C4  PXY d   1      -2.216  -3.716  -3.356  0.00  0.00    -0.082 A 
ATOM      7  C5  PXY d   1      -3.105  -4.731  -3.311  0.00  0.00     0.003 A 
ATOM      8  C6  PXY d   1      -4.264  -4.651  -4.078  0.00  0.00     0.003 A 
ENDROOT
TORSDOF 0
ENDMDL
