MODEL 1
REMARK minimizedAffinity 13.4529324
REMARK minimizedRMSD -1
REMARK  0 active torsions:
REMARK  status: ('A' for Active; 'I' for Inactive)
ROOT
ATOM      1  C4' PXY d   1      -4.312  -1.469   3.376  0.00  0.00     0.077 C 
ATOM      2  C1' PXY d   1      -5.263   4.152   4.334  0.00  0.00     0.077 C 
ATOM      3  C1  PXY d   1      -5.001   2.681   4.080  0.00  0.00    -0.082 A 
ATOM      4  C2  PXY d   1      -6.000   1.891   3.720  0.00  0.00     0.003 A 
ATOM      5  C3  PXY d   1      -5.787   0.552   3.518  0.00  0.00     0.003 A 
ATOM      6  C4  PXY d   1      -4.528   0.025   3.633  0.00  0.00    -0.082 A 
ATOM      7  C5  PXY d   1      -3.502   0.826   3.990  0.00  0.00     0.003 A 
ATOM      8  C6  PXY d   1      -3.747   2.175   4.231  0.00  0.00     0.003 A 
ENDROOT
TORSDOF 0
ENDMDL
