MODEL 1
REMARK minimizedAffinity 20.3965988
REMARK minimizedRMSD -1
REMARK  0 active torsions:
REMARK  status: ('A' for Active; 'I' for Inactive)
ROOT
ATOM      1  C4' PXY d   1       1.412  -0.681  -3.283  0.00  0.00     0.077 C 
ATOM      2  C1' PXY d   1       4.542   2.141   0.674  0.00  0.00     0.077 C 
ATOM      3  C1  PXY d   1       3.726   1.389  -0.359  0.00  0.00    -0.082 A 
ATOM      4  C2  PXY d   1       3.382   1.992  -1.486  0.00  0.00     0.003 A 
ATOM      5  C3  PXY d   1       2.617   1.338  -2.417  0.00  0.00     0.003 A 
ATOM      6  C4  PXY d   1       2.244   0.036  -2.216  0.00  0.00    -0.082 A 
ATOM      7  C5  PXY d   1       2.600  -0.589  -1.074  0.00  0.00     0.003 A 
ATOM      8  C6  PXY d   1       3.342   0.106  -0.123  0.00  0.00     0.003 A 
ENDROOT
TORSDOF 0
ENDMDL
