MODEL 1
REMARK minimizedAffinity 21.2616577
REMARK minimizedRMSD -1
REMARK  0 active torsions:
REMARK  status: ('A' for Active; 'I' for Inactive)
ROOT
ATOM      1  C4' PXY d   1      -5.996   3.703   3.274  0.00  0.00     0.077 C 
ATOM      2  C1' PXY d   1      -2.994  -0.416   6.000  0.00  0.00     0.077 C 
ATOM      3  C1  PXY d   1      -3.786   0.668   5.296  0.00  0.00    -0.082 A 
ATOM      4  C2  PXY d   1      -4.142   0.503   4.033  0.00  0.00     0.003 A 
ATOM      5  C3  PXY d   1      -4.831   1.487   3.372  0.00  0.00     0.003 A 
ATOM      6  C4  PXY d   1      -5.204   2.630   4.027  0.00  0.00    -0.082 A 
ATOM      7  C5  PXY d   1      -4.854   2.802   5.319  0.00  0.00     0.003 A 
ATOM      8  C6  PXY d   1      -4.119   1.809   5.960  0.00  0.00     0.003 A 
ENDROOT
TORSDOF 0
ENDMDL
