MODEL 1
REMARK minimizedAffinity 10.7634869
REMARK minimizedRMSD -1
REMARK  0 active torsions:
REMARK  status: ('A' for Active; 'I' for Inactive)
ROOT
ATOM      1  C4' PXY d   1       1.142   1.261   2.167  0.00  0.00     0.077 C 
ATOM      2  C1' PXY d   1       2.268  -0.113  -3.334  0.00  0.00     0.077 C 
ATOM      3  C1  PXY d   1       1.986   0.249  -1.889  0.00  0.00    -0.082 A 
ATOM      4  C2  PXY d   1       0.866  -0.164  -1.318  0.00  0.00     0.003 A 
ATOM      5  C3  PXY d   1       0.580   0.181  -0.023  0.00  0.00     0.003 A 
ATOM      6  C4  PXY d   1       1.473   0.912   0.713  0.00  0.00    -0.082 A 
ATOM      7  C5  PXY d   1       2.623   1.329   0.141  0.00  0.00     0.003 A 
ATOM      8  C6  PXY d   1       2.876   1.003  -1.188  0.00  0.00     0.003 A 
ENDROOT
TORSDOF 0
ENDMDL
