MODEL 1
REMARK minimizedAffinity 18.7070103
REMARK minimizedRMSD -1
REMARK  0 active torsions:
REMARK  status: ('A' for Active; 'I' for Inactive)
ROOT
ATOM      1  C4' PXY d   1      -0.022   3.653   6.000  0.00  0.00     0.077 C 
ATOM      2  C1' PXY d   1       0.672  -0.362   1.900  0.00  0.00     0.077 C 
ATOM      3  C1  PXY d   1       0.493   0.682   2.985  0.00  0.00    -0.082 A 
ATOM      4  C2  PXY d   1      -0.248   1.752   2.746  0.00  0.00     0.003 A 
ATOM      5  C3  PXY d   1      -0.394   2.722   3.704  0.00  0.00     0.003 A 
ATOM      6  C4  PXY d   1       0.180   2.569   4.938  0.00  0.00    -0.082 A 
ATOM      7  C5  PXY d   1       0.928   1.475   5.193  0.00  0.00     0.003 A 
ATOM      8  C6  PXY d   1       1.098   0.522   4.193  0.00  0.00     0.003 A 
ENDROOT
TORSDOF 0
ENDMDL
