MODEL 1
REMARK minimizedAffinity 15.151309
REMARK minimizedRMSD -1
REMARK  0 active torsions:
REMARK  status: ('A' for Active; 'I' for Inactive)
ROOT
ATOM      1  C4' PXY d   1      -4.136   2.155   6.000  0.00  0.00     0.077 C 
ATOM      2  C1' PXY d   1       0.182   1.322   2.248  0.00  0.00     0.077 C 
ATOM      3  C1  PXY d   1      -0.959   1.541   3.222  0.00  0.00    -0.082 A 
ATOM      4  C2  PXY d   1      -0.708   2.038   4.422  0.00  0.00     0.003 A 
ATOM      5  C3  PXY d   1      -1.723   2.212   5.327  0.00  0.00     0.003 A 
ATOM      6  C4  PXY d   1      -3.016   1.926   4.981  0.00  0.00    -0.082 A 
ATOM      7  C5  PXY d   1      -3.282   1.429   3.754  0.00  0.00     0.003 A 
ATOM      8  C6  PXY d   1      -2.232   1.221   2.865  0.00  0.00     0.003 A 
ENDROOT
TORSDOF 0
ENDMDL
