MODEL 1
REMARK minimizedAffinity 7.64853716
REMARK minimizedRMSD -1
REMARK  0 active torsions:
REMARK  status: ('A' for Active; 'I' for Inactive)
ROOT
ATOM      1  C4' PXY d   1       0.205   1.760  -3.655  0.00  0.00     0.077 C 
ATOM      2  C1' PXY d   1      -4.117   4.801  -5.998  0.00  0.00     0.077 C 
ATOM      3  C1  PXY d   1      -2.979   4.014  -5.377  0.00  0.00    -0.082 A 
ATOM      4  C2  PXY d   1      -2.520   2.935  -5.989  0.00  0.00     0.003 A 
ATOM      5  C3  PXY d   1      -1.513   2.193  -5.425  0.00  0.00     0.003 A 
ATOM      6  C4  PXY d   1      -0.935   2.590  -4.249  0.00  0.00    -0.082 A 
ATOM      7  C5  PXY d   1      -1.391   3.696  -3.624  0.00  0.00     0.003 A 
ATOM      8  C6  PXY d   1      -2.441   4.412  -4.192  0.00  0.00     0.003 A 
ENDROOT
TORSDOF 0
ENDMDL
