MODEL 1
REMARK minimizedAffinity 15.667758
REMARK minimizedRMSD -1
REMARK  0 active torsions:
REMARK  status: ('A' for Active; 'I' for Inactive)
ROOT
ATOM      1  C4' PXY d   1       2.620   2.305   0.795  0.00  0.00     0.077 C 
ATOM      2  C1' PXY d   1       0.536   0.893   5.998  0.00  0.00     0.077 C 
ATOM      3  C1  PXY d   1       1.073   1.257   4.628  0.00  0.00    -0.082 A 
ATOM      4  C2  PXY d   1       2.338   1.623   4.497  0.00  0.00     0.003 A 
ATOM      5  C3  PXY d   1       2.832   1.986   3.270  0.00  0.00     0.003 A 
ATOM      6  C4  PXY d   1       2.037   1.921   2.157  0.00  0.00    -0.082 A 
ATOM      7  C5  PXY d   1       0.749   1.537   2.281  0.00  0.00     0.003 A 
ATOM      8  C6  PXY d   1       0.256   1.213   3.541  0.00  0.00     0.003 A 
ENDROOT
TORSDOF 0
ENDMDL
