MODEL 1
REMARK minimizedAffinity 20.959959
REMARK minimizedRMSD -1
REMARK  0 active torsions:
REMARK  status: ('A' for Active; 'I' for Inactive)
ROOT
ATOM      1  C4' PXY d   1      -5.238   4.934   6.000  0.00  0.00     0.077 C 
ATOM      2  C1' PXY d   1      -3.776  -0.199   3.779  0.00  0.00     0.077 C 
ATOM      3  C1  PXY d   1      -4.164   1.151   4.350  0.00  0.00    -0.082 A 
ATOM      4  C2  PXY d   1      -3.577   1.588   5.452  0.00  0.00     0.003 A 
ATOM      5  C3  PXY d   1      -3.939   2.792   6.000  0.00  0.00     0.003 A 
ATOM      6  C4  PXY d   1      -4.872   3.582   5.383  0.00  0.00    -0.082 A 
ATOM      7  C5  PXY d   1      -5.467   3.148   4.252  0.00  0.00     0.003 A 
ATOM      8  C6  PXY d   1      -5.116   1.904   3.735  0.00  0.00     0.003 A 
ENDROOT
TORSDOF 0
ENDMDL
