MODEL 1
REMARK minimizedAffinity 6.62049484
REMARK minimizedRMSD -1
REMARK  0 active torsions:
REMARK  status: ('A' for Active; 'I' for Inactive)
ROOT
ATOM      1  C4' PXY d   1      -4.693   6.000  -6.000  0.00  0.00     0.077 C 
ATOM      2  C1' PXY d   1      -0.951   2.035  -4.078  0.00  0.00     0.077 C 
ATOM      3  C1  PXY d   1      -1.934   3.068  -4.593  0.00  0.00    -0.082 A 
ATOM      4  C2  PXY d   1      -1.881   4.308  -4.133  0.00  0.00     0.003 A 
ATOM      5  C3  PXY d   1      -2.783   5.246  -4.564  0.00  0.00     0.003 A 
ATOM      6  C4  PXY d   1      -3.715   4.926  -5.516  0.00  0.00    -0.082 A 
ATOM      7  C5  PXY d   1      -3.768   3.667  -5.998  0.00  0.00     0.003 A 
ATOM      8  C6  PXY d   1      -2.870   2.718  -5.517  0.00  0.00     0.003 A 
ENDROOT
TORSDOF 0
ENDMDL
