MODEL 1
REMARK minimizedAffinity 22.7973461
REMARK minimizedRMSD -1
REMARK  0 active torsions:
REMARK  status: ('A' for Active; 'I' for Inactive)
ROOT
ATOM      1  C4' PXY d   1      -1.954   5.998  -5.927  0.00  0.00     0.077 C 
ATOM      2  C1' PXY d   1      -1.923   0.808  -3.382  0.00  0.00     0.077 C 
ATOM      3  C1  PXY d   1      -1.930   2.163  -4.061  0.00  0.00    -0.082 A 
ATOM      4  C2  PXY d   1      -1.585   3.240  -3.374  0.00  0.00     0.003 A 
ATOM      5  C3  PXY d   1      -1.616   4.478  -3.964  0.00  0.00     0.003 A 
ATOM      6  C4  PXY d   1      -1.953   4.608  -5.285  0.00  0.00    -0.082 A 
ATOM      7  C5  PXY d   1      -2.296   3.512  -5.995  0.00  0.00     0.003 A 
ATOM      8  C6  PXY d   1      -2.298   2.270  -5.366  0.00  0.00     0.003 A 
ENDROOT
TORSDOF 0
ENDMDL
