MODEL 1
REMARK minimizedAffinity 12.0851603
REMARK minimizedRMSD -1
REMARK  0 active torsions:
REMARK  status: ('A' for Active; 'I' for Inactive)
ROOT
ATOM      1  C4' PXY d   1       4.543   0.378  -0.051  0.00  0.00     0.077 C 
ATOM      2  C1' PXY d   1       0.223  -2.973  -1.927  0.00  0.00     0.077 C 
ATOM      3  C1  PXY d   1       1.359  -2.103  -1.426  0.00  0.00    -0.082 A 
ATOM      4  C2  PXY d   1       1.338  -0.801  -1.660  0.00  0.00     0.003 A 
ATOM      5  C3  PXY d   1       2.372  -0.005  -1.242  0.00  0.00     0.003 A 
ATOM      6  C4  PXY d   1       3.413  -0.538  -0.530  0.00  0.00    -0.082 A 
ATOM      7  C5  PXY d   1       3.437  -1.864  -0.278  0.00  0.00     0.003 A 
ATOM      8  C6  PXY d   1       2.397  -2.662  -0.747  0.00  0.00     0.003 A 
ENDROOT
TORSDOF 0
ENDMDL
