MODEL 1
REMARK minimizedAffinity 23.4626617
REMARK minimizedRMSD -1
REMARK  0 active torsions:
REMARK  status: ('A' for Active; 'I' for Inactive)
ROOT
ATOM      1  C4' PXY d   1      -3.514  -1.699   3.446  0.00  0.00     0.077 C 
ATOM      2  C1' PXY d   1      -4.522   3.395   5.987  0.00  0.00     0.077 C 
ATOM      3  C1  PXY d   1      -4.267   2.062   5.312  0.00  0.00    -0.082 A 
ATOM      4  C2  PXY d   1      -3.713   1.076   5.999  0.00  0.00     0.003 A 
ATOM      5  C3  PXY d   1      -3.446  -0.126   5.395  0.00  0.00     0.003 A 
ATOM      6  C4  PXY d   1      -3.799  -0.339   4.089  0.00  0.00    -0.082 A 
ATOM      7  C5  PXY d   1      -4.374   0.659   3.384  0.00  0.00     0.003 A 
ATOM      8  C6  PXY d   1      -4.598   1.885   4.004  0.00  0.00     0.003 A 
ENDROOT
TORSDOF 0
ENDMDL
