MODEL 1
REMARK minimizedAffinity 14.310585
REMARK minimizedRMSD -1
REMARK  0 active torsions:
REMARK  status: ('A' for Active; 'I' for Inactive)
ROOT
ATOM      1  C4' PXY d   1       1.252   1.518   5.991  0.00  0.00     0.077 C 
ATOM      2  C1' PXY d   1       3.022   1.556   0.488  0.00  0.00     0.077 C 
ATOM      3  C1  PXY d   1       2.546   1.549   1.928  0.00  0.00    -0.082 A 
ATOM      4  C2  PXY d   1       3.423   1.699   2.907  0.00  0.00     0.003 A 
ATOM      5  C3  PXY d   1       3.014   1.663   4.216  0.00  0.00     0.003 A 
ATOM      6  C4  PXY d   1       1.686   1.527   4.523  0.00  0.00    -0.082 A 
ATOM      7  C5  PXY d   1       0.784   1.385   3.529  0.00  0.00     0.003 A 
ATOM      8  C6  PXY d   1       1.225   1.382   2.209  0.00  0.00     0.003 A 
ENDROOT
TORSDOF 0
ENDMDL
