MODEL 1
REMARK minimizedAffinity 12.1050262
REMARK minimizedRMSD -1
REMARK  0 active torsions:
REMARK  status: ('A' for Active; 'I' for Inactive)
ROOT
ATOM      1  C4' PXY d   1      -4.392   4.190  -5.998  0.00  0.00     0.077 C 
ATOM      2  C1' PXY d   1      -0.087   1.029  -3.788  0.00  0.00     0.077 C 
ATOM      3  C1  PXY d   1      -1.218   1.863  -4.356  0.00  0.00    -0.082 A 
ATOM      4  C2  PXY d   1      -1.837   1.464  -5.455  0.00  0.00     0.003 A 
ATOM      5  C3  PXY d   1      -2.841   2.223  -6.000  0.00  0.00     0.003 A 
ATOM      6  C4  PXY d   1      -3.251   3.375  -5.384  0.00  0.00    -0.082 A 
ATOM      7  C5  PXY d   1      -2.632   3.783  -4.256  0.00  0.00     0.003 A 
ATOM      8  C6  PXY d   1      -1.587   3.020  -3.742  0.00  0.00     0.003 A 
ENDROOT
TORSDOF 0
ENDMDL
