MODEL 1
REMARK minimizedAffinity 9.57832813
REMARK minimizedRMSD -1
REMARK  0 active torsions:
REMARK  status: ('A' for Active; 'I' for Inactive)
ROOT
ATOM      1  C4' PXY d   1      -4.334  -1.659   2.374  0.00  0.00     0.077 C 
ATOM      2  C1' PXY d   1       0.184   1.844   3.231  0.00  0.00     0.077 C 
ATOM      3  C1  PXY d   1      -1.009   0.934   3.011  0.00  0.00    -0.082 A 
ATOM      4  C2  PXY d   1      -0.824  -0.372   2.902  0.00  0.00     0.003 A 
ATOM      5  C3  PXY d   1      -1.888  -1.206   2.671  0.00  0.00     0.003 A 
ATOM      6  C4  PXY d   1      -3.160  -0.704   2.605  0.00  0.00    -0.082 A 
ATOM      7  C5  PXY d   1      -3.358   0.626   2.727  0.00  0.00     0.003 A 
ATOM      8  C6  PXY d   1      -2.260   1.460   2.919  0.00  0.00     0.003 A 
ENDROOT
TORSDOF 0
ENDMDL
