MODEL 1
REMARK minimizedAffinity 0.802283287
REMARK minimizedRMSD -1
REMARK  1 active torsions:
REMARK  status: ('A' for Active; 'I' for Inactive)
REMARK    1  A    between atoms: C1_2  and  C2_3 
ROOT
ATOM      1  C2  UNL d   1       0.669   0.204   0.780  0.00  0.00    -0.077 A 
ATOM      2  C3  UNL d   1      -0.574   0.490   1.361  0.00  0.00     0.002 A 
ATOM      3  C4  UNL d   1      -1.086   1.789   1.330  0.00  0.00     0.002 A 
ATOM      4  C5  UNL d   1      -0.363   2.810   0.717  0.00  0.00    -0.004 A 
ATOM      5  C6  UNL d   1       0.875   2.536   0.139  0.00  0.00     0.002 A 
ATOM      6  C7  UNL d   1       1.389   1.239   0.170  0.00  0.00     0.002 A 
ENDROOT
BRANCH   1   7
ATOM      7  C1  UNL d   1       1.201  -1.205   0.769  0.00  0.00     0.055 C 
ATOM      8  C   UNL d   1       1.498  -1.674  -0.648  0.00  0.00     0.019 C 
ENDBRANCH   1   7
TORSDOF 1
ENDMDL
