MODEL 1
REMARK minimizedAffinity 3.66702247
REMARK minimizedRMSD -1
REMARK  1 active torsions:
REMARK  status: ('A' for Active; 'I' for Inactive)
REMARK    1  A    between atoms: C1_2  and  C2_3 
ROOT
ATOM      1  C2  UNL d   1       1.925   0.485  -0.748  0.00  0.00    -0.077 A 
ATOM      2  C3  UNL d   1       1.440   0.504  -2.063  0.00  0.00     0.002 A 
ATOM      3  C4  UNL d   1       1.584  -0.616  -2.885  0.00  0.00     0.002 A 
ATOM      4  C5  UNL d   1       2.208  -1.763  -2.400  0.00  0.00    -0.004 A 
ATOM      5  C6  UNL d   1       2.696  -1.791  -1.094  0.00  0.00     0.002 A 
ATOM      6  C7  UNL d   1       2.554  -0.672  -0.272  0.00  0.00     0.002 A 
ENDROOT
BRANCH   1   7
ATOM      7  C1  UNL d   1       1.727   1.674   0.156  0.00  0.00     0.055 C 
ATOM      8  C   UNL d   1       0.275   2.127   0.164  0.00  0.00     0.019 C 
ENDBRANCH   1   7
TORSDOF 1
ENDMDL
