MODEL 1
REMARK minimizedAffinity 2.31674671
REMARK minimizedRMSD -1
REMARK  1 active torsions:
REMARK  status: ('A' for Active; 'I' for Inactive)
REMARK    1  A    between atoms: C1_2  and  C2_3 
ROOT
ATOM      1  C2  UNL d   1      -2.655   1.493   0.351  0.00  0.00    -0.077 A 
ATOM      2  C3  UNL d   1      -1.739   0.711   1.069  0.00  0.00     0.002 A 
ATOM      3  C4  UNL d   1      -0.455   1.191   1.334  0.00  0.00     0.002 A 
ATOM      4  C5  UNL d   1      -0.077   2.456   0.887  0.00  0.00    -0.004 A 
ATOM      5  C6  UNL d   1      -0.979   3.240   0.170  0.00  0.00     0.002 A 
ATOM      6  C7  UNL d   1      -2.263   2.761  -0.096  0.00  0.00     0.002 A 
ENDROOT
BRANCH   1   7
ATOM      7  C1  UNL d   1      -4.056   0.997   0.107  0.00  0.00     0.055 C 
ATOM      8  C   UNL d   1      -5.037   2.153  -0.025  0.00  0.00     0.019 C 
ENDBRANCH   1   7
TORSDOF 1
ENDMDL
