MODEL 1
REMARK minimizedAffinity 1.72896373
REMARK minimizedRMSD -1
REMARK  1 active torsions:
REMARK  status: ('A' for Active; 'I' for Inactive)
REMARK    1  A    between atoms: C1_2  and  C2_3 
ROOT
ATOM      1  C2  UNL d   1      -0.349   0.779   1.666  0.00  0.00    -0.077 A 
ATOM      2  C3  UNL d   1       0.291   1.240   0.507  0.00  0.00     0.002 A 
ATOM      3  C4  UNL d   1       0.477   2.609   0.300  0.00  0.00     0.002 A 
ATOM      4  C5  UNL d   1       0.031   3.526   1.249  0.00  0.00    -0.004 A 
ATOM      5  C6  UNL d   1      -0.609   3.077   2.404  0.00  0.00     0.002 A 
ATOM      6  C7  UNL d   1      -0.797   1.710   2.612  0.00  0.00     0.002 A 
ENDROOT
BRANCH   1   7
ATOM      7  C1  UNL d   1      -0.507  -0.698   1.914  0.00  0.00     0.055 C 
ATOM      8  C   UNL d   1      -0.773  -0.987   3.385  0.00  0.00     0.019 C 
ENDBRANCH   1   7
TORSDOF 1
ENDMDL
