MODEL 1
REMARK minimizedAffinity 5.77820206
REMARK minimizedRMSD -1
REMARK  1 active torsions:
REMARK  status: ('A' for Active; 'I' for Inactive)
REMARK    1  A    between atoms: C1_2  and  C2_3 
ROOT
ATOM      1  C2  UNL d   1      -3.597   2.356   0.745  0.00  0.00    -0.077 A 
ATOM      2  C3  UNL d   1      -3.624   1.015   1.155  0.00  0.00     0.002 A 
ATOM      3  C4  UNL d   1      -4.821   0.427   1.567  0.00  0.00     0.002 A 
ATOM      4  C5  UNL d   1      -6.000   1.170   1.569  0.00  0.00    -0.004 A 
ATOM      5  C6  UNL d   1      -5.983   2.504   1.164  0.00  0.00     0.002 A 
ATOM      6  C7  UNL d   1      -4.787   3.094   0.753  0.00  0.00     0.002 A 
ENDROOT
BRANCH   1   7
ATOM      7  C1  UNL d   1      -2.316   2.978   0.253  0.00  0.00     0.055 C 
ATOM      8  C   UNL d   1      -2.276   3.035  -1.267  0.00  0.00     0.019 C 
ENDBRANCH   1   7
TORSDOF 1
ENDMDL
