MODEL 1
REMARK minimizedAffinity 1.79273176
REMARK minimizedRMSD -1
REMARK  1 active torsions:
REMARK  status: ('A' for Active; 'I' for Inactive)
REMARK    1  A    between atoms: C1_2  and  C2_3 
ROOT
ATOM      1  C2  UNL d   1       1.201   2.886   1.000  0.00  0.00    -0.077 A 
ATOM      2  C3  UNL d   1       1.962   2.211   0.034  0.00  0.00     0.002 A 
ATOM      3  C4  UNL d   1       3.163   1.594   0.387  0.00  0.00     0.002 A 
ATOM      4  C5  UNL d   1       3.612   1.640   1.706  0.00  0.00    -0.004 A 
ATOM      5  C6  UNL d   1       2.863   2.310   2.672  0.00  0.00     0.002 A 
ATOM      6  C7  UNL d   1       1.663   2.929   2.321  0.00  0.00     0.002 A 
ENDROOT
BRANCH   1   7
ATOM      7  C1  UNL d   1      -0.119   3.510   0.631  0.00  0.00     0.055 C 
ATOM      8  C   UNL d   1      -1.185   3.209   1.675  0.00  0.00     0.019 C 
ENDBRANCH   1   7
TORSDOF 1
ENDMDL
