MODEL 1
REMARK minimizedAffinity 6.91424513
REMARK minimizedRMSD -1
REMARK  1 active torsions:
REMARK  status: ('A' for Active; 'I' for Inactive)
REMARK    1  A    between atoms: C1_2  and  C2_3 
ROOT
ATOM      1  C2  UNL d   1       1.259   1.382   1.034  0.00  0.00    -0.077 A 
ATOM      2  C3  UNL d   1       0.141   0.973   1.774  0.00  0.00     0.002 A 
ATOM      3  C4  UNL d   1      -1.089   1.614   1.607  0.00  0.00     0.002 A 
ATOM      4  C5  UNL d   1      -1.212   2.663   0.698  0.00  0.00    -0.004 A 
ATOM      5  C6  UNL d   1      -0.105   3.078  -0.040  0.00  0.00     0.002 A 
ATOM      6  C7  UNL d   1       1.125   2.440   0.126  0.00  0.00     0.002 A 
ENDROOT
BRANCH   1   7
ATOM      7  C1  UNL d   1       2.574   0.661   1.177  0.00  0.00     0.055 C 
ATOM      8  C   UNL d   1       3.686   1.614   1.590  0.00  0.00     0.019 C 
ENDBRANCH   1   7
TORSDOF 1
ENDMDL
