MODEL 1
REMARK minimizedAffinity 0.464830965
REMARK minimizedRMSD -1
REMARK  1 active torsions:
REMARK  status: ('A' for Active; 'I' for Inactive)
REMARK    1  A    between atoms: C1_2  and  C2_3 
ROOT
ATOM      1  C2  UNL d   1      -1.874  -4.674   1.290  0.00  0.00    -0.077 A 
ATOM      2  C3  UNL d   1      -1.325  -5.730   0.549  0.00  0.00     0.002 A 
ATOM      3  C4  UNL d   1      -1.779  -5.996  -0.745  0.00  0.00     0.002 A 
ATOM      4  C5  UNL d   1      -2.780  -5.208  -1.309  0.00  0.00    -0.004 A 
ATOM      5  C6  UNL d   1      -3.333  -4.157  -0.580  0.00  0.00     0.002 A 
ATOM      6  C7  UNL d   1      -2.882  -3.890   0.714  0.00  0.00     0.002 A 
ENDROOT
BRANCH   1   7
ATOM      7  C1  UNL d   1      -1.351  -4.355   2.666  0.00  0.00     0.055 C 
ATOM      8  C   UNL d   1      -0.666  -2.997   2.697  0.00  0.00     0.019 C 
ENDBRANCH   1   7
TORSDOF 1
ENDMDL
