MODEL 1
REMARK minimizedAffinity 2.36952543
REMARK minimizedRMSD -1
REMARK  1 active torsions:
REMARK  status: ('A' for Active; 'I' for Inactive)
REMARK    1  A    between atoms: C1_2  and  C2_3 
ROOT
ATOM      1  C2  UNL d   1       1.234   2.516   1.581  0.00  0.00    -0.077 A 
ATOM      2  C3  UNL d   1       2.047   2.311   2.704  0.00  0.00     0.002 A 
ATOM      3  C4  UNL d   1       3.435   2.241   2.567  0.00  0.00     0.002 A 
ATOM      4  C5  UNL d   1       4.021   2.380   1.311  0.00  0.00    -0.004 A 
ATOM      5  C6  UNL d   1       3.220   2.582   0.188  0.00  0.00     0.002 A 
ATOM      6  C7  UNL d   1       1.833   2.651   0.322  0.00  0.00     0.002 A 
ENDROOT
BRANCH   1   7
ATOM      7  C1  UNL d   1      -0.260   2.641   1.733  0.00  0.00     0.055 C 
ATOM      8  C   UNL d   1      -0.647   2.929   3.176  0.00  0.00     0.019 C 
ENDBRANCH   1   7
TORSDOF 1
ENDMDL
