MODEL 1
REMARK minimizedAffinity 20.0924492
REMARK minimizedRMSD -1
REMARK  0 active torsions:
REMARK  status: ('A' for Active; 'I' for Inactive)
ROOT
ATOM      1  N1  IND d   1      -3.199   0.847  -3.806  0.00  0.00    -0.196 N 
ATOM      2  C2  IND d   1      -2.230   1.588  -3.187  0.00  0.00     0.054 A 
ATOM      3  C3  IND d   1      -2.486   2.908  -3.327  0.00  0.00    -0.031 A 
ATOM      4  C4  IND d   1      -4.489   4.076  -4.444  0.00  0.00     0.051 A 
ATOM      5  C5  IND d   1      -5.613   3.820  -5.180  0.00  0.00    -0.031 A 
ATOM      6  C6  IND d   1      -5.998   2.534  -5.499  0.00  0.00     0.015 A 
ATOM      7  C7  IND d   1      -5.277   1.451  -5.083  0.00  0.00    -0.016 A 
ATOM      8  C8  IND d   1      -4.132   1.707  -4.342  0.00  0.00    -0.047 A 
ATOM      9  C9  IND d   1      -3.713   3.012  -4.051  0.00  0.00    -0.096 A 
ATOM     10  HN1 IND d   1      -3.221  -0.011  -3.853  0.00  0.00     0.298 HD
ENDROOT
TORSDOF 0
ENDMDL
