MODEL 1
REMARK minimizedAffinity 6.87740278
REMARK minimizedRMSD -1
REMARK  0 active torsions:
REMARK  status: ('A' for Active; 'I' for Inactive)
ROOT
ATOM      1  N1  IND d   1      -2.810   3.238  -3.706  0.00  0.00    -0.196 N 
ATOM      2  C2  IND d   1      -2.159   2.621  -2.675  0.00  0.00     0.054 A 
ATOM      3  C3  IND d   1      -2.849   1.532  -2.268  0.00  0.00    -0.031 A 
ATOM      4  C4  IND d   1      -5.016   0.519  -3.219  0.00  0.00     0.051 A 
ATOM      5  C5  IND d   1      -6.000   0.750  -4.139  0.00  0.00    -0.031 A 
ATOM      6  C6  IND d   1      -5.968   1.843  -4.982  0.00  0.00     0.015 A 
ATOM      7  C7  IND d   1      -4.941   2.743  -4.942  0.00  0.00    -0.016 A 
ATOM      8  C8  IND d   1      -3.945   2.516  -4.004  0.00  0.00    -0.047 A 
ATOM      9  C9  IND d   1      -3.993   1.432  -3.117  0.00  0.00    -0.096 A 
ATOM     10  HN1 IND d   1      -2.554   3.957  -4.103  0.00  0.00     0.298 HD
ENDROOT
TORSDOF 0
ENDMDL
