MODEL 1
REMARK minimizedAffinity 6.51446724
REMARK minimizedRMSD -1
REMARK  0 active torsions:
REMARK  status: ('A' for Active; 'I' for Inactive)
ROOT
ATOM      1  N1  IND d   1       1.452  -3.591   0.747  0.00  0.00    -0.196 N 
ATOM      2  C2  IND d   1       2.558  -2.968   0.239  0.00  0.00     0.054 A 
ATOM      3  C3  IND d   1       2.742  -1.772   0.843  0.00  0.00    -0.031 A 
ATOM      4  C4  IND d   1       1.411  -0.685   2.760  0.00  0.00     0.051 A 
ATOM      5  C5  IND d   1       0.295  -0.858   3.529  0.00  0.00    -0.031 A 
ATOM      6  C6  IND d   1      -0.507  -1.974   3.410  0.00  0.00     0.015 A 
ATOM      7  C7  IND d   1      -0.215  -2.969   2.521  0.00  0.00    -0.016 A 
ATOM      8  C8  IND d   1       0.913  -2.794   1.733  0.00  0.00    -0.047 A 
ATOM      9  C9  IND d   1       1.708  -1.644   1.820  0.00  0.00    -0.096 A 
ATOM     10  HN1 IND d   1       1.145  -4.353   0.493  0.00  0.00     0.298 HD
ENDROOT
TORSDOF 0
ENDMDL
