MODEL 1
REMARK minimizedAffinity 8.6724577
REMARK minimizedRMSD -1
REMARK  0 active torsions:
REMARK  status: ('A' for Active; 'I' for Inactive)
ROOT
ATOM      1  N1  IND d   1       4.986   3.253   2.792  0.00  0.00    -0.196 N 
ATOM      2  C2  IND d   1       3.772   2.625   2.834  0.00  0.00     0.054 A 
ATOM      3  C3  IND d   1       3.001   3.157   3.809  0.00  0.00    -0.031 A 
ATOM      4  C4  IND d   1       3.490   5.131   5.387  0.00  0.00     0.051 A 
ATOM      5  C5  IND d   1       4.480   6.000   5.750  0.00  0.00    -0.031 A 
ATOM      6  C6  IND d   1       5.714   6.000   5.132  0.00  0.00     0.015 A 
ATOM      7  C7  IND d   1       6.000   5.134   4.114  0.00  0.00    -0.016 A 
ATOM      8  C8  IND d   1       4.999   4.245   3.748  0.00  0.00    -0.047 A 
ATOM      9  C9  IND d   1       3.760   4.212   4.401  0.00  0.00    -0.096 A 
ATOM     10  HN1 IND d   1       5.632   3.061   2.258  0.00  0.00     0.298 HD
ENDROOT
TORSDOF 0
ENDMDL
