MODEL 1
REMARK minimizedAffinity 12.3456745
REMARK minimizedRMSD -1
REMARK  0 active torsions:
REMARK  status: ('A' for Active; 'I' for Inactive)
ROOT
ATOM      1  N1  IND d   1      -3.052   2.834  -3.276  0.00  0.00    -0.196 N 
ATOM      2  C2  IND d   1      -1.842   3.189  -3.804  0.00  0.00     0.054 A 
ATOM      3  C3  IND d   1      -0.897   2.284  -3.462  0.00  0.00    -0.031 A 
ATOM      4  C4  IND d   1      -1.135   0.094  -2.131  0.00  0.00     0.051 A 
ATOM      5  C5  IND d   1      -2.039  -0.637  -1.412  0.00  0.00    -0.031 A 
ATOM      6  C6  IND d   1      -3.354  -0.242  -1.278  0.00  0.00     0.015 A 
ATOM      7  C7  IND d   1      -3.819   0.899  -1.869  0.00  0.00    -0.016 A 
ATOM      8  C8  IND d   1      -2.902   1.647  -2.594  0.00  0.00    -0.047 A 
ATOM      9  C9  IND d   1      -1.556   1.273  -2.698  0.00  0.00    -0.096 A 
ATOM     10  HN1 IND d   1      -3.784   3.279  -3.357  0.00  0.00     0.298 HD
ENDROOT
TORSDOF 0
ENDMDL
