MODEL 1
REMARK minimizedAffinity 10.6024065
REMARK minimizedRMSD -1
REMARK  0 active torsions:
REMARK  status: ('A' for Active; 'I' for Inactive)
ROOT
ATOM      1  N1  IND d   1       1.777  -3.720  -0.221  0.00  0.00    -0.196 N 
ATOM      2  C2  IND d   1       3.087  -3.333  -0.184  0.00  0.00     0.054 A 
ATOM      3  C3  IND d   1       3.260  -2.345   0.723  0.00  0.00    -0.031 A 
ATOM      4  C4  IND d   1       1.553  -1.283   2.330  0.00  0.00     0.051 A 
ATOM      5  C5  IND d   1       0.222  -1.283   2.642  0.00  0.00    -0.031 A 
ATOM      6  C6  IND d   1      -0.676  -2.114   2.004  0.00  0.00     0.015 A 
ATOM      7  C7  IND d   1      -0.273  -2.988   1.035  0.00  0.00    -0.016 A 
ATOM      8  C8  IND d   1       1.076  -2.986   0.711  0.00  0.00    -0.047 A 
ATOM      9  C9  IND d   1       1.985  -2.115   1.325  0.00  0.00    -0.096 A 
ATOM     10  HN1 IND d   1       1.446  -4.322  -0.738  0.00  0.00     0.298 HD
ENDROOT
TORSDOF 0
ENDMDL
