MODEL 1
REMARK minimizedAffinity -1.24611306
REMARK minimizedRMSD -1
REMARK  1 active torsions:
REMARK  status: ('A' for Active; 'I' for Inactive)
REMARK    1  A    between atoms: N_2  and  C1_3 
ROOT
ATOM      1  C1  UNL d   1       0.672  -2.846   1.962  0.00  0.00     0.143 A 
ATOM      2  C2  UNL d   1       1.332  -3.760   2.790  0.00  0.00    -0.057 A 
ATOM      3  C3  UNL d   1       2.497  -4.411   2.369  0.00  0.00     0.033 A 
ATOM      4  C4  UNL d   1       3.009  -4.180   1.096  0.00  0.00    -0.042 A 
ATOM      5  C5  UNL d   1       2.356  -3.294   0.247  0.00  0.00     0.033 A 
ATOM      6  C6  UNL d   1       1.196  -2.642   0.676  0.00  0.00    -0.057 A 
ENDROOT
BRANCH   1   7
ATOM      7  N   UNL d   1      -0.546  -2.241   2.286  0.00  0.00    -0.732 N 
ATOM      8  C   UNL d   1      -1.619  -3.013   2.874  0.00  0.00     0.284 C 
ATOM      9  H3  UNL d   1      -0.424  -1.318   2.696  0.00  0.00     0.395 HD
ENDBRANCH   1   7
TORSDOF 1
ENDMDL
