MODEL 1
REMARK minimizedAffinity -0.345623791
REMARK minimizedRMSD -1
REMARK  1 active torsions:
REMARK  status: ('A' for Active; 'I' for Inactive)
REMARK    1  A    between atoms: N_2  and  C1_3 
ROOT
ATOM      1  C1  UNL d   1       1.378  -2.496   0.424  0.00  0.00     0.143 A 
ATOM      2  C2  UNL d   1       0.054  -2.548   0.872  0.00  0.00    -0.057 A 
ATOM      3  C3  UNL d   1      -0.514  -1.485   1.585  0.00  0.00     0.033 A 
ATOM      4  C4  UNL d   1       0.245  -0.359   1.888  0.00  0.00    -0.042 A 
ATOM      5  C5  UNL d   1       1.571  -0.296   1.474  0.00  0.00     0.033 A 
ATOM      6  C6  UNL d   1       2.130  -1.358   0.757  0.00  0.00    -0.057 A 
ENDROOT
BRANCH   1   7
ATOM      7  N   UNL d   1       2.030  -3.560  -0.203  0.00  0.00    -0.732 N 
ATOM      8  C   UNL d   1       3.373  -3.933   0.184  0.00  0.00     0.284 C 
ATOM      9  H3  UNL d   1       1.411  -4.350  -0.370  0.00  0.00     0.395 HD
ENDBRANCH   1   7
TORSDOF 1
ENDMDL
