MODEL 1
REMARK minimizedAffinity 3.04427099
REMARK minimizedRMSD -1
REMARK  1 active torsions:
REMARK  status: ('A' for Active; 'I' for Inactive)
REMARK    1  A    between atoms: N_2  and  C1_3 
ROOT
ATOM      1  C1  UNL d   1      -0.787   3.961  -5.540  0.00  0.00     0.143 A 
ATOM      2  C2  UNL d   1      -0.897   5.355  -5.577  0.00  0.00    -0.057 A 
ATOM      3  C3  UNL d   1      -2.094   5.999  -5.240  0.00  0.00     0.033 A 
ATOM      4  C4  UNL d   1      -3.215   5.254  -4.887  0.00  0.00    -0.042 A 
ATOM      5  C5  UNL d   1      -3.136   3.866  -4.867  0.00  0.00     0.033 A 
ATOM      6  C6  UNL d   1      -1.936   3.230  -5.198  0.00  0.00    -0.057 A 
ENDROOT
BRANCH   1   7
ATOM      7  N   UNL d   1       0.346   3.259  -5.958  0.00  0.00    -0.732 N 
ATOM      8  C   UNL d   1       1.640   3.905  -6.000  0.00  0.00     0.284 C 
ATOM      9  H3  UNL d   1       0.368   2.308  -5.598  0.00  0.00     0.395 HD
ENDBRANCH   1   7
TORSDOF 1
ENDMDL
