MODEL 1
REMARK minimizedAffinity 0.848861039
REMARK minimizedRMSD -1
REMARK  1 active torsions:
REMARK  status: ('A' for Active; 'I' for Inactive)
REMARK    1  A    between atoms: N_2  and  C1_3 
ROOT
ATOM      1  C1  UNL d   1       1.567  -2.813   0.533  0.00  0.00     0.143 A 
ATOM      2  C2  UNL d   1       0.665  -3.155   1.547  0.00  0.00    -0.057 A 
ATOM      3  C3  UNL d   1      -0.109  -2.182   2.189  0.00  0.00     0.033 A 
ATOM      4  C4  UNL d   1       0.027  -0.840   1.847  0.00  0.00    -0.042 A 
ATOM      5  C5  UNL d   1       0.935  -0.474   0.860  0.00  0.00     0.033 A 
ATOM      6  C6  UNL d   1       1.700  -1.452   0.218  0.00  0.00    -0.057 A 
ENDROOT
BRANCH   1   7
ATOM      7  N   UNL d   1       2.435  -3.723  -0.075  0.00  0.00    -0.732 N 
ATOM      8  C   UNL d   1       3.483  -4.365   0.689  0.00  0.00     0.284 C 
ATOM      9  H3  UNL d   1       1.957  -4.342  -0.726  0.00  0.00     0.395 HD
ENDBRANCH   1   7
TORSDOF 1
ENDMDL
