MODEL 1
REMARK minimizedAffinity 3.50946379
REMARK minimizedRMSD -1
REMARK  1 active torsions:
REMARK  status: ('A' for Active; 'I' for Inactive)
REMARK    1  A    between atoms: N_2  and  C1_3 
ROOT
ATOM      1  C1  UNL d   1       2.426  -2.263   0.893  0.00  0.00     0.143 A 
ATOM      2  C2  UNL d   1       2.722  -0.984   0.409  0.00  0.00    -0.057 A 
ATOM      3  C3  UNL d   1       1.847   0.090   0.614  0.00  0.00     0.033 A 
ATOM      4  C4  UNL d   1       0.644  -0.103   1.283  0.00  0.00    -0.042 A 
ATOM      5  C5  UNL d   1       0.317  -1.371   1.751  0.00  0.00     0.033 A 
ATOM      6  C6  UNL d   1       1.197  -2.438   1.550  0.00  0.00    -0.057 A 
ENDROOT
BRANCH   1   7
ATOM      7  N   UNL d   1       3.207  -3.392   0.637  0.00  0.00    -0.732 N 
ATOM      8  C   UNL d   1       2.994  -4.619   1.374  0.00  0.00     0.284 C 
ATOM      9  H3  UNL d   1       3.378  -3.529  -0.357  0.00  0.00     0.395 HD
ENDBRANCH   1   7
TORSDOF 1
ENDMDL
