MODEL 1
REMARK minimizedAffinity 0.42040962
REMARK minimizedRMSD -1
REMARK  1 active torsions:
REMARK  status: ('A' for Active; 'I' for Inactive)
REMARK    1  A    between atoms: N_2  and  C1_3 
ROOT
ATOM      1  C1  UNL d   1       1.383  -3.290   0.610  0.00  0.00     0.143 A 
ATOM      2  C2  UNL d   1       1.803  -2.216  -0.181  0.00  0.00    -0.057 A 
ATOM      3  C3  UNL d   1       1.346  -0.914   0.059  0.00  0.00     0.033 A 
ATOM      4  C4  UNL d   1       0.436  -0.668   1.082  0.00  0.00    -0.042 A 
ATOM      5  C5  UNL d   1      -0.014  -1.725   1.866  0.00  0.00     0.033 A 
ATOM      6  C6  UNL d   1       0.451  -3.021   1.625  0.00  0.00    -0.057 A 
ENDROOT
BRANCH   1   7
ATOM      7  N   UNL d   1       1.725  -4.621   0.359  0.00  0.00    -0.732 N 
ATOM      8  C   UNL d   1       2.999  -5.150   0.796  0.00  0.00     0.284 C 
ATOM      9  H3  UNL d   1       0.942  -5.256   0.499  0.00  0.00     0.395 HD
ENDBRANCH   1   7
TORSDOF 1
ENDMDL
