MODEL 1
REMARK minimizedAffinity 3.42623258
REMARK minimizedRMSD -1
REMARK  1 active torsions:
REMARK  status: ('A' for Active; 'I' for Inactive)
REMARK    1  A    between atoms: N_2  and  C1_3 
ROOT
ATOM      1  C1  UNL d   1       2.293  -3.756   0.800  0.00  0.00     0.143 A 
ATOM      2  C2  UNL d   1       2.116  -2.374   0.679  0.00  0.00    -0.057 A 
ATOM      3  C3  UNL d   1       0.961  -1.745   1.158  0.00  0.00     0.033 A 
ATOM      4  C4  UNL d   1      -0.055  -2.494   1.744  0.00  0.00    -0.042 A 
ATOM      5  C5  UNL d   1       0.089  -3.873   1.852  0.00  0.00     0.033 A 
ATOM      6  C6  UNL d   1       1.248  -4.494   1.377  0.00  0.00    -0.057 A 
ENDROOT
BRANCH   1   7
ATOM      7  N   UNL d   1       3.375  -4.452   0.255  0.00  0.00    -0.732 N 
ATOM      8  C   UNL d   1       3.940  -5.592   0.944  0.00  0.00     0.284 C 
ATOM      9  H3  UNL d   1       3.290  -4.575  -0.751  0.00  0.00     0.395 HD
ENDBRANCH   1   7
TORSDOF 1
ENDMDL
