MODEL 1
REMARK minimizedAffinity -1.53760433
REMARK minimizedRMSD -1
REMARK  1 active torsions:
REMARK  status: ('A' for Active; 'I' for Inactive)
REMARK    1  A    between atoms: N_2  and  C1_3 
ROOT
ATOM      1  C1  UNL d   1       1.502  -2.966   0.824  0.00  0.00     0.143 A 
ATOM      2  C2  UNL d   1       1.251  -1.918  -0.068  0.00  0.00    -0.057 A 
ATOM      3  C3  UNL d   1       0.380  -0.874   0.266  0.00  0.00     0.033 A 
ATOM      4  C4  UNL d   1      -0.280  -0.875   1.490  0.00  0.00    -0.042 A 
ATOM      5  C5  UNL d   1      -0.064  -1.919   2.382  0.00  0.00     0.033 A 
ATOM      6  C6  UNL d   1       0.812  -2.956   2.046  0.00  0.00    -0.057 A 
ENDROOT
BRANCH   1   7
ATOM      7  N   UNL d   1       2.281  -4.083   0.512  0.00  0.00    -0.732 N 
ATOM      8  C   UNL d   1       2.371  -5.199   1.430  0.00  0.00     0.284 C 
ATOM      9  H3  UNL d   1       2.197  -4.355  -0.465  0.00  0.00     0.395 HD
ENDBRANCH   1   7
TORSDOF 1
ENDMDL
