MODEL 1
REMARK minimizedAffinity -4.14835978
REMARK minimizedRMSD -1
REMARK  2 active torsions:
REMARK  status: ('A' for Active; 'I' for Inactive)
REMARK    1  A    between atoms: C1_2  and  C2_3 
REMARK    2  A    between atoms: C2_3  and  C3_4 
ROOT
ATOM      1  C3  UNL d   1      -0.011   0.045   0.577  0.00  0.00    -0.075 A 
ATOM      2  C4  UNL d   1       0.753   0.141   1.750  0.00  0.00     0.002 A 
ATOM      3  C5  UNL d   1       0.139   0.394   2.977  0.00  0.00     0.002 A 
ATOM      4  C6  UNL d   1      -1.242   0.564   3.046  0.00  0.00    -0.004 A 
ATOM      5  C7  UNL d   1      -2.009   0.487   1.885  0.00  0.00     0.002 A 
ATOM      6  C8  UNL d   1      -1.397   0.230   0.657  0.00  0.00     0.002 A 
ENDROOT
BRANCH   1   7
ATOM      7  C2  UNL d   1       0.645  -0.257  -0.749  0.00  0.00     0.056 C 
BRANCH   7   8
ATOM      8  C1  UNL d   1      -0.253   0.007  -1.963  0.00  0.00     0.007 C 
ATOM      9  C   UNL d   1       0.503  -0.018  -3.285  0.00  0.00     0.009 C 
ENDBRANCH   7   8
ENDBRANCH   1   7
TORSDOF 2
ENDMDL
