MODEL 1
REMARK minimizedAffinity -5.47823524
REMARK minimizedRMSD -1
REMARK  2 active torsions:
REMARK  status: ('A' for Active; 'I' for Inactive)
REMARK    1  A    between atoms: C1_2  and  C2_3 
REMARK    2  A    between atoms: C2_3  and  C3_4 
ROOT
ATOM      1  C3  UNL d   1      -0.113   0.286   0.821  0.00  0.00    -0.075 A 
ATOM      2  C4  UNL d   1       1.118  -0.220   1.263  0.00  0.00     0.002 A 
ATOM      3  C5  UNL d   1       1.536  -0.016   2.579  0.00  0.00     0.002 A 
ATOM      4  C6  UNL d   1       0.735   0.702   3.464  0.00  0.00    -0.004 A 
ATOM      5  C7  UNL d   1      -0.482   1.224   3.031  0.00  0.00     0.002 A 
ATOM      6  C8  UNL d   1      -0.905   1.018   1.716  0.00  0.00     0.002 A 
ENDROOT
BRANCH   1   7
ATOM      7  C2  UNL d   1      -0.584   0.045  -0.593  0.00  0.00     0.056 C 
BRANCH   7   8
ATOM      8  C1  UNL d   1       0.482  -0.563  -1.511  0.00  0.00     0.007 C 
ATOM      9  C   UNL d   1       0.785   0.297  -2.731  0.00  0.00     0.009 C 
ENDBRANCH   7   8
ENDBRANCH   1   7
TORSDOF 2
ENDMDL
