MODEL 1
REMARK minimizedAffinity -6.03178978
REMARK minimizedRMSD -1
REMARK  2 active torsions:
REMARK  status: ('A' for Active; 'I' for Inactive)
REMARK    1  A    between atoms: C1_2  and  C2_3 
REMARK    2  A    between atoms: C2_3  and  C3_4 
ROOT
ATOM      1  C3  UNL d   1      -0.577   0.402   1.640  0.00  0.00    -0.075 A 
ATOM      2  C4  UNL d   1      -1.944   0.715   1.632  0.00  0.00     0.002 A 
ATOM      3  C5  UNL d   1      -2.737   0.401   0.528  0.00  0.00     0.002 A 
ATOM      4  C6  UNL d   1      -2.172  -0.220  -0.584  0.00  0.00    -0.004 A 
ATOM      5  C7  UNL d   1      -0.812  -0.521  -0.594  0.00  0.00     0.002 A 
ATOM      6  C8  UNL d   1      -0.017  -0.212   0.512  0.00  0.00     0.002 A 
ENDROOT
BRANCH   1   7
ATOM      7  C2  UNL d   1       0.279   0.713   2.844  0.00  0.00     0.056 C 
BRANCH   7   8
ATOM      8  C1  UNL d   1       1.211  -0.431   3.259  0.00  0.00     0.007 C 
ATOM      9  C   UNL d   1       2.673  -0.164   2.929  0.00  0.00     0.009 C 
ENDBRANCH   7   8
ENDBRANCH   1   7
TORSDOF 2
ENDMDL
