MODEL 1
REMARK minimizedAffinity -5.58488655
REMARK minimizedRMSD -1
REMARK  2 active torsions:
REMARK  status: ('A' for Active; 'I' for Inactive)
REMARK    1  A    between atoms: C1_2  and  C2_3 
REMARK    2  A    between atoms: C2_3  and  C3_4 
ROOT
ATOM      1  C3  UNL d   1      -0.171   0.244   1.007  0.00  0.00    -0.075 A 
ATOM      2  C4  UNL d   1       0.937  -0.292   1.681  0.00  0.00     0.002 A 
ATOM      3  C5  UNL d   1       1.114  -0.064   3.046  0.00  0.00     0.002 A 
ATOM      4  C6  UNL d   1       0.194   0.709   3.751  0.00  0.00    -0.004 A 
ATOM      5  C7  UNL d   1      -0.901   1.260   3.089  0.00  0.00     0.002 A 
ATOM      6  C8  UNL d   1      -1.083   1.030   1.724  0.00  0.00     0.002 A 
ENDROOT
BRANCH   1   7
ATOM      7  C2  UNL d   1      -0.384  -0.024  -0.463  0.00  0.00     0.056 C 
BRANCH   7   8
ATOM      8  C1  UNL d   1       0.806  -0.699  -1.153  0.00  0.00     0.007 C 
ATOM      9  C   UNL d   1       1.082  -0.151  -2.547  0.00  0.00     0.009 C 
ENDBRANCH   7   8
ENDBRANCH   1   7
TORSDOF 2
ENDMDL
