MODEL 1
REMARK minimizedAffinity -5.37658072
REMARK minimizedRMSD -1
REMARK  2 active torsions:
REMARK  status: ('A' for Active; 'I' for Inactive)
REMARK    1  A    between atoms: C1_2  and  C2_3 
REMARK    2  A    between atoms: C2_3  and  C3_4 
ROOT
ATOM      1  C3  UNL d   1       0.107  -0.395  -0.066  0.00  0.00    -0.075 A 
ATOM      2  C4  UNL d   1      -1.241  -0.010  -0.036  0.00  0.00     0.002 A 
ATOM      3  C5  UNL d   1      -1.783   0.584   1.105  0.00  0.00     0.002 A 
ATOM      4  C6  UNL d   1      -0.989   0.789   2.231  0.00  0.00    -0.004 A 
ATOM      5  C7  UNL d   1       0.347   0.396   2.218  0.00  0.00     0.002 A 
ATOM      6  C8  UNL d   1       0.893  -0.194   1.077  0.00  0.00     0.002 A 
ENDROOT
BRANCH   1   7
ATOM      7  C2  UNL d   1       0.708  -1.010  -1.307  0.00  0.00     0.056 C 
BRANCH   7   8
ATOM      8  C1  UNL d   1       0.326  -0.292  -2.606  0.00  0.00     0.007 C 
ATOM      9  C   UNL d   1       1.500   0.418  -3.267  0.00  0.00     0.009 C 
ENDBRANCH   7   8
ENDBRANCH   1   7
TORSDOF 2
ENDMDL
