MODEL 1
REMARK minimizedAffinity -3.27411413
REMARK minimizedRMSD -1
REMARK  0 active torsions:
REMARK  status: ('A' for Active; 'I' for Inactive)
ROOT
ATOM      1  C   UNL d   1      -0.878   1.201   2.614  0.00  0.00     0.172 C 
ATOM      2  N   UNL d   1      -0.658   0.630   1.306  0.00  0.00    -0.070 N 
ATOM      3  C1  UNL d   1       0.512   0.074   0.864  0.00  0.00    -0.004 A 
ATOM      4  C2  UNL d   1       0.314  -0.354  -0.431  0.00  0.00    -0.047 A 
ATOM      5  C3  UNL d   1      -1.022  -0.043  -0.780  0.00  0.00    -0.047 A 
ATOM      6  C4  UNL d   1      -1.601   0.566   0.314  0.00  0.00    -0.004 A 
ENDROOT
TORSDOF 0
ENDMDL
