MODEL 1
REMARK minimizedAffinity -3.46751809
REMARK minimizedRMSD -1
REMARK  0 active torsions:
REMARK  status: ('A' for Active; 'I' for Inactive)
ROOT
ATOM      1  C   UNL d   1       1.727  -0.806   1.563  0.00  0.00     0.172 C 
ATOM      2  N   UNL d   1       0.740   0.226   1.774  0.00  0.00    -0.070 N 
ATOM      3  C1  UNL d   1      -0.278   0.182   2.689  0.00  0.00    -0.004 A 
ATOM      4  C2  UNL d   1      -0.996   1.354   2.579  0.00  0.00    -0.047 A 
ATOM      5  C3  UNL d   1      -0.388   2.128   1.562  0.00  0.00    -0.047 A 
ATOM      6  C4  UNL d   1       0.684   1.407   1.081  0.00  0.00    -0.004 A 
ENDROOT
TORSDOF 0
ENDMDL
