MODEL 1
REMARK minimizedAffinity 0.0811659768
REMARK minimizedRMSD -1
REMARK  0 active torsions:
REMARK  status: ('A' for Active; 'I' for Inactive)
ROOT
ATOM      1  C   UNL d   1       0.413  -0.375  -0.769  0.00  0.00     0.172 C 
ATOM      2  N   UNL d   1      -0.303  -0.150   0.465  0.00  0.00    -0.070 N 
ATOM      3  C1  UNL d   1       0.250  -0.134   1.717  0.00  0.00    -0.004 A 
ATOM      4  C2  UNL d   1      -0.760   0.112   2.622  0.00  0.00    -0.047 A 
ATOM      5  C3  UNL d   1      -1.962   0.247   1.888  0.00  0.00    -0.047 A 
ATOM      6  C4  UNL d   1      -1.650   0.080   0.555  0.00  0.00    -0.004 A 
ENDROOT
TORSDOF 0
ENDMDL
