MODEL 1
REMARK minimizedAffinity -1.25640154
REMARK minimizedRMSD -1
REMARK  0 active torsions:
REMARK  status: ('A' for Active; 'I' for Inactive)
ROOT
ATOM      1  C   UNL d   1       0.872   0.204   1.013  0.00  0.00     0.172 C 
ATOM      2  N   UNL d   1       0.359   0.181   2.363  0.00  0.00    -0.070 N 
ATOM      3  C1  UNL d   1      -0.411   1.154   2.941  0.00  0.00    -0.004 A 
ATOM      4  C2  UNL d   1      -0.693   0.758   4.231  0.00  0.00    -0.047 A 
ATOM      5  C3  UNL d   1      -0.072  -0.496   4.434  0.00  0.00    -0.047 A 
ATOM      6  C4  UNL d   1       0.573  -0.830   3.262  0.00  0.00    -0.004 A 
ENDROOT
TORSDOF 0
ENDMDL
