MODEL 1
REMARK minimizedAffinity -3.68465114
REMARK minimizedRMSD -1
REMARK  0 active torsions:
REMARK  status: ('A' for Active; 'I' for Inactive)
ROOT
ATOM      1  C   UNL d   1       0.460  -0.377  -0.516  0.00  0.00     0.172 C 
ATOM      2  N   UNL d   1       0.006   0.279   0.688  0.00  0.00    -0.070 N 
ATOM      3  C1  UNL d   1       0.725   1.183   1.424  0.00  0.00    -0.004 A 
ATOM      4  C2  UNL d   1      -0.055   1.574   2.491  0.00  0.00    -0.047 A 
ATOM      5  C3  UNL d   1      -1.284   0.879   2.394  0.00  0.00    -0.047 A 
ATOM      6  C4  UNL d   1      -1.219   0.085   1.269  0.00  0.00    -0.004 A 
ENDROOT
TORSDOF 0
ENDMDL
