MODEL 1
REMARK minimizedAffinity -1.90577972
REMARK minimizedRMSD -1
REMARK  0 active torsions:
REMARK  status: ('A' for Active; 'I' for Inactive)
ROOT
ATOM      1  C   UNL d   1       0.618  -0.725  -1.217  0.00  0.00     0.172 C 
ATOM      2  N   UNL d   1       0.009   0.111  -0.210  0.00  0.00    -0.070 N 
ATOM      3  C1  UNL d   1       0.517   1.291   0.263  0.00  0.00    -0.004 A 
ATOM      4  C2  UNL d   1      -0.357   1.778   1.210  0.00  0.00    -0.047 A 
ATOM      5  C3  UNL d   1      -1.428   0.859   1.311  0.00  0.00    -0.047 A 
ATOM      6  C4  UNL d   1      -1.176  -0.164   0.421  0.00  0.00    -0.004 A 
ENDROOT
TORSDOF 0
ENDMDL
