MODEL 1
REMARK minimizedAffinity -0.830239654
REMARK minimizedRMSD -1
REMARK  0 active torsions:
REMARK  status: ('A' for Active; 'I' for Inactive)
ROOT
ATOM      1  C   UNL d   1       0.410   2.167   3.612  0.00  0.00     0.172 C 
ATOM      2  N   UNL d   1      -0.105   0.819   3.666  0.00  0.00    -0.070 N 
ATOM      3  C1  UNL d   1      -0.997   0.269   2.785  0.00  0.00    -0.004 A 
ATOM      4  C2  UNL d   1      -1.234  -1.030   3.180  0.00  0.00    -0.047 A 
ATOM      5  C3  UNL d   1      -0.457  -1.269   4.339  0.00  0.00    -0.047 A 
ATOM      6  C4  UNL d   1       0.232  -0.107   4.618  0.00  0.00    -0.004 A 
ENDROOT
TORSDOF 0
ENDMDL
