MODEL 1
REMARK minimizedAffinity -3.37611318
REMARK minimizedRMSD -1
REMARK  0 active torsions:
REMARK  status: ('A' for Active; 'I' for Inactive)
ROOT
ATOM      1  C   UNL d   1       0.384   0.766  -1.439  0.00  0.00     0.172 C 
ATOM      2  N   UNL d   1      -0.139   0.876  -0.097  0.00  0.00    -0.070 N 
ATOM      3  C1  UNL d   1       0.135   1.886   0.786  0.00  0.00    -0.004 A 
ATOM      4  C2  UNL d   1      -0.554   1.627   1.951  0.00  0.00    -0.047 A 
ATOM      5  C3  UNL d   1      -1.266   0.419   1.761  0.00  0.00    -0.047 A 
ATOM      6  C4  UNL d   1      -0.991  -0.025   0.485  0.00  0.00    -0.004 A 
ENDROOT
TORSDOF 0
ENDMDL
