MODEL 1
REMARK minimizedAffinity 17.156929
REMARK minimizedRMSD -1
REMARK  0 active torsions:
REMARK  status: ('A' for Active; 'I' for Inactive)
ROOT
ATOM      1  C   UNL d   1       3.594  -0.497   1.981  0.00  0.00     0.020 A 
ATOM      2  C1  UNL d   1       4.592  -0.810   1.059  0.00  0.00     0.020 A 
ATOM      3  C2  UNL d   1       4.673  -0.111  -0.147  0.00  0.00     0.034 A 
ATOM      4  C3  UNL d   1       3.754   0.905  -0.435  0.00  0.00     0.017 A 
ATOM      5  C4  UNL d   1       2.752   1.218   0.491  0.00  0.00     0.017 A 
ATOM      6  C5  UNL d   1       2.676   0.515   1.697  0.00  0.00     0.034 A 
ATOM      7 Cl   UNL d   1       1.583   2.458   0.206  0.00  0.00    -0.070 Cl
ATOM      8 Cl1  UNL d   1       3.914   1.728  -1.946  0.00  0.00    -0.070 Cl
ENDROOT
TORSDOF 0
ENDMDL
