MODEL 1
REMARK minimizedAffinity 15.4684439
REMARK minimizedRMSD -1
REMARK  0 active torsions:
REMARK  status: ('A' for Active; 'I' for Inactive)
ROOT
ATOM      1  C   UNL d   1      -2.758  -6.000   1.216  0.00  0.00     0.020 A 
ATOM      2  C1  UNL d   1      -1.578  -5.961   1.957  0.00  0.00     0.020 A 
ATOM      3  C2  UNL d   1      -0.835  -4.781   2.026  0.00  0.00     0.034 A 
ATOM      4  C3  UNL d   1      -1.271  -3.634   1.353  0.00  0.00     0.017 A 
ATOM      5  C4  UNL d   1      -2.456  -3.674   0.608  0.00  0.00     0.017 A 
ATOM      6  C5  UNL d   1      -3.196  -4.858   0.543  0.00  0.00     0.034 A 
ATOM      7 Cl   UNL d   1      -3.058  -2.299  -0.250  0.00  0.00    -0.070 Cl
ATOM      8 Cl1  UNL d   1      -0.302  -2.209   1.482  0.00  0.00    -0.070 Cl
ENDROOT
TORSDOF 0
ENDMDL
