MODEL 1
REMARK minimizedAffinity 6.46037197
REMARK minimizedRMSD -1
REMARK  0 active torsions:
REMARK  status: ('A' for Active; 'I' for Inactive)
ROOT
ATOM      1  C   UNL d   1       0.043  -0.775   3.850  0.00  0.00     0.020 A 
ATOM      2  C1  UNL d   1      -0.592   0.451   3.654  0.00  0.00     0.020 A 
ATOM      3  C2  UNL d   1      -0.015   1.409   2.818  0.00  0.00     0.034 A 
ATOM      4  C3  UNL d   1       1.199   1.143   2.175  0.00  0.00     0.017 A 
ATOM      5  C4  UNL d   1       1.835  -0.088   2.373  0.00  0.00     0.017 A 
ATOM      6  C5  UNL d   1       1.254  -1.044   3.211  0.00  0.00     0.034 A 
ATOM      7 Cl   UNL d   1       3.336  -0.488   1.614  0.00  0.00    -0.070 Cl
ATOM      8 Cl1  UNL d   1       1.855   2.374   1.155  0.00  0.00    -0.070 Cl
ENDROOT
TORSDOF 0
ENDMDL
