MODEL 1
REMARK minimizedAffinity 16.8245544
REMARK minimizedRMSD -1
REMARK  0 active torsions:
REMARK  status: ('A' for Active; 'I' for Inactive)
ROOT
ATOM      1  C   UNL d   1      -0.173  -0.491   5.072  0.00  0.00     0.020 A 
ATOM      2  C1  UNL d   1      -1.137  -1.460   4.799  0.00  0.00     0.020 A 
ATOM      3  C2  UNL d   1      -1.408  -1.822   3.478  0.00  0.00     0.034 A 
ATOM      4  C3  UNL d   1      -0.715  -1.215   2.425  0.00  0.00     0.017 A 
ATOM      5  C4  UNL d   1       0.254  -0.242   2.700  0.00  0.00     0.017 A 
ATOM      6  C5  UNL d   1       0.521   0.116   4.025  0.00  0.00     0.034 A 
ATOM      7 Cl   UNL d   1       1.151   0.551   1.454  0.00  0.00    -0.070 Cl
ATOM      8 Cl1  UNL d   1      -1.101  -1.712   0.816  0.00  0.00    -0.070 Cl
ENDROOT
TORSDOF 0
ENDMDL
