MODEL 1
REMARK minimizedAffinity 15.8708448
REMARK minimizedRMSD -1
REMARK  0 active torsions:
REMARK  status: ('A' for Active; 'I' for Inactive)
ROOT
ATOM      1  C   UNL d   1      -5.351   1.377   6.000  0.00  0.00     0.020 A 
ATOM      2  C1  UNL d   1      -6.000   0.198   5.635  0.00  0.00     0.020 A 
ATOM      3  C2  UNL d   1      -5.812  -0.335   4.358  0.00  0.00     0.034 A 
ATOM      4  C3  UNL d   1      -4.973   0.310   3.442  0.00  0.00     0.017 A 
ATOM      5  C4  UNL d   1      -4.322   1.493   3.809  0.00  0.00     0.017 A 
ATOM      6  C5  UNL d   1      -4.514   2.023   5.089  0.00  0.00     0.034 A 
ATOM      7 Cl   UNL d   1      -3.272   2.346   2.734  0.00  0.00    -0.070 Cl
ATOM      8 Cl1  UNL d   1      -4.786  -0.407   1.881  0.00  0.00    -0.070 Cl
ENDROOT
TORSDOF 0
ENDMDL
