MODEL 1
REMARK minimizedAffinity 11.1101494
REMARK minimizedRMSD -1
REMARK  0 active torsions:
REMARK  status: ('A' for Active; 'I' for Inactive)
ROOT
ATOM      1  C   UNL d   1      -3.073  -2.051  -0.144  0.00  0.00     0.020 A 
ATOM      2  C1  UNL d   1      -2.011  -2.159   0.753  0.00  0.00     0.020 A 
ATOM      3  C2  UNL d   1      -0.726  -2.441   0.283  0.00  0.00     0.034 A 
ATOM      4  C3  UNL d   1      -0.501  -2.616  -1.087  0.00  0.00     0.017 A 
ATOM      5  C4  UNL d   1      -1.568  -2.508  -1.986  0.00  0.00     0.017 A 
ATOM      6  C5  UNL d   1      -2.852  -2.225  -1.511  0.00  0.00     0.034 A 
ATOM      7 Cl   UNL d   1      -1.367  -2.711  -3.691  0.00  0.00    -0.070 Cl
ATOM      8 Cl1  UNL d   1       1.113  -2.963  -1.598  0.00  0.00    -0.070 Cl
ENDROOT
TORSDOF 0
ENDMDL
