MODEL 1
REMARK minimizedAffinity 10.1741514
REMARK minimizedRMSD -1
REMARK  0 active torsions:
REMARK  status: ('A' for Active; 'I' for Inactive)
ROOT
ATOM      1  C   UNL d   1       1.600  -0.914   2.578  0.00  0.00     0.020 A 
ATOM      2  C1  UNL d   1       1.966  -0.688   1.252  0.00  0.00     0.020 A 
ATOM      3  C2  UNL d   1       3.299  -0.832   0.861  0.00  0.00     0.034 A 
ATOM      4  C3  UNL d   1       4.271  -1.201   1.798  0.00  0.00     0.017 A 
ATOM      5  C4  UNL d   1       3.903  -1.427   3.129  0.00  0.00     0.017 A 
ATOM      6  C5  UNL d   1       2.567  -1.282   3.515  0.00  0.00     0.034 A 
ATOM      7 Cl   UNL d   1       5.046  -1.886   4.342  0.00  0.00    -0.070 Cl
ATOM      8 Cl1  UNL d   1       5.900  -1.360   1.245  0.00  0.00    -0.070 Cl
ENDROOT
TORSDOF 0
ENDMDL
