MODEL 1
REMARK minimizedAffinity 9.9297657
REMARK minimizedRMSD -1
REMARK  0 active torsions:
REMARK  status: ('A' for Active; 'I' for Inactive)
ROOT
ATOM      1  C   UNL d   1      -3.446  -5.869   1.346  0.00  0.00     0.020 A 
ATOM      2  C1  UNL d   1      -2.598  -4.773   1.499  0.00  0.00     0.020 A 
ATOM      3  C2  UNL d   1      -2.520  -3.805   0.496  0.00  0.00     0.034 A 
ATOM      4  C3  UNL d   1      -3.291  -3.931  -0.666  0.00  0.00     0.017 A 
ATOM      5  C4  UNL d   1      -4.142  -5.031  -0.819  0.00  0.00     0.017 A 
ATOM      6  C5  UNL d   1      -4.217  -5.998   0.189  0.00  0.00     0.034 A 
ATOM      7 Cl   UNL d   1      -5.124  -5.255  -2.223  0.00  0.00    -0.070 Cl
ATOM      8 Cl1  UNL d   1      -3.144  -2.696  -1.865  0.00  0.00    -0.070 Cl
ENDROOT
TORSDOF 0
ENDMDL
