MODEL 1
REMARK minimizedAffinity 8.14573097
REMARK minimizedRMSD -1
REMARK  0 active torsions:
REMARK  status: ('A' for Active; 'I' for Inactive)
ROOT
ATOM      1  C   UNL d   1      -3.172  -3.044  -3.004  0.00  0.00     0.020 A 
ATOM      2  C1  UNL d   1      -2.060  -2.312  -3.418  0.00  0.00     0.020 A 
ATOM      3  C2  UNL d   1      -1.206  -1.744  -2.471  0.00  0.00     0.034 A 
ATOM      4  C3  UNL d   1      -1.463  -1.906  -1.104  0.00  0.00     0.017 A 
ATOM      5  C4  UNL d   1      -2.579  -2.641  -0.690  0.00  0.00     0.017 A 
ATOM      6  C5  UNL d   1      -3.431  -3.208  -1.643  0.00  0.00     0.034 A 
ATOM      7 Cl   UNL d   1      -2.961  -2.885   0.978  0.00  0.00    -0.070 Cl
ATOM      8 Cl1  UNL d   1      -0.364  -1.176   0.012  0.00  0.00    -0.070 Cl
ENDROOT
TORSDOF 0
ENDMDL
