MODEL 1
REMARK minimizedAffinity 3.87702894
REMARK minimizedRMSD -1
REMARK  0 active torsions:
REMARK  status: ('A' for Active; 'I' for Inactive)
ROOT
ATOM      1  C   UNL d   1       5.076  -0.415   1.322  0.00  0.00     0.020 A 
ATOM      2  C1  UNL d   1       5.999  -0.080   0.333  0.00  0.00     0.020 A 
ATOM      3  C2  UNL d   1       5.857   1.112  -0.381  0.00  0.00     0.034 A 
ATOM      4  C3  UNL d   1       4.789   1.974  -0.106  0.00  0.00     0.017 A 
ATOM      5  C4  UNL d   1       3.862   1.637   0.887  0.00  0.00     0.017 A 
ATOM      6  C5  UNL d   1       4.009   0.442   1.599  0.00  0.00     0.034 A 
ATOM      7 Cl   UNL d   1       2.518   2.649   1.283  0.00  0.00    -0.070 Cl
ATOM      8 Cl1  UNL d   1       4.675   3.431  -1.027  0.00  0.00    -0.070 Cl
ENDROOT
TORSDOF 0
ENDMDL
