MODEL 1
REMARK minimizedAffinity 10.7746487
REMARK minimizedRMSD -1
REMARK  0 active torsions:
REMARK  status: ('A' for Active; 'I' for Inactive)
ROOT
ATOM      1  C   UNL d   1       5.463   1.167  -3.022  0.00  0.00     0.020 A 
ATOM      2  C1  UNL d   1       4.141   1.553  -3.240  0.00  0.00     0.020 A 
ATOM      3  C2  UNL d   1       3.355   0.860  -4.163  0.00  0.00     0.034 A 
ATOM      4  C3  UNL d   1       3.890  -0.222  -4.872  0.00  0.00     0.017 A 
ATOM      5  C4  UNL d   1       5.217  -0.608  -4.652  0.00  0.00     0.017 A 
ATOM      6  C5  UNL d   1       6.000   0.089  -3.726  0.00  0.00     0.034 A 
ATOM      7 Cl   UNL d   1       5.948  -1.933  -5.488  0.00  0.00    -0.070 Cl
ATOM      8 Cl1  UNL d   1       2.861  -1.033  -5.998  0.00  0.00    -0.070 Cl
ENDROOT
TORSDOF 0
ENDMDL
