MODEL 1
REMARK minimizedAffinity 5.42137098
REMARK minimizedRMSD -1
REMARK  0 active torsions:
REMARK  status: ('A' for Active; 'I' for Inactive)
ROOT
ATOM      1  C   UNL d   1       5.228  -0.028   1.329  0.00  0.00     0.020 A 
ATOM      2  C1  UNL d   1       4.720  -0.861   2.324  0.00  0.00     0.020 A 
ATOM      3  C2  UNL d   1       3.452  -0.619   2.858  0.00  0.00     0.034 A 
ATOM      4  C3  UNL d   1       2.689   0.460   2.397  0.00  0.00     0.017 A 
ATOM      5  C4  UNL d   1       3.200   1.296   1.398  0.00  0.00     0.017 A 
ATOM      6  C5  UNL d   1       4.469   1.049   0.867  0.00  0.00     0.034 A 
ATOM      7 Cl   UNL d   1       2.317   2.646   0.778  0.00  0.00    -0.070 Cl
ATOM      8 Cl1  UNL d   1       1.130   0.700   3.102  0.00  0.00    -0.070 Cl
ENDROOT
TORSDOF 0
ENDMDL
