MODEL 1
REMARK minimizedAffinity 6.65092659
REMARK minimizedRMSD -1
REMARK  0 active torsions:
REMARK  status: ('A' for Active; 'I' for Inactive)
ROOT
ATOM      1  C   UNL d   1       6.000  -0.017   0.072  0.00  0.00     0.020 A 
ATOM      2  C1  UNL d   1       5.227  -0.280   1.202  0.00  0.00     0.020 A 
ATOM      3  C2  UNL d   1       4.162   0.561   1.531  0.00  0.00     0.034 A 
ATOM      4  C3  UNL d   1       3.866   1.669   0.728  0.00  0.00     0.017 A 
ATOM      5  C4  UNL d   1       4.643   1.932  -0.406  0.00  0.00     0.017 A 
ATOM      6  C5  UNL d   1       5.708   1.086  -0.731  0.00  0.00     0.034 A 
ATOM      7 Cl   UNL d   1       4.339   3.280  -1.445  0.00  0.00    -0.070 Cl
ATOM      8 Cl1  UNL d   1       2.535   2.667   1.194  0.00  0.00    -0.070 Cl
ENDROOT
TORSDOF 0
ENDMDL
