MODEL 1
REMARK minimizedAffinity 13.2158689
REMARK minimizedRMSD -1
REMARK  0 active torsions:
REMARK  status: ('A' for Active; 'I' for Inactive)
ROOT
ATOM      1  C   UNL d   1       3.036   6.000  -5.196  0.00  0.00     0.020 A 
ATOM      2  C1  UNL d   1       3.976   5.357  -6.000  0.00  0.00     0.020 A 
ATOM      3  C2  UNL d   1       4.131   3.971  -5.921  0.00  0.00     0.034 A 
ATOM      4  C3  UNL d   1       3.345   3.224  -5.037  0.00  0.00     0.017 A 
ATOM      5  C4  UNL d   1       2.401   3.870  -4.230  0.00  0.00     0.017 A 
ATOM      6  C5  UNL d   1       2.250   5.258  -4.313  0.00  0.00     0.034 A 
ATOM      7 Cl   UNL d   1       1.394   3.016  -3.115  0.00  0.00    -0.070 Cl
ATOM      8 Cl1  UNL d   1       3.590   1.514  -4.992  0.00  0.00    -0.070 Cl
ENDROOT
TORSDOF 0
ENDMDL
