MODEL 1
REMARK minimizedAffinity 17.2922516
REMARK minimizedRMSD -1
REMARK  0 active torsions:
REMARK  status: ('A' for Active; 'I' for Inactive)
ROOT
ATOM      1  C   UNL d   1       0.469   1.018   4.623  0.00  0.00     0.020 A 
ATOM      2  C1  UNL d   1       1.523   0.197   4.225  0.00  0.00     0.020 A 
ATOM      3  C2  UNL d   1       2.111   0.375   2.971  0.00  0.00     0.034 A 
ATOM      4  C3  UNL d   1       1.645   1.375   2.110  0.00  0.00     0.017 A 
ATOM      5  C4  UNL d   1       0.587   2.199   2.511  0.00  0.00     0.017 A 
ATOM      6  C5  UNL d   1       0.002   2.017   3.768  0.00  0.00     0.034 A 
ATOM      7 Cl   UNL d   1      -0.042   3.455   1.504  0.00  0.00    -0.070 Cl
ATOM      8 Cl1  UNL d   1       2.420   1.538   0.574  0.00  0.00    -0.070 Cl
ENDROOT
TORSDOF 0
ENDMDL
