MODEL 1
REMARK minimizedAffinity 16.8332901
REMARK minimizedRMSD -1
REMARK  0 active torsions:
REMARK  status: ('A' for Active; 'I' for Inactive)
ROOT
ATOM      1  C   UNL d   1       1.399   1.116   0.904  0.00  0.00     0.020 A 
ATOM      2  C1  UNL d   1       2.649   0.669   0.477  0.00  0.00     0.020 A 
ATOM      3  C2  UNL d   1       3.488  -0.011   1.362  0.00  0.00     0.034 A 
ATOM      4  C3  UNL d   1       3.078  -0.247   2.679  0.00  0.00     0.017 A 
ATOM      5  C4  UNL d   1       1.824   0.202   3.108  0.00  0.00     0.017 A 
ATOM      6  C5  UNL d   1       0.988   0.883   2.217  0.00  0.00     0.034 A 
ATOM      7 Cl   UNL d   1       1.249  -0.052   4.718  0.00  0.00    -0.070 Cl
ATOM      8 Cl1  UNL d   1       4.166  -1.095   3.719  0.00  0.00    -0.070 Cl
ENDROOT
TORSDOF 0
ENDMDL
