MODEL 1
REMARK minimizedAffinity 13.181118
REMARK minimizedRMSD -1
REMARK  0 active torsions:
REMARK  status: ('A' for Active; 'I' for Inactive)
ROOT
ATOM      1  C   UNL d   1       1.016   1.769   0.956  0.00  0.00     0.020 A 
ATOM      2  C1  UNL d   1       1.218   0.640   1.749  0.00  0.00     0.020 A 
ATOM      3  C2  UNL d   1       2.403  -0.091   1.634  0.00  0.00     0.034 A 
ATOM      4  C3  UNL d   1       3.389   0.306   0.723  0.00  0.00     0.017 A 
ATOM      5  C4  UNL d   1       3.185   1.439  -0.072  0.00  0.00     0.017 A 
ATOM      6  C5  UNL d   1       1.997   2.168   0.048  0.00  0.00     0.034 A 
ATOM      7 Cl   UNL d   1       4.356   1.990  -1.218  0.00  0.00    -0.070 Cl
ATOM      8 Cl1  UNL d   1       4.829  -0.645   0.633  0.00  0.00    -0.070 Cl
ENDROOT
TORSDOF 0
ENDMDL
