MODEL 1
REMARK minimizedAffinity 15.5631399
REMARK minimizedRMSD -1
REMARK  0 active torsions:
REMARK  status: ('A' for Active; 'I' for Inactive)
ROOT
ATOM      1  C   UNL d   1      -1.407  -2.312  -0.193  0.00  0.00     0.020 A 
ATOM      2  C1  UNL d   1      -2.737  -2.266   0.221  0.00  0.00     0.020 A 
ATOM      3  C2  UNL d   1      -3.758  -2.601  -0.671  0.00  0.00     0.034 A 
ATOM      4  C3  UNL d   1      -3.450  -2.983  -1.982  0.00  0.00     0.017 A 
ATOM      5  C4  UNL d   1      -2.114  -3.030  -2.396  0.00  0.00     0.017 A 
ATOM      6  C5  UNL d   1      -1.096  -2.694  -1.499  0.00  0.00     0.034 A 
ATOM      7 Cl   UNL d   1      -1.656  -3.492  -3.997  0.00  0.00    -0.070 Cl
ATOM      8 Cl1  UNL d   1      -4.763  -3.384  -3.031  0.00  0.00    -0.070 Cl
ENDROOT
TORSDOF 0
ENDMDL
