MODEL 1
REMARK minimizedAffinity 14.8764477
REMARK minimizedRMSD -1
REMARK  0 active torsions:
REMARK  status: ('A' for Active; 'I' for Inactive)
ROOT
ATOM      1  C   UNL d   1       5.998   0.757  -4.126  0.00  0.00     0.020 A 
ATOM      2  C1  UNL d   1       5.999   0.786  -2.732  0.00  0.00     0.020 A 
ATOM      3  C2  UNL d   1       4.891   1.282  -2.042  0.00  0.00     0.034 A 
ATOM      4  C3  UNL d   1       3.776   1.752  -2.746  0.00  0.00     0.017 A 
ATOM      5  C4  UNL d   1       3.776   1.723  -4.146  0.00  0.00     0.017 A 
ATOM      6  C5  UNL d   1       4.888   1.225  -4.831  0.00  0.00     0.034 A 
ATOM      7 Cl   UNL d   1       2.437   2.285  -5.084  0.00  0.00    -0.070 Cl
ATOM      8 Cl1  UNL d   1       2.440   2.351  -1.829  0.00  0.00    -0.070 Cl
ENDROOT
TORSDOF 0
ENDMDL
