MODEL 1
REMARK minimizedAffinity -0.0267316215
REMARK minimizedRMSD -1
REMARK  0 active torsions:
REMARK  status: ('A' for Active; 'I' for Inactive)
ROOT
ATOM      1  C   UNL d   1       3.346   5.352  -3.658  0.00  0.00     0.020 A 
ATOM      2  C1  UNL d   1       2.957   4.964  -4.939  0.00  0.00     0.020 A 
ATOM      3  C2  UNL d   1       3.354   3.724  -5.444  0.00  0.00     0.034 A 
ATOM      4  C3  UNL d   1       4.144   2.868  -4.667  0.00  0.00     0.017 A 
ATOM      5  C4  UNL d   1       4.534   3.259  -3.381  0.00  0.00     0.017 A 
ATOM      6  C5  UNL d   1       4.133   4.501  -2.881  0.00  0.00     0.034 A 
ATOM      7 Cl   UNL d   1       5.507   2.257  -2.363  0.00  0.00    -0.070 Cl
ATOM      8 Cl1  UNL d   1       4.598   1.350  -5.355  0.00  0.00    -0.070 Cl
ENDROOT
TORSDOF 0
ENDMDL
