MODEL 1
REMARK minimizedAffinity 7.43921566
REMARK minimizedRMSD -1
REMARK  0 active torsions:
REMARK  status: ('A' for Active; 'I' for Inactive)
ROOT
ATOM      1  C   UNL d   1       1.637  -2.076   2.669  0.00  0.00    -0.002 A 
ATOM      2  C1  UNL d   1       0.663  -2.093   1.680  0.00  0.00     0.010 A 
ATOM      3  C2  UNL d   1       0.518  -1.013   0.808  0.00  0.00     0.041 A 
ATOM      4  C3  UNL d   1       1.378   0.095   0.945  0.00  0.00    -0.075 A 
ATOM      5  S   UNL d   1       1.385   1.530  -0.011  0.00  0.00     0.015 SA
ATOM      6  C4  UNL d   1       2.682   2.199   0.870  0.00  0.00     0.022 A 
ATOM      7  C5  UNL d   1       3.111   1.361   1.872  0.00  0.00     0.026 A 
ATOM      8  C6  UNL d   1       2.367   0.135   1.932  0.00  0.00    -0.082 A 
ATOM      9  C7  UNL d   1       2.488  -0.976   2.802  0.00  0.00     0.045 A 
ENDROOT
TORSDOF 0
ENDMDL
