MODEL 1
REMARK minimizedAffinity 10.3339796
REMARK minimizedRMSD -1
REMARK  0 active torsions:
REMARK  status: ('A' for Active; 'I' for Inactive)
ROOT
ATOM      1  C   UNL d   1      -1.080  -0.805   0.025  0.00  0.00    -0.002 A 
ATOM      2  C1  UNL d   1      -1.553  -0.877  -1.278  0.00  0.00     0.010 A 
ATOM      3  C2  UNL d   1      -0.943  -1.721  -2.209  0.00  0.00     0.041 A 
ATOM      4  C3  UNL d   1       0.159  -2.499  -1.804  0.00  0.00    -0.075 A 
ATOM      5  S   UNL d   1       1.062  -3.604  -2.772  0.00  0.00     0.015 SA
ATOM      6  C4  UNL d   1       2.097  -4.007  -1.478  0.00  0.00     0.022 A 
ATOM      7  C5  UNL d   1       1.775  -3.324  -0.329  0.00  0.00     0.026 A 
ATOM      8  C6  UNL d   1       0.652  -2.445  -0.498  0.00  0.00    -0.082 A 
ATOM      9  C7  UNL d   1       0.014  -1.579   0.422  0.00  0.00     0.045 A 
ENDROOT
TORSDOF 0
ENDMDL
