MODEL 1
REMARK minimizedAffinity 14.5608273
REMARK minimizedRMSD -1
REMARK  0 active torsions:
REMARK  status: ('A' for Active; 'I' for Inactive)
ROOT
ATOM      1  C   UNL d   1      -5.999   2.908  -4.988  0.00  0.00    -0.002 A 
ATOM      2  C1  UNL d   1      -4.802   2.871  -5.689  0.00  0.00     0.010 A 
ATOM      3  C2  UNL d   1      -3.582   2.837  -5.010  0.00  0.00     0.041 A 
ATOM      4  C3  UNL d   1      -3.586   2.839  -3.601  0.00  0.00    -0.075 A 
ATOM      5  S   UNL d   1      -2.214   2.799  -2.558  0.00  0.00     0.015 SA
ATOM      6  C4  UNL d   1      -3.185   2.830  -1.157  0.00  0.00     0.022 A 
ATOM      7  C5  UNL d   1      -4.525   2.870  -1.460  0.00  0.00     0.026 A 
ATOM      8  C6  UNL d   1      -4.779   2.875  -2.873  0.00  0.00    -0.082 A 
ATOM      9  C7  UNL d   1      -5.999   2.910  -3.590  0.00  0.00     0.045 A 
ENDROOT
TORSDOF 0
ENDMDL
