MODEL 1
REMARK minimizedAffinity 3.66093993
REMARK minimizedRMSD -1
REMARK  0 active torsions:
REMARK  status: ('A' for Active; 'I' for Inactive)
ROOT
ATOM      1  C   UNL d   1       3.322   0.320   3.362  0.00  0.00    -0.002 A 
ATOM      2  C1  UNL d   1       3.229   0.777   2.055  0.00  0.00     0.010 A 
ATOM      3  C2  UNL d   1       2.575   0.018   1.082  0.00  0.00     0.041 A 
ATOM      4  C3  UNL d   1       2.008  -1.218   1.450  0.00  0.00    -0.075 A 
ATOM      5  S   UNL d   1       1.158  -2.316   0.428  0.00  0.00     0.015 SA
ATOM      6  C4  UNL d   1       0.897  -3.417   1.703  0.00  0.00     0.022 A 
ATOM      7  C5  UNL d   1       1.438  -2.973   2.886  0.00  0.00     0.026 A 
ATOM      8  C6  UNL d   1       2.087  -1.698   2.760  0.00  0.00    -0.082 A 
ATOM      9  C7  UNL d   1       2.758  -0.906   3.723  0.00  0.00     0.045 A 
ENDROOT
TORSDOF 0
ENDMDL
