MODEL 1
REMARK minimizedAffinity 8.95342636
REMARK minimizedRMSD -1
REMARK  0 active torsions:
REMARK  status: ('A' for Active; 'I' for Inactive)
ROOT
ATOM      1  C   UNL d   1      -1.437  -1.204   0.548  0.00  0.00    -0.002 A 
ATOM      2  C1  UNL d   1      -2.250  -1.401  -0.560  0.00  0.00     0.010 A 
ATOM      3  C2  UNL d   1      -1.740  -1.992  -1.718  0.00  0.00     0.041 A 
ATOM      4  C3  UNL d   1      -0.388  -2.386  -1.744  0.00  0.00    -0.075 A 
ATOM      5  S   UNL d   1       0.453  -3.130  -3.052  0.00  0.00     0.015 SA
ATOM      6  C4  UNL d   1       1.910  -3.204  -2.172  0.00  0.00     0.022 A 
ATOM      7  C5  UNL d   1       1.777  -2.678  -0.909  0.00  0.00     0.026 A 
ATOM      8  C6  UNL d   1       0.450  -2.199  -0.641  0.00  0.00    -0.082 A 
ATOM      9  C7  UNL d   1      -0.096  -1.596   0.518  0.00  0.00     0.045 A 
ENDROOT
TORSDOF 0
ENDMDL
