MODEL 1
REMARK minimizedAffinity 7.85498762
REMARK minimizedRMSD -1
REMARK  0 active torsions:
REMARK  status: ('A' for Active; 'I' for Inactive)
ROOT
ATOM      1  C   UNL d   1      -5.827   3.254   1.146  0.00  0.00    -0.002 A 
ATOM      2  C1  UNL d   1      -5.263   2.891   2.361  0.00  0.00     0.010 A 
ATOM      3  C2  UNL d   1      -4.129   2.078   2.403  0.00  0.00     0.041 A 
ATOM      4  C3  UNL d   1      -3.564   1.633   1.192  0.00  0.00    -0.075 A 
ATOM      5  S   UNL d   1      -2.174   0.630   1.000  0.00  0.00     0.015 SA
ATOM      6  C4  UNL d   1      -2.295   0.661  -0.700  0.00  0.00     0.022 A 
ATOM      7  C5  UNL d   1      -3.364   1.413  -1.128  0.00  0.00     0.026 A 
ATOM      8  C6  UNL d   1      -4.112   1.986  -0.044  0.00  0.00    -0.082 A 
ATOM      9  C7  UNL d   1      -5.263   2.811  -0.054  0.00  0.00     0.045 A 
ENDROOT
TORSDOF 0
ENDMDL
