MODEL 1
REMARK minimizedAffinity 9.11519146
REMARK minimizedRMSD -1
REMARK  0 active torsions:
REMARK  status: ('A' for Active; 'I' for Inactive)
ROOT
ATOM      1  C   UNL d   1       1.086  -2.385   2.331  0.00  0.00    -0.002 A 
ATOM      2  C1  UNL d   1       1.621  -2.038   3.563  0.00  0.00     0.010 A 
ATOM      3  C2  UNL d   1       2.284  -0.822   3.733  0.00  0.00     0.041 A 
ATOM      4  C3  UNL d   1       2.401   0.050   2.632  0.00  0.00    -0.075 A 
ATOM      5  S   UNL d   1       3.170   1.593   2.605  0.00  0.00     0.015 SA
ATOM      6  C4  UNL d   1       2.806   1.828   0.957  0.00  0.00     0.022 A 
ATOM      7  C5  UNL d   1       2.115   0.766   0.424  0.00  0.00     0.026 A 
ATOM      8  C6  UNL d   1       1.869  -0.276   1.381  0.00  0.00    -0.082 A 
ATOM      9  C7  UNL d   1       1.203  -1.518   1.241  0.00  0.00     0.045 A 
ENDROOT
TORSDOF 0
ENDMDL
