MODEL 1
REMARK minimizedAffinity -0.433951199
REMARK minimizedRMSD -1
REMARK  2 active torsions:
REMARK  status: ('A' for Active; 'I' for Inactive)
REMARK    1  A    between atoms: C1_2  and  C2_3 
REMARK    2  A    between atoms: C2_3  and  C3_4 
ROOT
ATOM      1  C3  UNL d   1      -0.760   3.628  -5.982  0.00  0.00    -0.075 A 
ATOM      2  C4  UNL d   1      -0.335   4.964  -5.986  0.00  0.00     0.002 A 
ATOM      3  C5  UNL d   1       1.025   5.275  -6.000  0.00  0.00     0.002 A 
ATOM      4  C6  UNL d   1       1.976   4.257  -5.999  0.00  0.00    -0.004 A 
ATOM      5  C7  UNL d   1       1.565   2.925  -5.978  0.00  0.00     0.002 A 
ATOM      6  C8  UNL d   1       0.205   2.611  -5.969  0.00  0.00     0.002 A 
ENDROOT
BRANCH   1   7
ATOM      7  C2  UNL d   1      -2.230   3.284  -5.998  0.00  0.00     0.056 C 
BRANCH   7   8
ATOM      8  C1  UNL d   1      -3.118   4.309  -5.283  0.00  0.00     0.007 C 
ATOM      9  C   UNL d   1      -3.093   5.684  -5.938  0.00  0.00     0.009 C 
ENDBRANCH   7   8
ENDBRANCH   1   7
TORSDOF 2
ENDMDL
