MODEL 1
REMARK minimizedAffinity 3.97598147
REMARK minimizedRMSD -1
REMARK  2 active torsions:
REMARK  status: ('A' for Active; 'I' for Inactive)
REMARK    1  A    between atoms: C1_2  and  C2_3 
REMARK    2  A    between atoms: C2_3  and  C3_4 
ROOT
ATOM      1  C3  UNL d   1      -0.561   0.148   0.025  0.00  0.00    -0.075 A 
ATOM      2  C4  UNL d   1      -0.083   0.688  -1.178  0.00  0.00     0.002 A 
ATOM      3  C5  UNL d   1       0.636   1.884  -1.181  0.00  0.00     0.002 A 
ATOM      4  C6  UNL d   1       0.876   2.559   0.013  0.00  0.00    -0.004 A 
ATOM      5  C7  UNL d   1       0.392   2.041   1.212  0.00  0.00     0.002 A 
ATOM      6  C8  UNL d   1      -0.324   0.842   1.219  0.00  0.00     0.002 A 
ENDROOT
BRANCH   1   7
ATOM      7  C2  UNL d   1      -1.313  -1.161   0.040  0.00  0.00     0.056 C 
BRANCH   7   8
ATOM      8  C1  UNL d   1      -1.902  -1.557  -1.319  0.00  0.00     0.007 C 
ATOM      9  C   UNL d   1      -2.366  -3.006  -1.373  0.00  0.00     0.009 C 
ENDBRANCH   7   8
ENDBRANCH   1   7
TORSDOF 2
ENDMDL
