MODEL 1
REMARK minimizedAffinity -3.07465339
REMARK minimizedRMSD -1
REMARK  2 active torsions:
REMARK  status: ('A' for Active; 'I' for Inactive)
REMARK    1  A    between atoms: C1_2  and  C2_3 
REMARK    2  A    between atoms: C2_3  and  C3_4 
ROOT
ATOM      1  C3  UNL d   1       0.080   3.864  -5.955  0.00  0.00    -0.075 A 
ATOM      2  C4  UNL d   1      -0.790   2.764  -5.910  0.00  0.00     0.002 A 
ATOM      3  C5  UNL d   1      -2.173   2.954  -5.921  0.00  0.00     0.002 A 
ATOM      4  C6  UNL d   1      -2.702   4.242  -5.966  0.00  0.00    -0.004 A 
ATOM      5  C7  UNL d   1      -1.847   5.342  -5.994  0.00  0.00     0.002 A 
ATOM      6  C8  UNL d   1      -0.463   5.155  -5.987  0.00  0.00     0.002 A 
ENDROOT
BRANCH   1   7
ATOM      7  C2  UNL d   1       1.576   3.664  -5.973  0.00  0.00     0.056 C 
BRANCH   7   8
ATOM      8  C1  UNL d   1       2.379   4.969  -5.999  0.00  0.00     0.007 C 
ATOM      9  C   UNL d   1       3.886   4.747  -5.989  0.00  0.00     0.009 C 
ENDBRANCH   7   8
ENDBRANCH   1   7
TORSDOF 2
ENDMDL
