MODEL 1
REMARK minimizedAffinity 2.6257813
REMARK minimizedRMSD -1
REMARK  2 active torsions:
REMARK  status: ('A' for Active; 'I' for Inactive)
REMARK    1  A    between atoms: C1_2  and  C2_3 
REMARK    2  A    between atoms: C2_3  and  C3_4 
ROOT
ATOM      1  C3  UNL d   1       3.348   3.878  -5.792  0.00  0.00    -0.075 A 
ATOM      2  C4  UNL d   1       3.670   5.227  -6.000  0.00  0.00     0.002 A 
ATOM      3  C5  UNL d   1       4.990   5.666  -5.882  0.00  0.00     0.002 A 
ATOM      4  C6  UNL d   1       5.999   4.766  -5.547  0.00  0.00    -0.004 A 
ATOM      5  C7  UNL d   1       5.687   3.427  -5.322  0.00  0.00     0.002 A 
ATOM      6  C8  UNL d   1       4.369   2.984  -5.443  0.00  0.00     0.002 A 
ENDROOT
BRANCH   1   7
ATOM      7  C2  UNL d   1       1.927   3.391  -5.946  0.00  0.00     0.056 C 
BRANCH   7   8
ATOM      8  C1  UNL d   1       0.882   4.297  -5.286  0.00  0.00     0.007 C 
ATOM      9  C   UNL d   1      -0.465   4.278  -5.997  0.00  0.00     0.009 C 
ENDBRANCH   7   8
ENDBRANCH   1   7
TORSDOF 2
ENDMDL
