MODEL 1
REMARK minimizedAffinity 2.38262248
REMARK minimizedRMSD -1
REMARK  2 active torsions:
REMARK  status: ('A' for Active; 'I' for Inactive)
REMARK    1  A    between atoms: C1_2  and  C2_3 
REMARK    2  A    between atoms: C2_3  and  C3_4 
ROOT
ATOM      1  C3  UNL d   1       0.318   4.365  -5.400  0.00  0.00    -0.075 A 
ATOM      2  C4  UNL d   1       0.194   3.097  -5.987  0.00  0.00     0.002 A 
ATOM      3  C5  UNL d   1      -1.028   2.423  -5.965  0.00  0.00     0.002 A 
ATOM      4  C6  UNL d   1      -2.135   3.002  -5.349  0.00  0.00    -0.004 A 
ATOM      5  C7  UNL d   1      -2.019   4.253  -4.748  0.00  0.00     0.002 A 
ATOM      6  C8  UNL d   1      -0.799   4.932  -4.772  0.00  0.00     0.002 A 
ENDROOT
BRANCH   1   7
ATOM      7  C2  UNL d   1       1.629   5.112  -5.446  0.00  0.00     0.056 C 
BRANCH   7   8
ATOM      8  C1  UNL d   1       2.803   4.281  -5.975  0.00  0.00     0.007 C 
ATOM      9  C   UNL d   1       4.161   4.899  -5.671  0.00  0.00     0.009 C 
ENDBRANCH   7   8
ENDBRANCH   1   7
TORSDOF 2
ENDMDL
