MODEL 1
REMARK minimizedAffinity -2.58416367
REMARK minimizedRMSD -1
REMARK  2 active torsions:
REMARK  status: ('A' for Active; 'I' for Inactive)
REMARK    1  A    between atoms: C1_2  and  C2_3 
REMARK    2  A    between atoms: C2_3  and  C3_4 
ROOT
ATOM      1  C3  UNL d   1       1.278   4.896  -5.983  0.00  0.00    -0.075 A 
ATOM      2  C4  UNL d   1       1.234   3.494  -5.982  0.00  0.00     0.002 A 
ATOM      3  C5  UNL d   1       0.010   2.824  -5.994  0.00  0.00     0.002 A 
ATOM      4  C6  UNL d   1      -1.182   3.544  -5.996  0.00  0.00    -0.004 A 
ATOM      5  C7  UNL d   1      -1.151   4.937  -5.980  0.00  0.00     0.002 A 
ATOM      6  C8  UNL d   1       0.072   5.610  -5.972  0.00  0.00     0.002 A 
ENDROOT
BRANCH   1   7
ATOM      7  C2  UNL d   1       2.599   5.627  -6.000  0.00  0.00     0.056 C 
BRANCH   7   8
ATOM      8  C1  UNL d   1       3.805   4.744  -5.666  0.00  0.00     0.007 C 
ATOM      9  C   UNL d   1       5.141   5.436  -5.906  0.00  0.00     0.009 C 
ENDBRANCH   7   8
ENDBRANCH   1   7
TORSDOF 2
ENDMDL
