MODEL 1
REMARK minimizedAffinity -3.42544699
REMARK minimizedRMSD -1
REMARK  2 active torsions:
REMARK  status: ('A' for Active; 'I' for Inactive)
REMARK    1  A    between atoms: C1_2  and  C2_3 
REMARK    2  A    between atoms: C2_3  and  C3_4 
ROOT
ATOM      1  C3  UNL d   1      -1.037   4.614  -5.994  0.00  0.00    -0.075 A 
ATOM      2  C4  UNL d   1      -2.138   5.482  -5.978  0.00  0.00     0.002 A 
ATOM      3  C5  UNL d   1      -3.438   4.977  -5.946  0.00  0.00     0.002 A 
ATOM      4  C6  UNL d   1      -3.654   3.601  -5.939  0.00  0.00    -0.004 A 
ATOM      5  C7  UNL d   1      -2.568   2.729  -5.972  0.00  0.00     0.002 A 
ATOM      6  C8  UNL d   1      -1.266   3.232  -6.000  0.00  0.00     0.002 A 
ENDROOT
BRANCH   1   7
ATOM      7  C2  UNL d   1       0.373   5.155  -6.000  0.00  0.00     0.056 C 
BRANCH   7   8
ATOM      8  C1  UNL d   1       1.455   4.076  -5.887  0.00  0.00     0.007 C 
ATOM      9  C   UNL d   1       2.869   4.630  -5.990  0.00  0.00     0.009 C 
ENDBRANCH   7   8
ENDBRANCH   1   7
TORSDOF 2
ENDMDL
