MODEL 1
REMARK minimizedAffinity 4.46032143
REMARK minimizedRMSD -1
REMARK  2 active torsions:
REMARK  status: ('A' for Active; 'I' for Inactive)
REMARK    1  A    between atoms: C1_2  and  C2_3 
REMARK    2  A    between atoms: C2_3  and  C3_4 
ROOT
ATOM      1  C3  UNL d   1      -1.172  -3.932  -2.324  0.00  0.00    -0.075 A 
ATOM      2  C4  UNL d   1      -1.168  -3.446  -1.008  0.00  0.00     0.002 A 
ATOM      3  C5  UNL d   1      -2.177  -3.810  -0.116  0.00  0.00     0.002 A 
ATOM      4  C6  UNL d   1      -3.206  -4.653  -0.529  0.00  0.00    -0.004 A 
ATOM      5  C7  UNL d   1      -3.229  -5.127  -1.839  0.00  0.00     0.002 A 
ATOM      6  C8  UNL d   1      -2.219  -4.769  -2.733  0.00  0.00     0.002 A 
ENDROOT
BRANCH   1   7
ATOM      7  C2  UNL d   1      -0.067  -3.566  -3.286  0.00  0.00     0.056 C 
BRANCH   7   8
ATOM      8  C1  UNL d   1       1.337  -3.925  -2.789  0.00  0.00     0.007 C 
ATOM      9  C   UNL d   1       2.373  -2.850  -3.088  0.00  0.00     0.009 C 
ENDBRANCH   7   8
ENDBRANCH   1   7
TORSDOF 2
ENDMDL
