MODEL 1
REMARK minimizedAffinity -1.5947094
REMARK minimizedRMSD -1
REMARK  2 active torsions:
REMARK  status: ('A' for Active; 'I' for Inactive)
REMARK    1  A    between atoms: C1_2  and  C2_3 
REMARK    2  A    between atoms: C2_3  and  C3_4 
ROOT
ATOM      1  C3  UNL d   1      -0.192   3.910  -5.932  0.00  0.00    -0.075 A 
ATOM      2  C4  UNL d   1      -1.088   2.833  -5.989  0.00  0.00     0.002 A 
ATOM      3  C5  UNL d   1      -2.465   3.056  -6.000  0.00  0.00     0.002 A 
ATOM      4  C6  UNL d   1      -2.963   4.356  -5.944  0.00  0.00    -0.004 A 
ATOM      5  C7  UNL d   1      -2.083   5.433  -5.871  0.00  0.00     0.002 A 
ATOM      6  C8  UNL d   1      -0.705   5.213  -5.864  0.00  0.00     0.002 A 
ENDROOT
BRANCH   1   7
ATOM      7  C2  UNL d   1       1.299   3.677  -5.950  0.00  0.00     0.056 C 
BRANCH   7   8
ATOM      8  C1  UNL d   1       2.132   4.962  -5.998  0.00  0.00     0.007 C 
ATOM      9  C   UNL d   1       3.633   4.707  -5.977  0.00  0.00     0.009 C 
ENDBRANCH   7   8
ENDBRANCH   1   7
TORSDOF 2
ENDMDL
