MODEL 1
REMARK minimizedAffinity -3.87893105
REMARK minimizedRMSD -1
REMARK  2 active torsions:
REMARK  status: ('A' for Active; 'I' for Inactive)
REMARK    1  A    between atoms: C1_2  and  C2_3 
REMARK    2  A    between atoms: C2_3  and  C3_4 
ROOT
ATOM      1  C3  UNL d   1      -0.195   3.811  -5.903  0.00  0.00    -0.075 A 
ATOM      2  C4  UNL d   1      -0.657   5.135  -5.916  0.00  0.00     0.002 A 
ATOM      3  C5  UNL d   1      -2.024   5.408  -5.954  0.00  0.00     0.002 A 
ATOM      4  C6  UNL d   1      -2.945   4.364  -5.991  0.00  0.00    -0.004 A 
ATOM      5  C7  UNL d   1      -2.497   3.045  -5.996  0.00  0.00     0.002 A 
ATOM      6  C8  UNL d   1      -1.130   2.769  -5.953  0.00  0.00     0.002 A 
ENDROOT
BRANCH   1   7
ATOM      7  C2  UNL d   1       1.283   3.509  -5.832  0.00  0.00     0.056 C 
BRANCH   7   8
ATOM      8  C1  UNL d   1       2.180   4.740  -6.000  0.00  0.00     0.007 C 
ATOM      9  C   UNL d   1       3.662   4.430  -5.834  0.00  0.00     0.009 C 
ENDBRANCH   7   8
ENDBRANCH   1   7
TORSDOF 2
ENDMDL
