MODEL 1
REMARK minimizedAffinity -1.72893393
REMARK minimizedRMSD -1
REMARK  2 active torsions:
REMARK  status: ('A' for Active; 'I' for Inactive)
REMARK    1  A    between atoms: C1_2  and  C2_3 
REMARK    2  A    between atoms: C2_3  and  C3_4 
ROOT
ATOM      1  C3  UNL d   1       0.048   3.465  -5.954  0.00  0.00    -0.075 A 
ATOM      2  C4  UNL d   1      -1.151   2.741  -5.879  0.00  0.00     0.002 A 
ATOM      3  C5  UNL d   1      -2.379   3.403  -5.871  0.00  0.00     0.002 A 
ATOM      4  C6  UNL d   1      -2.424   4.794  -5.927  0.00  0.00    -0.004 A 
ATOM      5  C7  UNL d   1      -1.239   5.524  -5.986  0.00  0.00     0.002 A 
ATOM      6  C8  UNL d   1      -0.009   4.864  -5.998  0.00  0.00     0.002 A 
ENDROOT
BRANCH   1   7
ATOM      7  C2  UNL d   1       1.379   2.753  -5.993  0.00  0.00     0.056 C 
BRANCH   7   8
ATOM      8  C1  UNL d   1       2.589   3.693  -5.998  0.00  0.00     0.007 C 
ATOM      9  C   UNL d   1       3.922   2.957  -5.954  0.00  0.00     0.009 C 
ENDBRANCH   7   8
ENDBRANCH   1   7
TORSDOF 2
ENDMDL
