MODEL 1
REMARK minimizedAffinity -3.29199457
REMARK minimizedRMSD -1
REMARK  2 active torsions:
REMARK  status: ('A' for Active; 'I' for Inactive)
REMARK    1  A    between atoms: C1_2  and  C2_3 
REMARK    2  A    between atoms: C2_3  and  C3_4 
ROOT
ATOM      1  C3  UNL d   1      -0.348   4.247  -5.976  0.00  0.00    -0.075 A 
ATOM      2  C4  UNL d   1      -0.917   5.529  -5.970  0.00  0.00     0.002 A 
ATOM      3  C5  UNL d   1      -2.303   5.689  -5.954  0.00  0.00     0.002 A 
ATOM      4  C6  UNL d   1      -3.136   4.572  -5.955  0.00  0.00    -0.004 A 
ATOM      5  C7  UNL d   1      -2.581   3.294  -5.978  0.00  0.00     0.002 A 
ATOM      6  C8  UNL d   1      -1.195   3.131  -5.989  0.00  0.00     0.002 A 
ENDROOT
BRANCH   1   7
ATOM      7  C2  UNL d   1       1.151   4.067  -5.963  0.00  0.00     0.056 C 
BRANCH   7   8
ATOM      8  C1  UNL d   1       1.938   5.383  -5.979  0.00  0.00     0.007 C 
ATOM      9  C   UNL d   1       3.447   5.181  -5.956  0.00  0.00     0.009 C 
ENDBRANCH   7   8
ENDBRANCH   1   7
TORSDOF 2
ENDMDL
