MODEL 1
REMARK minimizedAffinity 17.4967422
REMARK minimizedRMSD -1
REMARK  0 active torsions:
REMARK  status: ('A' for Active; 'I' for Inactive)
ROOT
ATOM      1  C   UNL d   1       1.072   3.638   2.230  0.00  0.00     0.124 A 
ATOM      2  C1  UNL d   1       0.840   4.127   0.952  0.00  0.00     0.062 A 
ATOM      3  C2  UNL d   1      -0.052   3.476   0.105  0.00  0.00     0.162 A 
ATOM      4  C3  UNL d   1      -0.720   2.329   0.533  0.00  0.00    -0.034 A 
ATOM      5  C4  UNL d   1      -0.480   1.842   1.820  0.00  0.00     0.162 A 
ATOM      6  C5  UNL d   1       0.413   2.497   2.662  0.00  0.00     0.062 A 
ATOM      7  F   UNL d   1       0.636   2.023   3.897  0.00  0.00    -0.097 F 
ATOM      8  F1  UNL d   1      -1.105   0.742   2.264  0.00  0.00    -0.096 F 
ATOM      9  I   UNL d   1      -2.054   1.352  -0.730  0.00  0.00    -0.060 I 
ATOM     10  F2  UNL d   1      -0.258   3.971  -1.125  0.00  0.00    -0.096 F 
ATOM     11  F3  UNL d   1       1.477   5.230   0.531  0.00  0.00    -0.097 F 
ATOM     12  F4  UNL d   1       1.932   4.266   3.042  0.00  0.00    -0.092 F 
ENDROOT
TORSDOF 0
ENDMDL
