MODEL 1
REMARK minimizedAffinity 13.2708101
REMARK minimizedRMSD -1
REMARK  0 active torsions:
REMARK  status: ('A' for Active; 'I' for Inactive)
ROOT
ATOM      1  C   UNL d   1       0.326   3.557   0.509  0.00  0.00     0.124 A 
ATOM      2  C1  UNL d   1       0.098   3.003   1.760  0.00  0.00     0.062 A 
ATOM      3  C2  UNL d   1      -1.046   2.245   1.993  0.00  0.00     0.162 A 
ATOM      4  C3  UNL d   1      -1.972   2.037   0.970  0.00  0.00    -0.034 A 
ATOM      5  C4  UNL d   1      -1.736   2.599  -0.286  0.00  0.00     0.162 A 
ATOM      6  C5  UNL d   1      -0.591   3.355  -0.513  0.00  0.00     0.062 A 
ATOM      7  F   UNL d   1      -0.373   3.891  -1.723  0.00  0.00    -0.097 F 
ATOM      8  F1  UNL d   1      -2.606   2.419  -1.291  0.00  0.00    -0.096 F 
ATOM      9  I   UNL d   1      -3.684   0.905   1.314  0.00  0.00    -0.060 I 
ATOM     10  F2  UNL d   1      -1.240   1.721   3.212  0.00  0.00    -0.096 F 
ATOM     11  F3  UNL d   1       0.983   3.197   2.749  0.00  0.00    -0.097 F 
ATOM     12  F4  UNL d   1       1.427   4.287   0.288  0.00  0.00    -0.092 F 
ENDROOT
TORSDOF 0
ENDMDL
