MODEL 1
REMARK minimizedAffinity 11.4839621
REMARK minimizedRMSD -1
REMARK  0 active torsions:
REMARK  status: ('A' for Active; 'I' for Inactive)
ROOT
ATOM      1  C   UNL d   1       2.917  -3.207  -0.107  0.00  0.00     0.124 A 
ATOM      2  C1  UNL d   1       1.806  -3.994  -0.377  0.00  0.00     0.062 A 
ATOM      3  C2  UNL d   1       0.715  -3.457  -1.053  0.00  0.00     0.162 A 
ATOM      4  C3  UNL d   1       0.730  -2.125  -1.467  0.00  0.00    -0.034 A 
ATOM      5  C4  UNL d   1       1.851  -1.339  -1.192  0.00  0.00     0.162 A 
ATOM      6  C5  UNL d   1       2.939  -1.881  -0.515  0.00  0.00     0.062 A 
ATOM      7  F   UNL d   1       4.011  -1.119  -0.256  0.00  0.00    -0.097 F 
ATOM      8  F1  UNL d   1       1.898  -0.055  -1.575  0.00  0.00    -0.096 F 
ATOM      9  I   UNL d   1      -0.899  -1.317  -2.479  0.00  0.00    -0.060 I 
ATOM     10  F2  UNL d   1      -0.345  -4.240  -1.300  0.00  0.00    -0.096 F 
ATOM     11  F3  UNL d   1       1.783  -5.276   0.017  0.00  0.00    -0.097 F 
ATOM     12  F4  UNL d   1       3.965  -3.727   0.545  0.00  0.00    -0.092 F 
ENDROOT
TORSDOF 0
ENDMDL
