MODEL 1
REMARK minimizedAffinity 19.0307617
REMARK minimizedRMSD -1
REMARK  0 active torsions:
REMARK  status: ('A' for Active; 'I' for Inactive)
ROOT
ATOM      1  C   UNL d   1       1.084   3.481   2.361  0.00  0.00     0.124 A 
ATOM      2  C1  UNL d   1       0.678   3.873   1.093  0.00  0.00     0.062 A 
ATOM      3  C2  UNL d   1      -0.323   3.168   0.429  0.00  0.00     0.162 A 
ATOM      4  C3  UNL d   1      -0.925   2.064   1.033  0.00  0.00    -0.034 A 
ATOM      5  C4  UNL d   1      -0.510   1.675   2.308  0.00  0.00     0.162 A 
ATOM      6  C5  UNL d   1       0.491   2.383   2.967  0.00  0.00     0.062 A 
ATOM      7  F   UNL d   1       0.882   2.003   4.192  0.00  0.00    -0.097 F 
ATOM      8  F1  UNL d   1      -1.067   0.619   2.918  0.00  0.00    -0.096 F 
ATOM      9  I   UNL d   1      -2.421   1.008   0.045  0.00  0.00    -0.060 I 
ATOM     10  F2  UNL d   1      -0.696   3.569  -0.795  0.00  0.00    -0.096 F 
ATOM     11  F3  UNL d   1       1.251   4.933   0.504  0.00  0.00    -0.097 F 
ATOM     12  F4  UNL d   1       2.048   4.160   2.996  0.00  0.00    -0.092 F 
ENDROOT
TORSDOF 0
ENDMDL
