MODEL 1
REMARK minimizedAffinity 13.9324017
REMARK minimizedRMSD -1
REMARK  0 active torsions:
REMARK  status: ('A' for Active; 'I' for Inactive)
ROOT
ATOM      1  C   UNL d   1      -1.599  -0.711  -1.836  0.00  0.00     0.124 A 
ATOM      2  C1  UNL d   1      -0.518   0.102  -1.527  0.00  0.00     0.062 A 
ATOM      3  C2  UNL d   1      -0.576   0.955  -0.428  0.00  0.00     0.162 A 
ATOM      4  C3  UNL d   1      -1.719   0.999   0.370  0.00  0.00    -0.034 A 
ATOM      5  C4  UNL d   1      -2.803   0.179   0.051  0.00  0.00     0.162 A 
ATOM      6  C5  UNL d   1      -2.740  -0.672  -1.048  0.00  0.00     0.062 A 
ATOM      7  F   UNL d   1      -3.786  -1.457  -1.345  0.00  0.00    -0.097 F 
ATOM      8  F1  UNL d   1      -3.918   0.196   0.797  0.00  0.00    -0.096 F 
ATOM      9  I   UNL d   1      -1.809   2.273   2.013  0.00  0.00    -0.060 I 
ATOM     10  F2  UNL d   1       0.484   1.729  -0.152  0.00  0.00    -0.096 F 
ATOM     11  F3  UNL d   1       0.585   0.066  -2.288  0.00  0.00    -0.097 F 
ATOM     12  F4  UNL d   1      -1.542  -1.531  -2.894  0.00  0.00    -0.092 F 
ENDROOT
TORSDOF 0
ENDMDL
