MODEL 1
REMARK minimizedAffinity 13.8018999
REMARK minimizedRMSD -1
REMARK  0 active torsions:
REMARK  status: ('A' for Active; 'I' for Inactive)
ROOT
ATOM      1  C   UNL d   1      -2.016  -1.444  -1.687  0.00  0.00     0.124 A 
ATOM      2  C1  UNL d   1      -0.640  -1.266  -1.660  0.00  0.00     0.062 A 
ATOM      3  C2  UNL d   1      -0.096  -0.087  -1.159  0.00  0.00     0.162 A 
ATOM      4  C3  UNL d   1      -0.929   0.924  -0.678  0.00  0.00    -0.034 A 
ATOM      5  C4  UNL d   1      -2.312   0.738  -0.709  0.00  0.00     0.162 A 
ATOM      6  C5  UNL d   1      -2.851  -0.442  -1.212  0.00  0.00     0.062 A 
ATOM      7  F   UNL d   1      -4.181  -0.612  -1.237  0.00  0.00    -0.097 F 
ATOM      8  F1  UNL d   1      -3.142   1.689  -0.256  0.00  0.00    -0.096 F 
ATOM      9  I   UNL d   1      -0.120   2.688   0.072  0.00  0.00    -0.060 I 
ATOM     10  F2  UNL d   1       1.237   0.058  -1.145  0.00  0.00    -0.096 F 
ATOM     11  F3  UNL d   1       0.169  -2.232  -2.120  0.00  0.00    -0.097 F 
ATOM     12  F4  UNL d   1      -2.537  -2.579  -2.171  0.00  0.00    -0.092 F 
ENDROOT
TORSDOF 0
ENDMDL
