MODEL 1
REMARK minimizedAffinity 21.9890594
REMARK minimizedRMSD -1
REMARK  0 active torsions:
REMARK  status: ('A' for Active; 'I' for Inactive)
ROOT
ATOM      1  C   UNL d   1      -3.906  -0.204  -0.199  0.00  0.00     0.124 A 
ATOM      2  C1  UNL d   1      -2.736  -0.034  -0.924  0.00  0.00     0.062 A 
ATOM      3  C2  UNL d   1      -1.675   0.686  -0.383  0.00  0.00     0.162 A 
ATOM      4  C3  UNL d   1      -1.779   1.241   0.892  0.00  0.00    -0.034 A 
ATOM      5  C4  UNL d   1      -2.960   1.067   1.616  0.00  0.00     0.162 A 
ATOM      6  C5  UNL d   1      -4.018   0.346   1.070  0.00  0.00     0.062 A 
ATOM      7  F   UNL d   1      -5.148   0.183   1.773  0.00  0.00    -0.097 F 
ATOM      8  F1  UNL d   1      -3.094   1.587   2.845  0.00  0.00    -0.096 F 
ATOM      9  I   UNL d   1      -0.195   2.319   1.706  0.00  0.00    -0.060 I 
ATOM     10  F2  UNL d   1      -0.555   0.835  -1.107  0.00  0.00    -0.096 F 
ATOM     11  F3  UNL d   1      -2.626  -0.564  -2.151  0.00  0.00    -0.097 F 
ATOM     12  F4  UNL d   1      -4.926  -0.897  -0.722  0.00  0.00    -0.092 F 
ENDROOT
TORSDOF 0
ENDMDL
