MODEL 1
REMARK minimizedAffinity 15.9965963
REMARK minimizedRMSD -1
REMARK  0 active torsions:
REMARK  status: ('A' for Active; 'I' for Inactive)
ROOT
ATOM      1  C   UNL d   1      -1.859  -1.547  -3.115  0.00  0.00     0.124 A 
ATOM      2  C1  UNL d   1      -0.509  -1.243  -3.014  0.00  0.00     0.062 A 
ATOM      3  C2  UNL d   1      -0.043  -0.469  -1.955  0.00  0.00     0.162 A 
ATOM      4  C3  UNL d   1      -0.929   0.008  -0.988  0.00  0.00    -0.034 A 
ATOM      5  C4  UNL d   1      -2.286  -0.301  -1.098  0.00  0.00     0.162 A 
ATOM      6  C5  UNL d   1      -2.746  -1.076  -2.158  0.00  0.00     0.062 A 
ATOM      7  F   UNL d   1      -4.052  -1.368  -2.254  0.00  0.00    -0.097 F 
ATOM      8  F1  UNL d   1      -3.165   0.141  -0.186  0.00  0.00    -0.096 F 
ATOM      9  I   UNL d   1      -0.237   1.166   0.596  0.00  0.00    -0.060 I 
ATOM     10  F2  UNL d   1       1.267  -0.191  -1.882  0.00  0.00    -0.096 F 
ATOM     11  F3  UNL d   1       0.350  -1.697  -3.938  0.00  0.00    -0.097 F 
ATOM     12  F4  UNL d   1      -2.305  -2.292  -4.135  0.00  0.00    -0.092 F 
ENDROOT
TORSDOF 0
ENDMDL
