MODEL 1
REMARK minimizedAffinity 17.038372
REMARK minimizedRMSD -1
REMARK  0 active torsions:
REMARK  status: ('A' for Active; 'I' for Inactive)
ROOT
ATOM      1  C   UNL d   1      -0.080   2.298   1.221  0.00  0.00     0.124 A 
ATOM      2  C1  UNL d   1      -0.644   2.556  -0.021  0.00  0.00     0.062 A 
ATOM      3  C2  UNL d   1      -1.892   2.032  -0.345  0.00  0.00     0.162 A 
ATOM      4  C3  UNL d   1      -2.586   1.246   0.575  0.00  0.00    -0.034 A 
ATOM      5  C4  UNL d   1      -2.011   0.990   1.822  0.00  0.00     0.162 A 
ATOM      6  C5  UNL d   1      -0.764   1.516   2.141  0.00  0.00     0.062 A 
ATOM      7  F   UNL d   1      -0.220   1.266   3.341  0.00  0.00    -0.097 F 
ATOM      8  F1  UNL d   1      -2.651   0.238   2.730  0.00  0.00    -0.096 F 
ATOM      9  I   UNL d   1      -4.452   0.460   0.095  0.00  0.00    -0.060 I 
ATOM     10  F2  UNL d   1      -2.413   2.297  -1.552  0.00  0.00    -0.096 F 
ATOM     11  F3  UNL d   1       0.015   3.311  -0.911  0.00  0.00    -0.097 F 
ATOM     12  F4  UNL d   1       1.122   2.803   1.530  0.00  0.00    -0.092 F 
ENDROOT
TORSDOF 0
ENDMDL
