MODEL 1
REMARK minimizedAffinity 20.068985
REMARK minimizedRMSD -1
REMARK  0 active torsions:
REMARK  status: ('A' for Active; 'I' for Inactive)
ROOT
ATOM      1  C   UNL d   1      -0.642   2.265   1.113  0.00  0.00     0.124 A 
ATOM      2  C1  UNL d   1      -0.690   1.859  -0.213  0.00  0.00     0.062 A 
ATOM      3  C2  UNL d   1       0.042   0.753  -0.634  0.00  0.00     0.162 A 
ATOM      4  C3  UNL d   1       0.829   0.044   0.274  0.00  0.00    -0.034 A 
ATOM      5  C4  UNL d   1       0.874   0.459   1.606  0.00  0.00     0.162 A 
ATOM      6  C5  UNL d   1       0.140   1.565   2.021  0.00  0.00     0.062 A 
ATOM      7  F   UNL d   1       0.188   1.956   3.303  0.00  0.00    -0.097 F 
ATOM      8  F1  UNL d   1       1.620  -0.200   2.505  0.00  0.00    -0.096 F 
ATOM      9  I   UNL d   1       1.926  -1.611  -0.351  0.00  0.00    -0.060 I 
ATOM     10  F2  UNL d   1      -0.023   0.383  -1.921  0.00  0.00    -0.096 F 
ATOM     11  F3  UNL d   1      -1.444   2.535  -1.093  0.00  0.00    -0.097 F 
ATOM     12  F4  UNL d   1      -1.347   3.331   1.515  0.00  0.00    -0.092 F 
ENDROOT
TORSDOF 0
ENDMDL
