MODEL 1
REMARK minimizedAffinity 16.823658
REMARK minimizedRMSD -1
REMARK  0 active torsions:
REMARK  status: ('A' for Active; 'I' for Inactive)
ROOT
ATOM      1  C   UNL d   1      -2.183  -1.276  -1.323  0.00  0.00     0.124 A 
ATOM      2  C1  UNL d   1      -2.974  -0.137  -1.267  0.00  0.00     0.062 A 
ATOM      3  C2  UNL d   1      -2.385   1.119  -1.148  0.00  0.00     0.162 A 
ATOM      4  C3  UNL d   1      -0.997   1.242  -1.085  0.00  0.00    -0.034 A 
ATOM      5  C4  UNL d   1      -0.209   0.092  -1.141  0.00  0.00     0.162 A 
ATOM      6  C5  UNL d   1      -0.802  -1.161  -1.260  0.00  0.00     0.062 A 
ATOM      7  F   UNL d   1      -0.036  -2.260  -1.314  0.00  0.00    -0.097 F 
ATOM      8  F1  UNL d   1       1.129   0.175  -1.083  0.00  0.00    -0.096 F 
ATOM      9  I   UNL d   1      -0.113   3.118  -0.907  0.00  0.00    -0.060 I 
ATOM     10  F2  UNL d   1      -3.174   2.203  -1.097  0.00  0.00    -0.096 F 
ATOM     11  F3  UNL d   1      -4.309  -0.245  -1.327  0.00  0.00    -0.097 F 
ATOM     12  F4  UNL d   1      -2.752  -2.483  -1.437  0.00  0.00    -0.092 F 
ENDROOT
TORSDOF 0
ENDMDL
