MODEL 1
REMARK minimizedAffinity 2.11411881
REMARK minimizedRMSD -1
REMARK  1 active torsions:
REMARK  status: ('A' for Active; 'I' for Inactive)
REMARK    1  A    between atoms: C1_2  and  C2_3 
ROOT
ATOM      1  C2  UNL d   1      -1.225   1.427   0.919  0.00  0.00    -0.076 A 
ATOM      2  C3  UNL d   1      -1.810   2.365   0.050  0.00  0.00     0.004 A 
ATOM      3  C4  UNL d   1      -3.153   2.269  -0.309  0.00  0.00    -0.003 A 
ATOM      4  C5  UNL d   1      -3.933   1.234   0.194  0.00  0.00     0.000 A 
ATOM      5  C6  UNL d   1      -3.374   0.305   1.071  0.00  0.00     0.000 A 
ATOM      6  C7  UNL d   1      -2.025   0.396   1.456  0.00  0.00    -0.073 A 
ATOM      7  C8  UNL d   1      -1.472  -0.636   2.400  0.00  0.00     0.078 C 
ENDROOT
BRANCH   1   8
ATOM      8  C1  UNL d   1       0.244   1.566   1.252  0.00  0.00     0.053 C 
ATOM      9  C   UNL d   1       1.064   2.063   0.072  0.00  0.00     0.018 C 
ENDBRANCH   1   8
TORSDOF 1
ENDMDL
