MODEL 1
REMARK minimizedAffinity 1.95594835
REMARK minimizedRMSD -1
REMARK  1 active torsions:
REMARK  status: ('A' for Active; 'I' for Inactive)
REMARK    1  A    between atoms: C1_2  and  C2_3 
ROOT
ATOM      1  C2  UNL d   1      -1.905   1.601  -0.001  0.00  0.00    -0.076 A 
ATOM      2  C3  UNL d   1      -0.785   2.448  -0.069  0.00  0.00     0.004 A 
ATOM      3  C4  UNL d   1       0.409   2.110   0.565  0.00  0.00    -0.003 A 
ATOM      4  C5  UNL d   1       0.504   0.919   1.276  0.00  0.00     0.000 A 
ATOM      5  C6  UNL d   1      -0.592   0.058   1.340  0.00  0.00     0.000 A 
ATOM      6  C7  UNL d   1      -1.798   0.376   0.693  0.00  0.00    -0.073 A 
ATOM      7  C8  UNL d   1      -2.949  -0.586   0.799  0.00  0.00     0.078 C 
ENDROOT
BRANCH   1   8
ATOM      8  C1  UNL d   1      -3.182   2.032  -0.685  0.00  0.00     0.053 C 
ATOM      9  C   UNL d   1      -4.421   1.719   0.141  0.00  0.00     0.018 C 
ENDBRANCH   1   8
TORSDOF 1
ENDMDL
