MODEL 1
REMARK minimizedAffinity 2.67719364
REMARK minimizedRMSD -1
REMARK  1 active torsions:
REMARK  status: ('A' for Active; 'I' for Inactive)
REMARK    1  A    between atoms: C1_2  and  C2_3 
ROOT
ATOM      1  C2  UNL d   1      -0.881   1.784   0.963  0.00  0.00    -0.076 A 
ATOM      2  C3  UNL d   1      -1.727   2.459   0.066  0.00  0.00     0.004 A 
ATOM      3  C4  UNL d   1      -3.015   1.993  -0.194  0.00  0.00    -0.003 A 
ATOM      4  C5  UNL d   1      -3.478   0.846   0.440  0.00  0.00     0.000 A 
ATOM      5  C6  UNL d   1      -2.659   0.174   1.347  0.00  0.00     0.000 A 
ATOM      6  C7  UNL d   1      -1.364   0.639   1.632  0.00  0.00    -0.073 A 
ATOM      7  C8  UNL d   1      -0.521  -0.128   2.614  0.00  0.00     0.078 C 
ENDROOT
BRANCH   1   8
ATOM      8  C1  UNL d   1       0.515   2.321   1.185  0.00  0.00     0.053 C 
ATOM      9  C   UNL d   1       1.584   1.255   1.004  0.00  0.00     0.018 C 
ENDBRANCH   1   8
TORSDOF 1
ENDMDL
