MODEL 1
REMARK minimizedAffinity 4.47984934
REMARK minimizedRMSD -1
REMARK  1 active torsions:
REMARK  status: ('A' for Active; 'I' for Inactive)
REMARK    1  A    between atoms: C1_2  and  C2_3 
ROOT
ATOM      1  C2  UNL d   1      -2.062  -3.469   0.709  0.00  0.00    -0.076 A 
ATOM      2  C3  UNL d   1      -2.320  -2.104   0.927  0.00  0.00     0.004 A 
ATOM      3  C4  UNL d   1      -1.962  -1.490   2.126  0.00  0.00    -0.003 A 
ATOM      4  C5  UNL d   1      -1.340  -2.230   3.126  0.00  0.00     0.000 A 
ATOM      5  C6  UNL d   1      -1.060  -3.580   2.919  0.00  0.00     0.000 A 
ATOM      6  C7  UNL d   1      -1.400  -4.211   1.710  0.00  0.00    -0.073 A 
ATOM      7  C8  UNL d   1      -1.080  -5.671   1.543  0.00  0.00     0.078 C 
ENDROOT
BRANCH   1   8
ATOM      8  C1  UNL d   1      -2.497  -4.087  -0.601  0.00  0.00     0.053 C 
ATOM      9  C   UNL d   1      -1.653  -3.619  -1.776  0.00  0.00     0.018 C 
ENDBRANCH   1   8
TORSDOF 1
ENDMDL
