MODEL 1
REMARK minimizedAffinity 9.16021347
REMARK minimizedRMSD -1
REMARK  1 active torsions:
REMARK  status: ('A' for Active; 'I' for Inactive)
REMARK    1  A    between atoms: C1_2  and  C2_3 
ROOT
ATOM      1  C2  UNL d   1       0.864   1.288   1.123  0.00  0.00    -0.076 A 
ATOM      2  C3  UNL d   1      -0.512   1.324   1.407  0.00  0.00     0.004 A 
ATOM      3  C4  UNL d   1      -1.034   2.246   2.312  0.00  0.00    -0.003 A 
ATOM      4  C5  UNL d   1      -0.188   3.149   2.947  0.00  0.00     0.000 A 
ATOM      5  C6  UNL d   1       1.177   3.139   2.665  0.00  0.00     0.000 A 
ATOM      6  C7  UNL d   1       1.717   2.226   1.743  0.00  0.00    -0.073 A 
ATOM      7  C8  UNL d   1       3.198   2.256   1.480  0.00  0.00     0.078 C 
ENDROOT
BRANCH   1   8
ATOM      8  C1  UNL d   1       1.377   0.247   0.154  0.00  0.00     0.053 C 
ATOM      9  C   UNL d   1       1.661   0.825  -1.224  0.00  0.00     0.018 C 
ENDBRANCH   1   8
TORSDOF 1
ENDMDL
