MODEL 1
REMARK minimizedAffinity 4.42137909
REMARK minimizedRMSD -1
REMARK  1 active torsions:
REMARK  status: ('A' for Active; 'I' for Inactive)
REMARK    1  A    between atoms: C1_2  and  C2_3 
ROOT
ATOM      1  C2  UNL d   1       0.807   2.501   1.409  0.00  0.00    -0.076 A 
ATOM      2  C3  UNL d   1      -0.103   1.787   2.208  0.00  0.00     0.004 A 
ATOM      3  C4  UNL d   1      -0.547   2.302   3.425  0.00  0.00    -0.003 A 
ATOM      4  C5  UNL d   1      -0.087   3.539   3.863  0.00  0.00     0.000 A 
ATOM      5  C6  UNL d   1       0.802   4.269   3.075  0.00  0.00     0.000 A 
ATOM      6  C7  UNL d   1       1.246   3.772   1.838  0.00  0.00    -0.073 A 
ATOM      7  C8  UNL d   1       2.210   4.599   1.032  0.00  0.00     0.078 C 
ENDROOT
BRANCH   1   8
ATOM      8  C1  UNL d   1       1.273   1.881   0.111  0.00  0.00     0.053 C 
ATOM      9  C   UNL d   1       1.904   0.512   0.313  0.00  0.00     0.018 C 
ENDBRANCH   1   8
TORSDOF 1
ENDMDL
