MODEL 1
REMARK minimizedAffinity 2.60592222
REMARK minimizedRMSD -1
REMARK  1 active torsions:
REMARK  status: ('A' for Active; 'I' for Inactive)
REMARK    1  A    between atoms: C1_2  and  C2_3 
ROOT
ATOM      1  C2  UNL d   1       2.037   4.992   2.985  0.00  0.00    -0.076 A 
ATOM      2  C3  UNL d   1       1.486   4.017   3.835  0.00  0.00     0.004 A 
ATOM      3  C4  UNL d   1       0.572   3.080   3.355  0.00  0.00    -0.003 A 
ATOM      4  C5  UNL d   1       0.195   3.102   2.017  0.00  0.00     0.000 A 
ATOM      5  C6  UNL d   1       0.745   4.051   1.155  0.00  0.00     0.000 A 
ATOM      6  C7  UNL d   1       1.680   4.993   1.620  0.00  0.00    -0.073 A 
ATOM      7  C8  UNL d   1       2.236   5.997   0.648  0.00  0.00     0.078 C 
ENDROOT
BRANCH   1   8
ATOM      8  C1  UNL d   1       3.002   5.999   3.568  0.00  0.00     0.053 C 
ATOM      9  C   UNL d   1       4.347   5.996   2.859  0.00  0.00     0.018 C 
ENDBRANCH   1   8
TORSDOF 1
ENDMDL
