MODEL 1
REMARK minimizedAffinity -2.84008408
REMARK minimizedRMSD -1
REMARK  1 active torsions:
REMARK  status: ('A' for Active; 'I' for Inactive)
REMARK    1  A    between atoms: C1_2  and  C2_3 
ROOT
ATOM      1  C2  UNL d   1      -0.531   1.169   1.008  0.00  0.00    -0.076 A 
ATOM      2  C3  UNL d   1      -1.234   1.812   2.041  0.00  0.00     0.004 A 
ATOM      3  C4  UNL d   1      -0.558   2.441   3.085  0.00  0.00    -0.003 A 
ATOM      4  C5  UNL d   1       0.832   2.437   3.113  0.00  0.00     0.000 A 
ATOM      5  C6  UNL d   1       1.546   1.819   2.087  0.00  0.00     0.000 A 
ATOM      6  C7  UNL d   1       0.880   1.194   1.018  0.00  0.00    -0.073 A 
ATOM      7  C8  UNL d   1       1.700   0.537  -0.058  0.00  0.00     0.078 C 
ENDROOT
BRANCH   1   8
ATOM      8  C1  UNL d   1      -1.318   0.480  -0.084  0.00  0.00     0.053 C 
ATOM      9  C   UNL d   1      -2.697   0.039   0.381  0.00  0.00     0.018 C 
ENDBRANCH   1   8
TORSDOF 1
ENDMDL
