MODEL 1
REMARK minimizedAffinity 5.53744888
REMARK minimizedRMSD -1
REMARK  1 active torsions:
REMARK  status: ('A' for Active; 'I' for Inactive)
REMARK    1  A    between atoms: C1_2  and  C2_3 
ROOT
ATOM      1  C2  UNL d   1      -0.274  -5.967   2.817  0.00  0.00    -0.076 A 
ATOM      2  C3  UNL d   1      -0.916  -5.935   4.067  0.00  0.00     0.004 A 
ATOM      3  C4  UNL d   1      -0.181  -5.944   5.252  0.00  0.00    -0.003 A 
ATOM      4  C5  UNL d   1       1.208  -5.985   5.205  0.00  0.00     0.000 A 
ATOM      5  C6  UNL d   1       1.862  -6.000   3.973  0.00  0.00     0.000 A 
ATOM      6  C7  UNL d   1       1.136  -5.975   2.770  0.00  0.00    -0.073 A 
ATOM      7  C8  UNL d   1       1.893  -5.998   1.470  0.00  0.00     0.078 C 
ENDROOT
BRANCH   1   8
ATOM      8  C1  UNL d   1      -1.124  -5.983   1.567  0.00  0.00     0.053 C 
ATOM      9  C   UNL d   1      -2.613  -5.998   1.875  0.00  0.00     0.018 C 
ENDBRANCH   1   8
TORSDOF 1
ENDMDL
