MODEL 1
REMARK minimizedAffinity 0.360814661
REMARK minimizedRMSD -1
REMARK  1 active torsions:
REMARK  status: ('A' for Active; 'I' for Inactive)
REMARK    1  A    between atoms: C1_2  and  C2_3 
ROOT
ATOM      1  C2  UNL d   1       1.666   1.355   1.206  0.00  0.00    -0.076 A 
ATOM      2  C3  UNL d   1       0.334   1.475   1.639  0.00  0.00     0.004 A 
ATOM      3  C4  UNL d   1      -0.010   2.352   2.666  0.00  0.00    -0.003 A 
ATOM      4  C5  UNL d   1       0.973   3.124   3.277  0.00  0.00     0.000 A 
ATOM      5  C6  UNL d   1       2.296   3.030   2.848  0.00  0.00     0.000 A 
ATOM      6  C7  UNL d   1       2.657   2.163   1.803  0.00  0.00    -0.073 A 
ATOM      7  C8  UNL d   1       4.101   2.098   1.385  0.00  0.00     0.078 C 
ENDROOT
BRANCH   1   8
ATOM      8  C1  UNL d   1       1.984   0.367   0.106  0.00  0.00     0.053 C 
ATOM      9  C   UNL d   1       1.938   1.000  -1.276  0.00  0.00     0.018 C 
ENDBRANCH   1   8
TORSDOF 1
ENDMDL
