MODEL 1
REMARK minimizedAffinity 2.81386304
REMARK minimizedRMSD -1
REMARK  1 active torsions:
REMARK  status: ('A' for Active; 'I' for Inactive)
REMARK    1  A    between atoms: C1_2  and  C2_3 
ROOT
ATOM      1  C2  UNL d   1       1.087   1.505   0.461  0.00  0.00    -0.076 A 
ATOM      2  C3  UNL d   1       2.007   2.038   1.382  0.00  0.00     0.004 A 
ATOM      3  C4  UNL d   1       1.573   2.642   2.560  0.00  0.00    -0.003 A 
ATOM      4  C5  UNL d   1       0.213   2.723   2.838  0.00  0.00     0.000 A 
ATOM      5  C6  UNL d   1      -0.712   2.184   1.945  0.00  0.00     0.000 A 
ATOM      6  C7  UNL d   1      -0.291   1.557   0.759  0.00  0.00    -0.073 A 
ATOM      7  C8  UNL d   1      -1.333   0.999  -0.171  0.00  0.00     0.078 C 
ENDROOT
BRANCH   1   8
ATOM      8  C1  UNL d   1       1.615   0.886  -0.814  0.00  0.00     0.053 C 
ATOM      9  C   UNL d   1       1.683   1.882  -1.961  0.00  0.00     0.018 C 
ENDBRANCH   1   8
TORSDOF 1
ENDMDL
