MODEL 1
REMARK minimizedAffinity -5.75678539
REMARK minimizedRMSD -1
REMARK  0 active torsions:
REMARK  status: ('A' for Active; 'I' for Inactive)
ROOT
ATOM      1  C1  DEN d   1       0.131  -0.944  -0.281  0.00  0.00     0.130 A 
ATOM      2  C2  DEN d   1       0.139  -0.418  -1.644  0.00  0.00    -0.031 A 
ATOM      3  C3  DEN d   1      -0.183   1.022  -1.580  0.00  0.00     0.027 A 
ATOM      4  C4  DEN d   1      -0.685   2.482   0.487  0.00  0.00     0.027 A 
ATOM      5  C5  DEN d   1      -0.819   2.478   1.857  0.00  0.00    -0.003 A 
ATOM      6  C6  DEN d   1      -0.681   1.337   2.602  0.00  0.00     0.001 A 
ATOM      7  C7  DEN d   1      -0.355   0.159   1.984  0.00  0.00     0.017 A 
ATOM      8  C8  DEN d   1      -0.225   0.153   0.601  0.00  0.00    -0.094 A 
ATOM      9  C9  DEN d   1      -0.357   1.319  -0.132  0.00  0.00    -0.072 A 
ENDROOT
TORSDOF 0
ENDMDL
