MODEL 1
REMARK minimizedAffinity -2.43646479
REMARK minimizedRMSD -1
REMARK  0 active torsions:
REMARK  status: ('A' for Active; 'I' for Inactive)
ROOT
ATOM      1  C1  DEN d   1       0.277   0.111  -1.622  0.00  0.00     0.130 A 
ATOM      2  C2  DEN d   1      -0.016   1.365  -2.312  0.00  0.00    -0.031 A 
ATOM      3  C3  DEN d   1      -0.132   2.429  -1.295  0.00  0.00     0.027 A 
ATOM      4  C4  DEN d   1       0.118   2.261   1.266  0.00  0.00     0.027 A 
ATOM      5  C5  DEN d   1       0.356   1.402   2.317  0.00  0.00    -0.003 A 
ATOM      6  C6  DEN d   1       0.549   0.059   2.133  0.00  0.00     0.001 A 
ATOM      7  C7  DEN d   1       0.553  -0.459   0.864  0.00  0.00     0.017 A 
ATOM      8  C8  DEN d   1       0.306   0.399  -0.199  0.00  0.00    -0.094 A 
ATOM      9  C9  DEN d   1       0.125   1.756   0.006  0.00  0.00    -0.072 A 
ENDROOT
TORSDOF 0
ENDMDL
