MODEL 1
REMARK minimizedAffinity -5.79533768
REMARK minimizedRMSD -1
REMARK  0 active torsions:
REMARK  status: ('A' for Active; 'I' for Inactive)
ROOT
ATOM      1  C1  DEN d   1      -0.856   0.208   0.318  0.00  0.00     0.130 A 
ATOM      2  C2  DEN d   1      -0.006  -0.809   0.931  0.00  0.00    -0.031 A 
ATOM      3  C3  DEN d   1       0.896  -0.134   1.886  0.00  0.00     0.027 A 
ATOM      4  C4  DEN d   1       1.054   2.372   2.476  0.00  0.00     0.027 A 
ATOM      5  C5  DEN d   1       0.545   3.623   2.206  0.00  0.00    -0.003 A 
ATOM      6  C6  DEN d   1      -0.435   3.826   1.271  0.00  0.00     0.001 A 
ATOM      7  C7  DEN d   1      -0.969   2.755   0.604  0.00  0.00     0.017 A 
ATOM      8  C8  DEN d   1      -0.456   1.492   0.865  0.00  0.00    -0.094 A 
ATOM      9  C9  DEN d   1       0.526   1.305   1.823  0.00  0.00    -0.072 A 
ENDROOT
TORSDOF 0
ENDMDL
