MODEL 1
REMARK minimizedAffinity -3.13771629
REMARK minimizedRMSD -1
REMARK  0 active torsions:
REMARK  status: ('A' for Active; 'I' for Inactive)
ROOT
ATOM      1  C1  DEN d   1      -1.032   1.032   1.426  0.00  0.00     0.130 A 
ATOM      2  C2  DEN d   1      -0.475  -0.100   2.162  0.00  0.00    -0.031 A 
ATOM      3  C3  DEN d   1       0.808   0.328   2.755  0.00  0.00     0.027 A 
ATOM      4  C4  DEN d   1       1.978   2.622   2.610  0.00  0.00     0.027 A 
ATOM      5  C5  DEN d   1       1.895   3.893   2.087  0.00  0.00    -0.003 A 
ATOM      6  C6  DEN d   1       0.856   4.286   1.285  0.00  0.00     0.001 A 
ATOM      7  C7  DEN d   1      -0.165   3.413   1.020  0.00  0.00     0.017 A 
ATOM      8  C8  DEN d   1      -0.085   2.127   1.539  0.00  0.00    -0.094 A 
ATOM      9  C9  DEN d   1       0.967   1.752   2.357  0.00  0.00    -0.072 A 
ENDROOT
TORSDOF 0
ENDMDL
