MODEL 1
REMARK minimizedAffinity -6.11495876
REMARK minimizedRMSD -1
REMARK  0 active torsions:
REMARK  status: ('A' for Active; 'I' for Inactive)
ROOT
ATOM      1  C1  DEN d   1       0.932  -0.368   1.439  0.00  0.00     0.130 A 
ATOM      2  C2  DEN d   1       0.598  -1.266   0.337  0.00  0.00    -0.031 A 
ATOM      3  C3  DEN d   1      -0.429  -0.607  -0.494  0.00  0.00     0.027 A 
ATOM      4  C4  DEN d   1      -1.527   1.706  -0.185  0.00  0.00     0.027 A 
ATOM      5  C5  DEN d   1      -1.576   2.828   0.613  0.00  0.00    -0.003 A 
ATOM      6  C6  DEN d   1      -0.823   2.948   1.751  0.00  0.00     0.001 A 
ATOM      7  C7  DEN d   1       0.045   1.947   2.099  0.00  0.00     0.017 A 
ATOM      8  C8  DEN d   1       0.094   0.810   1.304  0.00  0.00    -0.094 A 
ATOM      9  C9  DEN d   1      -0.666   0.712   0.151  0.00  0.00    -0.072 A 
ENDROOT
TORSDOF 0
ENDMDL
