MODEL 1
REMARK minimizedAffinity -4.03542757
REMARK minimizedRMSD -1
REMARK  0 active torsions:
REMARK  status: ('A' for Active; 'I' for Inactive)
ROOT
ATOM      1  C1  DEN d   1      -1.441   2.301  -0.552  0.00  0.00     0.130 A 
ATOM      2  C2  DEN d   1      -1.193   1.666  -1.843  0.00  0.00    -0.031 A 
ATOM      3  C3  DEN d   1      -0.246   0.553  -1.630  0.00  0.00     0.027 A 
ATOM      4  C4  DEN d   1       0.849  -0.248   0.563  0.00  0.00     0.027 A 
ATOM      5  C5  DEN d   1       0.953  -0.015   1.916  0.00  0.00    -0.003 A 
ATOM      6  C6  DEN d   1       0.299   1.019   2.531  0.00  0.00     0.001 A 
ATOM      7  C7  DEN d   1      -0.526   1.832   1.799  0.00  0.00     0.017 A 
ATOM      8  C8  DEN d   1      -0.630   1.607   0.432  0.00  0.00    -0.094 A 
ATOM      9  C9  DEN d   1       0.030   0.549  -0.169  0.00  0.00    -0.072 A 
ENDROOT
TORSDOF 0
ENDMDL
