MODEL 1
REMARK minimizedAffinity -2.71563911
REMARK minimizedRMSD -1
REMARK  0 active torsions:
REMARK  status: ('A' for Active; 'I' for Inactive)
ROOT
ATOM      1  C1  DEN d   1      -0.740  -0.663  -1.188  0.00  0.00     0.130 A 
ATOM      2  C2  DEN d   1      -0.051  -1.944  -1.058  0.00  0.00    -0.031 A 
ATOM      3  C3  DEN d   1       0.635  -1.962   0.250  0.00  0.00     0.027 A 
ATOM      4  C4  DEN d   1       0.693  -0.144   2.078  0.00  0.00     0.027 A 
ATOM      5  C5  DEN d   1       0.268   1.122   2.416  0.00  0.00    -0.003 A 
ATOM      6  C6  DEN d   1      -0.489   1.888   1.570  0.00  0.00     0.001 A 
ATOM      7  C7  DEN d   1      -0.881   1.378   0.361  0.00  0.00     0.017 A 
ATOM      8  C8  DEN d   1      -0.450   0.106   0.009  0.00  0.00    -0.094 A 
ATOM      9  C9  DEN d   1       0.304  -0.658   0.884  0.00  0.00    -0.072 A 
ENDROOT
TORSDOF 0
ENDMDL
