MODEL 1
REMARK minimizedAffinity 2.66487217
REMARK minimizedRMSD -1
REMARK  2 active torsions:
REMARK  status: ('A' for Active; 'I' for Inactive)
REMARK    1  A    between atoms: C1_2  and  C2_3 
REMARK    2  A    between atoms: C2_3  and  C3_4 
ROOT
ATOM      1  C3  UNL d   1       3.432   1.599  -0.905  0.00  0.00    -0.075 A 
ATOM      2  C4  UNL d   1       2.538   0.959  -1.776  0.00  0.00     0.002 A 
ATOM      3  C5  UNL d   1       2.838   0.835  -3.132  0.00  0.00     0.002 A 
ATOM      4  C6  UNL d   1       4.027   1.357  -3.637  0.00  0.00    -0.004 A 
ATOM      5  C7  UNL d   1       4.914   2.009  -2.784  0.00  0.00     0.002 A 
ATOM      6  C8  UNL d   1       4.619   2.131  -1.425  0.00  0.00     0.002 A 
ENDROOT
BRANCH   1   7
ATOM      7  C2  UNL d   1       3.127   1.710   0.570  0.00  0.00     0.056 C 
BRANCH   7   8
ATOM      8  C1  UNL d   1       4.287   1.292   1.480  0.00  0.00     0.007 C 
ATOM      9  C   UNL d   1       4.427  -0.218   1.617  0.00  0.00     0.009 C 
ENDBRANCH   7   8
ENDBRANCH   1   7
TORSDOF 2
ENDMDL
