MODEL 1
REMARK minimizedAffinity 1.1481446
REMARK minimizedRMSD -1
REMARK  2 active torsions:
REMARK  status: ('A' for Active; 'I' for Inactive)
REMARK    1  A    between atoms: C1_2  and  C2_3 
REMARK    2  A    between atoms: C2_3  and  C3_4 
ROOT
ATOM      1  C3  UNL d   1      -0.303  -1.426   1.037  0.00  0.00    -0.075 A 
ATOM      2  C4  UNL d   1      -1.361  -1.942   0.274  0.00  0.00     0.002 A 
ATOM      3  C5  UNL d   1      -2.537  -1.210   0.107  0.00  0.00     0.002 A 
ATOM      4  C6  UNL d   1      -2.675   0.039   0.708  0.00  0.00    -0.004 A 
ATOM      5  C7  UNL d   1      -1.637   0.554   1.482  0.00  0.00     0.002 A 
ATOM      6  C8  UNL d   1      -0.458  -0.174   1.646  0.00  0.00     0.002 A 
ENDROOT
BRANCH   1   7
ATOM      7  C2  UNL d   1       0.983  -2.200   1.196  0.00  0.00     0.056 C 
BRANCH   7   8
ATOM      8  C1  UNL d   1       1.866  -2.208  -0.056  0.00  0.00     0.007 C 
ATOM      9  C   UNL d   1       2.875  -1.068  -0.087  0.00  0.00     0.009 C 
ENDBRANCH   7   8
ENDBRANCH   1   7
TORSDOF 2
ENDMDL
