MODEL 1
REMARK minimizedAffinity 0.0640125424
REMARK minimizedRMSD -1
REMARK  2 active torsions:
REMARK  status: ('A' for Active; 'I' for Inactive)
REMARK    1  A    between atoms: C1_2  and  C2_3 
REMARK    2  A    between atoms: C2_3  and  C3_4 
ROOT
ATOM      1  C3  UNL d   1       4.568   2.682   0.995  0.00  0.00    -0.075 A 
ATOM      2  C4  UNL d   1       4.051   2.864   2.286  0.00  0.00     0.002 A 
ATOM      3  C5  UNL d   1       4.195   4.087   2.941  0.00  0.00     0.002 A 
ATOM      4  C6  UNL d   1       4.865   5.139   2.320  0.00  0.00    -0.004 A 
ATOM      5  C7  UNL d   1       5.397   4.965   1.044  0.00  0.00     0.002 A 
ATOM      6  C8  UNL d   1       5.250   3.743   0.385  0.00  0.00     0.002 A 
ENDROOT
BRANCH   1   7
ATOM      7  C2  UNL d   1       4.390   1.370   0.269  0.00  0.00     0.056 C 
BRANCH   7   8
ATOM      8  C1  UNL d   1       3.585   0.328   1.053  0.00  0.00     0.007 C 
ATOM      9  C   UNL d   1       3.903  -1.105   0.647  0.00  0.00     0.009 C 
ENDBRANCH   7   8
ENDBRANCH   1   7
TORSDOF 2
ENDMDL
