MODEL 1
REMARK minimizedAffinity 6.00687122
REMARK minimizedRMSD -1
REMARK  2 active torsions:
REMARK  status: ('A' for Active; 'I' for Inactive)
REMARK    1  A    between atoms: C1_2  and  C2_3 
REMARK    2  A    between atoms: C2_3  and  C3_4 
ROOT
ATOM      1  C3  UNL d   1       0.404  -1.987   0.947  0.00  0.00    -0.075 A 
ATOM      2  C4  UNL d   1       0.137  -0.620   1.108  0.00  0.00     0.002 A 
ATOM      3  C5  UNL d   1      -1.096  -0.089   0.726  0.00  0.00     0.002 A 
ATOM      4  C6  UNL d   1      -2.071  -0.914   0.171  0.00  0.00    -0.004 A 
ATOM      5  C7  UNL d   1      -1.811  -2.271  -0.009  0.00  0.00     0.002 A 
ATOM      6  C8  UNL d   1      -0.580  -2.806   0.377  0.00  0.00     0.002 A 
ENDROOT
BRANCH   1   7
ATOM      7  C2  UNL d   1       1.725  -2.573   1.386  0.00  0.00     0.056 C 
BRANCH   7   8
ATOM      8  C1  UNL d   1       2.905  -2.192   0.487  0.00  0.00     0.007 C 
ATOM      9  C   UNL d   1       3.632  -3.398  -0.093  0.00  0.00     0.009 C 
ENDBRANCH   7   8
ENDBRANCH   1   7
TORSDOF 2
ENDMDL
