MODEL 1
REMARK minimizedAffinity 8.95818329
REMARK minimizedRMSD -1
REMARK  2 active torsions:
REMARK  status: ('A' for Active; 'I' for Inactive)
REMARK    1  A    between atoms: C1_2  and  C2_3 
REMARK    2  A    between atoms: C2_3  and  C3_4 
ROOT
ATOM      1  C3  UNL d   1      -0.570  -1.422   1.652  0.00  0.00    -0.075 A 
ATOM      2  C4  UNL d   1      -1.102  -2.367   0.763  0.00  0.00     0.002 A 
ATOM      3  C5  UNL d   1      -2.401  -2.227   0.274  0.00  0.00     0.002 A 
ATOM      4  C6  UNL d   1      -3.187  -1.148   0.674  0.00  0.00    -0.004 A 
ATOM      5  C7  UNL d   1      -2.674  -0.212   1.569  0.00  0.00     0.002 A 
ATOM      6  C8  UNL d   1      -1.373  -0.348   2.057  0.00  0.00     0.002 A 
ENDROOT
BRANCH   1   7
ATOM      7  C2  UNL d   1       0.845  -1.553   2.162  0.00  0.00     0.056 C 
BRANCH   7   8
ATOM      8  C1  UNL d   1       0.943  -1.824   3.667  0.00  0.00     0.007 C 
ATOM      9  C   UNL d   1       2.055  -2.798   4.031  0.00  0.00     0.009 C 
ENDBRANCH   7   8
ENDBRANCH   1   7
TORSDOF 2
ENDMDL
