MODEL 1
REMARK minimizedAffinity 8.10444927
REMARK minimizedRMSD -1
REMARK  2 active torsions:
REMARK  status: ('A' for Active; 'I' for Inactive)
REMARK    1  A    between atoms: C1_2  and  C2_3 
REMARK    2  A    between atoms: C2_3  and  C3_4 
ROOT
ATOM      1  C3  UNL d   1      -0.426  -1.105   1.204  0.00  0.00    -0.075 A 
ATOM      2  C4  UNL d   1      -0.529   0.246   1.567  0.00  0.00     0.002 A 
ATOM      3  C5  UNL d   1      -1.697   0.963   1.305  0.00  0.00     0.002 A 
ATOM      4  C6  UNL d   1      -2.770   0.343   0.669  0.00  0.00    -0.004 A 
ATOM      5  C7  UNL d   1      -2.672  -0.994   0.289  0.00  0.00     0.002 A 
ATOM      6  C8  UNL d   1      -1.507  -1.715   0.554  0.00  0.00     0.002 A 
ENDROOT
BRANCH   1   7
ATOM      7  C2  UNL d   1       0.825  -1.894   1.512  0.00  0.00     0.056 C 
BRANCH   7   8
ATOM      8  C1  UNL d   1       0.748  -2.701   2.812  0.00  0.00     0.007 C 
ATOM      9  C   UNL d   1       0.771  -1.831   4.062  0.00  0.00     0.009 C 
ENDBRANCH   7   8
ENDBRANCH   1   7
TORSDOF 2
ENDMDL
