MODEL 1
REMARK minimizedAffinity 1.18377078
REMARK minimizedRMSD -1
REMARK  2 active torsions:
REMARK  status: ('A' for Active; 'I' for Inactive)
REMARK    1  A    between atoms: C1_2  and  C2_3 
REMARK    2  A    between atoms: C2_3  and  C3_4 
ROOT
ATOM      1  C3  UNL d   1      -4.944  -2.297  -4.831  0.00  0.00    -0.075 A 
ATOM      2  C4  UNL d   1      -4.100  -3.213  -4.187  0.00  0.00     0.002 A 
ATOM      3  C5  UNL d   1      -4.197  -4.578  -4.458  0.00  0.00     0.002 A 
ATOM      4  C6  UNL d   1      -5.145  -5.044  -5.367  0.00  0.00    -0.004 A 
ATOM      5  C7  UNL d   1      -6.000  -4.145  -6.000  0.00  0.00     0.002 A 
ATOM      6  C8  UNL d   1      -5.901  -2.778  -5.734  0.00  0.00     0.002 A 
ENDROOT
BRANCH   1   7
ATOM      7  C2  UNL d   1      -4.824  -0.815  -4.564  0.00  0.00     0.056 C 
BRANCH   7   8
ATOM      8  C1  UNL d   1      -5.943  -0.247  -3.685  0.00  0.00     0.007 C 
ATOM      9  C   UNL d   1      -5.428   0.627  -2.549  0.00  0.00     0.009 C 
ENDBRANCH   7   8
ENDBRANCH   1   7
TORSDOF 2
ENDMDL
