MODEL 1
REMARK minimizedAffinity -2.14605188
REMARK minimizedRMSD -1
REMARK  2 active torsions:
REMARK  status: ('A' for Active; 'I' for Inactive)
REMARK    1  A    between atoms: C1_2  and  C2_3 
REMARK    2  A    between atoms: C2_3  and  C3_4 
ROOT
ATOM      1  C3  UNL d   1       2.276   0.911   0.010  0.00  0.00    -0.075 A 
ATOM      2  C4  UNL d   1       1.457   2.045  -0.083  0.00  0.00     0.002 A 
ATOM      3  C5  UNL d   1       0.079   1.942   0.109  0.00  0.00     0.002 A 
ATOM      4  C6  UNL d   1      -0.498   0.704   0.386  0.00  0.00    -0.004 A 
ATOM      5  C7  UNL d   1       0.304  -0.432   0.465  0.00  0.00     0.002 A 
ATOM      6  C8  UNL d   1       1.684  -0.331   0.277  0.00  0.00     0.002 A 
ENDROOT
BRANCH   1   7
ATOM      7  C2  UNL d   1       3.771   1.022  -0.168  0.00  0.00     0.056 C 
BRANCH   7   8
ATOM      8  C1  UNL d   1       4.195   1.849  -1.386  0.00  0.00     0.007 C 
ATOM      9  C   UNL d   1       5.689   2.144  -1.421  0.00  0.00     0.009 C 
ENDBRANCH   7   8
ENDBRANCH   1   7
TORSDOF 2
ENDMDL
