MODEL 1
REMARK minimizedAffinity 6.41169071
REMARK minimizedRMSD -1
REMARK  2 active torsions:
REMARK  status: ('A' for Active; 'I' for Inactive)
REMARK    1  A    between atoms: C1_2  and  C2_3 
REMARK    2  A    between atoms: C2_3  and  C3_4 
ROOT
ATOM      1  C3  UNL d   1      -5.126  -1.586  -4.587  0.00  0.00    -0.075 A 
ATOM      2  C4  UNL d   1      -5.999  -0.720  -3.913  0.00  0.00     0.002 A 
ATOM      3  C5  UNL d   1      -5.502   0.250  -3.042  0.00  0.00     0.002 A 
ATOM      4  C6  UNL d   1      -4.130   0.360  -2.827  0.00  0.00    -0.004 A 
ATOM      5  C7  UNL d   1      -3.255  -0.505  -3.479  0.00  0.00     0.002 A 
ATOM      6  C8  UNL d   1      -3.749  -1.474  -4.354  0.00  0.00     0.002 A 
ENDROOT
BRANCH   1   7
ATOM      7  C2  UNL d   1      -5.656  -2.619  -5.553  0.00  0.00     0.056 C 
BRANCH   7   8
ATOM      8  C1  UNL d   1      -5.905  -3.993  -4.923  0.00  0.00     0.007 C 
ATOM      9  C   UNL d   1      -5.891  -5.130  -5.936  0.00  0.00     0.009 C 
ENDBRANCH   7   8
ENDBRANCH   1   7
TORSDOF 2
ENDMDL
