MODEL 1
REMARK minimizedAffinity 9.15975857
REMARK minimizedRMSD -1
REMARK  2 active torsions:
REMARK  status: ('A' for Active; 'I' for Inactive)
REMARK    1  A    between atoms: C1_2  and  C2_3 
REMARK    2  A    between atoms: C2_3  and  C3_4 
ROOT
ATOM      1  C3  UNL d   1       3.651  -2.163   0.148  0.00  0.00    -0.075 A 
ATOM      2  C4  UNL d   1       2.252  -2.129   0.057  0.00  0.00     0.002 A 
ATOM      3  C5  UNL d   1       1.563  -0.922   0.176  0.00  0.00     0.002 A 
ATOM      4  C6  UNL d   1       2.262   0.263   0.396  0.00  0.00    -0.004 A 
ATOM      5  C7  UNL d   1       3.651   0.239   0.504  0.00  0.00     0.002 A 
ATOM      6  C8  UNL d   1       4.342  -0.967   0.382  0.00  0.00     0.002 A 
ENDROOT
BRANCH   1   7
ATOM      7  C2  UNL d   1       4.404  -3.463  -0.009  0.00  0.00     0.056 C 
BRANCH   7   8
ATOM      8  C1  UNL d   1       3.519  -4.655  -0.387  0.00  0.00     0.007 C 
ATOM      9  C   UNL d   1       4.137  -5.999  -0.029  0.00  0.00     0.009 C 
ENDBRANCH   7   8
ENDBRANCH   1   7
TORSDOF 2
ENDMDL
