MODEL 1
REMARK minimizedAffinity 8.11471462
REMARK minimizedRMSD -1
REMARK  2 active torsions:
REMARK  status: ('A' for Active; 'I' for Inactive)
REMARK    1  A    between atoms: C1_2  and  C2_3 
REMARK    2  A    between atoms: C2_3  and  C3_4 
ROOT
ATOM      1  C3  UNL d   1      -0.157  -1.471   1.516  0.00  0.00    -0.075 A 
ATOM      2  C4  UNL d   1      -0.931  -2.430   0.846  0.00  0.00     0.002 A 
ATOM      3  C5  UNL d   1      -2.230  -2.130   0.434  0.00  0.00     0.002 A 
ATOM      4  C6  UNL d   1      -2.774  -0.874   0.694  0.00  0.00    -0.004 A 
ATOM      5  C7  UNL d   1      -2.020   0.081   1.374  0.00  0.00     0.002 A 
ATOM      6  C8  UNL d   1      -0.719  -0.216   1.783  0.00  0.00     0.002 A 
ENDROOT
BRANCH   1   7
ATOM      7  C2  UNL d   1       1.259  -1.780   1.938  0.00  0.00     0.056 C 
BRANCH   7   8
ATOM      8  C1  UNL d   1       2.280  -0.714   1.526  0.00  0.00     0.007 C 
ATOM      9  C   UNL d   1       3.212  -1.174   0.414  0.00  0.00     0.009 C 
ENDBRANCH   7   8
ENDBRANCH   1   7
TORSDOF 2
ENDMDL
