MODEL 1
REMARK minimizedAffinity 20.7227001
REMARK minimizedRMSD -1
REMARK  2 active torsions:
REMARK  status: ('A' for Active; 'I' for Inactive)
REMARK    1  A    between atoms: C1_2  and  C2_3 
REMARK    2  A    between atoms: C2_3  and  C3_4 
ROOT
ATOM      1  C3  UNL d   1       2.228   1.204   0.206  0.00  0.00    -0.075 A 
ATOM      2  C4  UNL d   1       3.546   1.515   0.571  0.00  0.00     0.002 A 
ATOM      3  C5  UNL d   1       4.469   0.500   0.823  0.00  0.00     0.002 A 
ATOM      4  C6  UNL d   1       4.085  -0.836   0.725  0.00  0.00    -0.004 A 
ATOM      5  C7  UNL d   1       2.774  -1.156   0.380  0.00  0.00     0.002 A 
ATOM      6  C8  UNL d   1       1.849  -0.143   0.122  0.00  0.00     0.002 A 
ENDROOT
BRANCH   1   7
ATOM      7  C2  UNL d   1       1.232   2.297  -0.098  0.00  0.00     0.056 C 
BRANCH   7   8
ATOM      8  C1  UNL d   1       1.506   3.045  -1.407  0.00  0.00     0.007 C 
ATOM      9  C   UNL d   1       0.387   4.001  -1.798  0.00  0.00     0.009 C 
ENDBRANCH   7   8
ENDBRANCH   1   7
TORSDOF 2
ENDMDL
