MODEL 1
REMARK minimizedAffinity 10.7680941
REMARK minimizedRMSD -1
REMARK  2 active torsions:
REMARK  status: ('A' for Active; 'I' for Inactive)
REMARK    1  A    between atoms: C1_2  and  C2_3 
REMARK    2  A    between atoms: C2_3  and  C3_4 
ROOT
ATOM      1  C3  UNL d   1      -0.589  -1.466   0.890  0.00  0.00    -0.075 A 
ATOM      2  C4  UNL d   1      -0.820  -0.212   1.474  0.00  0.00     0.002 A 
ATOM      3  C5  UNL d   1      -1.953   0.529   1.137  0.00  0.00     0.002 A 
ATOM      4  C6  UNL d   1      -2.863   0.032   0.206  0.00  0.00    -0.004 A 
ATOM      5  C7  UNL d   1      -2.635  -1.205  -0.393  0.00  0.00     0.002 A 
ATOM      6  C8  UNL d   1      -1.505  -1.951  -0.054  0.00  0.00     0.002 A 
ENDROOT
BRANCH   1   7
ATOM      7  C2  UNL d   1       0.619  -2.286   1.272  0.00  0.00     0.056 C 
BRANCH   7   8
ATOM      8  C1  UNL d   1       1.374  -1.752   2.494  0.00  0.00     0.007 C 
ATOM      9  C   UNL d   1       1.322  -2.693   3.690  0.00  0.00     0.009 C 
ENDBRANCH   7   8
ENDBRANCH   1   7
TORSDOF 2
ENDMDL
