MODEL 1
REMARK minimizedAffinity -2.02813244
REMARK minimizedRMSD -1
REMARK  1 active torsions:
REMARK  status: ('A' for Active; 'I' for Inactive)
REMARK    1  A    between atoms: C1_2  and  C2_3 
ROOT
ATOM      1  C2  UNL d   1       0.589   0.055   0.999  0.00  0.00    -0.076 A 
ATOM      2  C3  UNL d   1       1.592  -0.025   0.018  0.00  0.00     0.004 A 
ATOM      3  C4  UNL d   1       1.267  -0.099  -1.335  0.00  0.00    -0.003 A 
ATOM      4  C5  UNL d   1      -0.066  -0.092  -1.730  0.00  0.00     0.000 A 
ATOM      5  C6  UNL d   1      -1.074   0.005  -0.771  0.00  0.00     0.000 A 
ATOM      6  C7  UNL d   1      -0.763   0.096   0.597  0.00  0.00    -0.073 A 
ATOM      7  C8  UNL d   1      -1.890   0.193   1.589  0.00  0.00     0.078 C 
ENDROOT
BRANCH   1   8
ATOM      8  C1  UNL d   1       1.001   0.105   2.453  0.00  0.00     0.053 C 
ATOM      9  C   UNL d   1       0.807  -1.227   3.160  0.00  0.00     0.018 C 
ENDBRANCH   1   8
TORSDOF 1
ENDMDL
