MODEL 1
REMARK minimizedAffinity -4.3457036
REMARK minimizedRMSD -1
REMARK  1 active torsions:
REMARK  status: ('A' for Active; 'I' for Inactive)
REMARK    1  A    between atoms: C1_2  and  C2_3 
ROOT
ATOM      1  C2  UNL d   1       0.087  -0.110   0.014  0.00  0.00    -0.076 A 
ATOM      2  C3  UNL d   1       1.492  -0.128   0.046  0.00  0.00     0.004 A 
ATOM      3  C4  UNL d   1       2.179  -0.427   1.221  0.00  0.00    -0.003 A 
ATOM      4  C5  UNL d   1       1.472  -0.714   2.383  0.00  0.00     0.000 A 
ATOM      5  C6  UNL d   1       0.078  -0.718   2.365  0.00  0.00     0.000 A 
ATOM      6  C7  UNL d   1      -0.630  -0.434   1.185  0.00  0.00    -0.073 A 
ATOM      7  C8  UNL d   1      -2.134  -0.446   1.225  0.00  0.00     0.078 C 
ENDROOT
BRANCH   1   8
ATOM      8  C1  UNL d   1      -0.604   0.249  -1.283  0.00  0.00     0.053 C 
ATOM      9  C   UNL d   1      -0.206   1.625  -1.794  0.00  0.00     0.018 C 
ENDBRANCH   1   8
TORSDOF 1
ENDMDL
