MODEL 1
REMARK minimizedAffinity -5.66323996
REMARK minimizedRMSD -1
REMARK  1 active torsions:
REMARK  status: ('A' for Active; 'I' for Inactive)
REMARK    1  A    between atoms: C1_2  and  C2_3 
ROOT
ATOM      1  C2  UNL d   1       0.694  -0.521   0.125  0.00  0.00    -0.076 A 
ATOM      2  C3  UNL d   1       1.944  -1.149  -0.018  0.00  0.00     0.004 A 
ATOM      3  C4  UNL d   1       2.602  -1.696   1.082  0.00  0.00    -0.003 A 
ATOM      4  C5  UNL d   1       2.022  -1.624   2.343  0.00  0.00     0.000 A 
ATOM      5  C6  UNL d   1       0.775  -1.020   2.501  0.00  0.00     0.000 A 
ATOM      6  C7  UNL d   1       0.090  -0.478   1.400  0.00  0.00    -0.073 A 
ATOM      7  C8  UNL d   1      -1.249   0.167   1.629  0.00  0.00     0.078 C 
ENDROOT
BRANCH   1   8
ATOM      8  C1  UNL d   1       0.040   0.078  -1.099  0.00  0.00     0.053 C 
ATOM      9  C   UNL d   1      -0.382  -0.977  -2.109  0.00  0.00     0.018 C 
ENDBRANCH   1   8
TORSDOF 1
ENDMDL
