MODEL 1
REMARK minimizedAffinity -5.20742989
REMARK minimizedRMSD -1
REMARK  1 active torsions:
REMARK  status: ('A' for Active; 'I' for Inactive)
REMARK    1  A    between atoms: C1_2  and  C2_3 
ROOT
ATOM      1  C2  UNL d   1       0.492  -0.100   1.398  0.00  0.00    -0.076 A 
ATOM      2  C3  UNL d   1       1.483  -0.447   0.464  0.00  0.00     0.004 A 
ATOM      3  C4  UNL d   1       1.174  -0.596  -0.887  0.00  0.00    -0.003 A 
ATOM      4  C5  UNL d   1      -0.131  -0.399  -1.326  0.00  0.00     0.000 A 
ATOM      5  C6  UNL d   1      -1.123  -0.036  -0.416  0.00  0.00     0.000 A 
ATOM      6  C7  UNL d   1      -0.825   0.134   0.947  0.00  0.00    -0.073 A 
ATOM      7  C8  UNL d   1      -1.935   0.519   1.886  0.00  0.00     0.078 C 
ENDROOT
BRANCH   1   8
ATOM      8  C1  UNL d   1       0.880   0.021   2.855  0.00  0.00     0.053 C 
ATOM      9  C   UNL d   1       1.208   1.451   3.254  0.00  0.00     0.018 C 
ENDBRANCH   1   8
TORSDOF 1
ENDMDL
