MODEL 1
REMARK minimizedAffinity -3.13223314
REMARK minimizedRMSD -1
REMARK  1 active torsions:
REMARK  status: ('A' for Active; 'I' for Inactive)
REMARK    1  A    between atoms: C1_2  and  C2_3 
ROOT
ATOM      1  C2  UNL d   1      -5.020   3.372  -0.863  0.00  0.00    -0.076 A 
ATOM      2  C3  UNL d   1      -5.476   4.434  -0.063  0.00  0.00     0.004 A 
ATOM      3  C4  UNL d   1      -4.628   5.482   0.290  0.00  0.00    -0.003 A 
ATOM      4  C5  UNL d   1      -3.310   5.486  -0.151  0.00  0.00     0.000 A 
ATOM      5  C6  UNL d   1      -2.844   4.449  -0.959  0.00  0.00     0.000 A 
ATOM      6  C7  UNL d   1      -3.691   3.393  -1.338  0.00  0.00    -0.073 A 
ATOM      7  C8  UNL d   1      -3.135   2.299  -2.207  0.00  0.00     0.078 C 
ENDROOT
BRANCH   1   8
ATOM      8  C1  UNL d   1      -5.977   2.249  -1.191  0.00  0.00     0.053 C 
ATOM      9  C   UNL d   1      -5.997   1.168  -0.122  0.00  0.00     0.018 C 
ENDBRANCH   1   8
TORSDOF 1
ENDMDL
