MODEL 1
REMARK minimizedAffinity 5.70233011
REMARK minimizedRMSD -1
REMARK  1 active torsions:
REMARK  status: ('A' for Active; 'I' for Inactive)
REMARK    1  A    between atoms: C1_2  and  C2_3 
ROOT
ATOM      1  C2  UNL d   1      -2.397   0.000   1.327  0.00  0.00    -0.076 A 
ATOM      2  C3  UNL d   1      -1.828   1.228   0.946  0.00  0.00     0.004 A 
ATOM      3  C4  UNL d   1      -1.190   2.044   1.879  0.00  0.00    -0.003 A 
ATOM      4  C5  UNL d   1      -1.109   1.645   3.208  0.00  0.00     0.000 A 
ATOM      5  C6  UNL d   1      -1.652   0.422   3.601  0.00  0.00     0.000 A 
ATOM      6  C7  UNL d   1      -2.285  -0.420   2.670  0.00  0.00    -0.073 A 
ATOM      7  C8  UNL d   1      -2.858  -1.725   3.150  0.00  0.00     0.078 C 
ENDROOT
BRANCH   1   8
ATOM      8  C1  UNL d   1      -3.100  -0.829   0.277  0.00  0.00     0.053 C 
ATOM      9  C   UNL d   1      -3.765   0.025  -0.791  0.00  0.00     0.018 C 
ENDBRANCH   1   8
TORSDOF 1
ENDMDL
