MODEL 1
REMARK minimizedAffinity 5.82556391
REMARK minimizedRMSD -1
REMARK  1 active torsions:
REMARK  status: ('A' for Active; 'I' for Inactive)
REMARK    1  A    between atoms: C1_2  and  C2_3 
ROOT
ATOM      1  C2  UNL d   1      -1.095   0.212   2.753  0.00  0.00    -0.076 A 
ATOM      2  C3  UNL d   1      -0.859   1.338   1.946  0.00  0.00     0.004 A 
ATOM      3  C4  UNL d   1      -1.803   1.763   1.013  0.00  0.00    -0.003 A 
ATOM      4  C5  UNL d   1      -2.998   1.067   0.871  0.00  0.00     0.000 A 
ATOM      5  C6  UNL d   1      -3.257  -0.042   1.675  0.00  0.00     0.000 A 
ATOM      6  C7  UNL d   1      -2.323  -0.473   2.632  0.00  0.00    -0.073 A 
ATOM      7  C8  UNL d   1      -2.651  -1.680   3.468  0.00  0.00     0.078 C 
ENDROOT
BRANCH   1   8
ATOM      8  C1  UNL d   1      -0.023  -0.218   3.729  0.00  0.00     0.053 C 
ATOM      9  C   UNL d   1       1.301  -0.521   3.045  0.00  0.00     0.018 C 
ENDBRANCH   1   8
TORSDOF 1
ENDMDL
