MODEL 1
REMARK minimizedAffinity 10.9923601
REMARK minimizedRMSD -1
REMARK  1 active torsions:
REMARK  status: ('A' for Active; 'I' for Inactive)
REMARK    1  A    between atoms: C1_2  and  C2_3 
ROOT
ATOM      1  C2  UNL d   1      -1.282   0.061   2.430  0.00  0.00    -0.076 A 
ATOM      2  C3  UNL d   1      -1.510  -1.283   2.775  0.00  0.00     0.004 A 
ATOM      3  C4  UNL d   1      -2.794  -1.742   3.062  0.00  0.00    -0.003 A 
ATOM      4  C5  UNL d   1      -3.872  -0.865   3.009  0.00  0.00     0.000 A 
ATOM      5  C6  UNL d   1      -3.666   0.467   2.651  0.00  0.00     0.000 A 
ATOM      6  C7  UNL d   1      -2.380   0.943   2.342  0.00  0.00    -0.073 A 
ATOM      7  C8  UNL d   1      -2.216   2.390   1.969  0.00  0.00     0.078 C 
ENDROOT
BRANCH   1   8
ATOM      8  C1  UNL d   1       0.137   0.507   2.155  0.00  0.00     0.053 C 
ATOM      9  C   UNL d   1       0.461   0.535   0.670  0.00  0.00     0.018 C 
ENDBRANCH   1   8
TORSDOF 1
ENDMDL
