MODEL 1
REMARK minimizedAffinity 3.15135956
REMARK minimizedRMSD -1
REMARK  0 active torsions:
REMARK  status: ('A' for Active; 'I' for Inactive)
ROOT
ATOM      1  C   UNL d   1      -2.189  -2.076   2.584  0.00  0.00     0.077 C 
ATOM      2  C1  UNL d   1      -3.522  -1.713   1.998  0.00  0.00    -0.074 A 
ATOM      3  C2  UNL d   1      -4.703  -2.267   2.502  0.00  0.00    -0.005 A 
ATOM      4  C3  UNL d   1      -5.936  -1.913   1.954  0.00  0.00     0.006 A 
ATOM      5  C4  UNL d   1      -6.000  -1.003   0.898  0.00  0.00    -0.005 A 
ATOM      6  C5  UNL d   1      -4.829  -0.438   0.382  0.00  0.00    -0.074 A 
ATOM      7  C6  UNL d   1      -4.881   0.549  -0.746  0.00  0.00     0.077 C 
ATOM      8  C7  UNL d   1      -3.595  -0.794   0.943  0.00  0.00    -0.001 A 
ENDROOT
TORSDOF 0
ENDMDL
