MODEL 1
REMARK minimizedAffinity 8.26705551
REMARK minimizedRMSD -1
REMARK  0 active torsions:
REMARK  status: ('A' for Active; 'I' for Inactive)
ROOT
ATOM      1  C   UNL d   1      -2.367   1.823  -1.818  0.00  0.00     0.077 C 
ATOM      2  C1  UNL d   1      -1.103   2.596  -1.581  0.00  0.00    -0.074 A 
ATOM      3  C2  UNL d   1      -0.908   3.851  -2.165  0.00  0.00    -0.005 A 
ATOM      4  C3  UNL d   1       0.267   4.563  -1.928  0.00  0.00     0.006 A 
ATOM      5  C4  UNL d   1       1.259   4.027  -1.104  0.00  0.00    -0.005 A 
ATOM      6  C5  UNL d   1       1.081   2.774  -0.510  0.00  0.00    -0.074 A 
ATOM      7  C6  UNL d   1       2.132   2.188   0.385  0.00  0.00     0.077 C 
ATOM      8  C7  UNL d   1      -0.106   2.068  -0.748  0.00  0.00    -0.001 A 
ENDROOT
TORSDOF 0
ENDMDL
