MODEL 1
REMARK minimizedAffinity -2.30759168
REMARK minimizedRMSD -1
REMARK  0 active torsions:
REMARK  status: ('A' for Active; 'I' for Inactive)
ROOT
ATOM      1  C   UNL d   1       0.475   5.981  -1.938  0.00  0.00     0.077 C 
ATOM      2  C1  UNL d   1       0.657   4.861  -0.956  0.00  0.00    -0.074 A 
ATOM      3  C2  UNL d   1       1.547   4.982   0.115  0.00  0.00    -0.005 A 
ATOM      4  C3  UNL d   1       1.699   3.936   1.025  0.00  0.00     0.006 A 
ATOM      5  C4  UNL d   1       0.962   2.761   0.874  0.00  0.00    -0.005 A 
ATOM      6  C5  UNL d   1       0.066   2.622  -0.191  0.00  0.00    -0.074 A 
ATOM      7  C6  UNL d   1      -0.741   1.369  -0.363  0.00  0.00     0.077 C 
ATOM      8  C7  UNL d   1      -0.085   3.680  -1.098  0.00  0.00    -0.001 A 
ENDROOT
TORSDOF 0
ENDMDL
