MODEL 1
REMARK minimizedAffinity -1.66097188
REMARK minimizedRMSD -1
REMARK  0 active torsions:
REMARK  status: ('A' for Active; 'I' for Inactive)
ROOT
ATOM      1  C   UNL d   1       5.960  -5.222  -2.292  0.00  0.00     0.077 C 
ATOM      2  C1  UNL d   1       5.386  -3.898  -2.697  0.00  0.00    -0.074 A 
ATOM      3  C2  UNL d   1       5.749  -3.297  -3.907  0.00  0.00    -0.005 A 
ATOM      4  C3  UNL d   1       5.199  -2.069  -4.275  0.00  0.00     0.006 A 
ATOM      5  C4  UNL d   1       4.282  -1.430  -3.439  0.00  0.00    -0.005 A 
ATOM      6  C5  UNL d   1       3.907  -2.016  -2.226  0.00  0.00    -0.074 A 
ATOM      7  C6  UNL d   1       2.915  -1.348  -1.321  0.00  0.00     0.077 C 
ATOM      8  C7  UNL d   1       4.458  -3.254  -1.866  0.00  0.00    -0.001 A 
ENDROOT
TORSDOF 0
ENDMDL
