MODEL 1
REMARK minimizedAffinity -4.24578571
REMARK minimizedRMSD -1
REMARK  0 active torsions:
REMARK  status: ('A' for Active; 'I' for Inactive)
ROOT
ATOM      1  C   UNL d   1      -1.297   1.259  -0.948  0.00  0.00     0.077 C 
ATOM      2  C1  UNL d   1      -0.227   2.275  -0.679  0.00  0.00    -0.074 A 
ATOM      3  C2  UNL d   1       0.071   3.271  -1.615  0.00  0.00    -0.005 A 
ATOM      4  C3  UNL d   1       1.062   4.215  -1.346  0.00  0.00     0.006 A 
ATOM      5  C4  UNL d   1       1.763   4.174  -0.140  0.00  0.00    -0.005 A 
ATOM      6  C5  UNL d   1       1.479   3.186   0.808  0.00  0.00    -0.074 A 
ATOM      7  C6  UNL d   1       2.217   3.133   2.113  0.00  0.00     0.077 C 
ATOM      8  C7  UNL d   1       0.477   2.245   0.533  0.00  0.00    -0.001 A 
ENDROOT
TORSDOF 0
ENDMDL
