MODEL 1
REMARK minimizedAffinity -0.339884996
REMARK minimizedRMSD -1
REMARK  0 active torsions:
REMARK  status: ('A' for Active; 'I' for Inactive)
ROOT
ATOM      1  C   UNL d   1       4.712  -2.328  -0.130  0.00  0.00     0.077 C 
ATOM      2  C1  UNL d   1       4.401  -3.604  -0.854  0.00  0.00    -0.074 A 
ATOM      3  C2  UNL d   1       5.389  -4.277  -1.581  0.00  0.00    -0.005 A 
ATOM      4  C3  UNL d   1       5.087  -5.468  -2.241  0.00  0.00     0.006 A 
ATOM      5  C4  UNL d   1       3.797  -5.997  -2.182  0.00  0.00    -0.005 A 
ATOM      6  C5  UNL d   1       2.797  -5.338  -1.460  0.00  0.00    -0.074 A 
ATOM      7  C6  UNL d   1       1.408  -5.898  -1.378  0.00  0.00     0.077 C 
ATOM      8  C7  UNL d   1       3.110  -4.146  -0.793  0.00  0.00    -0.001 A 
ENDROOT
TORSDOF 0
ENDMDL
