MODEL 1
REMARK minimizedAffinity 3.46382475
REMARK minimizedRMSD -1
REMARK  0 active torsions:
REMARK  status: ('A' for Active; 'I' for Inactive)
ROOT
ATOM      1  C   UNL d   1       1.007  -4.789  -0.713  0.00  0.00     0.077 C 
ATOM      2  C1  UNL d   1       2.444  -4.570  -1.084  0.00  0.00    -0.074 A 
ATOM      3  C2  UNL d   1       3.265  -3.738  -0.317  0.00  0.00    -0.005 A 
ATOM      4  C3  UNL d   1       4.602  -3.551  -0.668  0.00  0.00     0.006 A 
ATOM      5  C4  UNL d   1       5.131  -4.194  -1.788  0.00  0.00    -0.005 A 
ATOM      6  C5  UNL d   1       4.325  -5.031  -2.566  0.00  0.00    -0.074 A 
ATOM      7  C6  UNL d   1       4.880  -5.738  -3.768  0.00  0.00     0.077 C 
ATOM      8  C7  UNL d   1       2.984  -5.219  -2.203  0.00  0.00    -0.001 A 
ENDROOT
TORSDOF 0
ENDMDL
