MODEL 1
REMARK minimizedAffinity 3.65371823
REMARK minimizedRMSD -1
REMARK  0 active torsions:
REMARK  status: ('A' for Active; 'I' for Inactive)
ROOT
ATOM      1  C   UNL d   1       1.132  -6.000  -0.741  0.00  0.00     0.077 C 
ATOM      2  C1  UNL d   1       2.381  -5.465  -1.375  0.00  0.00    -0.074 A 
ATOM      3  C2  UNL d   1       2.860  -5.995  -2.577  0.00  0.00    -0.005 A 
ATOM      4  C3  UNL d   1       4.018  -5.480  -3.160  0.00  0.00     0.006 A 
ATOM      5  C4  UNL d   1       4.707  -4.432  -2.548  0.00  0.00    -0.005 A 
ATOM      6  C5  UNL d   1       4.242  -3.889  -1.347  0.00  0.00    -0.074 A 
ATOM      7  C6  UNL d   1       4.965  -2.756  -0.681  0.00  0.00     0.077 C 
ATOM      8  C7  UNL d   1       3.074  -4.407  -0.771  0.00  0.00    -0.001 A 
ENDROOT
TORSDOF 0
ENDMDL
