MODEL 1
REMARK minimizedAffinity -2.01225019
REMARK minimizedRMSD -1
REMARK  0 active torsions:
REMARK  status: ('A' for Active; 'I' for Inactive)
ROOT
ATOM      1  C   UNL d   1       1.032  -5.279  -0.776  0.00  0.00     0.077 C 
ATOM      2  C1  UNL d   1       2.354  -4.812  -1.307  0.00  0.00    -0.074 A 
ATOM      3  C2  UNL d   1       2.944  -5.432  -2.413  0.00  0.00    -0.005 A 
ATOM      4  C3  UNL d   1       4.170  -4.981  -2.901  0.00  0.00     0.006 A 
ATOM      5  C4  UNL d   1       4.818  -3.908  -2.290  0.00  0.00    -0.005 A 
ATOM      6  C5  UNL d   1       4.244  -3.275  -1.183  0.00  0.00    -0.074 A 
ATOM      7  C6  UNL d   1       4.922  -2.113  -0.520  0.00  0.00     0.077 C 
ATOM      8  C7  UNL d   1       3.008  -3.729  -0.702  0.00  0.00    -0.001 A 
ENDROOT
TORSDOF 0
ENDMDL
