MODEL 1
REMARK minimizedAffinity 3.69771218
REMARK minimizedRMSD -1
REMARK  0 active torsions:
REMARK  status: ('A' for Active; 'I' for Inactive)
ROOT
ATOM      1  C   UNL d   1       4.853  -4.427  -2.837  0.00  0.00     0.077 C 
ATOM      2  C1  UNL d   1       3.603  -4.663  -2.043  0.00  0.00    -0.074 A 
ATOM      3  C2  UNL d   1       2.558  -5.434  -2.560  0.00  0.00    -0.005 A 
ATOM      4  C3  UNL d   1       1.405  -5.653  -1.806  0.00  0.00     0.006 A 
ATOM      5  C4  UNL d   1       1.287  -5.104  -0.529  0.00  0.00    -0.005 A 
ATOM      6  C5  UNL d   1       2.322  -4.330   0.006  0.00  0.00    -0.074 A 
ATOM      7  C6  UNL d   1       2.215  -3.740   1.381  0.00  0.00     0.077 C 
ATOM      8  C7  UNL d   1       3.480  -4.121  -0.756  0.00  0.00    -0.001 A 
ENDROOT
TORSDOF 0
ENDMDL
