MODEL 1
REMARK minimizedAffinity 7.59731722
REMARK minimizedRMSD -1
REMARK  0 active torsions:
REMARK  status: ('A' for Active; 'I' for Inactive)
ROOT
ATOM      1  C   UNL d   1       0.352  -2.306   6.000  0.00  0.00     0.077 C 
ATOM      2  C1  UNL d   1       1.661  -2.551   5.309  0.00  0.00    -0.074 A 
ATOM      3  C2  UNL d   1       1.924  -2.000   4.051  0.00  0.00    -0.005 A 
ATOM      4  C3  UNL d   1       3.150  -2.229   3.426  0.00  0.00     0.006 A 
ATOM      5  C4  UNL d   1       4.123  -3.009   4.051  0.00  0.00    -0.005 A 
ATOM      6  C5  UNL d   1       3.878  -3.567   5.310  0.00  0.00    -0.074 A 
ATOM      7  C6  UNL d   1       4.917  -4.400   6.000  0.00  0.00     0.077 C 
ATOM      8  C7  UNL d   1       2.647  -3.327   5.935  0.00  0.00    -0.001 A 
ENDROOT
TORSDOF 0
ENDMDL
