MODEL 1
REMARK minimizedAffinity 1.6763618
REMARK minimizedRMSD -1
REMARK  0 active torsions:
REMARK  status: ('A' for Active; 'I' for Inactive)
ROOT
ATOM      1  C   UNL d   1      -0.351   1.380   2.929  0.00  0.00     0.077 C 
ATOM      2  C1  UNL d   1       0.466   2.479   2.315  0.00  0.00    -0.074 A 
ATOM      3  C2  UNL d   1       1.695   2.854   2.867  0.00  0.00    -0.005 A 
ATOM      4  C3  UNL d   1       2.447   3.871   2.280  0.00  0.00     0.006 A 
ATOM      5  C4  UNL d   1       1.980   4.522   1.137  0.00  0.00    -0.005 A 
ATOM      6  C5  UNL d   1       0.754   4.159   0.571  0.00  0.00    -0.074 A 
ATOM      7  C6  UNL d   1       0.241   4.841  -0.663  0.00  0.00     0.077 C 
ATOM      8  C7  UNL d   1       0.006   3.131   1.163  0.00  0.00    -0.001 A 
ENDROOT
TORSDOF 0
ENDMDL
