MODEL 1
REMARK minimizedAffinity 10.3749285
REMARK minimizedRMSD -1
REMARK  0 active torsions:
REMARK  status: ('A' for Active; 'I' for Inactive)
ROOT
ATOM      1  C   UNL d   1       0.023   0.850   2.267  0.00  0.00    -0.002 A 
ATOM      2  C1  UNL d   1       1.069   0.236   1.594  0.00  0.00     0.010 A 
ATOM      3  C2  UNL d   1       1.019  -1.128   1.296  0.00  0.00     0.041 A 
ATOM      4  C3  UNL d   1      -0.112  -1.870   1.690  0.00  0.00    -0.075 A 
ATOM      5  S   UNL d   1      -0.393  -3.551   1.433  0.00  0.00     0.015 SA
ATOM      6  C4  UNL d   1      -1.909  -3.494   2.210  0.00  0.00     0.022 A 
ATOM      7  C5  UNL d   1      -2.209  -2.230   2.662  0.00  0.00     0.026 A 
ATOM      8  C6  UNL d   1      -1.179  -1.273   2.369  0.00  0.00    -0.082 A 
ATOM      9  C7  UNL d   1      -1.097   0.110   2.656  0.00  0.00     0.045 A 
ENDROOT
TORSDOF 0
ENDMDL
