MODEL 1
REMARK minimizedAffinity -2.37895513
REMARK minimizedRMSD -1
REMARK  0 active torsions:
REMARK  status: ('A' for Active; 'I' for Inactive)
ROOT
ATOM      1  C   UNL d   1       3.651  -3.981   3.024  0.00  0.00    -0.002 A 
ATOM      2  C1  UNL d   1       4.063  -3.698   1.730  0.00  0.00     0.010 A 
ATOM      3  C2  UNL d   1       3.331  -2.819   0.928  0.00  0.00     0.041 A 
ATOM      4  C3  UNL d   1       2.168  -2.224   1.455  0.00  0.00    -0.075 A 
ATOM      5  S   UNL d   1       1.115  -1.117   0.657  0.00  0.00     0.015 SA
ATOM      6  C4  UNL d   1       0.093  -0.994   2.015  0.00  0.00     0.022 A 
ATOM      7  C5  UNL d   1       0.530  -1.772   3.061  0.00  0.00     0.026 A 
ATOM      8  C6  UNL d   1       1.733  -2.493   2.755  0.00  0.00    -0.082 A 
ATOM      9  C7  UNL d   1       2.496  -3.389   3.543  0.00  0.00     0.045 A 
ENDROOT
TORSDOF 0
ENDMDL
