MODEL 1
REMARK minimizedAffinity 9.38297558
REMARK minimizedRMSD -1
REMARK  0 active torsions:
REMARK  status: ('A' for Active; 'I' for Inactive)
ROOT
ATOM      1  C   UNL d   1      -1.106  -3.289   3.743  0.00  0.00    -0.002 A 
ATOM      2  C1  UNL d   1       0.118  -3.259   3.089  0.00  0.00     0.010 A 
ATOM      3  C2  UNL d   1       0.459  -2.182   2.268  0.00  0.00     0.041 A 
ATOM      4  C3  UNL d   1      -0.459  -1.125   2.115  0.00  0.00    -0.075 A 
ATOM      5  S   UNL d   1      -0.257   0.298   1.162  0.00  0.00     0.015 SA
ATOM      6  C4  UNL d   1      -1.790   0.900   1.601  0.00  0.00     0.022 A 
ATOM      7  C5  UNL d   1      -2.453   0.049   2.453  0.00  0.00     0.026 A 
ATOM      8  C6  UNL d   1      -1.697  -1.131   2.764  0.00  0.00    -0.082 A 
ATOM      9  C7  UNL d   1      -2.014  -2.238   3.589  0.00  0.00     0.045 A 
ENDROOT
TORSDOF 0
ENDMDL
