MODEL 1
REMARK minimizedAffinity 6.10845232
REMARK minimizedRMSD -1
REMARK  0 active torsions:
REMARK  status: ('A' for Active; 'I' for Inactive)
ROOT
ATOM      1  C   UNL d   1       4.536   1.477  -0.060  0.00  0.00    -0.002 A 
ATOM      2  C1  UNL d   1       4.119   2.744  -0.443  0.00  0.00     0.010 A 
ATOM      3  C2  UNL d   1       2.783   2.982  -0.773  0.00  0.00     0.041 A 
ATOM      4  C3  UNL d   1       1.865   1.916  -0.710  0.00  0.00    -0.075 A 
ATOM      5  S   UNL d   1       0.179   1.972  -1.068  0.00  0.00     0.015 SA
ATOM      6  C4  UNL d   1      -0.027   0.317  -0.720  0.00  0.00     0.022 A 
ATOM      7  C5  UNL d   1       1.152  -0.280  -0.338  0.00  0.00     0.026 A 
ATOM      8  C6  UNL d   1       2.261   0.631  -0.326  0.00  0.00    -0.082 A 
ATOM      9  C7  UNL d   1       3.622   0.422   0.002  0.00  0.00     0.045 A 
ENDROOT
TORSDOF 0
ENDMDL
