MODEL 1
REMARK minimizedAffinity 19.5746098
REMARK minimizedRMSD -1
REMARK  0 active torsions:
REMARK  status: ('A' for Active; 'I' for Inactive)
ROOT
ATOM      1  C   UNL d   1       4.522  -5.758   2.461  0.00  0.00    -0.002 A 
ATOM      2  C1  UNL d   1       5.236  -4.838   1.706  0.00  0.00     0.010 A 
ATOM      3  C2  UNL d   1       5.721  -3.665   2.288  0.00  0.00     0.041 A 
ATOM      4  C3  UNL d   1       5.474  -3.429   3.655  0.00  0.00    -0.075 A 
ATOM      5  S   UNL d   1       5.970  -2.062   4.580  0.00  0.00     0.015 SA
ATOM      6  C4  UNL d   1       5.247  -2.667   6.000  0.00  0.00     0.022 A 
ATOM      7  C5  UNL d   1       4.636  -3.881   5.791  0.00  0.00     0.026 A 
ATOM      8  C6  UNL d   1       4.757  -4.341   4.436  0.00  0.00    -0.082 A 
ATOM      9  C7  UNL d   1       4.279  -5.521   3.817  0.00  0.00     0.045 A 
ENDROOT
TORSDOF 0
ENDMDL
