MODEL 1
REMARK minimizedAffinity 6.54782391
REMARK minimizedRMSD -1
REMARK  0 active torsions:
REMARK  status: ('A' for Active; 'I' for Inactive)
ROOT
ATOM      1  C   UNL d   1      -0.479  -3.295   3.290  0.00  0.00    -0.002 A 
ATOM      2  C1  UNL d   1       0.711  -3.643   2.667  0.00  0.00     0.010 A 
ATOM      3  C2  UNL d   1       1.226  -2.861   1.631  0.00  0.00     0.041 A 
ATOM      4  C3  UNL d   1       0.518  -1.711   1.229  0.00  0.00    -0.075 A 
ATOM      5  S   UNL d   1       0.958  -0.602  -0.016  0.00  0.00     0.015 SA
ATOM      6  C4  UNL d   1      -0.423   0.360   0.250  0.00  0.00     0.022 A 
ATOM      7  C5  UNL d   1      -1.212  -0.138   1.260  0.00  0.00     0.026 A 
ATOM      8  C6  UNL d   1      -0.682  -1.339   1.842  0.00  0.00    -0.082 A 
ATOM      9  C7  UNL d   1      -1.178  -2.153   2.888  0.00  0.00     0.045 A 
ENDROOT
TORSDOF 0
ENDMDL
