MODEL 1
REMARK minimizedAffinity 8.8585825
REMARK minimizedRMSD -1
REMARK  0 active torsions:
REMARK  status: ('A' for Active; 'I' for Inactive)
ROOT
ATOM      1  C   UNL d   1      -1.304  -0.020   1.142  0.00  0.00    -0.002 A 
ATOM      2  C1  UNL d   1      -1.485   0.884   2.179  0.00  0.00     0.010 A 
ATOM      3  C2  UNL d   1      -2.756   1.105   2.714  0.00  0.00     0.041 A 
ATOM      4  C3  UNL d   1      -3.851   0.393   2.185  0.00  0.00    -0.075 A 
ATOM      5  S   UNL d   1      -5.498   0.501   2.684  0.00  0.00     0.015 SA
ATOM      6  C4  UNL d   1      -5.999  -0.652   1.532  0.00  0.00     0.022 A 
ATOM      7  C5  UNL d   1      -4.948  -1.117   0.778  0.00  0.00     0.026 A 
ATOM      8  C6  UNL d   1      -3.693  -0.523   1.142  0.00  0.00    -0.082 A 
ATOM      9  C7  UNL d   1      -2.392  -0.724   0.620  0.00  0.00     0.045 A 
ENDROOT
TORSDOF 0
ENDMDL
