MODEL 1
REMARK minimizedAffinity -3.92200971
REMARK minimizedRMSD -1
REMARK  1 active torsions:
REMARK  status: ('A' for Active; 'I' for Inactive)
REMARK    1  A    between atoms: C1_2  and  C2_3 
ROOT
ATOM      1  C2  UNL d   1      -0.231   0.836   2.140  0.00  0.00    -0.076 A 
ATOM      2  C3  UNL d   1      -0.022   2.081   1.521  0.00  0.00     0.004 A 
ATOM      3  C4  UNL d   1       1.217   2.717   1.589  0.00  0.00    -0.003 A 
ATOM      4  C5  UNL d   1       2.267   2.117   2.276  0.00  0.00     0.000 A 
ATOM      5  C6  UNL d   1       2.082   0.875   2.881  0.00  0.00     0.000 A 
ATOM      6  C7  UNL d   1       0.844   0.213   2.809  0.00  0.00    -0.073 A 
ATOM      7  C8  UNL d   1       0.699  -1.123   3.485  0.00  0.00     0.078 C 
ENDROOT
BRANCH   1   8
ATOM      8  C1  UNL d   1      -1.604   0.208   2.057  0.00  0.00     0.053 C 
ATOM      9  C   UNL d   1      -1.997  -0.147   0.631  0.00  0.00     0.018 C 
ENDBRANCH   1   8
TORSDOF 1
ENDMDL
