MODEL 1
REMARK minimizedAffinity -1.19317043
REMARK minimizedRMSD -1
REMARK  1 active torsions:
REMARK  status: ('A' for Active; 'I' for Inactive)
REMARK    1  A    between atoms: C1_2  and  C2_3 
ROOT
ATOM      1  C2  UNL d   1      -0.036  -0.195   3.839  0.00  0.00    -0.076 A 
ATOM      2  C3  UNL d   1       0.642  -0.903   2.832  0.00  0.00     0.004 A 
ATOM      3  C4  UNL d   1       1.330  -0.231   1.823  0.00  0.00    -0.003 A 
ATOM      4  C5  UNL d   1       1.350   1.160   1.805  0.00  0.00     0.000 A 
ATOM      5  C6  UNL d   1       0.697   1.877   2.806  0.00  0.00     0.000 A 
ATOM      6  C7  UNL d   1       0.013   1.215   3.840  0.00  0.00    -0.073 A 
ATOM      7  C8  UNL d   1      -0.679   2.039   4.891  0.00  0.00     0.078 C 
ENDROOT
BRANCH   1   8
ATOM      8  C1  UNL d   1      -0.788  -0.978   4.893  0.00  0.00     0.053 C 
ATOM      9  C   UNL d   1      -1.958  -1.758   4.315  0.00  0.00     0.018 C 
ENDBRANCH   1   8
TORSDOF 1
ENDMDL
