MODEL 1
REMARK minimizedAffinity 1.66957819
REMARK minimizedRMSD -1
REMARK  1 active torsions:
REMARK  status: ('A' for Active; 'I' for Inactive)
REMARK    1  A    between atoms: C1_2  and  C2_3 
ROOT
ATOM      1  C2  UNL d   1      -0.930  -0.004   1.377  0.00  0.00    -0.076 A 
ATOM      2  C3  UNL d   1       0.429   0.014   1.736  0.00  0.00     0.004 A 
ATOM      3  C4  UNL d   1       1.414  -0.394   0.838  0.00  0.00    -0.003 A 
ATOM      4  C5  UNL d   1       1.056  -0.826  -0.434  0.00  0.00     0.000 A 
ATOM      5  C6  UNL d   1      -0.286  -0.834  -0.813  0.00  0.00     0.000 A 
ATOM      6  C7  UNL d   1      -1.290  -0.411   0.074  0.00  0.00    -0.073 A 
ATOM      7  C8  UNL d   1      -2.722  -0.446  -0.386  0.00  0.00     0.078 C 
ENDROOT
BRANCH   1   8
ATOM      8  C1  UNL d   1      -1.956   0.423   2.402  0.00  0.00     0.053 C 
ATOM      9  C   UNL d   1      -1.933  -0.449   3.648  0.00  0.00     0.018 C 
ENDBRANCH   1   8
TORSDOF 1
ENDMDL
