MODEL 1
REMARK minimizedAffinity -5.97772932
REMARK minimizedRMSD -1
REMARK  1 active torsions:
REMARK  status: ('A' for Active; 'I' for Inactive)
REMARK    1  A    between atoms: C1_2  and  C2_3 
ROOT
ATOM      1  C2  UNL d   1      -0.099   0.449   1.052  0.00  0.00    -0.076 A 
ATOM      2  C3  UNL d   1       1.283   0.698   1.119  0.00  0.00     0.004 A 
ATOM      3  C4  UNL d   1       2.162   0.115   0.208  0.00  0.00    -0.003 A 
ATOM      4  C5  UNL d   1       1.673  -0.727  -0.786  0.00  0.00     0.000 A 
ATOM      5  C6  UNL d   1       0.303  -0.971  -0.877  0.00  0.00     0.000 A 
ATOM      6  C7  UNL d   1      -0.598  -0.378   0.023  0.00  0.00    -0.073 A 
ATOM      7  C8  UNL d   1      -2.065  -0.681  -0.118  0.00  0.00     0.078 C 
ENDROOT
BRANCH   1   8
ATOM      8  C1  UNL d   1      -1.000   1.088   2.085  0.00  0.00     0.053 C 
ATOM      9  C   UNL d   1      -0.473   2.430   2.567  0.00  0.00     0.018 C 
ENDBRANCH   1   8
TORSDOF 1
ENDMDL
