MODEL 1
REMARK minimizedAffinity 3.529356
REMARK minimizedRMSD -1
REMARK  1 active torsions:
REMARK  status: ('A' for Active; 'I' for Inactive)
REMARK    1  A    between atoms: C1_2  and  C2_3 
ROOT
ATOM      1  C2  UNL d   1      -0.037  -0.628   3.183  0.00  0.00    -0.076 A 
ATOM      2  C3  UNL d   1      -1.317  -0.371   3.705  0.00  0.00     0.004 A 
ATOM      3  C4  UNL d   1      -2.356   0.055   2.879  0.00  0.00    -0.003 A 
ATOM      4  C5  UNL d   1      -2.132   0.231   1.518  0.00  0.00     0.000 A 
ATOM      5  C6  UNL d   1      -0.873  -0.036   0.980  0.00  0.00     0.000 A 
ATOM      6  C7  UNL d   1       0.181  -0.482   1.796  0.00  0.00    -0.073 A 
ATOM      7  C8  UNL d   1       1.520  -0.749   1.165  0.00  0.00     0.078 C 
ENDROOT
BRANCH   1   8
ATOM      8  C1  UNL d   1       1.058  -1.062   4.131  0.00  0.00     0.053 C 
ATOM      9  C   UNL d   1       0.514  -1.549   5.466  0.00  0.00     0.018 C 
ENDBRANCH   1   8
TORSDOF 1
ENDMDL
