MODEL 1
REMARK minimizedAffinity -5.47789812
REMARK minimizedRMSD -1
REMARK  1 active torsions:
REMARK  status: ('A' for Active; 'I' for Inactive)
REMARK    1  A    between atoms: C1_2  and  C2_3 
ROOT
ATOM      1  C2  UNL d   1       0.350  -0.071   0.258  0.00  0.00    -0.076 A 
ATOM      2  C3  UNL d   1      -0.820   0.318  -0.417  0.00  0.00     0.004 A 
ATOM      3  C4  UNL d   1      -1.955   0.719   0.286  0.00  0.00    -0.003 A 
ATOM      4  C5  UNL d   1      -1.938   0.738   1.676  0.00  0.00     0.000 A 
ATOM      5  C6  UNL d   1      -0.780   0.372   2.362  0.00  0.00     0.000 A 
ATOM      6  C7  UNL d   1       0.378  -0.019   1.668  0.00  0.00    -0.073 A 
ATOM      7  C8  UNL d   1       1.596  -0.409   2.459  0.00  0.00     0.078 C 
ENDROOT
BRANCH   1   8
ATOM      8  C1  UNL d   1       1.541  -0.522  -0.557  0.00  0.00     0.053 C 
ATOM      9  C   UNL d   1       1.689   0.258  -1.854  0.00  0.00     0.018 C 
ENDBRANCH   1   8
TORSDOF 1
ENDMDL
