MODEL 1
REMARK minimizedAffinity 3.33869028
REMARK minimizedRMSD -1
REMARK  1 active torsions:
REMARK  status: ('A' for Active; 'I' for Inactive)
REMARK    1  A    between atoms: C1_2  and  C2_3 
ROOT
ATOM      1  C2  UNL d   1      -1.463   0.478   1.934  0.00  0.00    -0.073 A 
ATOM      2  C3  UNL d   1      -2.423   0.157   2.901  0.00  0.00    -0.002 A 
ATOM      3  C4  UNL d   1      -2.044  -0.469   4.089  0.00  0.00     0.004 A 
ATOM      4  C5  UNL d   1      -0.704  -0.774   4.326  0.00  0.00    -0.004 A 
ATOM      5  C6  UNL d   1       0.271  -0.450   3.377  0.00  0.00    -0.075 A 
ATOM      6  C7  UNL d   1       1.717  -0.773   3.616  0.00  0.00     0.076 C 
ATOM      7  C8  UNL d   1      -0.117   0.177   2.185  0.00  0.00     0.001 A 
ENDROOT
BRANCH   1   8
ATOM      8  C1  UNL d   1      -1.866   1.160   0.653  0.00  0.00     0.053 C 
ATOM      9  C   UNL d   1      -2.342   0.168  -0.396  0.00  0.00     0.018 C 
ENDBRANCH   1   8
TORSDOF 1
ENDMDL
