MODEL 1
REMARK minimizedAffinity -4.31513929
REMARK minimizedRMSD -1
REMARK  0 active torsions:
REMARK  status: ('A' for Active; 'I' for Inactive)
ROOT
ATOM      1  C   UNL d   1       0.660  -0.776  -0.714  0.00  0.00     0.020 A 
ATOM      2  C1  UNL d   1       0.031  -1.079   0.493  0.00  0.00     0.020 A 
ATOM      3  C2  UNL d   1      -0.849  -0.161   1.072  0.00  0.00     0.034 A 
ATOM      4  C3  UNL d   1      -1.103   1.063   0.443  0.00  0.00     0.017 A 
ATOM      5  C4  UNL d   1      -0.472   1.365  -0.769  0.00  0.00     0.017 A 
ATOM      6  C5  UNL d   1       0.408   0.443  -1.344  0.00  0.00     0.034 A 
ATOM      7 Cl   UNL d   1      -0.736   2.855  -1.605  0.00  0.00    -0.070 Cl
ATOM      8 Cl1  UNL d   1      -2.203   2.149   1.214  0.00  0.00    -0.070 Cl
ENDROOT
TORSDOF 0
ENDMDL
