MODEL 1
REMARK minimizedAffinity -0.620804548
REMARK minimizedRMSD -1
REMARK  0 active torsions:
REMARK  status: ('A' for Active; 'I' for Inactive)
ROOT
ATOM      1  C   UNL d   1      -0.755   0.632   1.406  0.00  0.00     0.020 A 
ATOM      2  C1  UNL d   1      -0.982  -0.739   1.517  0.00  0.00     0.020 A 
ATOM      3  C2  UNL d   1      -0.409  -1.619   0.597  0.00  0.00     0.034 A 
ATOM      4  C3  UNL d   1       0.395  -1.130  -0.439  0.00  0.00     0.017 A 
ATOM      5  C4  UNL d   1       0.622   0.247  -0.550  0.00  0.00     0.017 A 
ATOM      6  C5  UNL d   1       0.046   1.124   0.374  0.00  0.00     0.034 A 
ATOM      7 Cl   UNL d   1       1.602   0.926  -1.802  0.00  0.00    -0.070 Cl
ATOM      8 Cl1  UNL d   1       1.072  -2.275  -1.541  0.00  0.00    -0.070 Cl
ENDROOT
TORSDOF 0
ENDMDL
