MODEL 1
REMARK minimizedAffinity -3.80869341
REMARK minimizedRMSD -1
REMARK  0 active torsions:
REMARK  status: ('A' for Active; 'I' for Inactive)
ROOT
ATOM      1  C   UNL d   1      -1.792   2.038   0.166  0.00  0.00     0.020 A 
ATOM      2  C1  UNL d   1      -1.690   1.964   1.555  0.00  0.00     0.020 A 
ATOM      3  C2  UNL d   1      -1.002   0.905   2.149  0.00  0.00     0.034 A 
ATOM      4  C3  UNL d   1      -0.413  -0.086   1.355  0.00  0.00     0.017 A 
ATOM      5  C4  UNL d   1      -0.515  -0.011  -0.039  0.00  0.00     0.017 A 
ATOM      6  C5  UNL d   1      -1.206   1.052  -0.629  0.00  0.00     0.034 A 
ATOM      7 Cl   UNL d   1       0.185  -1.196  -1.084  0.00  0.00    -0.070 Cl
ATOM      8 Cl1  UNL d   1       0.424  -1.367   2.158  0.00  0.00    -0.070 Cl
ENDROOT
TORSDOF 0
ENDMDL
