MODEL 1
REMARK minimizedAffinity -3.83147836
REMARK minimizedRMSD -1
REMARK  0 active torsions:
REMARK  status: ('A' for Active; 'I' for Inactive)
ROOT
ATOM      1  C   UNL d   1      -0.495  -2.578  -2.643  0.00  0.00     0.020 A 
ATOM      2  C1  UNL d   1       0.818  -2.896  -2.296  0.00  0.00     0.020 A 
ATOM      3  C2  UNL d   1       1.379  -2.370  -1.131  0.00  0.00     0.034 A 
ATOM      4  C3  UNL d   1       0.628  -1.522  -0.308  0.00  0.00     0.017 A 
ATOM      5  C4  UNL d   1      -0.689  -1.203  -0.657  0.00  0.00     0.017 A 
ATOM      6  C5  UNL d   1      -1.246  -1.734  -1.825  0.00  0.00     0.034 A 
ATOM      7 Cl   UNL d   1      -1.678  -0.165   0.307  0.00  0.00    -0.070 Cl
ATOM      8 Cl1  UNL d   1       1.386  -0.907   1.118  0.00  0.00    -0.070 Cl
ENDROOT
TORSDOF 0
ENDMDL
