MODEL 1
REMARK minimizedAffinity -3.84421682
REMARK minimizedRMSD -1
REMARK  0 active torsions:
REMARK  status: ('A' for Active; 'I' for Inactive)
ROOT
ATOM      1  C   UNL d   1       0.784  -0.881  -1.475  0.00  0.00     0.020 A 
ATOM      2  C1  UNL d   1      -0.115   0.139  -1.784  0.00  0.00     0.020 A 
ATOM      3  C2  UNL d   1      -0.810   0.790  -0.763  0.00  0.00     0.034 A 
ATOM      4  C3  UNL d   1      -0.608   0.421   0.572  0.00  0.00     0.017 A 
ATOM      5  C4  UNL d   1       0.294  -0.603   0.881  0.00  0.00     0.017 A 
ATOM      6  C5  UNL d   1       0.988  -1.251  -0.145  0.00  0.00     0.034 A 
ATOM      7 Cl   UNL d   1       0.596  -1.114   2.505  0.00  0.00    -0.070 Cl
ATOM      8 Cl1  UNL d   1      -1.502   1.269   1.784  0.00  0.00    -0.070 Cl
ENDROOT
TORSDOF 0
ENDMDL
