MODEL 1
REMARK minimizedAffinity -1.92637229
REMARK minimizedRMSD -1
REMARK  0 active torsions:
REMARK  status: ('A' for Active; 'I' for Inactive)
ROOT
ATOM      1  C   UNL d   1      -1.613   1.092   1.949  0.00  0.00     0.020 A 
ATOM      2  C1  UNL d   1      -1.098  -0.189   2.144  0.00  0.00     0.020 A 
ATOM      3  C2  UNL d   1      -0.260  -0.758   1.184  0.00  0.00     0.034 A 
ATOM      4  C3  UNL d   1       0.066  -0.047   0.024  0.00  0.00     0.017 A 
ATOM      5  C4  UNL d   1      -0.450   1.239  -0.172  0.00  0.00     0.017 A 
ATOM      6  C5  UNL d   1      -1.290   1.805   0.793  0.00  0.00     0.034 A 
ATOM      7 Cl   UNL d   1      -0.093   2.178  -1.578  0.00  0.00    -0.070 Cl
ATOM      8 Cl1  UNL d   1       1.109  -0.813  -1.122  0.00  0.00    -0.070 Cl
ENDROOT
TORSDOF 0
ENDMDL
