MODEL 1
REMARK minimizedAffinity -4.20587015
REMARK minimizedRMSD -1
REMARK  0 active torsions:
REMARK  status: ('A' for Active; 'I' for Inactive)
ROOT
ATOM      1  C   UNL d   1      -1.807   1.563   1.581  0.00  0.00     0.020 A 
ATOM      2  C1  UNL d   1      -1.369   0.285   1.926  0.00  0.00     0.020 A 
ATOM      3  C2  UNL d   1      -0.377  -0.341   1.169  0.00  0.00     0.034 A 
ATOM      4  C3  UNL d   1       0.181   0.311   0.064  0.00  0.00     0.017 A 
ATOM      5  C4  UNL d   1      -0.259   1.594  -0.282  0.00  0.00     0.017 A 
ATOM      6  C5  UNL d   1      -1.253   2.216   0.479  0.00  0.00     0.034 A 
ATOM      7 Cl   UNL d   1       0.382   2.461  -1.633  0.00  0.00    -0.070 Cl
ATOM      8 Cl1  UNL d   1       1.405  -0.522  -0.827  0.00  0.00    -0.070 Cl
ENDROOT
TORSDOF 0
ENDMDL
