MODEL 1
REMARK minimizedAffinity -3.69749522
REMARK minimizedRMSD -1
REMARK  0 active torsions:
REMARK  status: ('A' for Active; 'I' for Inactive)
ROOT
ATOM      1  C   UNL d   1      -2.115   1.974   1.530  0.00  0.00     0.020 A 
ATOM      2  C1  UNL d   1      -2.071   1.896   0.139  0.00  0.00     0.020 A 
ATOM      3  C2  UNL d   1      -1.164   1.037  -0.484  0.00  0.00     0.034 A 
ATOM      4  C3  UNL d   1      -0.297   0.251   0.284  0.00  0.00     0.017 A 
ATOM      5  C4  UNL d   1      -0.342   0.330   1.681  0.00  0.00     0.017 A 
ATOM      6  C5  UNL d   1      -1.252   1.193   2.300  0.00  0.00     0.034 A 
ATOM      7 Cl   UNL d   1       0.696  -0.607   2.696  0.00  0.00    -0.070 Cl
ATOM      8 Cl1  UNL d   1       0.799  -0.790  -0.552  0.00  0.00    -0.070 Cl
ENDROOT
TORSDOF 0
ENDMDL
