MODEL 1
REMARK minimizedAffinity -4.12007761
REMARK minimizedRMSD -1
REMARK  0 active torsions:
REMARK  status: ('A' for Active; 'I' for Inactive)
ROOT
ATOM      1  C   UNL d   1       0.750  -0.959   0.119  0.00  0.00     0.020 A 
ATOM      2  C1  UNL d   1       0.061  -1.151   1.316  0.00  0.00     0.020 A 
ATOM      3  C2  UNL d   1      -0.825  -0.175   1.776  0.00  0.00     0.034 A 
ATOM      4  C3  UNL d   1      -1.025   0.998   1.039  0.00  0.00     0.017 A 
ATOM      5  C4  UNL d   1      -0.333   1.190  -0.162  0.00  0.00     0.017 A 
ATOM      6  C5  UNL d   1       0.553   0.209  -0.619  0.00  0.00     0.034 A 
ATOM      7 Cl   UNL d   1      -0.528   2.611  -1.127  0.00  0.00    -0.070 Cl
ATOM      8 Cl1  UNL d   1      -2.136   2.162   1.668  0.00  0.00    -0.070 Cl
ENDROOT
TORSDOF 0
ENDMDL
