MODEL 1
REMARK minimizedAffinity -4.07316446
REMARK minimizedRMSD -1
REMARK  0 active torsions:
REMARK  status: ('A' for Active; 'I' for Inactive)
ROOT
ATOM      1  C   UNL d   1      -1.751   1.733   1.484  0.00  0.00     0.020 A 
ATOM      2  C1  UNL d   1      -1.732   1.758   0.090  0.00  0.00     0.020 A 
ATOM      3  C2  UNL d   1      -0.857   0.925  -0.610  0.00  0.00     0.034 A 
ATOM      4  C3  UNL d   1       0.003   0.064   0.083  0.00  0.00     0.017 A 
ATOM      5  C4  UNL d   1      -0.017   0.041   1.482  0.00  0.00     0.017 A 
ATOM      6  C5  UNL d   1      -0.896   0.876   2.178  0.00  0.00     0.034 A 
ATOM      7 Cl   UNL d   1       1.013  -0.994   2.406  0.00  0.00    -0.070 Cl
ATOM      8 Cl1  UNL d   1       1.058  -0.938  -0.848  0.00  0.00    -0.070 Cl
ENDROOT
TORSDOF 0
ENDMDL
