MODEL 1
REMARK minimizedAffinity -4.44804955
REMARK minimizedRMSD -1
REMARK  0 active torsions:
REMARK  status: ('A' for Active; 'I' for Inactive)
ROOT
ATOM      1  C   UNL d   1      -0.156  -0.799   1.679  0.00  0.00     0.020 A 
ATOM      2  C1  UNL d   1       0.695  -0.740   0.577  0.00  0.00     0.020 A 
ATOM      3  C2  UNL d   1       0.575   0.305  -0.342  0.00  0.00     0.034 A 
ATOM      4  C3  UNL d   1      -0.398   1.294  -0.160  0.00  0.00     0.017 A 
ATOM      5  C4  UNL d   1      -1.252   1.233   0.947  0.00  0.00     0.017 A 
ATOM      6  C5  UNL d   1      -1.128   0.185   1.864  0.00  0.00     0.034 A 
ATOM      7 Cl   UNL d   1      -2.477   2.417   1.238  0.00  0.00    -0.070 Cl
ATOM      8 Cl1  UNL d   1      -0.490   2.557  -1.336  0.00  0.00    -0.070 Cl
ENDROOT
TORSDOF 0
ENDMDL
