MODEL 1
REMARK minimizedAffinity -3.49212813
REMARK minimizedRMSD -1
REMARK  0 active torsions:
REMARK  status: ('A' for Active; 'I' for Inactive)
ROOT
ATOM      1  C   UNL d   1      -1.707   1.130   1.896  0.00  0.00     0.020 A 
ATOM      2  C1  UNL d   1      -0.949  -0.021   2.106  0.00  0.00     0.020 A 
ATOM      3  C2  UNL d   1       0.026  -0.393   1.178  0.00  0.00     0.034 A 
ATOM      4  C3  UNL d   1       0.245   0.386   0.036  0.00  0.00     0.017 A 
ATOM      5  C4  UNL d   1      -0.517   1.542  -0.173  0.00  0.00     0.017 A 
ATOM      6  C5  UNL d   1      -1.491   1.910   0.760  0.00  0.00     0.034 A 
ATOM      7 Cl   UNL d   1      -0.304   2.554  -1.557  0.00  0.00    -0.070 Cl
ATOM      8 Cl1  UNL d   1       1.468  -0.133  -1.069  0.00  0.00    -0.070 Cl
ENDROOT
TORSDOF 0
ENDMDL
