MODEL 1
REMARK minimizedAffinity -3.68962169
REMARK minimizedRMSD -1
REMARK  0 active torsions:
REMARK  status: ('A' for Active; 'I' for Inactive)
ROOT
ATOM      1  C   UNL d   1      -1.421  -0.197   2.228  0.00  0.00     0.020 A 
ATOM      2  C1  UNL d   1      -1.728   1.137   1.966  0.00  0.00     0.020 A 
ATOM      3  C2  UNL d   1      -1.224   1.758   0.821  0.00  0.00     0.034 A 
ATOM      4  C3  UNL d   1      -0.410   1.044  -0.066  0.00  0.00     0.017 A 
ATOM      5  C4  UNL d   1      -0.102  -0.295   0.198  0.00  0.00     0.017 A 
ATOM      6  C5  UNL d   1      -0.609  -0.912   1.346  0.00  0.00     0.034 A 
ATOM      7 Cl   UNL d   1       0.896  -1.241  -0.849  0.00  0.00    -0.070 Cl
ATOM      8 Cl1  UNL d   1       0.179   1.875  -1.462  0.00  0.00    -0.070 Cl
ENDROOT
TORSDOF 0
ENDMDL
