MODEL 1
REMARK minimizedAffinity -2.13720417
REMARK minimizedRMSD -1
REMARK  0 active torsions:
REMARK  status: ('A' for Active; 'I' for Inactive)
ROOT
ATOM      1  C   UNL d   1       1.178  -0.377  -1.104  0.00  0.00     0.020 A 
ATOM      2  C1  UNL d   1       0.447  -0.832  -0.007  0.00  0.00     0.020 A 
ATOM      3  C2  UNL d   1      -0.518  -0.011   0.579  0.00  0.00     0.034 A 
ATOM      4  C3  UNL d   1      -0.755   1.271   0.069  0.00  0.00     0.017 A 
ATOM      5  C4  UNL d   1      -0.021   1.727  -1.032  0.00  0.00     0.017 A 
ATOM      6  C5  UNL d   1       0.944   0.900  -1.615  0.00  0.00     0.034 A 
ATOM      7 Cl   UNL d   1      -0.257   3.296  -1.718  0.00  0.00    -0.070 Cl
ATOM      8 Cl1  UNL d   1      -1.963   2.233   0.843  0.00  0.00    -0.070 Cl
ENDROOT
TORSDOF 0
ENDMDL
