MODEL 1
REMARK minimizedAffinity 12.1440401
REMARK minimizedRMSD -1
REMARK  0 active torsions:
REMARK  status: ('A' for Active; 'I' for Inactive)
ROOT
ATOM      1  O1  BZF d   1      -1.447  -0.630   3.432  0.00  0.00    -0.204 OA
ATOM      2  C2  BZF d   1      -0.156  -1.040   3.705  0.00  0.00     0.174 A 
ATOM      3  C3  BZF d   1       0.566  -1.132   2.569  0.00  0.00    -0.012 A 
ATOM      4  C3A BZF d   1      -0.303  -0.668   1.532  0.00  0.00    -0.107 A 
ATOM      5  C4  BZF d   1      -0.154  -0.507   0.184  0.00  0.00     0.055 A 
ATOM      6  C5  BZF d   1      -1.219  -0.101  -0.555  0.00  0.00    -0.016 A 
ATOM      7  C6  BZF d   1      -2.449   0.148   0.020  0.00  0.00     0.022 A 
ATOM      8  C7  BZF d   1      -2.644   0.008   1.354  0.00  0.00     0.029 A 
ATOM      9  C7A BZF d   1      -1.560  -0.370   2.107  0.00  0.00     0.058 A 
ENDROOT
TORSDOF 0
ENDMDL
