MODEL 1
REMARK minimizedAffinity 2.10062599
REMARK minimizedRMSD -1
REMARK  0 active torsions:
REMARK  status: ('A' for Active; 'I' for Inactive)
ROOT
ATOM      1  O1  BZF d   1       0.732  -1.068  -0.563  0.00  0.00    -0.204 OA
ATOM      2  C2  BZF d   1      -0.195  -0.046  -0.496  0.00  0.00     0.174 A 
ATOM      3  C3  BZF d   1      -0.899  -0.113   0.652  0.00  0.00    -0.012 A 
ATOM      4  C3A BZF d   1      -0.318  -1.193   1.388  0.00  0.00    -0.107 A 
ATOM      5  C4  BZF d   1      -0.573  -1.740   2.613  0.00  0.00     0.055 A 
ATOM      6  C5  BZF d   1       0.128  -2.835   3.007  0.00  0.00    -0.016 A 
ATOM      7  C6  BZF d   1       1.087  -3.412   2.200  0.00  0.00     0.022 A 
ATOM      8  C7  BZF d   1       1.379  -2.903   0.979  0.00  0.00     0.029 A 
ATOM      9  C7A BZF d   1       0.695  -1.776   0.591  0.00  0.00     0.058 A 
ENDROOT
TORSDOF 0
ENDMDL
