MODEL 1
REMARK minimizedAffinity -1.50684583
REMARK minimizedRMSD -1
REMARK  0 active torsions:
REMARK  status: ('A' for Active; 'I' for Inactive)
ROOT
ATOM      1  O1  BZF d   1       1.360  -3.434   1.077  0.00  0.00    -0.204 OA
ATOM      2  C2  BZF d   1       1.101  -4.279   2.138  0.00  0.00     0.174 A 
ATOM      3  C3  BZF d   1       0.245  -3.706   3.008  0.00  0.00    -0.012 A 
ATOM      4  C3A BZF d   1      -0.121  -2.459   2.410  0.00  0.00    -0.107 A 
ATOM      5  C4  BZF d   1      -0.956  -1.446   2.787  0.00  0.00     0.055 A 
ATOM      6  C5  BZF d   1      -1.035  -0.332   2.013  0.00  0.00    -0.016 A 
ATOM      7  C6  BZF d   1      -0.291  -0.196   0.859  0.00  0.00     0.022 A 
ATOM      8  C7  BZF d   1       0.547  -1.176   0.442  0.00  0.00     0.029 A 
ATOM      9  C7A BZF d   1       0.605  -2.317   1.205  0.00  0.00     0.058 A 
ENDROOT
TORSDOF 0
ENDMDL
