MODEL 1
REMARK minimizedAffinity 9.04684734
REMARK minimizedRMSD -1
REMARK  0 active torsions:
REMARK  status: ('A' for Active; 'I' for Inactive)
ROOT
ATOM      1  O1  BZF d   1      -1.807  -1.795   3.484  0.00  0.00    -0.204 OA
ATOM      2  C2  BZF d   1      -1.788  -3.065   4.029  0.00  0.00     0.174 A 
ATOM      3  C3  BZF d   1      -0.806  -3.807   3.479  0.00  0.00    -0.012 A 
ATOM      4  C3A BZF d   1      -0.111  -2.919   2.598  0.00  0.00    -0.107 A 
ATOM      5  C4  BZF d   1       0.972  -3.066   1.779  0.00  0.00     0.055 A 
ATOM      6  C5  BZF d   1       1.353  -2.024   0.995  0.00  0.00    -0.016 A 
ATOM      7  C6  BZF d   1       0.673  -0.824   1.001  0.00  0.00     0.022 A 
ATOM      8  C7  BZF d   1      -0.404  -0.629   1.801  0.00  0.00     0.029 A 
ATOM      9  C7A BZF d   1      -0.772  -1.669   2.618  0.00  0.00     0.058 A 
ENDROOT
TORSDOF 0
ENDMDL
