MODEL 1
REMARK minimizedAffinity -2.70958424
REMARK minimizedRMSD -1
REMARK  0 active torsions:
REMARK  status: ('A' for Active; 'I' for Inactive)
ROOT
ATOM      1  O1  BZF d   1       4.033   5.059   1.843  0.00  0.00    -0.204 OA
ATOM      2  C2  BZF d   1       5.334   4.863   2.264  0.00  0.00     0.174 A 
ATOM      3  C3  BZF d   1       5.453   5.112   3.584  0.00  0.00    -0.012 A 
ATOM      4  C3A BZF d   1       4.125   5.397   4.034  0.00  0.00    -0.107 A 
ATOM      5  C4  BZF d   1       3.592   5.706   5.253  0.00  0.00     0.055 A 
ATOM      6  C5  BZF d   1       2.268   6.000   5.341  0.00  0.00    -0.016 A 
ATOM      7  C6  BZF d   1       1.450   5.999   4.230  0.00  0.00     0.022 A 
ATOM      8  C7  BZF d   1       1.931   5.695   3.001  0.00  0.00     0.029 A 
ATOM      9  C7A BZF d   1       3.262   5.365   2.914  0.00  0.00     0.058 A 
ENDROOT
TORSDOF 0
ENDMDL
