MODEL 1
REMARK minimizedAffinity 4.93826246
REMARK minimizedRMSD -1
REMARK  0 active torsions:
REMARK  status: ('A' for Active; 'I' for Inactive)
ROOT
ATOM      1  O1  BZF d   1      -0.423  -0.790   2.381  0.00  0.00    -0.204 OA
ATOM      2  C2  BZF d   1      -1.774  -0.541   2.534  0.00  0.00     0.174 A 
ATOM      3  C3  BZF d   1      -2.337  -0.215   1.352  0.00  0.00    -0.012 A 
ATOM      4  C3A BZF d   1      -1.290  -0.353   0.386  0.00  0.00    -0.107 A 
ATOM      5  C4  BZF d   1      -1.235  -0.184  -0.968  0.00  0.00     0.055 A 
ATOM      6  C5  BZF d   1      -0.042  -0.328  -1.603  0.00  0.00    -0.016 A 
ATOM      7  C6  BZF d   1       1.114  -0.636  -0.915  0.00  0.00     0.022 A 
ATOM      8  C7  BZF d   1       1.107  -0.818   0.428  0.00  0.00     0.029 A 
ATOM      9  C7A BZF d   1      -0.103  -0.706   1.068  0.00  0.00     0.058 A 
ENDROOT
TORSDOF 0
ENDMDL
