MODEL 1
REMARK minimizedAffinity -0.102076672
REMARK minimizedRMSD -1
REMARK  0 active torsions:
REMARK  status: ('A' for Active; 'I' for Inactive)
ROOT
ATOM      1  O1  BZF d   1       1.866  -2.771   0.418  0.00  0.00    -0.204 OA
ATOM      2  C2  BZF d   1       2.251  -3.525   1.510  0.00  0.00     0.174 A 
ATOM      3  C3  BZF d   1       1.599  -3.124   2.621  0.00  0.00    -0.012 A 
ATOM      4  C3A BZF d   1       0.687  -2.115   2.179  0.00  0.00    -0.107 A 
ATOM      5  C4  BZF d   1      -0.246  -1.348   2.817  0.00  0.00     0.055 A 
ATOM      6  C5  BZF d   1      -0.920  -0.403   2.109  0.00  0.00    -0.016 A 
ATOM      7  C6  BZF d   1      -0.683  -0.195   0.766  0.00  0.00     0.022 A 
ATOM      8  C7  BZF d   1       0.230  -0.934   0.090  0.00  0.00     0.029 A 
ATOM      9  C7A BZF d   1       0.889  -1.912   0.794  0.00  0.00     0.058 A 
ENDROOT
TORSDOF 0
ENDMDL
