MODEL 1
REMARK minimizedAffinity 1.57220519
REMARK minimizedRMSD -1
REMARK  0 active torsions:
REMARK  status: ('A' for Active; 'I' for Inactive)
ROOT
ATOM      1  O1  BZF d   1       4.381   5.830   3.134  0.00  0.00    -0.204 OA
ATOM      2  C2  BZF d   1       4.000   5.769   1.807  0.00  0.00     0.174 A 
ATOM      3  C3  BZF d   1       2.656   5.737   1.697  0.00  0.00    -0.012 A 
ATOM      4  C3A BZF d   1       2.165   5.873   3.034  0.00  0.00    -0.107 A 
ATOM      5  C4  BZF d   1       0.912   5.926   3.573  0.00  0.00     0.055 A 
ATOM      6  C5  BZF d   1       0.776   5.989   4.923  0.00  0.00    -0.016 A 
ATOM      7  C6  BZF d   1       1.869   5.995   5.764  0.00  0.00     0.022 A 
ATOM      8  C7  BZF d   1       3.133   5.948   5.276  0.00  0.00     0.029 A 
ATOM      9  C7A BZF d   1       3.274   5.918   3.910  0.00  0.00     0.058 A 
ENDROOT
TORSDOF 0
ENDMDL
