MODEL 1
REMARK minimizedAffinity 3.10977864
REMARK minimizedRMSD -1
REMARK  0 active torsions:
REMARK  status: ('A' for Active; 'I' for Inactive)
ROOT
ATOM      1  O1  BZF d   1       1.021  -1.901   1.148  0.00  0.00    -0.204 OA
ATOM      2  C2  BZF d   1       1.206  -1.258  -0.061  0.00  0.00     0.174 A 
ATOM      3  C3  BZF d   1       0.234  -0.346  -0.271  0.00  0.00    -0.012 A 
ATOM      4  C3A BZF d   1      -0.559  -0.361   0.920  0.00  0.00    -0.107 A 
ATOM      5  C4  BZF d   1      -1.661   0.338   1.322  0.00  0.00     0.055 A 
ATOM      6  C5  BZF d   1      -2.238   0.033   2.515  0.00  0.00    -0.016 A 
ATOM      7  C6  BZF d   1      -1.741  -0.966   3.327  0.00  0.00     0.022 A 
ATOM      8  C7  BZF d   1      -0.647  -1.682   2.973  0.00  0.00     0.029 A 
ATOM      9  C7A BZF d   1      -0.043  -1.355   1.783  0.00  0.00     0.058 A 
ENDROOT
TORSDOF 0
ENDMDL
