MODEL 1
REMARK minimizedAffinity 5.28025627
REMARK minimizedRMSD -1
REMARK  1 active torsions:
REMARK  status: ('A' for Active; 'I' for Inactive)
REMARK    1  A    between atoms: C1_2  and  C2_3 
ROOT
ATOM      1  C2  UNL d   1       1.698   0.320  -0.052  0.00  0.00    -0.073 A 
ATOM      2  C3  UNL d   1       2.926  -0.187   0.386  0.00  0.00    -0.002 A 
ATOM      3  C4  UNL d   1       3.169  -1.561   0.366  0.00  0.00     0.004 A 
ATOM      4  C5  UNL d   1       2.191  -2.440  -0.097  0.00  0.00    -0.004 A 
ATOM      5  C6  UNL d   1       0.961  -1.952  -0.550  0.00  0.00    -0.075 A 
ATOM      6  C7  UNL d   1      -0.103  -2.885  -1.050  0.00  0.00     0.076 C 
ATOM      7  C8  UNL d   1       0.723  -0.571  -0.524  0.00  0.00     0.001 A 
ENDROOT
BRANCH   1   8
ATOM      8  C1  UNL d   1       1.433   1.804  -0.038  0.00  0.00     0.053 C 
ATOM      9  C   UNL d   1       2.373   2.542   0.901  0.00  0.00     0.018 C 
ENDBRANCH   1   8
TORSDOF 1
ENDMDL
