MODEL 1
REMARK minimizedAffinity 7.67424965
REMARK minimizedRMSD -1
REMARK  1 active torsions:
REMARK  status: ('A' for Active; 'I' for Inactive)
REMARK    1  A    between atoms: C1_2  and  C2_3 
ROOT
ATOM      1  C2  UNL d   1       2.408   0.708   0.395  0.00  0.00    -0.073 A 
ATOM      2  C3  UNL d   1       3.089   0.768   1.616  0.00  0.00    -0.002 A 
ATOM      3  C4  UNL d   1       3.553  -0.400   2.223  0.00  0.00     0.004 A 
ATOM      4  C5  UNL d   1       3.347  -1.638   1.612  0.00  0.00    -0.004 A 
ATOM      5  C6  UNL d   1       2.679  -1.717   0.386  0.00  0.00    -0.075 A 
ATOM      6  C7  UNL d   1       2.448  -3.040  -0.283  0.00  0.00     0.076 C 
ATOM      7  C8  UNL d   1       2.214  -0.540  -0.215  0.00  0.00     0.001 A 
ENDROOT
BRANCH   1   8
ATOM      8  C1  UNL d   1       1.910   1.967  -0.266  0.00  0.00     0.053 C 
ATOM      9  C   UNL d   1       0.428   1.891  -0.594  0.00  0.00     0.018 C 
ENDBRANCH   1   8
TORSDOF 1
ENDMDL
