MODEL 1
REMARK minimizedAffinity 4.14209032
REMARK minimizedRMSD -1
REMARK  1 active torsions:
REMARK  status: ('A' for Active; 'I' for Inactive)
REMARK    1  A    between atoms: C1_2  and  C2_3 
ROOT
ATOM      1  C2  UNL d   1      -3.607   0.766  -3.096  0.00  0.00    -0.073 A 
ATOM      2  C3  UNL d   1      -4.100   2.075  -3.135  0.00  0.00    -0.002 A 
ATOM      3  C4  UNL d   1      -5.197   2.391  -3.938  0.00  0.00     0.004 A 
ATOM      4  C5  UNL d   1      -5.815   1.403  -4.704  0.00  0.00    -0.004 A 
ATOM      5  C6  UNL d   1      -5.344   0.086  -4.669  0.00  0.00    -0.075 A 
ATOM      6  C7  UNL d   1      -5.996  -0.988  -5.489  0.00  0.00     0.076 C 
ATOM      7  C8  UNL d   1      -4.241  -0.223  -3.862  0.00  0.00     0.001 A 
ENDROOT
BRANCH   1   8
ATOM      8  C1  UNL d   1      -2.427   0.418  -2.226  0.00  0.00     0.053 C 
ATOM      9  C   UNL d   1      -1.594  -0.708  -2.818  0.00  0.00     0.018 C 
ENDBRANCH   1   8
TORSDOF 1
ENDMDL
