MODEL 1
REMARK minimizedAffinity -1.63728154
REMARK minimizedRMSD -1
REMARK  2 active torsions:
REMARK  status: ('A' for Active; 'I' for Inactive)
REMARK    1  A    between atoms: C2'_3  and  C1'_4 
REMARK    2  A    between atoms: C1'_4  and  C1_5 
ROOT
ATOM      1  C1  I4B d   1       2.137   3.773  -5.998  0.00  0.00    -0.075 A 
ATOM      2  C2  I4B d   1       2.162   5.145  -6.000  0.00  0.00     0.003 A 
ATOM      3  C3  I4B d   1       3.399   5.835  -5.992  0.00  0.00     0.002 A 
ATOM      4  C4  I4B d   1       4.577   5.118  -5.932  0.00  0.00    -0.004 A 
ATOM      5  C5  I4B d   1       4.549   3.727  -5.954  0.00  0.00     0.002 A 
ATOM      6  C6  I4B d   1       3.322   3.049  -5.999  0.00  0.00     0.003 A 
ENDROOT
BRANCH   1   7
ATOM      7  C1' I4B d   1       0.813   3.077  -5.974  0.00  0.00     0.060 C 
BRANCH   7   8
ATOM      8  C2' I4B d   1      -0.192   4.007  -5.325  0.00  0.00    -0.013 C 
ATOM      9  C4' I4B d   1      -0.201   5.354  -5.999  0.00  0.00     0.013 C 
ATOM     10  C3' I4B d   1      -1.541   3.356  -5.399  0.00  0.00     0.013 C 
ENDBRANCH   7   8
ENDBRANCH   1   7
TORSDOF 2
ENDMDL
