MODEL 1
REMARK minimizedAffinity 2.79586053
REMARK minimizedRMSD -1
REMARK  2 active torsions:
REMARK  status: ('A' for Active; 'I' for Inactive)
REMARK    1  A    between atoms: C2'_3  and  C1'_4 
REMARK    2  A    between atoms: C1'_4  and  C1_5 
ROOT
ATOM      1  C1  I4B d   1       0.762   4.514  -5.930  0.00  0.00    -0.075 A 
ATOM      2  C2  I4B d   1      -0.366   5.294  -5.879  0.00  0.00     0.003 A 
ATOM      3  C3  I4B d   1      -1.648   4.693  -5.873  0.00  0.00     0.002 A 
ATOM      4  C4  I4B d   1      -1.756   3.321  -5.970  0.00  0.00    -0.004 A 
ATOM      5  C5  I4B d   1      -0.611   2.531  -5.999  0.00  0.00     0.002 A 
ATOM      6  C6  I4B d   1       0.657   3.130  -5.966  0.00  0.00     0.003 A 
ENDROOT
BRANCH   1   7
ATOM      7  C1' I4B d   1       2.100   5.183  -5.968  0.00  0.00     0.060 C 
BRANCH   7   8
ATOM      8  C2' I4B d   1       3.162   4.103  -5.980  0.00  0.00    -0.013 C 
ATOM      9  C4' I4B d   1       4.545   4.698  -5.997  0.00  0.00     0.013 C 
ATOM     10  C3' I4B d   1       2.958   3.241  -4.770  0.00  0.00     0.013 C 
ENDBRANCH   7   8
ENDBRANCH   1   7
TORSDOF 2
ENDMDL
