MODEL 1
REMARK minimizedAffinity 2.43630552
REMARK minimizedRMSD -1
REMARK  2 active torsions:
REMARK  status: ('A' for Active; 'I' for Inactive)
REMARK    1  A    between atoms: C2'_3  and  C1'_4 
REMARK    2  A    between atoms: C1'_4  and  C1_5 
ROOT
ATOM      1  C1  I4B d   1      -1.366   4.106  -5.913  0.00  0.00    -0.075 A 
ATOM      2  C2  I4B d   1      -2.314   3.113  -5.934  0.00  0.00     0.003 A 
ATOM      3  C3  I4B d   1      -3.689   3.442  -6.000  0.00  0.00     0.002 A 
ATOM      4  C4  I4B d   1      -4.073   4.767  -5.992  0.00  0.00    -0.004 A 
ATOM      5  C5  I4B d   1      -3.110   5.773  -5.994  0.00  0.00     0.002 A 
ATOM      6  C6  I4B d   1      -1.748   5.440  -5.967  0.00  0.00     0.003 A 
ENDROOT
BRANCH   1   7
ATOM      7  C1' I4B d   1       0.076   3.724  -5.810  0.00  0.00     0.060 C 
BRANCH   7   8
ATOM      8  C2' I4B d   1       0.906   4.978  -5.998  0.00  0.00    -0.013 C 
ATOM      9  C4' I4B d   1       0.598   6.000  -4.936  0.00  0.00     0.013 C 
ATOM     10  C3' I4B d   1       2.353   4.584  -5.968  0.00  0.00     0.013 C 
ENDBRANCH   7   8
ENDBRANCH   1   7
TORSDOF 2
ENDMDL
