MODEL 1
REMARK minimizedAffinity 6.13577938
REMARK minimizedRMSD -1
REMARK  2 active torsions:
REMARK  status: ('A' for Active; 'I' for Inactive)
REMARK    1  A    between atoms: C2'_3  and  C1'_4 
REMARK    2  A    between atoms: C1'_4  and  C1_5 
ROOT
ATOM      1  C1  I4B d   1      -0.084   4.085  -5.987  0.00  0.00    -0.075 A 
ATOM      2  C2  I4B d   1       0.977   4.956  -5.988  0.00  0.00     0.003 A 
ATOM      3  C3  I4B d   1       2.304   4.462  -5.973  0.00  0.00     0.002 A 
ATOM      4  C4  I4B d   1       2.522   3.101  -5.906  0.00  0.00    -0.004 A 
ATOM      5  C5  I4B d   1       1.445   2.219  -5.928  0.00  0.00     0.002 A 
ATOM      6  C6  I4B d   1       0.134   2.714  -5.981  0.00  0.00     0.003 A 
ENDROOT
BRANCH   1   7
ATOM      7  C1' I4B d   1      -1.472   4.642  -5.971  0.00  0.00     0.060 C 
BRANCH   7   8
ATOM      8  C2' I4B d   1      -2.436   3.485  -5.799  0.00  0.00    -0.013 C 
ATOM      9  C4' I4B d   1      -2.110   2.682  -4.568  0.00  0.00     0.013 C 
ATOM     10  C3' I4B d   1      -3.825   4.047  -5.727  0.00  0.00     0.013 C 
ENDBRANCH   7   8
ENDBRANCH   1   7
TORSDOF 2
ENDMDL
