MODEL 1
REMARK minimizedAffinity -1.82280159
REMARK minimizedRMSD -1
REMARK  2 active torsions:
REMARK  status: ('A' for Active; 'I' for Inactive)
REMARK    1  A    between atoms: C2'_3  and  C1'_4 
REMARK    2  A    between atoms: C1'_4  and  C1_5 
ROOT
ATOM      1  C1  I4B d   1      -0.870   4.815  -5.549  0.00  0.00    -0.075 A 
ATOM      2  C2  I4B d   1      -1.670   3.793  -5.997  0.00  0.00     0.003 A 
ATOM      3  C3  I4B d   1      -3.016   3.701  -5.568  0.00  0.00     0.002 A 
ATOM      4  C4  I4B d   1      -3.504   4.617  -4.659  0.00  0.00    -0.004 A 
ATOM      5  C5  I4B d   1      -2.699   5.666  -4.224  0.00  0.00     0.002 A 
ATOM      6  C6  I4B d   1      -1.377   5.773  -4.681  0.00  0.00     0.003 A 
ENDROOT
BRANCH   1   7
ATOM      7  C1' I4B d   1       0.556   4.863  -5.997  0.00  0.00     0.060 C 
BRANCH   7   8
ATOM      8  C2' I4B d   1       1.244   3.608  -5.499  0.00  0.00    -0.013 C 
ATOM      9  C4' I4B d   1       0.543   2.370  -5.992  0.00  0.00     0.013 C 
ATOM     10  C3' I4B d   1       2.669   3.645  -5.965  0.00  0.00     0.013 C 
ENDBRANCH   7   8
ENDBRANCH   1   7
TORSDOF 2
ENDMDL
