MODEL 1
REMARK minimizedAffinity 10.3678026
REMARK minimizedRMSD -1
REMARK  2 active torsions:
REMARK  status: ('A' for Active; 'I' for Inactive)
REMARK    1  A    between atoms: C2'_3  and  C1'_4 
REMARK    2  A    between atoms: C1'_4  and  C1_5 
ROOT
ATOM      1  C1  I4B d   1       1.474  -1.142  -3.124  0.00  0.00    -0.075 A 
ATOM      2  C2  I4B d   1       1.537  -2.460  -2.746  0.00  0.00     0.003 A 
ATOM      3  C3  I4B d   1       1.948  -2.807  -1.436  0.00  0.00     0.002 A 
ATOM      4  C4  I4B d   1       2.333  -1.814  -0.559  0.00  0.00    -0.004 A 
ATOM      5  C5  I4B d   1       2.246  -0.477  -0.936  0.00  0.00     0.002 A 
ATOM      6  C6  I4B d   1       1.803  -0.137  -2.223  0.00  0.00     0.003 A 
ENDROOT
BRANCH   1   7
ATOM      7  C1' I4B d   1       1.067  -0.812  -4.525  0.00  0.00     0.060 C 
BRANCH   7   8
ATOM      8  C2' I4B d   1       0.279   0.481  -4.491  0.00  0.00    -0.013 C 
ATOM      9  C4' I4B d   1       0.272   1.152  -5.839  0.00  0.00     0.013 C 
ATOM     10  C3' I4B d   1      -1.114   0.162  -4.037  0.00  0.00     0.013 C 
ENDBRANCH   7   8
ENDBRANCH   1   7
TORSDOF 2
ENDMDL
