MODEL 1
REMARK minimizedAffinity 0.0989984721
REMARK minimizedRMSD -1
REMARK  2 active torsions:
REMARK  status: ('A' for Active; 'I' for Inactive)
REMARK    1  A    between atoms: C2'_3  and  C1'_4 
REMARK    2  A    between atoms: C1'_4  and  C1_5 
ROOT
ATOM      1  C1  I4B d   1       0.192   4.528  -4.645  0.00  0.00    -0.075 A 
ATOM      2  C2  I4B d   1      -0.055   5.220  -5.805  0.00  0.00     0.003 A 
ATOM      3  C3  I4B d   1      -1.293   5.883  -5.989  0.00  0.00     0.002 A 
ATOM      4  C4  I4B d   1      -2.267   5.787  -5.015  0.00  0.00    -0.004 A 
ATOM      5  C5  I4B d   1      -2.005   5.104  -3.831  0.00  0.00     0.002 A 
ATOM      6  C6  I4B d   1      -0.764   4.481  -3.639  0.00  0.00     0.003 A 
ENDROOT
BRANCH   1   7
ATOM      7  C1' I4B d   1       1.497   3.812  -4.498  0.00  0.00     0.060 C 
BRANCH   7   8
ATOM      8  C2' I4B d   1       2.176   3.794  -5.853  0.00  0.00    -0.013 C 
ATOM      9  C4' I4B d   1       3.131   4.949  -6.000  0.00  0.00     0.013 C 
ATOM     10  C3' I4B d   1       2.887   2.482  -5.998  0.00  0.00     0.013 C 
ENDBRANCH   7   8
ENDBRANCH   1   7
TORSDOF 2
ENDMDL
