MODEL 1
REMARK minimizedAffinity 14.3941574
REMARK minimizedRMSD -1
REMARK  2 active torsions:
REMARK  status: ('A' for Active; 'I' for Inactive)
REMARK    1  A    between atoms: C2'_3  and  C1'_4 
REMARK    2  A    between atoms: C1'_4  and  C1_5 
ROOT
ATOM      1  C1  I4B d   1      -4.896  -3.738   1.852  0.00  0.00    -0.075 A 
ATOM      2  C2  I4B d   1      -5.923  -4.593   1.538  0.00  0.00     0.003 A 
ATOM      3  C3  I4B d   1      -5.671  -5.758   0.772  0.00  0.00     0.002 A 
ATOM      4  C4  I4B d   1      -4.397  -6.000   0.302  0.00  0.00    -0.004 A 
ATOM      5  C5  I4B d   1      -3.353  -5.143   0.641  0.00  0.00     0.002 A 
ATOM      6  C6  I4B d   1      -3.601  -4.012   1.431  0.00  0.00     0.003 A 
ENDROOT
BRANCH   1   7
ATOM      7  C1' I4B d   1      -5.203  -2.500   2.634  0.00  0.00     0.060 C 
BRANCH   7   8
ATOM      8  C2' I4B d   1      -3.940  -2.082   3.360  0.00  0.00    -0.013 C 
ATOM      9  C4' I4B d   1      -3.109  -1.153   2.515  0.00  0.00     0.013 C 
ATOM     10  C3' I4B d   1      -4.342  -1.428   4.648  0.00  0.00     0.013 C 
ENDBRANCH   7   8
ENDBRANCH   1   7
TORSDOF 2
ENDMDL
