MODEL 1
REMARK minimizedAffinity 4.97012472
REMARK minimizedRMSD -1
REMARK  2 active torsions:
REMARK  status: ('A' for Active; 'I' for Inactive)
REMARK    1  A    between atoms: C2'_3  and  C1'_4 
REMARK    2  A    between atoms: C1'_4  and  C1_5 
ROOT
ATOM      1  C1  I4B d   1      -1.719  -1.206   1.891  0.00  0.00    -0.075 A 
ATOM      2  C2  I4B d   1      -2.076  -2.332   2.590  0.00  0.00     0.003 A 
ATOM      3  C3  I4B d   1      -3.350  -2.417   3.203  0.00  0.00     0.002 A 
ATOM      4  C4  I4B d   1      -4.209  -1.340   3.135  0.00  0.00    -0.004 A 
ATOM      5  C5  I4B d   1      -3.855  -0.208   2.407  0.00  0.00     0.002 A 
ATOM      6  C6  I4B d   1      -2.607  -0.145   1.770  0.00  0.00     0.003 A 
ENDROOT
BRANCH   1   7
ATOM      7  C1' I4B d   1      -0.354  -1.138   1.284  0.00  0.00     0.060 C 
BRANCH   7   8
ATOM      8  C2' I4B d   1      -0.230   0.189   0.563  0.00  0.00    -0.013 C 
ATOM      9  C4' I4B d   1       0.446   1.219   1.429  0.00  0.00     0.013 C 
ATOM     10  C3' I4B d   1       0.538  -0.042  -0.704  0.00  0.00     0.013 C 
ENDBRANCH   7   8
ENDBRANCH   1   7
TORSDOF 2
ENDMDL
