MODEL 1
REMARK minimizedAffinity 9.29693699
REMARK minimizedRMSD -1
REMARK  2 active torsions:
REMARK  status: ('A' for Active; 'I' for Inactive)
REMARK    1  A    between atoms: C2'_3  and  C1'_4 
REMARK    2  A    between atoms: C1'_4  and  C1_5 
ROOT
ATOM      1  C1  I4B d   1      -2.792  -1.491   2.495  0.00  0.00    -0.075 A 
ATOM      2  C2  I4B d   1      -3.172  -0.359   1.818  0.00  0.00     0.003 A 
ATOM      3  C3  I4B d   1      -4.477   0.165   1.982  0.00  0.00     0.002 A 
ATOM      4  C4  I4B d   1      -5.380  -0.499   2.788  0.00  0.00    -0.004 A 
ATOM      5  C5  I4B d   1      -4.985  -1.633   3.491  0.00  0.00     0.002 A 
ATOM      6  C6  I4B d   1      -3.679  -2.126   3.354  0.00  0.00     0.003 A 
ENDROOT
BRANCH   1   7
ATOM      7  C1' I4B d   1      -1.416  -2.035   2.274  0.00  0.00     0.060 C 
BRANCH   7   8
ATOM      8  C2' I4B d   1      -1.433  -3.507   2.635  0.00  0.00    -0.013 C 
ATOM      9  C4' I4B d   1      -1.051  -4.362   1.455  0.00  0.00     0.013 C 
ATOM     10  C3' I4B d   1      -0.488  -3.713   3.781  0.00  0.00     0.013 C 
ENDBRANCH   7   8
ENDBRANCH   1   7
TORSDOF 2
ENDMDL
