MODEL 1
REMARK minimizedAffinity 4.33507299
REMARK minimizedRMSD -1
REMARK  2 active torsions:
REMARK  status: ('A' for Active; 'I' for Inactive)
REMARK    1  A    between atoms: C2'_3  and  C1'_4 
REMARK    2  A    between atoms: C1'_4  and  C1_5 
ROOT
ATOM      1  C1  I4B d   1      -0.071   1.513  -0.770  0.00  0.00    -0.075 A 
ATOM      2  C2  I4B d   1       0.487   0.363  -1.269  0.00  0.00     0.003 A 
ATOM      3  C3  I4B d   1       1.806   0.376  -1.783  0.00  0.00     0.002 A 
ATOM      4  C4  I4B d   1       2.508   1.563  -1.823  0.00  0.00    -0.004 A 
ATOM      5  C5  I4B d   1       1.949   2.723  -1.295  0.00  0.00     0.002 A 
ATOM      6  C6  I4B d   1       0.656   2.696  -0.754  0.00  0.00     0.003 A 
ENDROOT
BRANCH   1   7
ATOM      7  C1' I4B d   1      -1.479   1.471  -0.266  0.00  0.00     0.060 C 
BRANCH   7   8
ATOM      8  C2' I4B d   1      -1.438   1.586   1.245  0.00  0.00    -0.013 C 
ATOM      9  C4' I4B d   1      -2.749   1.172   1.859  0.00  0.00     0.013 C 
ATOM     10  C3' I4B d   1      -0.312   0.731   1.743  0.00  0.00     0.013 C 
ENDBRANCH   7   8
ENDBRANCH   1   7
TORSDOF 2
ENDMDL
