MODEL 1
REMARK minimizedAffinity 4.88782883
REMARK minimizedRMSD -1
REMARK  2 active torsions:
REMARK  status: ('A' for Active; 'I' for Inactive)
REMARK    1  A    between atoms: C1_2  and  C2_3 
REMARK    2  A    between atoms: C2_3  and  C3_4 
ROOT
ATOM      1  C3  UNL d   1      -0.161   3.511  -0.205  0.00  0.00    -0.075 A 
ATOM      2  C4  UNL d   1      -1.264   4.313   0.118  0.00  0.00     0.002 A 
ATOM      3  C5  UNL d   1      -1.800   5.193  -0.823  0.00  0.00     0.002 A 
ATOM      4  C6  UNL d   1      -1.234   5.289  -2.093  0.00  0.00    -0.004 A 
ATOM      5  C7  UNL d   1      -0.127   4.508  -2.419  0.00  0.00     0.002 A 
ATOM      6  C8  UNL d   1       0.408   3.624  -1.481  0.00  0.00     0.002 A 
ENDROOT
BRANCH   1   7
ATOM      7  C2  UNL d   1       0.405   2.535   0.799  0.00  0.00     0.056 C 
BRANCH   7   8
ATOM      8  C1  UNL d   1      -0.460   2.356   2.051  0.00  0.00     0.007 C 
ATOM      9  C   UNL d   1       0.115   1.352   3.040  0.00  0.00     0.009 C 
ENDBRANCH   7   8
ENDBRANCH   1   7
TORSDOF 2
ENDMDL
