MODEL 1
REMARK minimizedAffinity 3.24774551
REMARK minimizedRMSD -1
REMARK  2 active torsions:
REMARK  status: ('A' for Active; 'I' for Inactive)
REMARK    1  A    between atoms: C1_2  and  C2_3 
REMARK    2  A    between atoms: C2_3  and  C3_4 
ROOT
ATOM      1  C3  UNL d   1      -0.273   2.389  -0.610  0.00  0.00    -0.075 A 
ATOM      2  C4  UNL d   1      -0.667   2.999  -1.810  0.00  0.00     0.002 A 
ATOM      3  C5  UNL d   1      -0.251   4.295  -2.115  0.00  0.00     0.002 A 
ATOM      4  C6  UNL d   1       0.553   5.000  -1.223  0.00  0.00    -0.004 A 
ATOM      5  C7  UNL d   1       0.937   4.410  -0.021  0.00  0.00     0.002 A 
ATOM      6  C8  UNL d   1       0.526   3.112   0.286  0.00  0.00     0.002 A 
ENDROOT
BRANCH   1   7
ATOM      7  C2  UNL d   1      -0.696   0.975  -0.287  0.00  0.00     0.056 C 
BRANCH   7   8
ATOM      8  C1  UNL d   1       0.308  -0.093  -0.733  0.00  0.00     0.007 C 
ATOM      9  C   UNL d   1      -0.267  -1.503  -0.713  0.00  0.00     0.009 C 
ENDBRANCH   7   8
ENDBRANCH   1   7
TORSDOF 2
ENDMDL
