MODEL 1
REMARK minimizedAffinity 11.3236475
REMARK minimizedRMSD -1
REMARK  2 active torsions:
REMARK  status: ('A' for Active; 'I' for Inactive)
REMARK    1  A    between atoms: C1_2  and  C2_3 
REMARK    2  A    between atoms: C2_3  and  C3_4 
ROOT
ATOM      1  C3  UNL d   1       1.333  -4.783  -1.265  0.00  0.00    -0.075 A 
ATOM      2  C4  UNL d   1       0.258  -4.741  -2.165  0.00  0.00     0.002 A 
ATOM      3  C5  UNL d   1      -0.575  -3.624  -2.222  0.00  0.00     0.002 A 
ATOM      4  C6  UNL d   1      -0.350  -2.540  -1.376  0.00  0.00    -0.004 A 
ATOM      5  C7  UNL d   1       0.705  -2.577  -0.467  0.00  0.00     0.002 A 
ATOM      6  C8  UNL d   1       1.543  -3.693  -0.411  0.00  0.00     0.002 A 
ENDROOT
BRANCH   1   7
ATOM      7  C2  UNL d   1       2.256  -5.978  -1.219  0.00  0.00     0.056 C 
BRANCH   7   8
ATOM      8  C1  UNL d   1       3.589  -5.764  -1.944  0.00  0.00     0.007 C 
ATOM      9  C   UNL d   1       4.801  -5.999  -1.052  0.00  0.00     0.009 C 
ENDBRANCH   7   8
ENDBRANCH   1   7
TORSDOF 2
ENDMDL
