MODEL 1
REMARK minimizedAffinity 8.09824276
REMARK minimizedRMSD -1
REMARK  2 active torsions:
REMARK  status: ('A' for Active; 'I' for Inactive)
REMARK    1  A    between atoms: C1_2  and  C2_3 
REMARK    2  A    between atoms: C2_3  and  C3_4 
ROOT
ATOM      1  C3  UNL d   1       2.146  -2.578  -0.407  0.00  0.00    -0.075 A 
ATOM      2  C4  UNL d   1       1.692  -3.897  -0.553  0.00  0.00     0.002 A 
ATOM      3  C5  UNL d   1       0.423  -4.156  -1.071  0.00  0.00     0.002 A 
ATOM      4  C6  UNL d   1      -0.410  -3.103  -1.440  0.00  0.00    -0.004 A 
ATOM      5  C7  UNL d   1       0.024  -1.788  -1.284  0.00  0.00     0.002 A 
ATOM      6  C8  UNL d   1       1.295  -1.526  -0.769  0.00  0.00     0.002 A 
ENDROOT
BRANCH   1   7
ATOM      7  C2  UNL d   1       3.530  -2.292   0.126  0.00  0.00     0.056 C 
BRANCH   7   8
ATOM      8  C1  UNL d   1       4.651  -2.529  -0.891  0.00  0.00     0.007 C 
ATOM      9  C   UNL d   1       5.225  -3.939  -0.833  0.00  0.00     0.009 C 
ENDBRANCH   7   8
ENDBRANCH   1   7
TORSDOF 2
ENDMDL
