MODEL 1
REMARK minimizedAffinity 4.14365196
REMARK minimizedRMSD -1
REMARK  2 active torsions:
REMARK  status: ('A' for Active; 'I' for Inactive)
REMARK    1  A    between atoms: C1_2  and  C2_3 
REMARK    2  A    between atoms: C2_3  and  C3_4 
ROOT
ATOM      1  C3  UNL d   1      -4.893  -0.795   4.336  0.00  0.00    -0.075 A 
ATOM      2  C4  UNL d   1      -3.757  -1.616   4.392  0.00  0.00     0.002 A 
ATOM      3  C5  UNL d   1      -3.739  -2.747   5.208  0.00  0.00     0.002 A 
ATOM      4  C6  UNL d   1      -4.850  -3.066   5.986  0.00  0.00    -0.004 A 
ATOM      5  C7  UNL d   1      -5.978  -2.249   5.951  0.00  0.00     0.002 A 
ATOM      6  C8  UNL d   1      -6.000  -1.119   5.132  0.00  0.00     0.002 A 
ENDROOT
BRANCH   1   7
ATOM      7  C2  UNL d   1      -4.929   0.414   3.432  0.00  0.00     0.056 C 
BRANCH   7   8
ATOM      8  C1  UNL d   1      -3.661   0.604   2.594  0.00  0.00     0.007 C 
ATOM      9  C   UNL d   1      -3.787   0.053   1.180  0.00  0.00     0.009 C 
ENDBRANCH   7   8
ENDBRANCH   1   7
TORSDOF 2
ENDMDL
