MODEL 1
REMARK minimizedAffinity 8.22769165
REMARK minimizedRMSD -1
REMARK  2 active torsions:
REMARK  status: ('A' for Active; 'I' for Inactive)
REMARK    1  A    between atoms: C1_2  and  C2_3 
REMARK    2  A    between atoms: C2_3  and  C3_4 
ROOT
ATOM      1  C3  UNL d   1      -5.650   1.407  -4.682  0.00  0.00    -0.075 A 
ATOM      2  C4  UNL d   1      -5.827   0.791  -3.434  0.00  0.00     0.002 A 
ATOM      3  C5  UNL d   1      -6.000   1.559  -2.283  0.00  0.00     0.002 A 
ATOM      4  C6  UNL d   1      -5.988   2.950  -2.361  0.00  0.00    -0.004 A 
ATOM      5  C7  UNL d   1      -5.797   3.573  -3.593  0.00  0.00     0.002 A 
ATOM      6  C8  UNL d   1      -5.628   2.807  -4.747  0.00  0.00     0.002 A 
ENDROOT
BRANCH   1   7
ATOM      7  C2  UNL d   1      -5.491   0.581  -5.936  0.00  0.00     0.056 C 
BRANCH   7   8
ATOM      8  C1  UNL d   1      -4.348  -0.437  -5.872  0.00  0.00     0.007 C 
ATOM      9  C   UNL d   1      -2.970   0.199  -6.000  0.00  0.00     0.009 C 
ENDBRANCH   7   8
ENDBRANCH   1   7
TORSDOF 2
ENDMDL
