MODEL 1
REMARK minimizedAffinity 10.8887291
REMARK minimizedRMSD -1
REMARK  2 active torsions:
REMARK  status: ('A' for Active; 'I' for Inactive)
REMARK    1  A    between atoms: C1_2  and  C2_3 
REMARK    2  A    between atoms: C2_3  and  C3_4 
ROOT
ATOM      1  C3  UNL d   1      -0.341   3.673  -0.130  0.00  0.00    -0.075 A 
ATOM      2  C4  UNL d   1      -0.714   4.926   0.378  0.00  0.00     0.002 A 
ATOM      3  C5  UNL d   1      -0.943   5.999  -0.483  0.00  0.00     0.002 A 
ATOM      4  C6  UNL d   1      -0.792   5.838  -1.858  0.00  0.00    -0.004 A 
ATOM      5  C7  UNL d   1      -0.406   4.602  -2.373  0.00  0.00     0.002 A 
ATOM      6  C8  UNL d   1      -0.181   3.525  -1.514  0.00  0.00     0.002 A 
ENDROOT
BRANCH   1   7
ATOM      7  C2  UNL d   1      -0.120   2.499   0.794  0.00  0.00     0.056 C 
BRANCH   7   8
ATOM      8  C1  UNL d   1      -0.222   2.849   2.283  0.00  0.00     0.007 C 
ATOM      9  C   UNL d   1      -1.486   2.314   2.941  0.00  0.00     0.009 C 
ENDBRANCH   7   8
ENDBRANCH   1   7
TORSDOF 2
ENDMDL
