MODEL 1
REMARK minimizedAffinity 0.0275617484
REMARK minimizedRMSD -1
REMARK  2 active torsions:
REMARK  status: ('A' for Active; 'I' for Inactive)
REMARK    1  A    between atoms: C1_2  and  C2_3 
REMARK    2  A    between atoms: C2_3  and  C3_4 
ROOT
ATOM      1  C3  UNL d   1       0.918  -0.476  -0.150  0.00  0.00    -0.075 A 
ATOM      2  C4  UNL d   1       1.399   0.831   0.016  0.00  0.00     0.002 A 
ATOM      3  C5  UNL d   1       2.756   1.063   0.242  0.00  0.00     0.002 A 
ATOM      4  C6  UNL d   1       3.647  -0.006   0.314  0.00  0.00    -0.004 A 
ATOM      5  C7  UNL d   1       3.177  -1.309   0.166  0.00  0.00     0.002 A 
ATOM      6  C8  UNL d   1       1.821  -1.544  -0.064  0.00  0.00     0.002 A 
ENDROOT
BRANCH   1   7
ATOM      7  C2  UNL d   1      -0.544  -0.732  -0.423  0.00  0.00     0.056 C 
BRANCH   7   8
ATOM      8  C1  UNL d   1      -0.810  -1.518  -1.711  0.00  0.00     0.007 C 
ATOM      9  C   UNL d   1      -1.282  -0.642  -2.864  0.00  0.00     0.009 C 
ENDBRANCH   7   8
ENDBRANCH   1   7
TORSDOF 2
ENDMDL
