MODEL 1
REMARK minimizedAffinity -4.52899837
REMARK minimizedRMSD -1
REMARK  2 active torsions:
REMARK  status: ('A' for Active; 'I' for Inactive)
REMARK    1  A    between atoms: C1_2  and  C2_3 
REMARK    2  A    between atoms: C2_3  and  C3_4 
ROOT
ATOM      1  C3  UNL d   1      -0.327   0.450  -0.585  0.00  0.00    -0.075 A 
ATOM      2  C4  UNL d   1       0.377  -0.601   0.020  0.00  0.00     0.002 A 
ATOM      3  C5  UNL d   1       1.512  -0.343   0.790  0.00  0.00     0.002 A 
ATOM      4  C6  UNL d   1       1.961   0.965   0.956  0.00  0.00    -0.004 A 
ATOM      5  C7  UNL d   1       1.279   2.015   0.346  0.00  0.00     0.002 A 
ATOM      6  C8  UNL d   1       0.141   1.760  -0.422  0.00  0.00     0.002 A 
ENDROOT
BRANCH   1   7
ATOM      7  C2  UNL d   1      -1.572   0.180  -1.396  0.00  0.00     0.056 C 
BRANCH   7   8
ATOM      8  C1  UNL d   1      -1.390   0.380  -2.904  0.00  0.00     0.007 C 
ATOM      9  C   UNL d   1      -1.231  -0.928  -3.668  0.00  0.00     0.009 C 
ENDBRANCH   7   8
ENDBRANCH   1   7
TORSDOF 2
ENDMDL
