MODEL 1
REMARK minimizedAffinity 0.598354399
REMARK minimizedRMSD -1
REMARK  2 active torsions:
REMARK  status: ('A' for Active; 'I' for Inactive)
REMARK    1  A    between atoms: C1_2  and  C2_3 
REMARK    2  A    between atoms: C2_3  and  C3_4 
ROOT
ATOM      1  C3  UNL d   1      -0.636  -0.526  -1.798  0.00  0.00    -0.075 A 
ATOM      2  C4  UNL d   1      -0.631  -1.886  -2.139  0.00  0.00     0.002 A 
ATOM      3  C5  UNL d   1      -0.911  -2.290  -3.445  0.00  0.00     0.002 A 
ATOM      4  C6  UNL d   1      -1.209  -1.342  -4.422  0.00  0.00    -0.004 A 
ATOM      5  C7  UNL d   1      -1.233   0.011  -4.090  0.00  0.00     0.002 A 
ATOM      6  C8  UNL d   1      -0.949   0.418  -2.785  0.00  0.00     0.002 A 
ENDROOT
BRANCH   1   7
ATOM      7  C2  UNL d   1      -0.306  -0.080  -0.393  0.00  0.00     0.056 C 
BRANCH   7   8
ATOM      8  C1  UNL d   1       1.152   0.350  -0.203  0.00  0.00     0.007 C 
ATOM      9  C   UNL d   1       1.332   1.862  -0.162  0.00  0.00     0.009 C 
ENDBRANCH   7   8
ENDBRANCH   1   7
TORSDOF 2
ENDMDL
