MODEL 1
REMARK minimizedAffinity -3.81422687
REMARK minimizedRMSD -1
REMARK  2 active torsions:
REMARK  status: ('A' for Active; 'I' for Inactive)
REMARK    1  A    between atoms: C1_2  and  C2_3 
REMARK    2  A    between atoms: C2_3  and  C3_4 
ROOT
ATOM      1  C3  UNL d   1      -2.983   0.458  -0.252  0.00  0.00    -0.075 A 
ATOM      2  C4  UNL d   1      -3.124   1.246   0.899  0.00  0.00     0.002 A 
ATOM      3  C5  UNL d   1      -4.332   1.272   1.596  0.00  0.00     0.002 A 
ATOM      4  C6  UNL d   1      -5.416   0.521   1.147  0.00  0.00    -0.004 A 
ATOM      5  C7  UNL d   1      -5.292  -0.253  -0.005  0.00  0.00     0.002 A 
ATOM      6  C8  UNL d   1      -4.083  -0.285  -0.702  0.00  0.00     0.002 A 
ENDROOT
BRANCH   1   7
ATOM      7  C2  UNL d   1      -1.669   0.402  -0.994  0.00  0.00     0.056 C 
BRANCH   7   8
ATOM      8  C1  UNL d   1      -0.437   0.486  -0.087  0.00  0.00     0.007 C 
ATOM      9  C   UNL d   1       0.542   1.577  -0.503  0.00  0.00     0.009 C 
ENDBRANCH   7   8
ENDBRANCH   1   7
TORSDOF 2
ENDMDL
