MODEL 1
REMARK minimizedAffinity -1.96527517
REMARK minimizedRMSD -1
REMARK  2 active torsions:
REMARK  status: ('A' for Active; 'I' for Inactive)
REMARK    1  A    between atoms: C1_2  and  C2_3 
REMARK    2  A    between atoms: C2_3  and  C3_4 
ROOT
ATOM      1  C3  UNL d   1       0.947   0.268   0.361  0.00  0.00    -0.075 A 
ATOM      2  C4  UNL d   1       1.048  -0.875  -0.446  0.00  0.00     0.002 A 
ATOM      3  C5  UNL d   1       1.936  -1.898  -0.115  0.00  0.00     0.002 A 
ATOM      4  C6  UNL d   1       2.740  -1.788   1.017  0.00  0.00    -0.004 A 
ATOM      5  C7  UNL d   1       2.660  -0.650   1.817  0.00  0.00     0.002 A 
ATOM      6  C8  UNL d   1       1.769   0.374   1.491  0.00  0.00     0.002 A 
ENDROOT
BRANCH   1   7
ATOM      7  C2  UNL d   1      -0.034   1.366   0.025  0.00  0.00     0.056 C 
BRANCH   7   8
ATOM      8  C1  UNL d   1      -1.360   0.862  -0.555  0.00  0.00     0.007 C 
ATOM      9  C   UNL d   1      -2.504   0.892   0.450  0.00  0.00     0.009 C 
ENDBRANCH   7   8
ENDBRANCH   1   7
TORSDOF 2
ENDMDL
