MODEL 1
REMARK minimizedAffinity -3.18219376
REMARK minimizedRMSD -1
REMARK  2 active torsions:
REMARK  status: ('A' for Active; 'I' for Inactive)
REMARK    1  A    between atoms: C1_2  and  C2_3 
REMARK    2  A    between atoms: C2_3  and  C3_4 
ROOT
ATOM      1  C3  UNL d   1       1.286   0.028   0.799  0.00  0.00    -0.075 A 
ATOM      2  C4  UNL d   1       0.066  -0.336   0.211  0.00  0.00     0.002 A 
ATOM      3  C5  UNL d   1      -0.674   0.593  -0.521  0.00  0.00     0.002 A 
ATOM      4  C6  UNL d   1      -0.209   1.899  -0.665  0.00  0.00    -0.004 A 
ATOM      5  C7  UNL d   1       0.994   2.276  -0.072  0.00  0.00     0.002 A 
ATOM      6  C8  UNL d   1       1.738   1.347   0.657  0.00  0.00     0.002 A 
ENDROOT
BRANCH   1   7
ATOM      7  C2  UNL d   1       2.105  -0.981   1.567  0.00  0.00     0.056 C 
BRANCH   7   8
ATOM      8  C1  UNL d   1       3.233  -1.621   0.750  0.00  0.00     0.007 C 
ATOM      9  C   UNL d   1       2.819  -1.970  -0.673  0.00  0.00     0.009 C 
ENDBRANCH   7   8
ENDBRANCH   1   7
TORSDOF 2
ENDMDL
