MODEL 1
REMARK minimizedAffinity -1.10498011
REMARK minimizedRMSD -1
REMARK  2 active torsions:
REMARK  status: ('A' for Active; 'I' for Inactive)
REMARK    1  A    between atoms: C1_2  and  C2_3 
REMARK    2  A    between atoms: C2_3  and  C3_4 
ROOT
ATOM      1  C3  UNL d   1       0.018   0.460   0.378  0.00  0.00    -0.075 A 
ATOM      2  C4  UNL d   1       0.758  -0.498   1.086  0.00  0.00     0.002 A 
ATOM      3  C5  UNL d   1       2.040  -0.202   1.551  0.00  0.00     0.002 A 
ATOM      4  C6  UNL d   1       2.601   1.048   1.304  0.00  0.00    -0.004 A 
ATOM      5  C7  UNL d   1       1.882   2.002   0.587  0.00  0.00     0.002 A 
ATOM      6  C8  UNL d   1       0.598   1.710   0.125  0.00  0.00     0.002 A 
ENDROOT
BRANCH   1   7
ATOM      7  C2  UNL d   1      -1.381   0.156  -0.102  0.00  0.00     0.056 C 
BRANCH   7   8
ATOM      8  C1  UNL d   1      -2.484   0.643   0.844  0.00  0.00     0.007 C 
ATOM      9  C   UNL d   1      -3.808  -0.083   0.646  0.00  0.00     0.009 C 
ENDBRANCH   7   8
ENDBRANCH   1   7
TORSDOF 2
ENDMDL
