MODEL 1
REMARK minimizedAffinity -2.57783294
REMARK minimizedRMSD -1
REMARK  2 active torsions:
REMARK  status: ('A' for Active; 'I' for Inactive)
REMARK    1  A    between atoms: C1_2  and  C2_3 
REMARK    2  A    between atoms: C2_3  and  C3_4 
ROOT
ATOM      1  C3  UNL d   1       1.335  -0.349   0.066  0.00  0.00    -0.075 A 
ATOM      2  C4  UNL d   1       2.320   0.250   0.864  0.00  0.00     0.002 A 
ATOM      3  C5  UNL d   1       2.146   1.546   1.351  0.00  0.00     0.002 A 
ATOM      4  C6  UNL d   1       0.992   2.261   1.039  0.00  0.00    -0.004 A 
ATOM      5  C7  UNL d   1       0.014   1.682   0.234  0.00  0.00     0.002 A 
ATOM      6  C8  UNL d   1       0.184   0.384  -0.252  0.00  0.00     0.002 A 
ENDROOT
BRANCH   1   7
ATOM      7  C2  UNL d   1       1.505  -1.762  -0.440  0.00  0.00     0.056 C 
BRANCH   7   8
ATOM      8  C1  UNL d   1       1.083  -2.839   0.564  0.00  0.00     0.007 C 
ATOM      9  C   UNL d   1      -0.162  -2.466   1.358  0.00  0.00     0.009 C 
ENDBRANCH   7   8
ENDBRANCH   1   7
TORSDOF 2
ENDMDL
