MODEL 1
REMARK minimizedAffinity -5.25223494
REMARK minimizedRMSD -1
REMARK  2 active torsions:
REMARK  status: ('A' for Active; 'I' for Inactive)
REMARK    1  A    between atoms: C1_2  and  C2_3 
REMARK    2  A    between atoms: C2_3  and  C3_4 
ROOT
ATOM      1  C3  UNL d   1      -0.049   0.065  -0.318  0.00  0.00    -0.075 A 
ATOM      2  C4  UNL d   1       0.360  -1.257  -0.092  0.00  0.00     0.002 A 
ATOM      3  C5  UNL d   1       1.666  -1.536   0.310  0.00  0.00     0.002 A 
ATOM      4  C6  UNL d   1       2.582  -0.500   0.482  0.00  0.00    -0.004 A 
ATOM      5  C7  UNL d   1       2.191   0.816   0.245  0.00  0.00     0.002 A 
ATOM      6  C8  UNL d   1       0.884   1.098  -0.154  0.00  0.00     0.002 A 
ENDROOT
BRANCH   1   7
ATOM      7  C2  UNL d   1      -1.469   0.376  -0.726  0.00  0.00     0.056 C 
BRANCH   7   8
ATOM      8  C1  UNL d   1      -2.055  -0.608  -1.744  0.00  0.00     0.007 C 
ATOM      9  C   UNL d   1      -2.364   0.034  -3.090  0.00  0.00     0.009 C 
ENDBRANCH   7   8
ENDBRANCH   1   7
TORSDOF 2
ENDMDL
