MODEL 1
REMARK minimizedAffinity -2.5993607
REMARK minimizedRMSD -1
REMARK  2 active torsions:
REMARK  status: ('A' for Active; 'I' for Inactive)
REMARK    1  A    between atoms: C1_2  and  C2_3 
REMARK    2  A    between atoms: C2_3  and  C3_4 
ROOT
ATOM      1  C3  UNL d   1       0.011   0.092   0.248  0.00  0.00    -0.075 A 
ATOM      2  C4  UNL d   1       0.502  -0.989   0.996  0.00  0.00     0.002 A 
ATOM      3  C5  UNL d   1       1.828  -1.008   1.428  0.00  0.00     0.002 A 
ATOM      4  C6  UNL d   1       2.682   0.046   1.110  0.00  0.00    -0.004 A 
ATOM      5  C7  UNL d   1       2.210   1.117   0.353  0.00  0.00     0.002 A 
ATOM      6  C8  UNL d   1       0.882   1.140  -0.077  0.00  0.00     0.002 A 
ENDROOT
BRANCH   1   7
ATOM      7  C2  UNL d   1      -1.431   0.132  -0.197  0.00  0.00     0.056 C 
BRANCH   7   8
ATOM      8  C1  UNL d   1      -1.615   0.118  -1.719  0.00  0.00     0.007 C 
ATOM      9  C   UNL d   1      -3.027   0.485  -2.156  0.00  0.00     0.009 C 
ENDBRANCH   7   8
ENDBRANCH   1   7
TORSDOF 2
ENDMDL
