MODEL 1
REMARK minimizedAffinity -1.85616899
REMARK minimizedRMSD -1
REMARK  2 active torsions:
REMARK  status: ('A' for Active; 'I' for Inactive)
REMARK    1  A    between atoms: C1_2  and  C2_3 
REMARK    2  A    between atoms: C2_3  and  C3_4 
ROOT
ATOM      1  C3  UNL d   1      -1.976  -0.348  -0.959  0.00  0.00    -0.075 A 
ATOM      2  C4  UNL d   1      -1.466  -1.130  -2.005  0.00  0.00     0.002 A 
ATOM      3  C5  UNL d   1      -2.123  -1.184  -3.235  0.00  0.00     0.002 A 
ATOM      4  C6  UNL d   1      -3.300  -0.465  -3.430  0.00  0.00    -0.004 A 
ATOM      5  C7  UNL d   1      -3.825   0.302  -2.393  0.00  0.00     0.002 A 
ATOM      6  C8  UNL d   1      -3.167   0.361  -1.163  0.00  0.00     0.002 A 
ENDROOT
BRANCH   1   7
ATOM      7  C2  UNL d   1      -1.254  -0.262   0.365  0.00  0.00     0.056 C 
BRANCH   7   8
ATOM      8  C1  UNL d   1      -0.593   1.095   0.629  0.00  0.00     0.007 C 
ATOM      9  C   UNL d   1       0.775   1.234  -0.025  0.00  0.00     0.009 C 
ENDBRANCH   7   8
ENDBRANCH   1   7
TORSDOF 2
ENDMDL
