MODEL 1
REMARK minimizedAffinity -4.86876154
REMARK minimizedRMSD -1
REMARK  2 active torsions:
REMARK  status: ('A' for Active; 'I' for Inactive)
REMARK    1  A    between atoms: C1_2  and  C2_3 
REMARK    2  A    between atoms: C2_3  and  C3_4 
ROOT
ATOM      1  C3  UNL d   1      -0.006  -0.018   0.187  0.00  0.00    -0.075 A 
ATOM      2  C4  UNL d   1       0.643   1.221   0.295  0.00  0.00     0.002 A 
ATOM      3  C5  UNL d   1       2.014   1.282   0.546  0.00  0.00     0.002 A 
ATOM      4  C6  UNL d   1       2.750   0.109   0.701  0.00  0.00    -0.004 A 
ATOM      5  C7  UNL d   1       2.112  -1.126   0.612  0.00  0.00     0.002 A 
ATOM      6  C8  UNL d   1       0.741  -1.191   0.357  0.00  0.00     0.002 A 
ENDROOT
BRANCH   1   7
ATOM      7  C2  UNL d   1      -1.484  -0.091  -0.113  0.00  0.00     0.056 C 
BRANCH   7   8
ATOM      8  C1  UNL d   1      -1.893   0.613  -1.412  0.00  0.00     0.007 C 
ATOM      9  C   UNL d   1      -2.169  -0.353  -2.557  0.00  0.00     0.009 C 
ENDBRANCH   7   8
ENDBRANCH   1   7
TORSDOF 2
ENDMDL
