MODEL 1
REMARK minimizedAffinity -4.02022791
REMARK minimizedRMSD -1
REMARK  2 active torsions:
REMARK  status: ('A' for Active; 'I' for Inactive)
REMARK    1  A    between atoms: C1_2  and  C2_3 
REMARK    2  A    between atoms: C2_3  and  C3_4 
ROOT
ATOM      1  C3  UNL d   1       0.517   0.391  -0.089  0.00  0.00    -0.075 A 
ATOM      2  C4  UNL d   1       1.785   0.985  -0.156  0.00  0.00     0.002 A 
ATOM      3  C5  UNL d   1       2.923   0.268   0.215  0.00  0.00     0.002 A 
ATOM      4  C6  UNL d   1       2.807  -1.045   0.667  0.00  0.00    -0.004 A 
ATOM      5  C7  UNL d   1       1.550  -1.639   0.754  0.00  0.00     0.002 A 
ATOM      6  C8  UNL d   1       0.410  -0.926   0.379  0.00  0.00     0.002 A 
ENDROOT
BRANCH   1   7
ATOM      7  C2  UNL d   1      -0.716   1.151  -0.517  0.00  0.00     0.056 C 
BRANCH   7   8
ATOM      8  C1  UNL d   1      -1.562   0.426  -1.569  0.00  0.00     0.007 C 
ATOM      9  C   UNL d   1      -2.729   1.260  -2.080  0.00  0.00     0.009 C 
ENDBRANCH   7   8
ENDBRANCH   1   7
TORSDOF 2
ENDMDL
