MODEL 1
REMARK minimizedAffinity -4.03013086
REMARK minimizedRMSD -1
REMARK  2 active torsions:
REMARK  status: ('A' for Active; 'I' for Inactive)
REMARK    1  A    between atoms: C1_2  and  C2_3 
REMARK    2  A    between atoms: C2_3  and  C3_4 
ROOT
ATOM      1  C3  UNL d   1      -0.181  -0.184   0.114  0.00  0.00    -0.075 A 
ATOM      2  C4  UNL d   1       0.654  -1.254   0.470  0.00  0.00     0.002 A 
ATOM      3  C5  UNL d   1       1.995  -1.031   0.784  0.00  0.00     0.002 A 
ATOM      4  C6  UNL d   1       2.520   0.258   0.735  0.00  0.00    -0.004 A 
ATOM      5  C7  UNL d   1       1.705   1.325   0.366  0.00  0.00     0.002 A 
ATOM      6  C8  UNL d   1       0.361   1.106   0.056  0.00  0.00     0.002 A 
ENDROOT
BRANCH   1   7
ATOM      7  C2  UNL d   1      -1.640  -0.414  -0.198  0.00  0.00     0.056 C 
BRANCH   7   8
ATOM      8  C1  UNL d   1      -2.102   0.211  -1.519  0.00  0.00     0.007 C 
ATOM      9  C   UNL d   1      -2.690  -0.804  -2.490  0.00  0.00     0.009 C 
ENDBRANCH   7   8
ENDBRANCH   1   7
TORSDOF 2
ENDMDL
