MODEL 1
REMARK minimizedAffinity -3.1032331
REMARK minimizedRMSD -1
REMARK  2 active torsions:
REMARK  status: ('A' for Active; 'I' for Inactive)
REMARK    1  A    between atoms: C1_2  and  C2_3 
REMARK    2  A    between atoms: C2_3  and  C3_4 
ROOT
ATOM      1  C3  UNL d   1      -1.277  -0.522  -1.133  0.00  0.00    -0.075 A 
ATOM      2  C4  UNL d   1      -1.710  -1.573  -1.954  0.00  0.00     0.002 A 
ATOM      3  C5  UNL d   1      -2.743  -1.376  -2.871  0.00  0.00     0.002 A 
ATOM      4  C6  UNL d   1      -3.361  -0.132  -2.973  0.00  0.00    -0.004 A 
ATOM      5  C7  UNL d   1      -2.949   0.915  -2.151  0.00  0.00     0.002 A 
ATOM      6  C8  UNL d   1      -1.913   0.723  -1.235  0.00  0.00     0.002 A 
ENDROOT
BRANCH   1   7
ATOM      7  C2  UNL d   1      -0.140  -0.720  -0.159  0.00  0.00     0.056 C 
BRANCH   7   8
ATOM      8  C1  UNL d   1       1.194  -1.081  -0.822  0.00  0.00     0.007 C 
ATOM      9  C   UNL d   1       2.310  -1.345   0.179  0.00  0.00     0.009 C 
ENDBRANCH   7   8
ENDBRANCH   1   7
TORSDOF 2
ENDMDL
