MODEL 1
REMARK minimizedAffinity -5.18105364
REMARK minimizedRMSD -1
REMARK  1 active torsions:
REMARK  status: ('A' for Active; 'I' for Inactive)
REMARK    1  A    between atoms: N_2  and  C1_3 
ROOT
ATOM      1  C1  UNL d   1       2.379  -0.658   0.248  0.00  0.00     0.143 A 
ATOM      2  C2  UNL d   1       1.772  -1.464   1.217  0.00  0.00    -0.057 A 
ATOM      3  C3  UNL d   1       0.394  -1.400   1.456  0.00  0.00     0.033 A 
ATOM      4  C4  UNL d   1      -0.400  -0.504   0.746  0.00  0.00    -0.042 A 
ATOM      5  C5  UNL d   1       0.185   0.324  -0.204  0.00  0.00     0.033 A 
ATOM      6  C6  UNL d   1       1.561   0.251  -0.443  0.00  0.00    -0.057 A 
ENDROOT
BRANCH   1   7
ATOM      7  N   UNL d   1       3.758  -0.604   0.033  0.00  0.00    -0.732 N 
ATOM      8  C   UNL d   1       4.294  -0.001  -1.168  0.00  0.00     0.284 C 
ATOM      9  H3  UNL d   1       4.274  -0.375   0.879  0.00  0.00     0.395 HD
ENDBRANCH   1   7
TORSDOF 1
ENDMDL
