MODEL 1
REMARK minimizedAffinity -4.3277297
REMARK minimizedRMSD -1
REMARK  1 active torsions:
REMARK  status: ('A' for Active; 'I' for Inactive)
REMARK    1  A    between atoms: N_2  and  C1_3 
ROOT
ATOM      1  C1  UNL d   1      -2.304   1.752  -3.215  0.00  0.00     0.143 A 
ATOM      2  C2  UNL d   1      -1.860   1.879  -1.894  0.00  0.00    -0.057 A 
ATOM      3  C3  UNL d   1      -0.920   2.852  -1.534  0.00  0.00     0.033 A 
ATOM      4  C4  UNL d   1      -0.382   3.699  -2.498  0.00  0.00    -0.042 A 
ATOM      5  C5  UNL d   1      -0.790   3.574  -3.821  0.00  0.00     0.033 A 
ATOM      6  C6  UNL d   1      -1.734   2.605  -4.174  0.00  0.00    -0.057 A 
ENDROOT
BRANCH   1   7
ATOM      7  N   UNL d   1      -3.162   0.742  -3.654  0.00  0.00    -0.732 N 
ATOM      8  C   UNL d   1      -2.648  -0.569  -3.987  0.00  0.00     0.284 C 
ATOM      9  H3  UNL d   1      -4.039   0.725  -3.137  0.00  0.00     0.395 HD
ENDBRANCH   1   7
TORSDOF 1
ENDMDL
