MODEL 1
REMARK minimizedAffinity -5.0919652
REMARK minimizedRMSD -1
REMARK  1 active torsions:
REMARK  status: ('A' for Active; 'I' for Inactive)
REMARK    1  A    between atoms: N_2  and  C1_3 
ROOT
ATOM      1  C1  UNL d   1       0.179   0.703   0.180  0.00  0.00     0.143 A 
ATOM      2  C2  UNL d   1      -0.234  -0.410   0.919  0.00  0.00    -0.057 A 
ATOM      3  C3  UNL d   1       0.664  -1.426   1.266  0.00  0.00     0.033 A 
ATOM      4  C4  UNL d   1       1.991  -1.361   0.852  0.00  0.00    -0.042 A 
ATOM      5  C5  UNL d   1       2.418  -0.276   0.094  0.00  0.00     0.033 A 
ATOM      6  C6  UNL d   1       1.518   0.739  -0.243  0.00  0.00    -0.057 A 
ENDROOT
BRANCH   1   7
ATOM      7  N   UNL d   1      -0.688   1.697  -0.280  0.00  0.00    -0.732 N 
ATOM      8  C   UNL d   1      -0.242   2.672  -1.252  0.00  0.00     0.284 C 
ATOM      9  H3  UNL d   1      -1.629   1.347  -0.444  0.00  0.00     0.395 HD
ENDBRANCH   1   7
TORSDOF 1
ENDMDL
