MODEL 1
REMARK minimizedAffinity -2.36295533
REMARK minimizedRMSD -1
REMARK  1 active torsions:
REMARK  status: ('A' for Active; 'I' for Inactive)
REMARK    1  A    between atoms: N_2  and  C1_3 
ROOT
ATOM      1  C1  UNL d   1       0.760  -1.012   0.769  0.00  0.00     0.143 A 
ATOM      2  C2  UNL d   1      -0.529  -1.020   1.313  0.00  0.00    -0.057 A 
ATOM      3  C3  UNL d   1      -1.477  -0.056   0.947  0.00  0.00     0.033 A 
ATOM      4  C4  UNL d   1      -1.142   0.952   0.050  0.00  0.00    -0.042 A 
ATOM      5  C5  UNL d   1       0.141   0.994  -0.485  0.00  0.00     0.033 A 
ATOM      6  C6  UNL d   1       1.081   0.025  -0.121  0.00  0.00    -0.057 A 
ENDROOT
BRANCH   1   7
ATOM      7  N   UNL d   1       1.777  -1.883   1.166  0.00  0.00    -0.732 N 
ATOM      8  C   UNL d   1       3.001  -1.372   1.746  0.00  0.00     0.284 C 
ATOM      9  H3  UNL d   1       1.417  -2.718   1.624  0.00  0.00     0.395 HD
ENDBRANCH   1   7
TORSDOF 1
ENDMDL
