MODEL 1
REMARK minimizedAffinity -3.77454853
REMARK minimizedRMSD -1
REMARK  1 active torsions:
REMARK  status: ('A' for Active; 'I' for Inactive)
REMARK    1  A    between atoms: N_2  and  C1_3 
ROOT
ATOM      1  C1  UNL d   1       0.225   0.649  -0.633  0.00  0.00     0.143 A 
ATOM      2  C2  UNL d   1       1.501   1.177  -0.858  0.00  0.00    -0.057 A 
ATOM      3  C3  UNL d   1       2.654   0.458  -0.520  0.00  0.00     0.033 A 
ATOM      4  C4  UNL d   1       2.550  -0.793   0.078  0.00  0.00    -0.042 A 
ATOM      5  C5  UNL d   1       1.292  -1.327   0.335  0.00  0.00     0.033 A 
ATOM      6  C6  UNL d   1       0.144  -0.607  -0.011  0.00  0.00    -0.057 A 
ENDROOT
BRANCH   1   7
ATOM      7  N   UNL d   1      -0.960   1.356  -0.856  0.00  0.00    -0.732 N 
ATOM      8  C   UNL d   1      -0.991   2.468  -1.782  0.00  0.00     0.284 C 
ATOM      9  H3  UNL d   1      -1.772   0.745  -0.912  0.00  0.00     0.395 HD
ENDBRANCH   1   7
TORSDOF 1
ENDMDL
