MODEL 1
REMARK minimizedAffinity -1.74843013
REMARK minimizedRMSD -1
REMARK  1 active torsions:
REMARK  status: ('A' for Active; 'I' for Inactive)
REMARK    1  A    between atoms: N_2  and  C1_3 
ROOT
ATOM      1  C1  UNL d   1       0.061   0.785  -0.659  0.00  0.00     0.143 A 
ATOM      2  C2  UNL d   1       1.356   1.240  -0.928  0.00  0.00    -0.057 A 
ATOM      3  C3  UNL d   1       2.479   0.467  -0.608  0.00  0.00     0.033 A 
ATOM      4  C4  UNL d   1       2.327  -0.767   0.016  0.00  0.00    -0.042 A 
ATOM      5  C5  UNL d   1       1.050  -1.228   0.316  0.00  0.00     0.033 A 
ATOM      6  C6  UNL d   1      -0.068  -0.455  -0.013  0.00  0.00    -0.057 A 
ENDROOT
BRANCH   1   7
ATOM      7  N   UNL d   1      -1.090   1.549  -0.863  0.00  0.00    -0.732 N 
ATOM      8  C   UNL d   1      -1.354   2.155  -2.151  0.00  0.00     0.284 C 
ATOM      9  H3  UNL d   1      -1.910   1.142  -0.419  0.00  0.00     0.395 HD
ENDBRANCH   1   7
TORSDOF 1
ENDMDL
