MODEL 1
REMARK minimizedAffinity -3.59000945
REMARK minimizedRMSD -1
REMARK  1 active torsions:
REMARK  status: ('A' for Active; 'I' for Inactive)
REMARK    1  A    between atoms: N_2  and  C1_3 
ROOT
ATOM      1  C1  UNL d   1       0.090  -1.391   0.668  0.00  0.00     0.143 A 
ATOM      2  C2  UNL d   1      -0.998  -1.031   1.471  0.00  0.00    -0.057 A 
ATOM      3  C3  UNL d   1      -1.692   0.165   1.258  0.00  0.00     0.033 A 
ATOM      4  C4  UNL d   1      -1.292   1.040   0.253  0.00  0.00    -0.042 A 
ATOM      5  C5  UNL d   1      -0.198   0.714  -0.541  0.00  0.00     0.033 A 
ATOM      6  C6  UNL d   1       0.488  -0.485  -0.328  0.00  0.00    -0.057 A 
ENDROOT
BRANCH   1   7
ATOM      7  N   UNL d   1       0.883  -2.520   0.892  0.00  0.00    -0.732 N 
ATOM      8  C   UNL d   1       2.237  -2.384   1.384  0.00  0.00     0.284 C 
ATOM      9  H3  UNL d   1       0.361  -3.283   1.317  0.00  0.00     0.395 HD
ENDBRANCH   1   7
TORSDOF 1
ENDMDL
