MODEL 1
REMARK minimizedAffinity -2.75030255
REMARK minimizedRMSD -1
REMARK  1 active torsions:
REMARK  status: ('A' for Active; 'I' for Inactive)
REMARK    1  A    between atoms: N_2  and  C1_3 
ROOT
ATOM      1  C1  UNL d   1      -0.041  -0.296  -0.497  0.00  0.00     0.143 A 
ATOM      2  C2  UNL d   1       1.284   0.145  -0.582  0.00  0.00    -0.057 A 
ATOM      3  C3  UNL d   1       2.328  -0.572   0.017  0.00  0.00     0.033 A 
ATOM      4  C4  UNL d   1       2.059  -1.730   0.738  0.00  0.00    -0.042 A 
ATOM      5  C5  UNL d   1       0.747  -2.173   0.857  0.00  0.00     0.033 A 
ATOM      6  C6  UNL d   1      -0.290  -1.457   0.251  0.00  0.00    -0.057 A 
ENDROOT
BRANCH   1   7
ATOM      7  N   UNL d   1      -1.133   0.425  -0.987  0.00  0.00    -0.732 N 
ATOM      8  C   UNL d   1      -1.061   1.092  -2.269  0.00  0.00     0.284 C 
ATOM      9  H3  UNL d   1      -2.018  -0.045  -0.812  0.00  0.00     0.395 HD
ENDBRANCH   1   7
TORSDOF 1
ENDMDL
