MODEL 1
REMARK minimizedAffinity -4.29628563
REMARK minimizedRMSD -1
REMARK  1 active torsions:
REMARK  status: ('A' for Active; 'I' for Inactive)
REMARK    1  A    between atoms: N_2  and  C1_3 
ROOT
ATOM      1  C1  UNL d   1      -0.316   0.401   0.068  0.00  0.00     0.143 A 
ATOM      2  C2  UNL d   1      -0.529  -0.880   0.589  0.00  0.00    -0.057 A 
ATOM      3  C3  UNL d   1       0.532  -1.774   0.775  0.00  0.00     0.033 A 
ATOM      4  C4  UNL d   1       1.826  -1.412   0.416  0.00  0.00    -0.042 A 
ATOM      5  C5  UNL d   1       2.058  -0.153  -0.127  0.00  0.00     0.033 A 
ATOM      6  C6  UNL d   1       0.995   0.737  -0.305  0.00  0.00    -0.057 A 
ENDROOT
BRANCH   1   7
ATOM      7  N   UNL d   1      -1.342   1.299  -0.233  0.00  0.00    -0.732 N 
ATOM      8  C   UNL d   1      -1.650   1.633  -1.607  0.00  0.00     0.284 C 
ATOM      9  H3  UNL d   1      -2.161   1.165   0.356  0.00  0.00     0.395 HD
ENDBRANCH   1   7
TORSDOF 1
ENDMDL
