MODEL 1
REMARK minimizedAffinity -1.03635478
REMARK minimizedRMSD -1
REMARK  1 active torsions:
REMARK  status: ('A' for Active; 'I' for Inactive)
REMARK    1  A    between atoms: N_2  and  C1_3 
ROOT
ATOM      1  C1  UNL d   1      -0.457   3.727  -4.116  0.00  0.00     0.143 A 
ATOM      2  C2  UNL d   1       0.163   3.130  -3.014  0.00  0.00    -0.057 A 
ATOM      3  C3  UNL d   1      -0.437   2.065  -2.332  0.00  0.00     0.033 A 
ATOM      4  C4  UNL d   1      -1.687   1.596  -2.724  0.00  0.00    -0.042 A 
ATOM      5  C5  UNL d   1      -2.333   2.191  -3.802  0.00  0.00     0.033 A 
ATOM      6  C6  UNL d   1      -1.725   3.250  -4.483  0.00  0.00    -0.057 A 
ENDROOT
BRANCH   1   7
ATOM      7  N   UNL d   1       0.044   4.853  -4.775  0.00  0.00    -0.732 N 
ATOM      8  C   UNL d   1       0.843   5.828  -4.064  0.00  0.00     0.284 C 
ATOM      9  H3  UNL d   1       0.386   4.637  -5.709  0.00  0.00     0.395 HD
ENDBRANCH   1   7
TORSDOF 1
ENDMDL
