MODEL 1
REMARK minimizedAffinity -3.36759543
REMARK minimizedRMSD -1
REMARK  1 active torsions:
REMARK  status: ('A' for Active; 'I' for Inactive)
REMARK    1  A    between atoms: N_2  and  C1_3 
ROOT
ATOM      1  C1  UNL d   1       0.739   0.022   0.108  0.00  0.00     0.143 A 
ATOM      2  C2  UNL d   1       2.120  -0.196   0.062  0.00  0.00    -0.057 A 
ATOM      3  C3  UNL d   1       2.675  -1.422   0.449  0.00  0.00     0.033 A 
ATOM      4  C4  UNL d   1       1.858  -2.445   0.918  0.00  0.00    -0.042 A 
ATOM      5  C5  UNL d   1       0.485  -2.242   0.997  0.00  0.00     0.033 A 
ATOM      6  C6  UNL d   1      -0.064  -1.018   0.603  0.00  0.00    -0.057 A 
ENDROOT
BRANCH   1   7
ATOM      7  N   UNL d   1       0.136   1.251  -0.169  0.00  0.00    -0.732 N 
ATOM      8  C   UNL d   1      -1.293   1.341  -0.375  0.00  0.00     0.284 C 
ATOM      9  H3  UNL d   1       0.525   2.009   0.388  0.00  0.00     0.395 HD
ENDBRANCH   1   7
TORSDOF 1
ENDMDL
