MODEL 1
REMARK minimizedAffinity -3.9521594
REMARK minimizedRMSD -1
REMARK  1 active torsions:
REMARK  status: ('A' for Active; 'I' for Inactive)
REMARK    1  A    between atoms: N_2  and  C1_3 
ROOT
ATOM      1  C1  UNL d   1       0.768   0.060  -0.195  0.00  0.00     0.143 A 
ATOM      2  C2  UNL d   1       2.152   0.075   0.007  0.00  0.00    -0.057 A 
ATOM      3  C3  UNL d   1       2.826  -1.050   0.498  0.00  0.00     0.033 A 
ATOM      4  C4  UNL d   1       2.121  -2.203   0.824  0.00  0.00    -0.042 A 
ATOM      5  C5  UNL d   1       0.741  -2.233   0.655  0.00  0.00     0.033 A 
ATOM      6  C6  UNL d   1       0.075  -1.109   0.157  0.00  0.00    -0.057 A 
ENDROOT
BRANCH   1   7
ATOM      7  N   UNL d   1       0.027   1.178  -0.588  0.00  0.00    -0.732 N 
ATOM      8  C   UNL d   1      -1.329   1.365  -0.117  0.00  0.00     0.284 C 
ATOM      9  H3  UNL d   1       0.585   2.029  -0.600  0.00  0.00     0.395 HD
ENDBRANCH   1   7
TORSDOF 1
ENDMDL
