MODEL 1
REMARK minimizedAffinity 7.9645257
REMARK minimizedRMSD -1
REMARK  1 active torsions:
REMARK  status: ('A' for Active; 'I' for Inactive)
REMARK    1  A    between atoms: C1_2  and  C2_3 
ROOT
ATOM      1  C2  UNL d   1      -3.395   1.470  -2.085  0.00  0.00    -0.073 A 
ATOM      2  C3  UNL d   1      -3.737   0.304  -2.778  0.00  0.00    -0.002 A 
ATOM      3  C4  UNL d   1      -2.851  -0.774  -2.825  0.00  0.00     0.004 A 
ATOM      4  C5  UNL d   1      -1.619  -0.699  -2.174  0.00  0.00    -0.004 A 
ATOM      5  C6  UNL d   1      -1.265   0.454  -1.466  0.00  0.00    -0.075 A 
ATOM      6  C7  UNL d   1       0.057   0.552  -0.763  0.00  0.00     0.076 C 
ATOM      7  C8  UNL d   1      -2.158   1.533  -1.427  0.00  0.00     0.001 A 
ENDROOT
BRANCH   1   8
ATOM      8  C1  UNL d   1      -4.350   2.634  -2.027  0.00  0.00     0.053 C 
ATOM      9  C   UNL d   1      -3.927   3.766  -2.949  0.00  0.00     0.018 C 
ENDBRANCH   1   8
TORSDOF 1
ENDMDL
