MODEL 1
REMARK minimizedAffinity -2.75713468
REMARK minimizedRMSD -1
REMARK  1 active torsions:
REMARK  status: ('A' for Active; 'I' for Inactive)
REMARK    1  A    between atoms: C1_2  and  C2_3 
ROOT
ATOM      1  C2  UNL d   1       0.060   1.816  -0.119  0.00  0.00    -0.073 A 
ATOM      2  C3  UNL d   1      -0.002   1.186   1.130  0.00  0.00    -0.002 A 
ATOM      3  C4  UNL d   1       0.441   1.848   2.276  0.00  0.00     0.004 A 
ATOM      4  C5  UNL d   1       0.943   3.146   2.187  0.00  0.00    -0.004 A 
ATOM      5  C6  UNL d   1       1.002   3.797   0.950  0.00  0.00    -0.075 A 
ATOM      6  C7  UNL d   1       1.541   5.192   0.837  0.00  0.00     0.076 C 
ATOM      7  C8  UNL d   1       0.558   3.124  -0.197  0.00  0.00     0.001 A 
ENDROOT
BRANCH   1   8
ATOM      8  C1  UNL d   1      -0.422   1.107  -1.358  0.00  0.00     0.053 C 
ATOM      9  C   UNL d   1      -1.868   1.448  -1.683  0.00  0.00     0.018 C 
ENDBRANCH   1   8
TORSDOF 1
ENDMDL
