MODEL 1
REMARK minimizedAffinity 6.87180138
REMARK minimizedRMSD -1
REMARK  1 active torsions:
REMARK  status: ('A' for Active; 'I' for Inactive)
REMARK    1  A    between atoms: C1_2  and  C2_3 
ROOT
ATOM      1  C2  UNL d   1      -1.943   1.974  -2.361  0.00  0.00    -0.073 A 
ATOM      2  C3  UNL d   1      -2.823   1.061  -2.953  0.00  0.00    -0.002 A 
ATOM      3  C4  UNL d   1      -2.517  -0.300  -2.977  0.00  0.00     0.004 A 
ATOM      4  C5  UNL d   1      -1.333  -0.763  -2.403  0.00  0.00    -0.004 A 
ATOM      5  C6  UNL d   1      -0.446   0.132  -1.796  0.00  0.00    -0.075 A 
ATOM      6  C7  UNL d   1       0.833  -0.350  -1.177  0.00  0.00     0.076 C 
ATOM      7  C8  UNL d   1      -0.759   1.498  -1.779  0.00  0.00     0.001 A 
ENDROOT
BRANCH   1   8
ATOM      8  C1  UNL d   1      -2.272   3.444  -2.327  0.00  0.00     0.053 C 
ATOM      9  C   UNL d   1      -1.035   4.310  -2.509  0.00  0.00     0.018 C 
ENDBRANCH   1   8
TORSDOF 1
ENDMDL
