MODEL 1
REMARK minimizedAffinity 3.37583447
REMARK minimizedRMSD -1
REMARK  1 active torsions:
REMARK  status: ('A' for Active; 'I' for Inactive)
REMARK    1  A    between atoms: C1_2  and  C2_3 
ROOT
ATOM      1  C2  UNL d   1       0.010   3.208  -0.891  0.00  0.00    -0.073 A 
ATOM      2  C3  UNL d   1      -0.482   1.995  -1.385  0.00  0.00    -0.002 A 
ATOM      3  C4  UNL d   1      -0.563   0.876  -0.554  0.00  0.00     0.004 A 
ATOM      4  C5  UNL d   1      -0.160   0.961   0.778  0.00  0.00    -0.004 A 
ATOM      5  C6  UNL d   1       0.324   2.167   1.294  0.00  0.00    -0.075 A 
ATOM      6  C7  UNL d   1       0.765   2.274   2.724  0.00  0.00     0.076 C 
ATOM      7  C8  UNL d   1       0.405   3.285   0.453  0.00  0.00     0.001 A 
ENDROOT
BRANCH   1   8
ATOM      8  C1  UNL d   1       0.094   4.420  -1.782  0.00  0.00     0.053 C 
ATOM      9  C   UNL d   1      -0.271   5.698  -1.042  0.00  0.00     0.018 C 
ENDBRANCH   1   8
TORSDOF 1
ENDMDL
