MODEL 1
REMARK minimizedAffinity 10.1296749
REMARK minimizedRMSD -1
REMARK  3 active torsions:
REMARK  status: ('A' for Active; 'I' for Inactive)
REMARK    1  A    between atoms: C3'_2  and  C2'_3 
REMARK    2  A    between atoms: C2'_3  and  C1'_4 
REMARK    3  A    between atoms: C1'_4  and  C1_5 
ROOT
ATOM      1  C1  N4B d   1       4.847  -0.569  -3.758  0.00  0.00    -0.075 A 
ATOM      2  C2  N4B d   1       5.724  -0.750  -4.850  0.00  0.00     0.002 A 
ATOM      3  C3  N4B d   1       5.622   0.059  -5.955  0.00  0.00     0.002 A 
ATOM      4  C4  N4B d   1       4.641   1.038  -5.999  0.00  0.00    -0.004 A 
ATOM      5  C5  N4B d   1       3.814   1.223  -4.930  0.00  0.00     0.002 A 
ATOM      6  C6  N4B d   1       3.908   0.420  -3.811  0.00  0.00     0.002 A 
ENDROOT
BRANCH   1   7
ATOM      7  C1' N4B d   1       4.865  -1.485  -2.565  0.00  0.00     0.057 C 
BRANCH   7   8
ATOM      8  C2' N4B d   1       3.820  -1.014  -1.557  0.00  0.00     0.009 C 
BRANCH   8   9
ATOM      9  C3' N4B d   1       3.019  -2.171  -0.986  0.00  0.00     0.004 C 
ATOM     10  C4' N4B d   1       3.344  -3.481  -1.640  0.00  0.00     0.003 C 
ENDBRANCH   8   9
ENDBRANCH   7   8
ENDBRANCH   1   7
TORSDOF 3
ENDMDL
