MODEL 1
REMARK minimizedAffinity 11.949667
REMARK minimizedRMSD -1
REMARK  3 active torsions:
REMARK  status: ('A' for Active; 'I' for Inactive)
REMARK    1  A    between atoms: C3'_2  and  C2'_3 
REMARK    2  A    between atoms: C2'_3  and  C1'_4 
REMARK    3  A    between atoms: C1'_4  and  C1_5 
ROOT
ATOM      1  C1  N4B d   1      -1.045   0.417   0.747  0.00  0.00    -0.075 A 
ATOM      2  C2  N4B d   1      -1.002  -0.991   0.854  0.00  0.00     0.002 A 
ATOM      3  C3  N4B d   1       0.127  -1.609   1.332  0.00  0.00     0.002 A 
ATOM      4  C4  N4B d   1       1.228  -0.845   1.689  0.00  0.00    -0.004 A 
ATOM      5  C5  N4B d   1       1.170   0.516   1.606  0.00  0.00     0.002 A 
ATOM      6  C6  N4B d   1       0.040   1.151   1.132  0.00  0.00     0.002 A 
ENDROOT
BRANCH   1   7
ATOM      7  C1' N4B d   1      -2.226   1.132   0.150  0.00  0.00     0.057 C 
BRANCH   7   8
ATOM      8  C2' N4B d   1      -2.544   0.523  -1.213  0.00  0.00     0.009 C 
BRANCH   8   9
ATOM      9  C3' N4B d   1      -3.138   1.545  -2.167  0.00  0.00     0.004 C 
ATOM     10  C4' N4B d   1      -3.735   0.918  -3.391  0.00  0.00     0.003 C 
ENDBRANCH   8   9
ENDBRANCH   7   8
ENDBRANCH   1   7
TORSDOF 3
ENDMDL
