MODEL 1
REMARK minimizedAffinity 17.8095894
REMARK minimizedRMSD -1
REMARK  3 active torsions:
REMARK  status: ('A' for Active; 'I' for Inactive)
REMARK    1  A    between atoms: C3'_2  and  C2'_3 
REMARK    2  A    between atoms: C2'_3  and  C1'_4 
REMARK    3  A    between atoms: C1'_4  and  C1_5 
ROOT
ATOM      1  C1  N4B d   1       1.726  -1.025   2.038  0.00  0.00    -0.075 A 
ATOM      2  C2  N4B d   1       3.097  -1.354   1.956  0.00  0.00     0.002 A 
ATOM      3  C3  N4B d   1       3.628  -2.300   2.797  0.00  0.00     0.002 A 
ATOM      4  C4  N4B d   1       2.815  -2.915   3.738  0.00  0.00    -0.004 A 
ATOM      5  C5  N4B d   1       1.486  -2.610   3.794  0.00  0.00     0.002 A 
ATOM      6  C6  N4B d   1       0.938  -1.664   2.952  0.00  0.00     0.002 A 
ENDROOT
BRANCH   1   7
ATOM      7  C1' N4B d   1       1.118   0.064   1.197  0.00  0.00     0.057 C 
BRANCH   7   8
ATOM      8  C2' N4B d   1       1.909   1.353   1.400  0.00  0.00     0.009 C 
BRANCH   8   9
ATOM      9  C3' N4B d   1       1.144   2.364   2.237  0.00  0.00     0.004 C 
ATOM     10  C4' N4B d   1       1.951   2.900   3.381  0.00  0.00     0.003 C 
ENDBRANCH   8   9
ENDBRANCH   7   8
ENDBRANCH   1   7
TORSDOF 3
ENDMDL
