MODEL 1
REMARK minimizedAffinity 5.18867064
REMARK minimizedRMSD -1
REMARK  3 active torsions:
REMARK  status: ('A' for Active; 'I' for Inactive)
REMARK    1  A    between atoms: C3'_2  and  C2'_3 
REMARK    2  A    between atoms: C2'_3  and  C1'_4 
REMARK    3  A    between atoms: C1'_4  and  C1_5 
ROOT
ATOM      1  C1  N4B d   1      -0.169  -2.347   1.409  0.00  0.00    -0.075 A 
ATOM      2  C2  N4B d   1       0.274  -3.579   0.881  0.00  0.00     0.002 A 
ATOM      3  C3  N4B d   1      -0.640  -4.513   0.458  0.00  0.00     0.002 A 
ATOM      4  C4  N4B d   1      -1.996  -4.246   0.571  0.00  0.00    -0.004 A 
ATOM      5  C5  N4B d   1      -2.415  -3.043   1.059  0.00  0.00     0.002 A 
ATOM      6  C6  N4B d   1      -1.508  -2.093   1.484  0.00  0.00     0.002 A 
ENDROOT
BRANCH   1   7
ATOM      7  C1' N4B d   1       0.791  -1.330   1.963  0.00  0.00     0.057 C 
BRANCH   7   8
ATOM      8  C2' N4B d   1       1.834  -2.040   2.821  0.00  0.00     0.009 C 
BRANCH   8   9
ATOM      9  C3' N4B d   1       1.341  -2.270   4.239  0.00  0.00     0.004 C 
ATOM     10  C4' N4B d   1       2.330  -3.019   5.083  0.00  0.00     0.003 C 
ENDBRANCH   8   9
ENDBRANCH   7   8
ENDBRANCH   1   7
TORSDOF 3
ENDMDL
