MODEL 1
REMARK minimizedAffinity 11.9454517
REMARK minimizedRMSD -1
REMARK  3 active torsions:
REMARK  status: ('A' for Active; 'I' for Inactive)
REMARK    1  A    between atoms: C3'_2  and  C2'_3 
REMARK    2  A    between atoms: C2'_3  and  C1'_4 
REMARK    3  A    between atoms: C1'_4  and  C1_5 
ROOT
ATOM      1  C1  N4B d   1      -5.010  -3.123  -5.410  0.00  0.00    -0.075 A 
ATOM      2  C2  N4B d   1      -3.969  -3.787  -4.724  0.00  0.00     0.002 A 
ATOM      3  C3  N4B d   1      -3.966  -5.157  -4.642  0.00  0.00     0.002 A 
ATOM      4  C4  N4B d   1      -4.998  -5.882  -5.220  0.00  0.00    -0.004 A 
ATOM      5  C5  N4B d   1      -5.985  -5.234  -5.903  0.00  0.00     0.002 A 
ATOM      6  C6  N4B d   1      -5.999  -3.857  -5.996  0.00  0.00     0.002 A 
ENDROOT
BRANCH   1   7
ATOM      7  C1' N4B d   1      -5.102  -1.622  -5.452  0.00  0.00     0.057 C 
BRANCH   7   8
ATOM      8  C2' N4B d   1      -4.403  -1.042  -4.227  0.00  0.00     0.009 C 
BRANCH   8   9
ATOM      9  C3' N4B d   1      -4.593   0.461  -4.122  0.00  0.00     0.004 C 
ATOM     10  C4' N4B d   1      -3.764   1.077  -3.034  0.00  0.00     0.003 C 
ENDBRANCH   8   9
ENDBRANCH   7   8
ENDBRANCH   1   7
TORSDOF 3
ENDMDL
