MODEL 1
REMARK minimizedAffinity -2.45984077
REMARK minimizedRMSD -1
REMARK  3 active torsions:
REMARK  status: ('A' for Active; 'I' for Inactive)
REMARK    1  A    between atoms: C3'_2  and  C2'_3 
REMARK    2  A    between atoms: C2'_3  and  C1'_4 
REMARK    3  A    between atoms: C1'_4  and  C1_5 
ROOT
ATOM      1  C1  N4B d   1       3.897  -2.308   2.609  0.00  0.00    -0.075 A 
ATOM      2  C2  N4B d   1       3.705  -1.491   1.473  0.00  0.00     0.002 A 
ATOM      3  C3  N4B d   1       2.441  -1.076   1.132  0.00  0.00     0.002 A 
ATOM      4  C4  N4B d   1       1.357  -1.478   1.898  0.00  0.00    -0.004 A 
ATOM      5  C5  N4B d   1       1.554  -2.246   3.008  0.00  0.00     0.002 A 
ATOM      6  C6  N4B d   1       2.819  -2.668   3.364  0.00  0.00     0.002 A 
ENDROOT
BRANCH   1   7
ATOM      7  C1' N4B d   1       5.249  -2.858   2.971  0.00  0.00     0.057 C 
BRANCH   7   8
ATOM      8  C2' N4B d   1       5.068  -4.106   3.831  0.00  0.00     0.009 C 
BRANCH   8   9
ATOM      9  C3' N4B d   1       5.068  -3.779   5.314  0.00  0.00     0.004 C 
ATOM     10  C4' N4B d   1       5.997  -2.655   5.661  0.00  0.00     0.003 C 
ENDBRANCH   8   9
ENDBRANCH   7   8
ENDBRANCH   1   7
TORSDOF 3
ENDMDL
