MODEL 1
REMARK minimizedAffinity 7.77538633
REMARK minimizedRMSD -1
REMARK  3 active torsions:
REMARK  status: ('A' for Active; 'I' for Inactive)
REMARK    1  A    between atoms: C3'_2  and  C2'_3 
REMARK    2  A    between atoms: C2'_3  and  C1'_4 
REMARK    3  A    between atoms: C1'_4  and  C1_5 
ROOT
ATOM      1  C1  N4B d   1       3.404  -3.593   3.853  0.00  0.00    -0.075 A 
ATOM      2  C2  N4B d   1       3.674  -4.104   5.142  0.00  0.00     0.002 A 
ATOM      3  C3  N4B d   1       4.967  -4.380   5.514  0.00  0.00     0.002 A 
ATOM      4  C4  N4B d   1       6.000  -4.172   4.612  0.00  0.00    -0.004 A 
ATOM      5  C5  N4B d   1       5.733  -3.654   3.378  0.00  0.00     0.002 A 
ATOM      6  C6  N4B d   1       4.439  -3.368   2.992  0.00  0.00     0.002 A 
ENDROOT
BRANCH   1   7
ATOM      7  C1' N4B d   1       1.999  -3.356   3.371  0.00  0.00     0.057 C 
BRANCH   7   8
ATOM      8  C2' N4B d   1       1.849  -1.893   2.964  0.00  0.00     0.009 C 
BRANCH   8   9
ATOM      9  C3' N4B d   1       1.367  -1.749   1.531  0.00  0.00     0.004 C 
ATOM     10  C4' N4B d   1       2.199  -0.790   0.732  0.00  0.00     0.003 C 
ENDBRANCH   8   9
ENDBRANCH   7   8
ENDBRANCH   1   7
TORSDOF 3
ENDMDL
