MODEL 1
REMARK minimizedAffinity 5.93970633
REMARK minimizedRMSD -1
REMARK  3 active torsions:
REMARK  status: ('A' for Active; 'I' for Inactive)
REMARK    1  A    between atoms: C3'_2  and  C2'_3 
REMARK    2  A    between atoms: C2'_3  and  C1'_4 
REMARK    3  A    between atoms: C1'_4  and  C1_5 
ROOT
ATOM      1  C1  N4B d   1      -4.953  -3.340  -4.882  0.00  0.00    -0.075 A 
ATOM      2  C2  N4B d   1      -3.880  -4.193  -4.539  0.00  0.00     0.002 A 
ATOM      3  C3  N4B d   1      -3.897  -5.509  -4.931  0.00  0.00     0.002 A 
ATOM      4  C4  N4B d   1      -4.979  -5.998  -5.647  0.00  0.00    -0.004 A 
ATOM      5  C5  N4B d   1      -5.999  -5.161  -5.996  0.00  0.00     0.002 A 
ATOM      6  C6  N4B d   1      -5.994  -3.836  -5.612  0.00  0.00     0.002 A 
ENDROOT
BRANCH   1   7
ATOM      7  C1' N4B d   1      -5.020  -1.916  -4.402  0.00  0.00     0.057 C 
BRANCH   7   8
ATOM      8  C2' N4B d   1      -4.971  -1.898  -2.877  0.00  0.00     0.009 C 
BRANCH   8   9
ATOM      9  C3' N4B d   1      -5.017  -0.485  -2.324  0.00  0.00     0.004 C 
ATOM     10  C4' N4B d   1      -3.898   0.375  -2.833  0.00  0.00     0.003 C 
ENDBRANCH   8   9
ENDBRANCH   7   8
ENDBRANCH   1   7
TORSDOF 3
ENDMDL
