MODEL 1
REMARK minimizedAffinity 1.15739608
REMARK minimizedRMSD -1
REMARK  0 active torsions:
REMARK  status: ('A' for Active; 'I' for Inactive)
ROOT
ATOM      1  C   UNL d   1      -1.145  -2.189   0.192  0.00  0.00     0.124 A 
ATOM      2  C1  UNL d   1      -1.172  -1.646   1.470  0.00  0.00     0.062 A 
ATOM      3  C2  UNL d   1      -0.611  -0.396   1.711  0.00  0.00     0.162 A 
ATOM      4  C3  UNL d   1      -0.019   0.322   0.672  0.00  0.00    -0.034 A 
ATOM      5  C4  UNL d   1       0.005  -0.230  -0.610  0.00  0.00     0.162 A 
ATOM      6  C5  UNL d   1      -0.557  -1.480  -0.846  0.00  0.00     0.062 A 
ATOM      7  F   UNL d   1      -0.530  -2.003  -2.081  0.00  0.00    -0.097 F 
ATOM      8  F1  UNL d   1       0.566   0.433  -1.632  0.00  0.00    -0.096 F 
ATOM      9  I   UNL d   1       0.821   2.193   1.028  0.00  0.00    -0.060 I 
ATOM     10  F2  UNL d   1      -0.651   0.104   2.955  0.00  0.00    -0.096 F 
ATOM     11  F3  UNL d   1      -1.739  -2.329   2.475  0.00  0.00    -0.097 F 
ATOM     12  F4  UNL d   1      -1.685  -3.393  -0.037  0.00  0.00    -0.092 F 
ENDROOT
TORSDOF 0
ENDMDL
