MODEL 1
REMARK minimizedAffinity 0.244487599
REMARK minimizedRMSD -1
REMARK  0 active torsions:
REMARK  status: ('A' for Active; 'I' for Inactive)
ROOT
ATOM      1  C   UNL d   1      -0.461  -2.941   0.379  0.00  0.00     0.124 A 
ATOM      2  C1  UNL d   1      -1.476  -2.137   0.880  0.00  0.00     0.062 A 
ATOM      3  C2  UNL d   1      -1.335  -0.752   0.883  0.00  0.00     0.162 A 
ATOM      4  C3  UNL d   1      -0.174  -0.162   0.384  0.00  0.00    -0.034 A 
ATOM      5  C4  UNL d   1       0.842  -0.977  -0.117  0.00  0.00     0.162 A 
ATOM      6  C5  UNL d   1       0.697  -2.360  -0.118  0.00  0.00     0.062 A 
ATOM      7  F   UNL d   1       1.678  -3.135  -0.602  0.00  0.00    -0.097 F 
ATOM      8  F1  UNL d   1       1.972  -0.442  -0.605  0.00  0.00    -0.096 F 
ATOM      9  I   UNL d   1       0.040   1.908   0.387  0.00  0.00    -0.060 I 
ATOM     10  F2  UNL d   1      -2.332  -0.000   1.373  0.00  0.00    -0.096 F 
ATOM     11  F3  UNL d   1      -2.596  -2.696   1.362  0.00  0.00    -0.097 F 
ATOM     12  F4  UNL d   1      -0.599  -4.273   0.378  0.00  0.00    -0.092 F 
ENDROOT
TORSDOF 0
ENDMDL
