MODEL 1
REMARK minimizedAffinity 2.76887178
REMARK minimizedRMSD -1
REMARK  0 active torsions:
REMARK  status: ('A' for Active; 'I' for Inactive)
ROOT
ATOM      1  C   UNL d   1       0.254  -2.726  -0.255  0.00  0.00     0.124 A 
ATOM      2  C1  UNL d   1       0.407  -1.380   0.049  0.00  0.00     0.062 A 
ATOM      3  C2  UNL d   1      -0.603  -0.694   0.719  0.00  0.00     0.162 A 
ATOM      4  C3  UNL d   1      -1.774  -1.354   1.091  0.00  0.00    -0.034 A 
ATOM      5  C4  UNL d   1      -1.921  -2.707   0.781  0.00  0.00     0.162 A 
ATOM      6  C5  UNL d   1      -0.909  -3.388   0.112  0.00  0.00     0.062 A 
ATOM      7  F   UNL d   1      -1.058  -4.688  -0.181  0.00  0.00    -0.097 F 
ATOM      8  F1  UNL d   1      -3.034  -3.372   1.124  0.00  0.00    -0.096 F 
ATOM      9  I   UNL d   1      -3.286  -0.333   2.092  0.00  0.00    -0.060 I 
ATOM     10  F2  UNL d   1      -0.428   0.606   0.999  0.00  0.00    -0.096 F 
ATOM     11  F3  UNL d   1       1.529  -0.737  -0.305  0.00  0.00    -0.097 F 
ATOM     12  F4  UNL d   1       1.227  -3.382  -0.900  0.00  0.00    -0.092 F 
ENDROOT
TORSDOF 0
ENDMDL
