MODEL 1
REMARK minimizedAffinity 0.81395191
REMARK minimizedRMSD -1
REMARK  0 active torsions:
REMARK  status: ('A' for Active; 'I' for Inactive)
ROOT
ATOM      1  C   UNL d   1       1.163   4.086   1.357  0.00  0.00     0.124 A 
ATOM      2  C1  UNL d   1       2.248   3.289   1.018  0.00  0.00     0.062 A 
ATOM      3  C2  UNL d   1       2.047   2.066   0.383  0.00  0.00     0.162 A 
ATOM      4  C3  UNL d   1       0.756   1.633   0.082  0.00  0.00    -0.034 A 
ATOM      5  C4  UNL d   1      -0.330   2.440   0.427  0.00  0.00     0.162 A 
ATOM      6  C5  UNL d   1      -0.124   3.661   1.061  0.00  0.00     0.062 A 
ATOM      7  F   UNL d   1      -1.173   4.429   1.388  0.00  0.00    -0.097 F 
ATOM      8  F1  UNL d   1      -1.585   2.054   0.152  0.00  0.00    -0.096 F 
ATOM      9  I   UNL d   1       0.451  -0.194  -0.867  0.00  0.00    -0.060 I 
ATOM     10  F2  UNL d   1       3.114   1.317   0.067  0.00  0.00    -0.096 F 
ATOM     11  F3  UNL d   1       3.493   3.696   1.303  0.00  0.00    -0.097 F 
ATOM     12  F4  UNL d   1       1.359   5.261   1.968  0.00  0.00    -0.092 F 
ENDROOT
TORSDOF 0
ENDMDL
