MODEL 1
REMARK minimizedAffinity -1.99118555
REMARK minimizedRMSD -1
REMARK  0 active torsions:
REMARK  status: ('A' for Active; 'I' for Inactive)
ROOT
ATOM      1  C   UNL d   1      -0.802  -2.305   0.430  0.00  0.00     0.124 A 
ATOM      2  C1  UNL d   1      -1.634  -1.493   1.189  0.00  0.00     0.062 A 
ATOM      3  C2  UNL d   1      -1.425  -0.118   1.226  0.00  0.00     0.162 A 
ATOM      4  C3  UNL d   1      -0.380   0.456   0.502  0.00  0.00    -0.034 A 
ATOM      5  C4  UNL d   1       0.453  -0.368  -0.258  0.00  0.00     0.162 A 
ATOM      6  C5  UNL d   1       0.240  -1.742  -0.293  0.00  0.00     0.062 A 
ATOM      7  F   UNL d   1       1.044  -2.525  -1.026  0.00  0.00    -0.097 F 
ATOM      8  F1  UNL d   1       1.467   0.151  -0.967  0.00  0.00    -0.096 F 
ATOM      9  I   UNL d   1      -0.065   2.512   0.555  0.00  0.00    -0.060 I 
ATOM     10  F2  UNL d   1      -2.244   0.643   1.968  0.00  0.00    -0.096 F 
ATOM     11  F3  UNL d   1      -2.641  -2.035   1.889  0.00  0.00    -0.097 F 
ATOM     12  F4  UNL d   1      -1.005  -3.628   0.397  0.00  0.00    -0.092 F 
ENDROOT
TORSDOF 0
ENDMDL
