MODEL 1
REMARK minimizedAffinity -0.449456811
REMARK minimizedRMSD -1
REMARK  0 active torsions:
REMARK  status: ('A' for Active; 'I' for Inactive)
ROOT
ATOM      1  C   UNL d   1       0.926   2.269   0.304  0.00  0.00     0.124 A 
ATOM      2  C1  UNL d   1       0.737   1.425  -0.781  0.00  0.00     0.062 A 
ATOM      3  C2  UNL d   1       0.274   0.126  -0.586  0.00  0.00     0.162 A 
ATOM      4  C3  UNL d   1      -0.003  -0.336   0.700  0.00  0.00    -0.034 A 
ATOM      5  C4  UNL d   1       0.191   0.518   1.787  0.00  0.00     0.162 A 
ATOM      6  C5  UNL d   1       0.653   1.815   1.587  0.00  0.00     0.062 A 
ATOM      7  F   UNL d   1       0.835   2.629   2.637  0.00  0.00    -0.097 F 
ATOM      8  F1  UNL d   1      -0.066   0.106   3.038  0.00  0.00    -0.096 F 
ATOM      9  I   UNL d   1      -0.695  -2.277   0.996  0.00  0.00    -0.060 I 
ATOM     10  F2  UNL d   1       0.101  -0.667  -1.653  0.00  0.00    -0.096 F 
ATOM     11  F3  UNL d   1       1.001   1.860  -2.021  0.00  0.00    -0.097 F 
ATOM     12  F4  UNL d   1       1.372   3.517   0.114  0.00  0.00    -0.092 F 
ENDROOT
TORSDOF 0
ENDMDL
