MODEL 1
REMARK minimizedAffinity -1.16259432
REMARK minimizedRMSD -1
REMARK  0 active torsions:
REMARK  status: ('A' for Active; 'I' for Inactive)
ROOT
ATOM      1  C   UNL d   1      -0.864  -2.717   0.215  0.00  0.00     0.124 A 
ATOM      2  C1  UNL d   1       0.146  -2.245  -0.611  0.00  0.00     0.062 A 
ATOM      3  C2  UNL d   1       0.448  -0.886  -0.641  0.00  0.00     0.162 A 
ATOM      4  C3  UNL d   1      -0.261   0.010   0.159  0.00  0.00    -0.034 A 
ATOM      5  C4  UNL d   1      -1.276  -0.472   0.986  0.00  0.00     0.162 A 
ATOM      6  C5  UNL d   1      -1.574  -1.831   1.013  0.00  0.00     0.062 A 
ATOM      7  F   UNL d   1      -2.551  -2.285   1.812  0.00  0.00    -0.097 F 
ATOM      8  F1  UNL d   1      -1.977   0.362   1.768  0.00  0.00    -0.096 F 
ATOM      9  I   UNL d   1       0.188   2.042   0.116  0.00  0.00    -0.060 I 
ATOM     10  F2  UNL d   1       1.430  -0.458  -1.449  0.00  0.00    -0.096 F 
ATOM     11  F3  UNL d   1       0.833  -3.099  -1.383  0.00  0.00    -0.097 F 
ATOM     12  F4  UNL d   1      -1.153  -4.024   0.241  0.00  0.00    -0.092 F 
ENDROOT
TORSDOF 0
ENDMDL
