MODEL 1
REMARK minimizedAffinity -3.63295245
REMARK minimizedRMSD -1
REMARK  0 active torsions:
REMARK  status: ('A' for Active; 'I' for Inactive)
ROOT
ATOM      1  C   UNL d   1      -0.426  -3.184   0.281  0.00  0.00     0.124 A 
ATOM      2  C1  UNL d   1       0.323  -2.631  -0.748  0.00  0.00     0.062 A 
ATOM      3  C2  UNL d   1       0.425  -1.248  -0.875  0.00  0.00     0.162 A 
ATOM      4  C3  UNL d   1      -0.223  -0.409   0.030  0.00  0.00    -0.034 A 
ATOM      5  C4  UNL d   1      -0.975  -0.972   1.063  0.00  0.00     0.162 A 
ATOM      6  C5  UNL d   1      -1.074  -2.354   1.185  0.00  0.00     0.062 A 
ATOM      7  F   UNL d   1      -1.798  -2.886   2.181  0.00  0.00    -0.097 F 
ATOM      8  F1  UNL d   1      -1.611  -0.194   1.951  0.00  0.00    -0.096 F 
ATOM      9  I   UNL d   1      -0.072   1.659  -0.156  0.00  0.00    -0.060 I 
ATOM     10  F2  UNL d   1       1.156  -0.742  -1.880  0.00  0.00    -0.096 F 
ATOM     11  F3  UNL d   1       0.949  -3.430  -1.624  0.00  0.00    -0.097 F 
ATOM     12  F4  UNL d   1      -0.524  -4.514   0.400  0.00  0.00    -0.092 F 
ENDROOT
TORSDOF 0
ENDMDL
