MODEL 1
REMARK minimizedAffinity -2.50745249
REMARK minimizedRMSD -1
REMARK  0 active torsions:
REMARK  status: ('A' for Active; 'I' for Inactive)
ROOT
ATOM      1  C   UNL d   1       0.290  -2.553  -0.196  0.00  0.00     0.124 A 
ATOM      2  C1  UNL d   1      -0.029  -2.087   1.072  0.00  0.00     0.062 A 
ATOM      3  C2  UNL d   1      -0.055  -0.720   1.329  0.00  0.00     0.162 A 
ATOM      4  C3  UNL d   1       0.238   0.193   0.316  0.00  0.00    -0.034 A 
ATOM      5  C4  UNL d   1       0.559  -0.283  -0.956  0.00  0.00     0.162 A 
ATOM      6  C5  UNL d   1       0.583  -1.651  -1.209  0.00  0.00     0.062 A 
ATOM      7  F   UNL d   1       0.892  -2.099  -2.435  0.00  0.00    -0.097 F 
ATOM      8  F1  UNL d   1       0.846   0.567  -1.954  0.00  0.00    -0.096 F 
ATOM      9  I   UNL d   1       0.200   2.238   0.697  0.00  0.00    -0.060 I 
ATOM     10  F2  UNL d   1      -0.367  -0.298   2.564  0.00  0.00    -0.096 F 
ATOM     11  F3  UNL d   1      -0.313  -2.957   2.052  0.00  0.00    -0.097 F 
ATOM     12  F4  UNL d   1       0.315  -3.869  -0.441  0.00  0.00    -0.092 F 
ENDROOT
TORSDOF 0
ENDMDL
