MODEL 1
REMARK minimizedAffinity -2.89080238
REMARK minimizedRMSD -1
REMARK  0 active torsions:
REMARK  status: ('A' for Active; 'I' for Inactive)
ROOT
ATOM      1  C   UNL d   1      -1.169   0.309   0.390  0.00  0.00     0.124 A 
ATOM      2  C1  UNL d   1      -1.633  -0.629   1.302  0.00  0.00     0.062 A 
ATOM      3  C2  UNL d   1      -1.309  -1.974   1.148  0.00  0.00     0.162 A 
ATOM      4  C3  UNL d   1      -0.516  -2.390   0.078  0.00  0.00    -0.034 A 
ATOM      5  C4  UNL d   1      -0.054  -1.441  -0.835  0.00  0.00     0.162 A 
ATOM      6  C5  UNL d   1      -0.381  -0.098  -0.678  0.00  0.00     0.062 A 
ATOM      7  F   UNL d   1       0.068   0.807  -1.560  0.00  0.00    -0.097 F 
ATOM      8  F1  UNL d   1       0.710  -1.805  -1.875  0.00  0.00    -0.096 F 
ATOM      9  I   UNL d   1      -0.030  -4.400  -0.155  0.00  0.00    -0.060 I 
ATOM     10  F2  UNL d   1      -1.771  -2.859   2.045  0.00  0.00    -0.096 F 
ATOM     11  F3  UNL d   1      -2.396  -0.240   2.333  0.00  0.00    -0.097 F 
ATOM     12  F4  UNL d   1      -1.483   1.602   0.539  0.00  0.00    -0.092 F 
ENDROOT
TORSDOF 0
ENDMDL
