MODEL 1
REMARK minimizedAffinity -0.3940593
REMARK minimizedRMSD -1
REMARK  0 active torsions:
REMARK  status: ('A' for Active; 'I' for Inactive)
ROOT
ATOM      1  C   UNL d   1      -1.237  -2.030   1.283  0.00  0.00     0.124 A 
ATOM      2  C1  UNL d   1      -0.298  -2.347   0.310  0.00  0.00     0.062 A 
ATOM      3  C2  UNL d   1       0.260  -1.344  -0.477  0.00  0.00     0.162 A 
ATOM      4  C3  UNL d   1      -0.117  -0.014  -0.294  0.00  0.00    -0.034 A 
ATOM      5  C4  UNL d   1      -1.062   0.297   0.685  0.00  0.00     0.162 A 
ATOM      6  C5  UNL d   1      -1.618  -0.709   1.470  0.00  0.00     0.062 A 
ATOM      7  F   UNL d   1      -2.524  -0.401   2.409  0.00  0.00    -0.097 F 
ATOM      8  F1  UNL d   1      -1.448   1.566   0.888  0.00  0.00    -0.096 F 
ATOM      9  I   UNL d   1       0.715   1.489  -1.469  0.00  0.00    -0.060 I 
ATOM     10  F2  UNL d   1       1.165  -1.679  -1.409  0.00  0.00    -0.096 F 
ATOM     11  F3  UNL d   1       0.071  -3.623   0.128  0.00  0.00    -0.097 F 
ATOM     12  F4  UNL d   1      -1.773  -2.997   2.038  0.00  0.00    -0.092 F 
ENDROOT
TORSDOF 0
ENDMDL
