MODEL 1
REMARK minimizedAffinity -2.86612678
REMARK minimizedRMSD -1
REMARK  0 active torsions:
REMARK  status: ('A' for Active; 'I' for Inactive)
ROOT
ATOM      1  C   UNL d   1      -0.314  -2.894  -0.513  0.00  0.00     0.124 A 
ATOM      2  C1  UNL d   1       0.309  -2.099  -1.465  0.00  0.00     0.062 A 
ATOM      3  C2  UNL d   1       0.419  -0.725  -1.266  0.00  0.00     0.162 A 
ATOM      4  C3  UNL d   1      -0.095  -0.138  -0.110  0.00  0.00    -0.034 A 
ATOM      5  C4  UNL d   1      -0.721  -0.944   0.842  0.00  0.00     0.162 A 
ATOM      6  C5  UNL d   1      -0.829  -2.316   0.639  0.00  0.00     0.062 A 
ATOM      7  F   UNL d   1      -1.431  -3.083   1.560  0.00  0.00    -0.097 F 
ATOM      8  F1  UNL d   1      -1.226  -0.413   1.965  0.00  0.00    -0.096 F 
ATOM      9  I   UNL d   1       0.067   1.915   0.191  0.00  0.00    -0.060 I 
ATOM     10  F2  UNL d   1       1.026   0.019  -2.203  0.00  0.00    -0.096 F 
ATOM     11  F3  UNL d   1       0.806  -2.654  -2.579  0.00  0.00    -0.097 F 
ATOM     12  F4  UNL d   1      -0.419  -4.215  -0.707  0.00  0.00    -0.092 F 
ENDROOT
TORSDOF 0
ENDMDL
