MODEL 1
REMARK minimizedAffinity -0.810869992
REMARK minimizedRMSD -1
REMARK  0 active torsions:
REMARK  status: ('A' for Active; 'I' for Inactive)
ROOT
ATOM      1  C   UNL d   1      -1.157  -2.145   1.534  0.00  0.00     0.124 A 
ATOM      2  C1  UNL d   1      -1.615  -0.841   1.407  0.00  0.00     0.062 A 
ATOM      3  C2  UNL d   1      -1.187  -0.048   0.346  0.00  0.00     0.162 A 
ATOM      4  C3  UNL d   1      -0.295  -0.557  -0.598  0.00  0.00    -0.034 A 
ATOM      5  C4  UNL d   1       0.162  -1.869  -0.463  0.00  0.00     0.162 A 
ATOM      6  C5  UNL d   1      -0.269  -2.658   0.599  0.00  0.00     0.062 A 
ATOM      7  F   UNL d   1       0.175  -3.917   0.719  0.00  0.00    -0.097 F 
ATOM      8  F1  UNL d   1       1.020  -2.391  -1.353  0.00  0.00    -0.096 F 
ATOM      9  I   UNL d   1       0.348   0.625  -2.185  0.00  0.00    -0.060 I 
ATOM     10  F2  UNL d   1      -1.646   1.209   0.249  0.00  0.00    -0.096 F 
ATOM     11  F3  UNL d   1      -2.473  -0.342   2.310  0.00  0.00    -0.097 F 
ATOM     12  F4  UNL d   1      -1.570  -2.905   2.556  0.00  0.00    -0.092 F 
ENDROOT
TORSDOF 0
ENDMDL
