MODEL 1
REMARK minimizedAffinity -3.2839458
REMARK minimizedRMSD -1
REMARK  0 active torsions:
REMARK  status: ('A' for Active; 'I' for Inactive)
ROOT
ATOM      1  C   UNL d   1       0.039  -2.996  -0.728  0.00  0.00     0.124 A 
ATOM      2  C1  UNL d   1       0.291  -2.172  -1.816  0.00  0.00     0.062 A 
ATOM      3  C2  UNL d   1       0.318  -0.790  -1.656  0.00  0.00     0.162 A 
ATOM      4  C3  UNL d   1       0.092  -0.222  -0.401  0.00  0.00    -0.034 A 
ATOM      5  C4  UNL d   1      -0.162  -1.057   0.688  0.00  0.00     0.162 A 
ATOM      6  C5  UNL d   1      -0.187  -2.438   0.523  0.00  0.00     0.062 A 
ATOM      7  F   UNL d   1      -0.431  -3.233   1.575  0.00  0.00    -0.097 F 
ATOM      8  F1  UNL d   1      -0.383  -0.545   1.908  0.00  0.00    -0.096 F 
ATOM      9  I   UNL d   1       0.131   1.844  -0.158  0.00  0.00    -0.060 I 
ATOM     10  F2  UNL d   1       0.564  -0.018  -2.724  0.00  0.00    -0.096 F 
ATOM     11  F3  UNL d   1       0.510  -2.709  -3.025  0.00  0.00    -0.097 F 
ATOM     12  F4  UNL d   1       0.013  -4.326  -0.885  0.00  0.00    -0.092 F 
ENDROOT
TORSDOF 0
ENDMDL
