MODEL 1
REMARK minimizedAffinity -0.997418344
REMARK minimizedRMSD -1
REMARK  0 active torsions:
REMARK  status: ('A' for Active; 'I' for Inactive)
ROOT
ATOM      1  C   UNL d   1      -0.422  -2.347   0.184  0.00  0.00     0.124 A 
ATOM      2  C1  UNL d   1      -1.264  -1.647   1.036  0.00  0.00     0.062 A 
ATOM      3  C2  UNL d   1      -1.123  -0.270   1.184  0.00  0.00     0.162 A 
ATOM      4  C3  UNL d   1      -0.136   0.416   0.477  0.00  0.00    -0.034 A 
ATOM      5  C4  UNL d   1       0.708  -0.296  -0.378  0.00  0.00     0.162 A 
ATOM      6  C5  UNL d   1       0.563  -1.671  -0.522  0.00  0.00     0.062 A 
ATOM      7  F   UNL d   1       1.378  -2.347  -1.346  0.00  0.00    -0.097 F 
ATOM      8  F1  UNL d   1       1.668   0.333  -1.073  0.00  0.00    -0.096 F 
ATOM      9  I   UNL d   1       0.079   2.475   0.695  0.00  0.00    -0.060 I 
ATOM     10  F2  UNL d   1      -1.950   0.381   2.015  0.00  0.00    -0.096 F 
ATOM     11  F3  UNL d   1      -2.216  -2.298   1.720  0.00  0.00    -0.097 F 
ATOM     12  F4  UNL d   1      -0.559  -3.672   0.044  0.00  0.00    -0.092 F 
ENDROOT
TORSDOF 0
ENDMDL
