MODEL 1
REMARK minimizedAffinity 0.680933356
REMARK minimizedRMSD -1
REMARK  0 active torsions:
REMARK  status: ('A' for Active; 'I' for Inactive)
ROOT
ATOM      1  C   UNL d   1       0.191  -1.924  -0.534  0.00  0.00     0.124 A 
ATOM      2  C1  UNL d   1       0.408  -0.609  -0.147  0.00  0.00     0.062 A 
ATOM      3  C2  UNL d   1      -0.579   0.090   0.542  0.00  0.00     0.162 A 
ATOM      4  C3  UNL d   1      -1.793  -0.525   0.849  0.00  0.00    -0.034 A 
ATOM      5  C4  UNL d   1      -2.004  -1.848   0.455  0.00  0.00     0.162 A 
ATOM      6  C5  UNL d   1      -1.014  -2.542  -0.233  0.00  0.00     0.062 A 
ATOM      7  F   UNL d   1      -1.226  -3.813  -0.606  0.00  0.00    -0.097 F 
ATOM      8  F1  UNL d   1      -3.159  -2.470   0.734  0.00  0.00    -0.096 F 
ATOM      9  I   UNL d   1      -3.272   0.516   1.878  0.00  0.00    -0.060 I 
ATOM     10  F2  UNL d   1      -0.342   1.360   0.904  0.00  0.00    -0.096 F 
ATOM     11  F3  UNL d   1       1.572  -0.009  -0.437  0.00  0.00    -0.097 F 
ATOM     12  F4  UNL d   1       1.143  -2.594  -1.197  0.00  0.00    -0.092 F 
ENDROOT
TORSDOF 0
ENDMDL
