MODEL 1
REMARK minimizedAffinity 3.91383052
REMARK minimizedRMSD -1
REMARK  0 active torsions:
REMARK  status: ('A' for Active; 'I' for Inactive)
ROOT
ATOM      1  C   UNL d   1       0.521  -1.482   1.352  0.00  0.00     0.078 C 
ATOM      2  C1  UNL d   1       1.496  -2.542   1.771  0.00  0.00    -0.077 A 
ATOM      3  C2  UNL d   1       2.371  -2.334   2.845  0.00  0.00    -0.001 A 
ATOM      4  C3  UNL d   1       3.280  -3.325   3.217  0.00  0.00     0.003 A 
ATOM      5  C4  UNL d   1       3.324  -4.531   2.521  0.00  0.00    -0.005 A 
ATOM      6  C5  UNL d   1       2.459  -4.747   1.450  0.00  0.00     0.003 A 
ATOM      7  C6  UNL d   1       1.550  -3.756   1.076  0.00  0.00    -0.001 A 
ENDROOT
TORSDOF 0
ENDMDL
