MODEL 1
REMARK minimizedAffinity 4.51394033
REMARK minimizedRMSD -1
REMARK  0 active torsions:
REMARK  status: ('A' for Active; 'I' for Inactive)
ROOT
ATOM      1  C   UNL d   1       6.000  -1.506  -2.554  0.00  0.00     0.078 C 
ATOM      2  C1  UNL d   1       5.577  -0.401  -3.475  0.00  0.00    -0.077 A 
ATOM      3  C2  UNL d   1       4.773  -0.661  -4.592  0.00  0.00    -0.001 A 
ATOM      4  C3  UNL d   1       4.395   0.375  -5.447  0.00  0.00     0.003 A 
ATOM      5  C4  UNL d   1       4.817   1.679  -5.195  0.00  0.00    -0.005 A 
ATOM      6  C5  UNL d   1       5.620   1.947  -4.088  0.00  0.00     0.003 A 
ATOM      7  C6  UNL d   1       5.998   0.912  -3.232  0.00  0.00    -0.001 A 
ENDROOT
TORSDOF 0
ENDMDL
