MODEL 1
REMARK minimizedAffinity 6.61205626
REMARK minimizedRMSD -1
REMARK  0 active torsions:
REMARK  status: ('A' for Active; 'I' for Inactive)
ROOT
ATOM      1  C   UNL d   1       1.112   5.234  -3.736  0.00  0.00     0.078 C 
ATOM      2  C1  UNL d   1      -0.145   4.527  -3.323  0.00  0.00    -0.077 A 
ATOM      3  C2  UNL d   1      -0.103   3.228  -2.802  0.00  0.00    -0.001 A 
ATOM      4  C3  UNL d   1      -1.281   2.578  -2.431  0.00  0.00     0.003 A 
ATOM      5  C4  UNL d   1      -2.510   3.219  -2.577  0.00  0.00    -0.005 A 
ATOM      6  C5  UNL d   1      -2.561   4.511  -3.096  0.00  0.00     0.003 A 
ATOM      7  C6  UNL d   1      -1.384   5.163  -3.468  0.00  0.00    -0.001 A 
ENDROOT
TORSDOF 0
ENDMDL
