MODEL 1
REMARK minimizedAffinity 2.0816524
REMARK minimizedRMSD -1
REMARK  0 active torsions:
REMARK  status: ('A' for Active; 'I' for Inactive)
ROOT
ATOM      1  C   UNL d   1       5.992   3.027  -3.574  0.00  0.00     0.078 C 
ATOM      2  C1  UNL d   1       5.987   1.619  -4.091  0.00  0.00    -0.077 A 
ATOM      3  C2  UNL d   1       5.995   0.528  -3.213  0.00  0.00    -0.001 A 
ATOM      4  C3  UNL d   1       6.000  -0.777  -3.708  0.00  0.00     0.003 A 
ATOM      5  C4  UNL d   1       5.999  -1.003  -5.083  0.00  0.00    -0.005 A 
ATOM      6  C5  UNL d   1       5.995   0.076  -5.965  0.00  0.00     0.003 A 
ATOM      7  C6  UNL d   1       5.989   1.382  -5.471  0.00  0.00    -0.001 A 
ENDROOT
TORSDOF 0
ENDMDL
