MODEL 1
REMARK minimizedAffinity 2.23321557
REMARK minimizedRMSD -1
REMARK  0 active torsions:
REMARK  status: ('A' for Active; 'I' for Inactive)
ROOT
ATOM      1  C   UNL d   1      -1.432   1.325  -1.811  0.00  0.00     0.078 C 
ATOM      2  C1  UNL d   1      -1.365   2.557  -2.663  0.00  0.00    -0.077 A 
ATOM      3  C2  UNL d   1      -0.135   3.122  -3.019  0.00  0.00    -0.001 A 
ATOM      4  C3  UNL d   1      -0.088   4.275  -3.805  0.00  0.00     0.003 A 
ATOM      5  C4  UNL d   1      -1.269   4.874  -4.239  0.00  0.00    -0.005 A 
ATOM      6  C5  UNL d   1      -2.498   4.321  -3.887  0.00  0.00     0.003 A 
ATOM      7  C6  UNL d   1      -2.547   3.168  -3.102  0.00  0.00    -0.001 A 
ENDROOT
TORSDOF 0
ENDMDL
