MODEL 1
REMARK minimizedAffinity -1.97834599
REMARK minimizedRMSD -1
REMARK  0 active torsions:
REMARK  status: ('A' for Active; 'I' for Inactive)
ROOT
ATOM      1  C   UNL d   1       5.989   2.745  -4.176  0.00  0.00     0.078 C 
ATOM      2  C1  UNL d   1       5.999   1.270  -4.448  0.00  0.00    -0.077 A 
ATOM      3  C2  UNL d   1       5.999   0.779  -5.759  0.00  0.00    -0.001 A 
ATOM      4  C3  UNL d   1       5.999  -0.596  -5.998  0.00  0.00     0.003 A 
ATOM      5  C4  UNL d   1       5.999  -1.491  -4.930  0.00  0.00    -0.005 A 
ATOM      6  C5  UNL d   1       5.997  -1.012  -3.622  0.00  0.00     0.003 A 
ATOM      7  C6  UNL d   1       5.997   0.363  -3.381  0.00  0.00    -0.001 A 
ENDROOT
TORSDOF 0
ENDMDL
