MODEL 1
REMARK minimizedAffinity 1.30824709
REMARK minimizedRMSD -1
REMARK  0 active torsions:
REMARK  status: ('A' for Active; 'I' for Inactive)
ROOT
ATOM      1  C   UNL d   1       0.161  -1.591   3.070  0.00  0.00     0.078 C 
ATOM      2  C1  UNL d   1       1.044  -2.365   2.137  0.00  0.00    -0.077 A 
ATOM      3  C2  UNL d   1       1.204  -3.749   2.277  0.00  0.00    -0.001 A 
ATOM      4  C3  UNL d   1       2.037  -4.455   1.407  0.00  0.00     0.003 A 
ATOM      5  C4  UNL d   1       2.718  -3.785   0.392  0.00  0.00    -0.005 A 
ATOM      6  C5  UNL d   1       2.567  -2.407   0.247  0.00  0.00     0.003 A 
ATOM      7  C6  UNL d   1       1.734  -1.700   1.116  0.00  0.00    -0.001 A 
ENDROOT
TORSDOF 0
ENDMDL
