MODEL 1
REMARK minimizedAffinity 9.78855515
REMARK minimizedRMSD -1
REMARK  0 active torsions:
REMARK  status: ('A' for Active; 'I' for Inactive)
ROOT
ATOM      1  C   UNL d   1      -0.355  -0.336  -1.132  0.00  0.00     0.078 C 
ATOM      2  C1  UNL d   1      -0.924   0.950  -1.652  0.00  0.00    -0.077 A 
ATOM      3  C2  UNL d   1      -0.086   1.982  -2.095  0.00  0.00    -0.001 A 
ATOM      4  C3  UNL d   1      -0.629   3.178  -2.568  0.00  0.00     0.003 A 
ATOM      5  C4  UNL d   1      -2.011   3.354  -2.601  0.00  0.00    -0.005 A 
ATOM      6  C5  UNL d   1      -2.852   2.334  -2.161  0.00  0.00     0.003 A 
ATOM      7  C6  UNL d   1      -2.311   1.138  -1.688  0.00  0.00    -0.001 A 
ENDROOT
TORSDOF 0
ENDMDL
