MODEL 1
REMARK minimizedAffinity 5.35856962
REMARK minimizedRMSD -1
REMARK  0 active torsions:
REMARK  status: ('A' for Active; 'I' for Inactive)
ROOT
ATOM      1  C   UNL d   1      -2.547   3.002  -2.835  0.00  0.00     0.078 C 
ATOM      2  C1  UNL d   1      -1.203   2.411  -2.528  0.00  0.00    -0.077 A 
ATOM      3  C2  UNL d   1      -0.033   2.964  -3.064  0.00  0.00    -0.001 A 
ATOM      4  C3  UNL d   1       1.210   2.397  -2.778  0.00  0.00     0.003 A 
ATOM      5  C4  UNL d   1       1.295   1.276  -1.956  0.00  0.00    -0.005 A 
ATOM      6  C5  UNL d   1       0.136   0.718  -1.420  0.00  0.00     0.003 A 
ATOM      7  C6  UNL d   1      -1.108   1.282  -1.705  0.00  0.00    -0.001 A 
ENDROOT
TORSDOF 0
ENDMDL
