MODEL 1
REMARK minimizedAffinity 10.3692322
REMARK minimizedRMSD -1
REMARK  0 active torsions:
REMARK  status: ('A' for Active; 'I' for Inactive)
ROOT
ATOM      1  C1  DEN d   1       3.077  -4.789   0.734  0.00  0.00     0.130 A 
ATOM      2  C2  DEN d   1       2.046  -5.751   0.356  0.00  0.00    -0.031 A 
ATOM      3  C3  DEN d   1       0.756  -5.036   0.289  0.00  0.00     0.027 A 
ATOM      4  C4  DEN d   1       0.258  -2.544   0.726  0.00  0.00     0.027 A 
ATOM      5  C5  DEN d   1       0.811  -1.335   1.086  0.00  0.00    -0.003 A 
ATOM      6  C6  DEN d   1       2.141  -1.200   1.385  0.00  0.00     0.001 A 
ATOM      7  C7  DEN d   1       2.972  -2.285   1.285  0.00  0.00     0.017 A 
ATOM      8  C8  DEN d   1       2.420  -3.509   0.930  0.00  0.00    -0.094 A 
ATOM      9  C9  DEN d   1       1.076  -3.621   0.619  0.00  0.00    -0.072 A 
ENDROOT
TORSDOF 0
ENDMDL
