MODEL 1
REMARK minimizedAffinity 13.9296236
REMARK minimizedRMSD -1
REMARK  0 active torsions:
REMARK  status: ('A' for Active; 'I' for Inactive)
ROOT
ATOM      1  C1  DEN d   1      -3.743   0.342  -1.439  0.00  0.00     0.130 A 
ATOM      2  C2  DEN d   1      -2.815  -0.585  -0.797  0.00  0.00    -0.031 A 
ATOM      3  C3  DEN d   1      -1.452  -0.266  -1.268  0.00  0.00     0.027 A 
ATOM      4  C4  DEN d   1      -0.692   1.567  -2.916  0.00  0.00     0.027 A 
ATOM      5  C5  DEN d   1      -1.120   2.592  -3.730  0.00  0.00    -0.003 A 
ATOM      6  C6  DEN d   1      -2.444   2.915  -3.863  0.00  0.00     0.001 A 
ATOM      7  C7  DEN d   1      -3.385   2.234  -3.135  0.00  0.00     0.017 A 
ATOM      8  C8  DEN d   1      -2.962   1.194  -2.318  0.00  0.00    -0.094 A 
ATOM      9  C9  DEN d   1      -1.617   0.891  -2.188  0.00  0.00    -0.072 A 
ENDROOT
TORSDOF 0
ENDMDL
