MODEL 1
REMARK minimizedAffinity 8.86882782
REMARK minimizedRMSD -1
REMARK  0 active torsions:
REMARK  status: ('A' for Active; 'I' for Inactive)
ROOT
ATOM      1  C1  DEN d   1       1.063  -3.141   0.442  0.00  0.00     0.130 A 
ATOM      2  C2  DEN d   1       2.471  -2.776   0.314  0.00  0.00    -0.031 A 
ATOM      3  C3  DEN d   1       2.757  -1.710   1.295  0.00  0.00     0.027 A 
ATOM      4  C4  DEN d   1       1.166  -0.600   2.995  0.00  0.00     0.027 A 
ATOM      5  C5  DEN d   1      -0.127  -0.569   3.468  0.00  0.00    -0.003 A 
ATOM      6  C6  DEN d   1      -1.114  -1.364   2.947  0.00  0.00     0.001 A 
ATOM      7  C7  DEN d   1      -0.813  -2.255   1.952  0.00  0.00     0.017 A 
ATOM      8  C8  DEN d   1       0.487  -2.286   1.464  0.00  0.00    -0.094 A 
ATOM      9  C9  DEN d   1       1.473  -1.484   2.012  0.00  0.00    -0.072 A 
ENDROOT
TORSDOF 0
ENDMDL
