MODEL 1
REMARK minimizedAffinity 10.6780615
REMARK minimizedRMSD -1
REMARK  0 active torsions:
REMARK  status: ('A' for Active; 'I' for Inactive)
ROOT
ATOM      1  C1  DEN d   1      -0.769  -2.698   1.653  0.00  0.00     0.130 A 
ATOM      2  C2  DEN d   1      -0.676  -1.553   2.554  0.00  0.00    -0.031 A 
ATOM      3  C3  DEN d   1       0.739  -1.138   2.621  0.00  0.00     0.027 A 
ATOM      4  C4  DEN d   1       2.785  -2.149   1.418  0.00  0.00     0.027 A 
ATOM      5  C5  DEN d   1       3.205  -3.139   0.558  0.00  0.00    -0.003 A 
ATOM      6  C6  DEN d   1       2.343  -4.065   0.034  0.00  0.00     0.001 A 
ATOM      7  C7  DEN d   1       1.007  -3.993   0.329  0.00  0.00     0.017 A 
ATOM      8  C8  DEN d   1       0.577  -3.001   1.201  0.00  0.00    -0.094 A 
ATOM      9  C9  DEN d   1       1.462  -2.067   1.711  0.00  0.00    -0.072 A 
ENDROOT
TORSDOF 0
ENDMDL
