MODEL 1
REMARK minimizedAffinity 11.0681067
REMARK minimizedRMSD -1
REMARK  0 active torsions:
REMARK  status: ('A' for Active; 'I' for Inactive)
ROOT
ATOM      1  C1  DEN d   1       3.809  -2.236   4.228  0.00  0.00     0.130 A 
ATOM      2  C2  DEN d   1       4.673  -1.252   4.873  0.00  0.00    -0.031 A 
ATOM      3  C3  DEN d   1       5.670  -1.980   5.682  0.00  0.00     0.027 A 
ATOM      4  C4  DEN d   1       5.961  -4.524   5.994  0.00  0.00     0.027 A 
ATOM      5  C5  DEN d   1       5.458  -5.761   5.656  0.00  0.00    -0.003 A 
ATOM      6  C6  DEN d   1       4.358  -5.908   4.853  0.00  0.00     0.001 A 
ATOM      7  C7  DEN d   1       3.752  -4.799   4.323  0.00  0.00     0.017 A 
ATOM      8  C8  DEN d   1       4.249  -3.549   4.665  0.00  0.00    -0.094 A 
ATOM      9  C9  DEN d   1       5.369  -3.422   5.469  0.00  0.00    -0.072 A 
ENDROOT
TORSDOF 0
ENDMDL
