MODEL 1
REMARK minimizedAffinity 6.28240776
REMARK minimizedRMSD -1
REMARK  0 active torsions:
REMARK  status: ('A' for Active; 'I' for Inactive)
ROOT
ATOM      1  C1  DEN d   1       2.899  -1.869  -0.355  0.00  0.00     0.130 A 
ATOM      2  C2  DEN d   1       2.525  -0.576   0.212  0.00  0.00    -0.031 A 
ATOM      3  C3  DEN d   1       1.347  -0.781   1.078  0.00  0.00     0.027 A 
ATOM      4  C4  DEN d   1       0.075  -2.964   1.597  0.00  0.00     0.027 A 
ATOM      5  C5  DEN d   1       0.014  -4.316   1.340  0.00  0.00    -0.003 A 
ATOM      6  C6  DEN d   1       0.882  -4.936   0.481  0.00  0.00     0.001 A 
ATOM      7  C7  DEN d   1       1.878  -4.210  -0.118  0.00  0.00     0.017 A 
ATOM      8  C8  DEN d   1       1.941  -2.846   0.130  0.00  0.00    -0.094 A 
ATOM      9  C9  DEN d   1       1.062  -2.240   1.012  0.00  0.00    -0.072 A 
ENDROOT
TORSDOF 0
ENDMDL
