MODEL 1
REMARK minimizedAffinity 10.6459789
REMARK minimizedRMSD -1
REMARK  0 active torsions:
REMARK  status: ('A' for Active; 'I' for Inactive)
ROOT
ATOM      1  C1  DEN d   1       0.136  -2.705   0.549  0.00  0.00     0.130 A 
ATOM      2  C2  DEN d   1       0.744  -1.445   0.970  0.00  0.00    -0.031 A 
ATOM      3  C3  DEN d   1       2.210  -1.617   0.953  0.00  0.00     0.027 A 
ATOM      4  C4  DEN d   1       3.592  -3.700   0.314  0.00  0.00     0.027 A 
ATOM      5  C5  DEN d   1       3.520  -5.012  -0.098  0.00  0.00    -0.003 A 
ATOM      6  C6  DEN d   1       2.324  -5.652  -0.289  0.00  0.00     0.001 A 
ATOM      7  C7  DEN d   1       1.151  -4.967  -0.111  0.00  0.00     0.017 A 
ATOM      8  C8  DEN d   1       1.216  -3.646   0.312  0.00  0.00    -0.094 A 
ATOM      9  C9  DEN d   1       2.435  -3.013   0.488  0.00  0.00    -0.072 A 
ENDROOT
TORSDOF 0
ENDMDL
