MODEL 1
REMARK minimizedAffinity -5.46324825
REMARK minimizedRMSD -1
REMARK  0 active torsions:
REMARK  status: ('A' for Active; 'I' for Inactive)
ROOT
ATOM      1  C4' PXY d   1      -1.091   0.143   1.316  0.00  0.00     0.077 C 
ATOM      2  C1' PXY d   1       2.702   0.292  -3.044  0.00  0.00     0.077 C 
ATOM      3  C1  PXY d   1       1.710   0.240  -1.899  0.00  0.00    -0.082 A 
ATOM      4  C2  PXY d   1       0.752   1.150  -1.822  0.00  0.00     0.003 A 
ATOM      5  C3  PXY d   1      -0.134   1.137  -0.776  0.00  0.00     0.003 A 
ATOM      6  C4  PXY d   1      -0.072   0.151   0.172  0.00  0.00    -0.082 A 
ATOM      7  C5  PXY d   1       0.895  -0.787   0.095  0.00  0.00     0.003 A 
ATOM      8  C6  PXY d   1       1.810  -0.732  -0.953  0.00  0.00     0.003 A 
ENDROOT
TORSDOF 0
ENDMDL
