MODEL 1
REMARK minimizedAffinity -1.95661521
REMARK minimizedRMSD -1
REMARK  0 active torsions:
REMARK  status: ('A' for Active; 'I' for Inactive)
ROOT
ATOM      1  C4' PXY d   1      -1.252   0.787   2.019  0.00  0.00     0.077 C 
ATOM      2  C1' PXY d   1       2.344  -1.141  -2.076  0.00  0.00     0.077 C 
ATOM      3  C1  PXY d   1       1.406  -0.623  -1.003  0.00  0.00    -0.082 A 
ATOM      4  C2  PXY d   1       0.922  -1.459  -0.099  0.00  0.00     0.003 A 
ATOM      5  C3  PXY d   1       0.047  -1.014   0.859  0.00  0.00     0.003 A 
ATOM      6  C4  PXY d   1      -0.294   0.311   0.923  0.00  0.00    -0.082 A 
ATOM      7  C5  PXY d   1       0.204   1.171   0.011  0.00  0.00     0.003 A 
ATOM      8  C6  PXY d   1       1.058   0.692  -0.978  0.00  0.00     0.003 A 
ENDROOT
TORSDOF 0
ENDMDL
