MODEL 1
REMARK minimizedAffinity -3.86361122
REMARK minimizedRMSD -1
REMARK  0 active torsions:
REMARK  status: ('A' for Active; 'I' for Inactive)
ROOT
ATOM      1  C4' PXY d   1      -1.238   1.025   0.405  0.00  0.00     0.077 C 
ATOM      2  C1' PXY d   1       3.583  -1.280  -1.799  0.00  0.00     0.077 C 
ATOM      3  C1  PXY d   1       2.325  -0.665  -1.218  0.00  0.00    -0.082 A 
ATOM      4  C2  PXY d   1       1.360  -1.450  -0.770  0.00  0.00     0.003 A 
ATOM      5  C3  PXY d   1       0.202  -0.911  -0.271  0.00  0.00     0.003 A 
ATOM      6  C4  PXY d   1       0.053   0.447  -0.181  0.00  0.00    -0.082 A 
ATOM      7  C5  PXY d   1       1.038   1.256  -0.627  0.00  0.00     0.003 A 
ATOM      8  C6  PXY d   1       2.188   0.688  -1.167  0.00  0.00     0.003 A 
ENDROOT
TORSDOF 0
ENDMDL
