MODEL 1
REMARK minimizedAffinity -4.09058237
REMARK minimizedRMSD -1
REMARK  0 active torsions:
REMARK  status: ('A' for Active; 'I' for Inactive)
ROOT
ATOM      1  C4' PXY d   1      -2.082   1.379   2.534  0.00  0.00     0.077 C 
ATOM      2  C1' PXY d   1       1.234  -2.221  -0.541  0.00  0.00     0.077 C 
ATOM      3  C1  PXY d   1       0.363  -1.269   0.255  0.00  0.00    -0.082 A 
ATOM      4  C2  PXY d   1       0.488  -1.214   1.571  0.00  0.00     0.003 A 
ATOM      5  C3  PXY d   1      -0.314  -0.382   2.309  0.00  0.00     0.003 A 
ATOM      6  C4  PXY d   1      -1.217   0.440   1.689  0.00  0.00    -0.082 A 
ATOM      7  C5  PXY d   1      -1.343   0.396   0.346  0.00  0.00     0.003 A 
ATOM      8  C6  PXY d   1      -0.548  -0.485  -0.382  0.00  0.00     0.003 A 
ENDROOT
TORSDOF 0
ENDMDL
