MODEL 1
REMARK minimizedAffinity -2.20459723
REMARK minimizedRMSD -1
REMARK  0 active torsions:
REMARK  status: ('A' for Active; 'I' for Inactive)
ROOT
ATOM      1  C4' PXY d   1      -2.515   0.009   3.732  0.00  0.00     0.077 C 
ATOM      2  C1' PXY d   1       0.909   1.515  -0.675  0.00  0.00     0.077 C 
ATOM      3  C1  PXY d   1       0.018   1.128   0.488  0.00  0.00    -0.082 A 
ATOM      4  C2  PXY d   1      -0.663  -0.006   0.442  0.00  0.00     0.003 A 
ATOM      5  C3  PXY d   1      -1.498  -0.356   1.472  0.00  0.00     0.003 A 
ATOM      6  C4  PXY d   1      -1.596   0.436   2.584  0.00  0.00    -0.082 A 
ATOM      7  C5  PXY d   1      -0.896   1.589   2.644  0.00  0.00     0.003 A 
ATOM      8  C6  PXY d   1      -0.086   1.947   1.570  0.00  0.00     0.003 A 
ENDROOT
TORSDOF 0
ENDMDL
