MODEL 1
REMARK minimizedAffinity -4.9875989
REMARK minimizedRMSD -1
REMARK  0 active torsions:
REMARK  status: ('A' for Active; 'I' for Inactive)
ROOT
ATOM      1  C4' PXY d   1       3.368  -0.746  -1.242  0.00  0.00     0.077 C 
ATOM      2  C1' PXY d   1      -2.020   0.043   0.698  0.00  0.00     0.077 C 
ATOM      3  C1  PXY d   1      -0.607  -0.153   0.183  0.00  0.00    -0.082 A 
ATOM      4  C2  PXY d   1      -0.111  -1.375   0.083  0.00  0.00     0.003 A 
ATOM      5  C3  PXY d   1       1.176  -1.568  -0.351  0.00  0.00     0.003 A 
ATOM      6  C4  PXY d   1       1.944  -0.502  -0.736  0.00  0.00    -0.082 A 
ATOM      7  C5  PXY d   1       1.441   0.748  -0.647  0.00  0.00     0.003 A 
ATOM      8  C6  PXY d   1       0.147   0.925  -0.165  0.00  0.00     0.003 A 
ENDROOT
TORSDOF 0
ENDMDL
