MODEL 1
REMARK minimizedAffinity -5.23035717
REMARK minimizedRMSD -1
REMARK  0 active torsions:
REMARK  status: ('A' for Active; 'I' for Inactive)
ROOT
ATOM      1  C4' PXY d   1       3.182  -0.541  -1.896  0.00  0.00     0.077 C 
ATOM      2  C1' PXY d   1      -1.813   0.180   0.923  0.00  0.00     0.077 C 
ATOM      3  C1  PXY d   1      -0.501  -0.020   0.191  0.00  0.00    -0.082 A 
ATOM      4  C2  PXY d   1       0.094   1.015  -0.380  0.00  0.00     0.003 A 
ATOM      5  C3  PXY d   1       1.265   0.847  -1.074  0.00  0.00     0.003 A 
ATOM      6  C4  PXY d   1       1.861  -0.384  -1.138  0.00  0.00    -0.082 A 
ATOM      7  C5  PXY d   1       1.266  -1.443  -0.549  0.00  0.00     0.003 A 
ATOM      8  C6  PXY d   1       0.056  -1.259   0.115  0.00  0.00     0.003 A 
ENDROOT
TORSDOF 0
ENDMDL
