MODEL 1
REMARK minimizedAffinity -4.86870241
REMARK minimizedRMSD -1
REMARK  0 active torsions:
REMARK  status: ('A' for Active; 'I' for Inactive)
ROOT
ATOM      1  C4' PXY d   1      -1.516   0.331   1.129  0.00  0.00     0.077 C 
ATOM      2  C1' PXY d   1       3.147  -0.706  -2.126  0.00  0.00     0.077 C 
ATOM      3  C1  PXY d   1       1.928  -0.422  -1.271  0.00  0.00    -0.082 A 
ATOM      4  C2  PXY d   1       1.296  -1.423  -0.679  0.00  0.00     0.003 A 
ATOM      5  C3  PXY d   1       0.173  -1.187   0.072  0.00  0.00     0.003 A 
ATOM      6  C4  PXY d   1      -0.276   0.092   0.264  0.00  0.00    -0.082 A 
ATOM      7  C5  PXY d   1       0.370   1.119  -0.327  0.00  0.00     0.003 A 
ATOM      8  C6  PXY d   1       1.483   0.855  -1.120  0.00  0.00     0.003 A 
ENDROOT
TORSDOF 0
ENDMDL
