MODEL 1
REMARK minimizedAffinity -3.59180689
REMARK minimizedRMSD -1
REMARK  0 active torsions:
REMARK  status: ('A' for Active; 'I' for Inactive)
ROOT
ATOM      1  C4' PXY d   1      -1.995  -0.093   0.997  0.00  0.00     0.077 C 
ATOM      2  C1' PXY d   1       3.286  -0.339  -1.341  0.00  0.00     0.077 C 
ATOM      3  C1  PXY d   1       1.899  -0.286  -0.733  0.00  0.00    -0.082 A 
ATOM      4  C2  PXY d   1       1.346   0.886  -0.464  0.00  0.00     0.003 A 
ATOM      5  C3  PXY d   1       0.105   0.951   0.115  0.00  0.00     0.003 A 
ATOM      6  C4  PXY d   1      -0.600  -0.194   0.374  0.00  0.00    -0.082 A 
ATOM      7  C5  PXY d   1      -0.047  -1.393   0.093  0.00  0.00     0.003 A 
ATOM      8  C6  PXY d   1       1.230  -1.439  -0.457  0.00  0.00     0.003 A 
ENDROOT
TORSDOF 0
ENDMDL
