MODEL 1
REMARK minimizedAffinity -4.77608204
REMARK minimizedRMSD -1
REMARK  0 active torsions:
REMARK  status: ('A' for Active; 'I' for Inactive)
ROOT
ATOM      1  C4' PXY d   1      -1.711   0.814   1.334  0.00  0.00     0.077 C 
ATOM      2  C1' PXY d   1       2.983  -0.821  -1.617  0.00  0.00     0.077 C 
ATOM      3  C1  PXY d   1       1.756  -0.380  -0.844  0.00  0.00    -0.082 A 
ATOM      4  C2  PXY d   1       1.112  -1.252  -0.085  0.00  0.00     0.003 A 
ATOM      5  C3  PXY d   1      -0.017  -0.879   0.596  0.00  0.00     0.003 A 
ATOM      6  C4  PXY d   1      -0.463   0.415   0.542  0.00  0.00    -0.082 A 
ATOM      7  C5  PXY d   1       0.194   1.314  -0.221  0.00  0.00     0.003 A 
ATOM      8  C6  PXY d   1       1.315   0.904  -0.938  0.00  0.00     0.003 A 
ENDROOT
TORSDOF 0
ENDMDL
