MODEL 1
REMARK minimizedAffinity -2.72771454
REMARK minimizedRMSD -1
REMARK  0 active torsions:
REMARK  status: ('A' for Active; 'I' for Inactive)
ROOT
ATOM      1  C4' PXY d   1      -1.615   1.125   1.944  0.00  0.00     0.077 C 
ATOM      2  C1' PXY d   1       1.875  -1.936  -1.500  0.00  0.00     0.077 C 
ATOM      3  C1  PXY d   1       0.962  -1.123  -0.604  0.00  0.00    -0.082 A 
ATOM      4  C2  PXY d   1       0.750  -1.514   0.642  0.00  0.00     0.003 A 
ATOM      5  C3  PXY d   1      -0.098  -0.808   1.456  0.00  0.00     0.003 A 
ATOM      6  C4  PXY d   1      -0.693   0.340   1.007  0.00  0.00    -0.082 A 
ATOM      7  C5  PXY d   1      -0.474   0.752  -0.260  0.00  0.00     0.003 A 
ATOM      8  C6  PXY d   1       0.358  -0.002  -1.083  0.00  0.00     0.003 A 
ENDROOT
TORSDOF 0
ENDMDL
