MODEL 1
REMARK minimizedAffinity -1.58398199
REMARK minimizedRMSD -1
REMARK  0 active torsions:
REMARK  status: ('A' for Active; 'I' for Inactive)
ROOT
ATOM      1  C4' PXY d   1      -1.500   0.881   1.335  0.00  0.00     0.077 C 
ATOM      2  C1' PXY d   1       2.265  -1.230  -2.510  0.00  0.00     0.077 C 
ATOM      3  C1  PXY d   1       1.281  -0.665  -1.505  0.00  0.00    -0.082 A 
ATOM      4  C2  PXY d   1       0.888  -1.409  -0.483  0.00  0.00     0.003 A 
ATOM      5  C3  PXY d   1      -0.025  -0.924   0.417  0.00  0.00     0.003 A 
ATOM      6  C4  PXY d   1      -0.501   0.354   0.301  0.00  0.00    -0.082 A 
ATOM      7  C5  PXY d   1      -0.097   1.123  -0.732  0.00  0.00     0.003 A 
ATOM      8  C6  PXY d   1       0.799   0.599  -1.658  0.00  0.00     0.003 A 
ENDROOT
TORSDOF 0
ENDMDL
