MODEL 1
REMARK minimizedAffinity -4.30804729
REMARK minimizedRMSD -1
REMARK  0 active torsions:
REMARK  status: ('A' for Active; 'I' for Inactive)
ROOT
ATOM      1  C4' PXY d   1      -2.071  -0.702   0.666  0.00  0.00     0.077 C 
ATOM      2  C1' PXY d   1       3.283  -0.423  -1.495  0.00  0.00     0.077 C 
ATOM      3  C1  PXY d   1       1.880  -0.484  -0.925  0.00  0.00    -0.082 A 
ATOM      4  C2  PXY d   1       1.377  -1.648  -0.546  0.00  0.00     0.003 A 
ATOM      5  C3  PXY d   1       0.098  -1.725  -0.058  0.00  0.00     0.003 A 
ATOM      6  C4  PXY d   1      -0.655  -0.592   0.094  0.00  0.00    -0.082 A 
ATOM      7  C5  PXY d   1      -0.146   0.601  -0.280  0.00  0.00     0.003 A 
ATOM      8  C6  PXY d   1       1.140   0.652  -0.811  0.00  0.00     0.003 A 
ENDROOT
TORSDOF 0
ENDMDL
