MODEL 1
REMARK minimizedAffinity -2.58376074
REMARK minimizedRMSD -1
REMARK  0 active torsions:
REMARK  status: ('A' for Active; 'I' for Inactive)
ROOT
ATOM      1  C4' PXY d   1       1.564   0.781  -0.244  0.00  0.00     0.077 C 
ATOM      2  C1' PXY d   1      -2.905   1.240   3.394  0.00  0.00     0.077 C 
ATOM      3  C1  PXY d   1      -1.732   1.107   2.443  0.00  0.00    -0.082 A 
ATOM      4  C2  PXY d   1      -1.038   2.182   2.105  0.00  0.00     0.003 A 
ATOM      5  C3  PXY d   1       0.006   2.085   1.221  0.00  0.00     0.003 A 
ATOM      6  C4  PXY d   1       0.378   0.866   0.720  0.00  0.00    -0.082 A 
ATOM      7  C5  PXY d   1      -0.318  -0.237   1.069  0.00  0.00     0.003 A 
ATOM      8  C6  PXY d   1      -1.400  -0.111   1.935  0.00  0.00     0.003 A 
ENDROOT
TORSDOF 0
ENDMDL
