MODEL 1
REMARK minimizedAffinity -3.17293143
REMARK minimizedRMSD -1
REMARK  0 active torsions:
REMARK  status: ('A' for Active; 'I' for Inactive)
ROOT
ATOM      1  C4' PXY d   1       0.753  -1.124  -0.151  0.00  0.00     0.077 C 
ATOM      2  C1' PXY d   1      -2.663   2.148   3.172  0.00  0.00     0.077 C 
ATOM      3  C1  PXY d   1      -1.777   1.284   2.296  0.00  0.00    -0.082 A 
ATOM      4  C2  PXY d   1      -0.509   1.100   2.626  0.00  0.00     0.003 A 
ATOM      5  C3  PXY d   1       0.314   0.348   1.828  0.00  0.00     0.003 A 
ATOM      6  C4  PXY d   1      -0.180  -0.267   0.709  0.00  0.00    -0.082 A 
ATOM      7  C5  PXY d   1      -1.475  -0.094   0.371  0.00  0.00     0.003 A 
ATOM      8  C6  PXY d   1      -2.284   0.707   1.172  0.00  0.00     0.003 A 
ENDROOT
TORSDOF 0
ENDMDL
