MODEL 1
REMARK minimizedAffinity -2.83921695
REMARK minimizedRMSD -1
REMARK  0 active torsions:
REMARK  status: ('A' for Active; 'I' for Inactive)
ROOT
ATOM      1  C4' PXY d   1      -1.752   0.624   0.701  0.00  0.00     0.077 C 
ATOM      2  C1' PXY d   1       2.809  -1.107  -2.401  0.00  0.00     0.077 C 
ATOM      3  C1  PXY d   1       1.616  -0.640  -1.589  0.00  0.00    -0.082 A 
ATOM      4  C2  PXY d   1       1.071  -1.455  -0.700  0.00  0.00     0.003 A 
ATOM      5  C3  PXY d   1      -0.027  -1.061   0.020  0.00  0.00     0.003 A 
ATOM      6  C4  PXY d   1      -0.541   0.199  -0.134  0.00  0.00    -0.082 A 
ATOM      7  C5  PXY d   1       0.016   1.040  -1.032  0.00  0.00     0.003 A 
ATOM      8  C6  PXY d   1       1.105   0.606  -1.782  0.00  0.00     0.003 A 
ENDROOT
TORSDOF 0
ENDMDL
