MODEL 1
REMARK minimizedAffinity -3.17264032
REMARK minimizedRMSD -1
REMARK  0 active torsions:
REMARK  status: ('A' for Active; 'I' for Inactive)
ROOT
ATOM      1  C4' PXY d   1      -2.624   1.374   2.903  0.00  0.00     0.077 C 
ATOM      2  C1' PXY d   1       1.024  -0.757  -1.043  0.00  0.00     0.077 C 
ATOM      3  C1  PXY d   1       0.065  -0.188  -0.015  0.00  0.00    -0.082 A 
ATOM      4  C2  PXY d   1       0.161  -0.566   1.249  0.00  0.00     0.003 A 
ATOM      5  C3  PXY d   1      -0.718  -0.085   2.185  0.00  0.00     0.003 A 
ATOM      6  C4  PXY d   1      -1.672   0.832   1.833  0.00  0.00    -0.082 A 
ATOM      7  C5  PXY d   1      -1.769   1.230   0.547  0.00  0.00     0.003 A 
ATOM      8  C6  PXY d   1      -0.894   0.700  -0.395  0.00  0.00     0.003 A 
ENDROOT
TORSDOF 0
ENDMDL
