MODEL 1
REMARK minimizedAffinity -3.61808228
REMARK minimizedRMSD -1
REMARK  0 active torsions:
REMARK  status: ('A' for Active; 'I' for Inactive)
ROOT
ATOM      1  C4' PXY d   1      -2.390   0.380   1.648  0.00  0.00     0.077 C 
ATOM      2  C1' PXY d   1       1.956  -1.622  -1.595  0.00  0.00     0.077 C 
ATOM      3  C1  PXY d   1       0.820  -1.085  -0.746  0.00  0.00    -0.082 A 
ATOM      4  C2  PXY d   1       0.224  -1.880   0.127  0.00  0.00     0.003 A 
ATOM      5  C3  PXY d   1      -0.825  -1.420   0.881  0.00  0.00     0.003 A 
ATOM      6  C4  PXY d   1      -1.234  -0.117   0.776  0.00  0.00    -0.082 A 
ATOM      7  C5  PXY d   1      -0.624   0.703  -0.105  0.00  0.00     0.003 A 
ATOM      8  C6  PXY d   1       0.412   0.205  -0.890  0.00  0.00     0.003 A 
ENDROOT
TORSDOF 0
ENDMDL
