MODEL 1
REMARK minimizedAffinity -6.3288722
REMARK minimizedRMSD -1
REMARK  0 active torsions:
REMARK  status: ('A' for Active; 'I' for Inactive)
ROOT
ATOM      1  C4' PXY d   1      -1.302   0.427   0.618  0.00  0.00     0.077 C 
ATOM      2  C1' PXY d   1       3.415   0.127  -2.709  0.00  0.00     0.077 C 
ATOM      3  C1  PXY d   1       2.178   0.193  -1.836  0.00  0.00    -0.082 A 
ATOM      4  C2  PXY d   1       1.397   1.260  -1.887  0.00  0.00     0.003 A 
ATOM      5  C3  PXY d   1       0.292   1.350  -1.081  0.00  0.00     0.003 A 
ATOM      6  C4  PXY d   1      -0.048   0.313  -0.253  0.00  0.00    -0.082 A 
ATOM      7  C5  PXY d   1       0.738  -0.783  -0.203  0.00  0.00     0.003 A 
ATOM      8  C6  PXY d   1       1.878  -0.837  -0.999  0.00  0.00     0.003 A 
ENDROOT
TORSDOF 0
ENDMDL
