MODEL 1
REMARK minimizedAffinity -0.884845555
REMARK minimizedRMSD -1
REMARK  0 active torsions:
REMARK  status: ('A' for Active; 'I' for Inactive)
ROOT
ATOM      1  C   UNL d   1      -0.481   1.508   2.865  0.00  0.00     0.020 A 
ATOM      2  C1  UNL d   1       0.820   1.322   3.331  0.00  0.00     0.020 A 
ATOM      3  C2  UNL d   1       1.884   1.268   2.428  0.00  0.00     0.034 A 
ATOM      4  C3  UNL d   1       1.648   1.401   1.054  0.00  0.00     0.017 A 
ATOM      5  C4  UNL d   1       0.342   1.587   0.588  0.00  0.00     0.017 A 
ATOM      6  C5  UNL d   1      -0.719   1.640   1.497  0.00  0.00     0.034 A 
ATOM      7 Cl   UNL d   1      -0.027   1.759  -1.092  0.00  0.00    -0.070 Cl
ATOM      8 Cl1  UNL d   1       3.011   1.325  -0.005  0.00  0.00    -0.070 Cl
ENDROOT
TORSDOF 0
ENDMDL
