MODEL 1
REMARK minimizedAffinity 0.494593322
REMARK minimizedRMSD -1
REMARK  0 active torsions:
REMARK  status: ('A' for Active; 'I' for Inactive)
ROOT
ATOM      1  C   UNL d   1       4.079   2.450  -0.433  0.00  0.00     0.020 A 
ATOM      2  C1  UNL d   1       4.315   1.225  -1.056  0.00  0.00     0.020 A 
ATOM      3  C2  UNL d   1       3.376   0.197  -0.954  0.00  0.00     0.034 A 
ATOM      4  C3  UNL d   1       2.196   0.391  -0.227  0.00  0.00     0.017 A 
ATOM      5  C4  UNL d   1       1.959   1.621   0.398  0.00  0.00     0.017 A 
ATOM      6  C5  UNL d   1       2.903   2.647   0.293  0.00  0.00     0.034 A 
ATOM      7 Cl   UNL d   1       0.527   1.935   1.313  0.00  0.00    -0.070 Cl
ATOM      8 Cl1  UNL d   1       1.078  -0.924  -0.143  0.00  0.00    -0.070 Cl
ENDROOT
TORSDOF 0
ENDMDL
