MODEL 1
REMARK minimizedAffinity 5.19588804
REMARK minimizedRMSD -1
REMARK  0 active torsions:
REMARK  status: ('A' for Active; 'I' for Inactive)
ROOT
ATOM      1  C   UNL d   1      -0.866  -2.027  -1.094  0.00  0.00     0.020 A 
ATOM      2  C1  UNL d   1       0.121  -2.972  -1.369  0.00  0.00     0.020 A 
ATOM      3  C2  UNL d   1       1.469  -2.614  -1.300  0.00  0.00     0.034 A 
ATOM      4  C3  UNL d   1       1.833  -1.307  -0.956  0.00  0.00     0.017 A 
ATOM      5  C4  UNL d   1       0.841  -0.359  -0.680  0.00  0.00     0.017 A 
ATOM      6  C5  UNL d   1      -0.507  -0.723  -0.750  0.00  0.00     0.034 A 
ATOM      7 Cl   UNL d   1       1.213   1.273  -0.248  0.00  0.00    -0.070 Cl
ATOM      8 Cl1  UNL d   1       3.519  -0.933  -0.890  0.00  0.00    -0.070 Cl
ENDROOT
TORSDOF 0
ENDMDL
