MODEL 1
REMARK minimizedAffinity 0.362737834
REMARK minimizedRMSD -1
REMARK  0 active torsions:
REMARK  status: ('A' for Active; 'I' for Inactive)
ROOT
ATOM      1  C   UNL d   1       0.612  -2.305  -1.006  0.00  0.00     0.020 A 
ATOM      2  C1  UNL d   1       1.857  -2.698  -1.494  0.00  0.00     0.020 A 
ATOM      3  C2  UNL d   1       2.917  -1.788  -1.517  0.00  0.00     0.034 A 
ATOM      4  C3  UNL d   1       2.733  -0.481  -1.052  0.00  0.00     0.017 A 
ATOM      5  C4  UNL d   1       1.482  -0.087  -0.563  0.00  0.00     0.017 A 
ATOM      6  C5  UNL d   1       0.425  -1.002  -0.541  0.00  0.00     0.034 A 
ATOM      7 Cl   UNL d   1       1.178   1.508   0.028  0.00  0.00    -0.070 Cl
ATOM      8 Cl1  UNL d   1       4.087   0.591  -1.111  0.00  0.00    -0.070 Cl
ENDROOT
TORSDOF 0
ENDMDL
