MODEL 1
REMARK minimizedAffinity -2.35763073
REMARK minimizedRMSD -1
REMARK  0 active torsions:
REMARK  status: ('A' for Active; 'I' for Inactive)
ROOT
ATOM      1  C   UNL d   1       0.833  -1.762  -0.313  0.00  0.00     0.020 A 
ATOM      2  C1  UNL d   1       2.196  -2.034  -0.423  0.00  0.00     0.020 A 
ATOM      3  C2  UNL d   1       3.114  -0.985  -0.494  0.00  0.00     0.034 A 
ATOM      4  C3  UNL d   1       2.671   0.342  -0.455  0.00  0.00     0.017 A 
ATOM      5  C4  UNL d   1       1.302   0.615  -0.344  0.00  0.00     0.017 A 
ATOM      6  C5  UNL d   1       0.387  -0.440  -0.273  0.00  0.00     0.034 A 
ATOM      7 Cl   UNL d   1       0.679   2.226  -0.290  0.00  0.00    -0.070 Cl
ATOM      8 Cl1  UNL d   1       3.862   1.591  -0.547  0.00  0.00    -0.070 Cl
ENDROOT
TORSDOF 0
ENDMDL
