MODEL 1
REMARK minimizedAffinity 1.7336117
REMARK minimizedRMSD -1
REMARK  0 active torsions:
REMARK  status: ('A' for Active; 'I' for Inactive)
ROOT
ATOM      1  C   UNL d   1       4.383  -0.894  -1.497  0.00  0.00     0.020 A 
ATOM      2  C1  UNL d   1       3.189  -1.528  -1.155  0.00  0.00     0.020 A 
ATOM      3  C2  UNL d   1       2.132  -0.785  -0.625  0.00  0.00     0.034 A 
ATOM      4  C3  UNL d   1       2.266   0.595  -0.436  0.00  0.00     0.017 A 
ATOM      5  C4  UNL d   1       3.464   1.230  -0.779  0.00  0.00     0.017 A 
ATOM      6  C5  UNL d   1       4.520   0.482  -1.309  0.00  0.00     0.034 A 
ATOM      7 Cl   UNL d   1       3.704   2.930  -0.575  0.00  0.00    -0.070 Cl
ATOM      8 Cl1  UNL d   1       0.917   1.450   0.223  0.00  0.00    -0.070 Cl
ENDROOT
TORSDOF 0
ENDMDL
