MODEL 1
REMARK minimizedAffinity -4.5095315
REMARK minimizedRMSD -1
REMARK  0 active torsions:
REMARK  status: ('A' for Active; 'I' for Inactive)
ROOT
ATOM      1  C   UNL d   1       1.199  -0.350  -0.027  0.00  0.00     0.020 A 
ATOM      2  C1  UNL d   1       2.081  -1.389  -0.321  0.00  0.00     0.020 A 
ATOM      3  C2  UNL d   1       3.459  -1.172  -0.267  0.00  0.00     0.034 A 
ATOM      4  C3  UNL d   1       3.960   0.088   0.082  0.00  0.00     0.017 A 
ATOM      5  C4  UNL d   1       3.074   1.130   0.377  0.00  0.00     0.017 A 
ATOM      6  C5  UNL d   1       1.695   0.907   0.322  0.00  0.00     0.034 A 
ATOM      7 Cl   UNL d   1       3.617   2.712   0.816  0.00  0.00    -0.070 Cl
ATOM      8 Cl1  UNL d   1       5.676   0.285   0.130  0.00  0.00    -0.070 Cl
ENDROOT
TORSDOF 0
ENDMDL
