MODEL 1
REMARK minimizedAffinity 3.44142914
REMARK minimizedRMSD -1
REMARK  0 active torsions:
REMARK  status: ('A' for Active; 'I' for Inactive)
ROOT
ATOM      1  C   UNL d   1       0.000  -2.259  -0.622  0.00  0.00     0.020 A 
ATOM      2  C1  UNL d   1       1.077  -2.946  -1.180  0.00  0.00     0.020 A 
ATOM      3  C2  UNL d   1       2.258  -2.265  -1.483  0.00  0.00     0.034 A 
ATOM      4  C3  UNL d   1       2.365  -0.893  -1.227  0.00  0.00     0.017 A 
ATOM      5  C4  UNL d   1       1.283  -0.205  -0.666  0.00  0.00     0.017 A 
ATOM      6  C5  UNL d   1       0.103  -0.891  -0.365  0.00  0.00     0.034 A 
ATOM      7 Cl   UNL d   1       1.340   1.488  -0.322  0.00  0.00    -0.070 Cl
ATOM      8 Cl1  UNL d   1       3.855  -0.115  -1.626  0.00  0.00    -0.070 Cl
ENDROOT
TORSDOF 0
ENDMDL
