MODEL 1
REMARK minimizedAffinity 8.48228741
REMARK minimizedRMSD -1
REMARK  0 active torsions:
REMARK  status: ('A' for Active; 'I' for Inactive)
ROOT
ATOM      1  C   UNL d   1      -1.331  -1.003  -1.349  0.00  0.00     0.020 A 
ATOM      2  C1  UNL d   1      -0.789  -2.271  -1.556  0.00  0.00     0.020 A 
ATOM      3  C2  UNL d   1       0.576  -2.488  -1.356  0.00  0.00     0.034 A 
ATOM      4  C3  UNL d   1       1.404  -1.436  -0.948  0.00  0.00     0.017 A 
ATOM      5  C4  UNL d   1       0.859  -0.164  -0.740  0.00  0.00     0.017 A 
ATOM      6  C5  UNL d   1      -0.508   0.048  -0.942  0.00  0.00     0.034 A 
ATOM      7 Cl   UNL d   1       1.818   1.183  -0.237  0.00  0.00    -0.070 Cl
ATOM      8 Cl1  UNL d   1       3.082  -1.777  -0.720  0.00  0.00    -0.070 Cl
ENDROOT
TORSDOF 0
ENDMDL
