MODEL 1
REMARK minimizedAffinity 3.58487391
REMARK minimizedRMSD -1
REMARK  0 active torsions:
REMARK  status: ('A' for Active; 'I' for Inactive)
ROOT
ATOM      1  C   UNL d   1       1.603  -2.642  -0.967  0.00  0.00     0.020 A 
ATOM      2  C1  UNL d   1       0.397  -2.260  -0.380  0.00  0.00     0.020 A 
ATOM      3  C2  UNL d   1       0.178  -0.923  -0.042  0.00  0.00     0.034 A 
ATOM      4  C3  UNL d   1       1.165   0.037  -0.291  0.00  0.00     0.017 A 
ATOM      5  C4  UNL d   1       2.375  -0.347  -0.880  0.00  0.00     0.017 A 
ATOM      6  C5  UNL d   1       2.589  -1.688  -1.217  0.00  0.00     0.034 A 
ATOM      7 Cl   UNL d   1       3.641   0.780  -1.218  0.00  0.00    -0.070 Cl
ATOM      8 Cl1  UNL d   1       0.826   1.672   0.152  0.00  0.00    -0.070 Cl
ENDROOT
TORSDOF 0
ENDMDL
