MODEL 1
REMARK minimizedAffinity 8.08154964
REMARK minimizedRMSD -1
REMARK  0 active torsions:
REMARK  status: ('A' for Active; 'I' for Inactive)
ROOT
ATOM      1  C2' OXE d   1       5.170   0.122   1.736  0.00  0.00     0.078 C 
ATOM      2  C1' OXE d   1       2.959  -0.986   3.065  0.00  0.00     0.078 C 
ATOM      3  C1  OXE d   1       2.743   0.281   2.276  0.00  0.00    -0.078 A 
ATOM      4  C2  OXE d   1       3.841   0.842   1.668  0.00  0.00    -0.078 A 
ATOM      5  C3  OXE d   1       3.686   1.981   0.882  0.00  0.00     0.003 A 
ATOM      6  C4  OXE d   1       2.455   2.646   0.833  0.00  0.00    -0.002 A 
ATOM      7  C5  OXE d   1       1.334   2.114   1.478  0.00  0.00    -0.002 A 
ATOM      8  C6  OXE d   1       1.451   0.912   2.167  0.00  0.00     0.003 A 
ENDROOT
TORSDOF 0
ENDMDL
