MODEL 1
REMARK minimizedAffinity 12.0031271
REMARK minimizedRMSD -1
REMARK  0 active torsions:
REMARK  status: ('A' for Active; 'I' for Inactive)
ROOT
ATOM      1  C2' OXE d   1       5.102   3.580   0.372  0.00  0.00     0.078 C 
ATOM      2  C1' OXE d   1       2.490   2.619   0.738  0.00  0.00     0.078 C 
ATOM      3  C1  OXE d   1       3.632   1.676   1.022  0.00  0.00    -0.078 A 
ATOM      4  C2  OXE d   1       4.906   2.140   0.796  0.00  0.00    -0.078 A 
ATOM      5  C3  OXE d   1       5.998   1.330   1.094  0.00  0.00     0.003 A 
ATOM      6  C4  OXE d   1       5.807  -0.004   1.477  0.00  0.00    -0.002 A 
ATOM      7  C5  OXE d   1       4.518  -0.508   1.675  0.00  0.00    -0.002 A 
ATOM      8  C6  OXE d   1       3.423   0.330   1.494  0.00  0.00     0.003 A 
ENDROOT
TORSDOF 0
ENDMDL
