MODEL 1
REMARK minimizedAffinity 2.6436975
REMARK minimizedRMSD -1
REMARK  0 active torsions:
REMARK  status: ('A' for Active; 'I' for Inactive)
ROOT
ATOM      1  C2' OXE d   1       3.882  -1.103   0.120  0.00  0.00     0.078 C 
ATOM      2  C1' OXE d   1       5.999  -0.776   1.934  0.00  0.00     0.078 C 
ATOM      3  C1  OXE d   1       5.473   0.454   1.239  0.00  0.00    -0.078 A 
ATOM      4  C2  OXE d   1       4.468   0.279   0.318  0.00  0.00    -0.078 A 
ATOM      5  C3  OXE d   1       3.909   1.387  -0.312  0.00  0.00     0.003 A 
ATOM      6  C4  OXE d   1       4.463   2.660  -0.131  0.00  0.00    -0.002 A 
ATOM      7  C5  OXE d   1       5.513   2.855   0.773  0.00  0.00    -0.002 A 
ATOM      8  C6  OXE d   1       6.000   1.772   1.496  0.00  0.00     0.003 A 
ENDROOT
TORSDOF 0
ENDMDL
