MODEL 1
REMARK minimizedAffinity 5.06863499
REMARK minimizedRMSD -1
REMARK  0 active torsions:
REMARK  status: ('A' for Active; 'I' for Inactive)
ROOT
ATOM      1  C2' OXE d   1      -4.261   2.579   3.091  0.00  0.00     0.078 C 
ATOM      2  C1' OXE d   1      -5.554   4.603   1.638  0.00  0.00     0.078 C 
ATOM      3  C1  OXE d   1      -5.468   4.758   3.136  0.00  0.00    -0.078 A 
ATOM      4  C2  OXE d   1      -4.875   3.740   3.843  0.00  0.00    -0.078 A 
ATOM      5  C3  OXE d   1      -4.721   3.857   5.222  0.00  0.00     0.003 A 
ATOM      6  C4  OXE d   1      -5.301   4.930   5.911  0.00  0.00    -0.002 A 
ATOM      7  C5  OXE d   1      -5.944   5.957   5.213  0.00  0.00    -0.002 A 
ATOM      8  C6  OXE d   1      -5.999   5.908   3.825  0.00  0.00     0.003 A 
ENDROOT
TORSDOF 0
ENDMDL
