MODEL 1
REMARK minimizedAffinity -2.40408325
REMARK minimizedRMSD -1
REMARK  0 active torsions:
REMARK  status: ('A' for Active; 'I' for Inactive)
ROOT
ATOM      1  C2' OXE d   1      -0.804  -1.749   1.056  0.00  0.00     0.078 C 
ATOM      2  C1' OXE d   1      -0.158  -4.448   0.632  0.00  0.00     0.078 C 
ATOM      3  C1  OXE d   1      -0.964  -3.742  -0.430  0.00  0.00    -0.078 A 
ATOM      4  C2  OXE d   1      -1.315  -2.435  -0.193  0.00  0.00    -0.078 A 
ATOM      5  C3  OXE d   1      -2.010  -1.721  -1.164  0.00  0.00     0.003 A 
ATOM      6  C4  OXE d   1      -2.488  -2.365  -2.312  0.00  0.00    -0.002 A 
ATOM      7  C5  OXE d   1      -2.176  -3.707  -2.554  0.00  0.00    -0.002 A 
ATOM      8  C6  OXE d   1      -1.380  -4.397  -1.646  0.00  0.00     0.003 A 
ENDROOT
TORSDOF 0
ENDMDL
