MODEL 1
REMARK minimizedAffinity 7.78280449
REMARK minimizedRMSD -1
REMARK  0 active torsions:
REMARK  status: ('A' for Active; 'I' for Inactive)
ROOT
ATOM      1  C2' OXE d   1      -4.107   2.102   3.156  0.00  0.00     0.078 C 
ATOM      2  C1' OXE d   1      -4.062   3.803   5.389  0.00  0.00     0.078 C 
ATOM      3  C1  OXE d   1      -4.766   4.291   4.147  0.00  0.00    -0.078 A 
ATOM      4  C2  OXE d   1      -4.743   3.472   3.044  0.00  0.00    -0.078 A 
ATOM      5  C3  OXE d   1      -5.423   3.849   1.890  0.00  0.00     0.003 A 
ATOM      6  C4  OXE d   1      -6.000   5.122   1.791  0.00  0.00    -0.002 A 
ATOM      7  C5  OXE d   1      -6.000   5.988   2.890  0.00  0.00    -0.002 A 
ATOM      8  C6  OXE d   1      -5.426   5.572   4.086  0.00  0.00     0.003 A 
ENDROOT
TORSDOF 0
ENDMDL
