MODEL 1
REMARK minimizedAffinity -0.987566411
REMARK minimizedRMSD -1
REMARK  0 active torsions:
REMARK  status: ('A' for Active; 'I' for Inactive)
ROOT
ATOM      1  C2' OXE d   1      -5.859  -4.100  -5.616  0.00  0.00     0.078 C 
ATOM      2  C1' OXE d   1      -3.102  -4.537  -5.917  0.00  0.00     0.078 C 
ATOM      3  C1  OXE d   1      -3.751  -4.994  -4.635  0.00  0.00    -0.078 A 
ATOM      4  C2  OXE d   1      -5.091  -4.735  -4.476  0.00  0.00    -0.078 A 
ATOM      5  C3  OXE d   1      -5.750  -5.184  -3.336  0.00  0.00     0.003 A 
ATOM      6  C4  OXE d   1      -5.031  -5.761  -2.282  0.00  0.00    -0.002 A 
ATOM      7  C5  OXE d   1      -3.658  -5.999  -2.407  0.00  0.00    -0.002 A 
ATOM      8  C6  OXE d   1      -3.012  -5.661  -3.591  0.00  0.00     0.003 A 
ENDROOT
TORSDOF 0
ENDMDL
