MODEL 1
REMARK minimizedAffinity 2.71981239
REMARK minimizedRMSD -1
REMARK  0 active torsions:
REMARK  status: ('A' for Active; 'I' for Inactive)
ROOT
ATOM      1  C2' OXE d   1      -1.589  -1.381  -2.229  0.00  0.00     0.078 C 
ATOM      2  C1' OXE d   1      -3.525  -3.275  -1.489  0.00  0.00     0.078 C 
ATOM      3  C1  OXE d   1      -2.365  -3.051  -0.551  0.00  0.00    -0.078 A 
ATOM      4  C2  OXE d   1      -1.399  -2.156  -0.943  0.00  0.00    -0.078 A 
ATOM      5  C3  OXE d   1      -0.336  -1.872  -0.090  0.00  0.00     0.003 A 
ATOM      6  C4  OXE d   1      -0.162  -2.600   1.093  0.00  0.00    -0.002 A 
ATOM      7  C5  OXE d   1      -1.115  -3.544   1.492  0.00  0.00    -0.002 A 
ATOM      8  C6  OXE d   1      -2.242  -3.750   0.704  0.00  0.00     0.003 A 
ENDROOT
TORSDOF 0
ENDMDL
