MODEL 1
REMARK minimizedAffinity 8.23212624
REMARK minimizedRMSD -1
REMARK  0 active torsions:
REMARK  status: ('A' for Active; 'I' for Inactive)
ROOT
ATOM      1  C2' OXE d   1       6.000  -0.076   2.939  0.00  0.00     0.078 C 
ATOM      2  C1' OXE d   1       5.957  -1.519   0.531  0.00  0.00     0.078 C 
ATOM      3  C1  OXE d   1       5.963  -0.013   0.449  0.00  0.00    -0.078 A 
ATOM      4  C2  OXE d   1       5.937   0.686   1.632  0.00  0.00    -0.078 A 
ATOM      5  C3  OXE d   1       5.996   2.076   1.614  0.00  0.00     0.003 A 
ATOM      6  C4  OXE d   1       5.927   2.772   0.401  0.00  0.00    -0.002 A 
ATOM      7  C5  OXE d   1       5.914   2.081  -0.815  0.00  0.00    -0.002 A 
ATOM      8  C6  OXE d   1       5.974   0.692  -0.810  0.00  0.00     0.003 A 
ENDROOT
TORSDOF 0
ENDMDL
