MODEL 1
REMARK minimizedAffinity 3.18927145
REMARK minimizedRMSD -1
REMARK  0 active torsions:
REMARK  status: ('A' for Active; 'I' for Inactive)
ROOT
ATOM      1  C2' OXE d   1      -3.171  -3.872  -1.079  0.00  0.00     0.078 C 
ATOM      2  C1' OXE d   1      -4.857  -5.995  -0.352  0.00  0.00     0.078 C 
ATOM      3  C1  OXE d   1      -4.975  -5.451  -1.754  0.00  0.00    -0.078 A 
ATOM      4  C2  OXE d   1      -4.179  -4.382  -2.086  0.00  0.00    -0.078 A 
ATOM      5  C3  OXE d   1      -4.209  -3.877  -3.383  0.00  0.00     0.003 A 
ATOM      6  C4  OXE d   1      -5.151  -4.348  -4.305  0.00  0.00    -0.002 A 
ATOM      7  C5  OXE d   1      -5.999  -5.410  -3.974  0.00  0.00    -0.002 A 
ATOM      8  C6  OXE d   1      -5.895  -6.000  -2.720  0.00  0.00     0.003 A 
ENDROOT
TORSDOF 0
ENDMDL
