MODEL 1
REMARK minimizedAffinity -1.48100436
REMARK minimizedRMSD -1
REMARK  0 active torsions:
REMARK  status: ('A' for Active; 'I' for Inactive)
ROOT
ATOM      1  C2' OXE d   1      -1.746  -6.000  -3.653  0.00  0.00     0.078 C 
ATOM      2  C1' OXE d   1      -2.855  -4.930  -6.000  0.00  0.00     0.078 C 
ATOM      3  C1  OXE d   1      -3.782  -5.188  -4.838  0.00  0.00    -0.078 A 
ATOM      4  C2  OXE d   1      -3.239  -5.755  -3.710  0.00  0.00    -0.078 A 
ATOM      5  C3  OXE d   1      -4.039  -5.963  -2.590  0.00  0.00     0.003 A 
ATOM      6  C4  OXE d   1      -5.420  -5.744  -2.655  0.00  0.00    -0.002 A 
ATOM      7  C5  OXE d   1      -6.000  -5.203  -3.808  0.00  0.00    -0.002 A 
ATOM      8  C6  OXE d   1      -5.190  -4.881  -4.891  0.00  0.00     0.003 A 
ENDROOT
TORSDOF 0
ENDMDL
