MODEL 1
REMARK minimizedAffinity -1.63964796
REMARK minimizedRMSD -1
REMARK  0 active torsions:
REMARK  status: ('A' for Active; 'I' for Inactive)
ROOT
ATOM      1  C2' OXE d   1       6.000   4.923   4.288  0.00  0.00     0.078 C 
ATOM      2  C1' OXE d   1       4.288   5.989   2.335  0.00  0.00     0.078 C 
ATOM      3  C1  OXE d   1       4.729   4.556   2.177  0.00  0.00    -0.078 A 
ATOM      4  C2  OXE d   1       5.604   4.057   3.112  0.00  0.00    -0.078 A 
ATOM      5  C3  OXE d   1       6.000   2.724   3.043  0.00  0.00     0.003 A 
ATOM      6  C4  OXE d   1       5.638   1.933   1.947  0.00  0.00    -0.002 A 
ATOM      7  C5  OXE d   1       4.779   2.434   0.962  0.00  0.00    -0.002 A 
ATOM      8  C6  OXE d   1       4.283   3.727   1.085  0.00  0.00     0.003 A 
ENDROOT
TORSDOF 0
ENDMDL
