MODEL 1
REMARK minimizedAffinity 3.07100391
REMARK minimizedRMSD -1
REMARK  0 active torsions:
REMARK  status: ('A' for Active; 'I' for Inactive)
ROOT
ATOM      1  C2' OXE d   1      -4.489  -4.983  -2.973  0.00  0.00     0.078 C 
ATOM      2  C1' OXE d   1      -3.521  -2.933  -1.318  0.00  0.00     0.078 C 
ATOM      3  C1  OXE d   1      -3.019  -2.986  -2.739  0.00  0.00    -0.078 A 
ATOM      4  C2  OXE d   1      -3.462  -4.020  -3.528  0.00  0.00    -0.078 A 
ATOM      5  C3  OXE d   1      -3.072  -4.086  -4.863  0.00  0.00     0.003 A 
ATOM      6  C4  OXE d   1      -2.114  -3.197  -5.365  0.00  0.00    -0.002 A 
ATOM      7  C5  OXE d   1      -1.619  -2.160  -4.567  0.00  0.00    -0.002 A 
ATOM      8  C6  OXE d   1      -2.092  -2.015  -3.268  0.00  0.00     0.003 A 
ENDROOT
TORSDOF 0
ENDMDL
