MODEL 1
REMARK minimizedAffinity 10.5306129
REMARK minimizedRMSD -1
REMARK  0 active torsions:
REMARK  status: ('A' for Active; 'I' for Inactive)
ROOT
ATOM      1  C2' OXE d   1       0.241  -3.831   0.412  0.00  0.00     0.078 C 
ATOM      2  C1' OXE d   1      -2.089  -2.832   1.616  0.00  0.00     0.078 C 
ATOM      3  C1  OXE d   1      -2.145  -3.168   0.147  0.00  0.00    -0.078 A 
ATOM      4  C2  OXE d   1      -0.988  -3.612  -0.445  0.00  0.00    -0.078 A 
ATOM      5  C3  OXE d   1      -0.999  -3.988  -1.785  0.00  0.00     0.003 A 
ATOM      6  C4  OXE d   1      -2.136  -3.773  -2.572  0.00  0.00    -0.002 A 
ATOM      7  C5  OXE d   1      -3.315  -3.285  -1.998  0.00  0.00    -0.002 A 
ATOM      8  C6  OXE d   1      -3.348  -3.018  -0.634  0.00  0.00     0.003 A 
ENDROOT
TORSDOF 0
ENDMDL
