MODEL 1
REMARK minimizedAffinity 4.6630621
REMARK minimizedRMSD -1
REMARK  0 active torsions:
REMARK  status: ('A' for Active; 'I' for Inactive)
ROOT
ATOM      1  C2' OXE d   1       2.898  -4.293  -5.644  0.00  0.00     0.078 C 
ATOM      2  C1' OXE d   1       2.758  -1.508  -5.967  0.00  0.00     0.078 C 
ATOM      3  C1  OXE d   1       1.461  -2.275  -5.911  0.00  0.00    -0.078 A 
ATOM      4  C2  OXE d   1       1.540  -3.643  -5.800  0.00  0.00    -0.078 A 
ATOM      5  C3  OXE d   1       0.374  -4.394  -5.689  0.00  0.00     0.003 A 
ATOM      6  C4  OXE d   1      -0.878  -3.786  -5.843  0.00  0.00    -0.002 A 
ATOM      7  C5  OXE d   1      -0.980  -2.399  -5.998  0.00  0.00    -0.002 A 
ATOM      8  C6  OXE d   1       0.176  -1.626  -5.991  0.00  0.00     0.003 A 
ENDROOT
TORSDOF 0
ENDMDL
