MODEL 1
REMARK minimizedAffinity 13.3900719
REMARK minimizedRMSD -1
REMARK  0 active torsions:
REMARK  status: ('A' for Active; 'I' for Inactive)
ROOT
ATOM      1  C2' OXE d   1       5.236  -0.582   1.292  0.00  0.00     0.078 C 
ATOM      2  C1' OXE d   1       4.805   1.879   0.012  0.00  0.00     0.078 C 
ATOM      3  C1  OXE d   1       3.667   1.291   0.808  0.00  0.00    -0.078 A 
ATOM      4  C2  OXE d   1       3.871   0.064   1.392  0.00  0.00    -0.078 A 
ATOM      5  C3  OXE d   1       2.873  -0.498   2.183  0.00  0.00     0.003 A 
ATOM      6  C4  OXE d   1       1.610   0.102   2.263  0.00  0.00    -0.002 A 
ATOM      7  C5  OXE d   1       1.368   1.332   1.643  0.00  0.00    -0.002 A 
ATOM      8  C6  OXE d   1       2.397   1.960   0.949  0.00  0.00     0.003 A 
ENDROOT
TORSDOF 0
ENDMDL
