MODEL 1
REMARK minimizedAffinity 5.3772049
REMARK minimizedRMSD -1
REMARK  0 active torsions:
REMARK  status: ('A' for Active; 'I' for Inactive)
ROOT
ATOM      1  C2' OXE d   1       2.526  -1.648  -5.941  0.00  0.00     0.078 C 
ATOM      2  C1' OXE d   1       2.794  -4.442  -5.920  0.00  0.00     0.078 C 
ATOM      3  C1  OXE d   1       1.399  -3.870  -5.953  0.00  0.00    -0.078 A 
ATOM      4  C2  OXE d   1       1.277  -2.502  -5.916  0.00  0.00    -0.078 A 
ATOM      5  C3  OXE d   1       0.015  -1.921  -5.999  0.00  0.00     0.003 A 
ATOM      6  C4  OXE d   1      -1.136  -2.717  -5.966  0.00  0.00    -0.002 A 
ATOM      7  C5  OXE d   1      -1.034  -4.112  -5.963  0.00  0.00    -0.002 A 
ATOM      8  C6  OXE d   1       0.224  -4.704  -6.000  0.00  0.00     0.003 A 
ENDROOT
TORSDOF 0
ENDMDL
