MODEL 1
REMARK minimizedAffinity 6.4693594
REMARK minimizedRMSD -1
REMARK  0 active torsions:
REMARK  status: ('A' for Active; 'I' for Inactive)
ROOT
ATOM      1  C2' OXE d   1      -2.835  -3.663  -1.513  0.00  0.00     0.078 C 
ATOM      2  C1' OXE d   1      -2.935  -3.773  -4.317  0.00  0.00     0.078 C 
ATOM      3  C1  OXE d   1      -4.008  -4.500  -3.546  0.00  0.00    -0.078 A 
ATOM      4  C2  OXE d   1      -3.925  -4.479  -2.174  0.00  0.00    -0.078 A 
ATOM      5  C3  OXE d   1      -4.920  -5.088  -1.414  0.00  0.00     0.003 A 
ATOM      6  C4  OXE d   1      -5.919  -5.849  -2.033  0.00  0.00    -0.002 A 
ATOM      7  C5  OXE d   1      -5.999  -5.916  -3.428  0.00  0.00    -0.002 A 
ATOM      8  C6  OXE d   1      -5.078  -5.213  -4.198  0.00  0.00     0.003 A 
ENDROOT
TORSDOF 0
ENDMDL
