MODEL 1
REMARK minimizedAffinity 1.77065313
REMARK minimizedRMSD -1
REMARK  0 active torsions:
REMARK  status: ('A' for Active; 'I' for Inactive)
ROOT
ATOM      1  C   UNL d   1       0.497   2.299   0.044  0.00  0.00     0.172 C 
ATOM      2  N   UNL d   1       0.998   0.946   0.108  0.00  0.00    -0.070 N 
ATOM      3  C1  UNL d   1       1.164   0.105  -0.960  0.00  0.00    -0.004 A 
ATOM      4  C2  UNL d   1       1.662  -1.089  -0.484  0.00  0.00    -0.047 A 
ATOM      5  C3  UNL d   1       1.798  -0.961   0.919  0.00  0.00    -0.047 A 
ATOM      6  C4  UNL d   1       1.380   0.308   1.259  0.00  0.00    -0.004 A 
ENDROOT
TORSDOF 0
ENDMDL
