MODEL 1
REMARK minimizedAffinity -1.0742048
REMARK minimizedRMSD -1
REMARK  0 active torsions:
REMARK  status: ('A' for Active; 'I' for Inactive)
ROOT
ATOM      1  C   UNL d   1       0.432   0.359  -2.411  0.00  0.00     0.172 C 
ATOM      2  N   UNL d   1       0.607   0.936  -1.099  0.00  0.00    -0.070 N 
ATOM      3  C1  UNL d   1      -0.017   2.062  -0.632  0.00  0.00    -0.004 A 
ATOM      4  C2  UNL d   1       0.415   2.279   0.658  0.00  0.00    -0.047 A 
ATOM      5  C3  UNL d   1       1.331   1.249   0.978  0.00  0.00    -0.047 A 
ATOM      6  C4  UNL d   1       1.431   0.431  -0.128  0.00  0.00    -0.004 A 
ENDROOT
TORSDOF 0
ENDMDL
