MODEL 1
REMARK minimizedAffinity 4.18551016
REMARK minimizedRMSD -1
REMARK  0 active torsions:
REMARK  status: ('A' for Active; 'I' for Inactive)
ROOT
ATOM      1  C   UNL d   1       2.658  -1.424   1.551  0.00  0.00     0.172 C 
ATOM      2  N   UNL d   1       3.380  -1.398   2.801  0.00  0.00    -0.070 N 
ATOM      3  C1  UNL d   1       4.117  -2.430   3.318  0.00  0.00    -0.004 A 
ATOM      4  C2  UNL d   1       4.645  -2.009   4.520  0.00  0.00    -0.047 A 
ATOM      5  C3  UNL d   1       4.209  -0.680   4.733  0.00  0.00    -0.047 A 
ATOM      6  C4  UNL d   1       3.427  -0.327   3.653  0.00  0.00    -0.004 A 
ENDROOT
TORSDOF 0
ENDMDL
