MODEL 1
REMARK minimizedAffinity 3.34363794
REMARK minimizedRMSD -1
REMARK  0 active torsions:
REMARK  status: ('A' for Active; 'I' for Inactive)
ROOT
ATOM      1  C   UNL d   1       0.249   2.609   0.047  0.00  0.00     0.172 C 
ATOM      2  N   UNL d   1       0.707   1.244  -0.069  0.00  0.00    -0.070 N 
ATOM      3  C1  UNL d   1       0.972   0.400   0.975  0.00  0.00    -0.004 A 
ATOM      4  C2  UNL d   1       1.383  -0.806   0.449  0.00  0.00    -0.047 A 
ATOM      5  C3  UNL d   1       1.366  -0.681  -0.960  0.00  0.00    -0.047 A 
ATOM      6  C4  UNL d   1       0.943   0.598  -1.254  0.00  0.00    -0.004 A 
ENDROOT
TORSDOF 0
ENDMDL
