MODEL 1
REMARK minimizedAffinity 3.96698117
REMARK minimizedRMSD -1
REMARK  0 active torsions:
REMARK  status: ('A' for Active; 'I' for Inactive)
ROOT
ATOM      1  C   UNL d   1      -3.440   4.941  -4.799  0.00  0.00     0.172 C 
ATOM      2  N   UNL d   1      -2.981   3.574  -4.731  0.00  0.00    -0.070 N 
ATOM      3  C1  UNL d   1      -1.738   3.130  -5.095  0.00  0.00    -0.004 A 
ATOM      4  C2  UNL d   1      -1.695   1.769  -4.881  0.00  0.00    -0.047 A 
ATOM      5  C3  UNL d   1      -2.957   1.382  -4.372  0.00  0.00    -0.047 A 
ATOM      6  C4  UNL d   1      -3.734   2.518  -4.289  0.00  0.00    -0.004 A 
ENDROOT
TORSDOF 0
ENDMDL
