MODEL 1
REMARK minimizedAffinity 6.40260649
REMARK minimizedRMSD -1
REMARK  0 active torsions:
REMARK  status: ('A' for Active; 'I' for Inactive)
ROOT
ATOM      1  C   UNL d   1       3.213  -1.125   2.619  0.00  0.00     0.172 C 
ATOM      2  N   UNL d   1       3.747  -1.610   3.870  0.00  0.00    -0.070 N 
ATOM      3  C1  UNL d   1       5.066  -1.875   4.125  0.00  0.00    -0.004 A 
ATOM      4  C2  UNL d   1       5.163  -2.316   5.427  0.00  0.00    -0.047 A 
ATOM      5  C3  UNL d   1       3.857  -2.317   5.973  0.00  0.00    -0.047 A 
ATOM      6  C4  UNL d   1       3.000  -1.875   4.987  0.00  0.00    -0.004 A 
ENDROOT
TORSDOF 0
ENDMDL
