MODEL 1
REMARK minimizedAffinity 1.12327778
REMARK minimizedRMSD -1
REMARK  0 active torsions:
REMARK  status: ('A' for Active; 'I' for Inactive)
ROOT
ATOM      1  C   UNL d   1      -4.127   4.743  -4.877  0.00  0.00     0.172 C 
ATOM      2  N   UNL d   1      -3.433   3.478  -4.925  0.00  0.00    -0.070 N 
ATOM      3  C1  UNL d   1      -2.741   2.987  -6.000  0.00  0.00    -0.004 A 
ATOM      4  C2  UNL d   1      -2.227   1.758  -5.646  0.00  0.00    -0.047 A 
ATOM      5  C3  UNL d   1      -2.625   1.501  -4.312  0.00  0.00    -0.047 A 
ATOM      6  C4  UNL d   1      -3.370   2.582  -3.890  0.00  0.00    -0.004 A 
ENDROOT
TORSDOF 0
ENDMDL
