MODEL 1
REMARK minimizedAffinity 4.71983385
REMARK minimizedRMSD -1
REMARK  0 active torsions:
REMARK  status: ('A' for Active; 'I' for Inactive)
ROOT
ATOM      1  C   UNL d   1       1.137   4.978  -0.817  0.00  0.00     0.172 C 
ATOM      2  N   UNL d   1       0.996   3.638  -0.298  0.00  0.00    -0.070 N 
ATOM      3  C1  UNL d   1       0.257   2.635  -0.867  0.00  0.00    -0.004 A 
ATOM      4  C2  UNL d   1       0.380   1.517  -0.071  0.00  0.00    -0.047 A 
ATOM      5  C3  UNL d   1       1.221   1.859   1.014  0.00  0.00    -0.047 A 
ATOM      6  C4  UNL d   1       1.588   3.178   0.848  0.00  0.00    -0.004 A 
ENDROOT
TORSDOF 0
ENDMDL
