MODEL 1
REMARK minimizedAffinity -6.35227394
REMARK minimizedRMSD -1
REMARK  1 active torsions:
REMARK  status: ('A' for Active; 'I' for Inactive)
REMARK    1  A    between atoms: C1_2  and  C2_3 
ROOT
ATOM      1  C2  UNL d   1      -0.933   2.779   0.256  0.00  0.00    -0.073 A 
ATOM      2  C3  UNL d   1      -0.439   3.747   1.138  0.00  0.00    -0.002 A 
ATOM      3  C4  UNL d   1      -0.922   5.055   1.090  0.00  0.00     0.004 A 
ATOM      4  C5  UNL d   1      -1.907   5.407   0.168  0.00  0.00    -0.004 A 
ATOM      5  C6  UNL d   1      -2.422   4.451  -0.713  0.00  0.00    -0.075 A 
ATOM      6  C7  UNL d   1      -3.480   4.814  -1.713  0.00  0.00     0.076 C 
ATOM      7  C8  UNL d   1      -1.930   3.140  -0.662  0.00  0.00     0.001 A 
ENDROOT
BRANCH   1   8
ATOM      8  C1  UNL d   1      -0.419   1.363   0.308  0.00  0.00     0.053 C 
ATOM      9  C   UNL d   1      -1.204   0.508   1.290  0.00  0.00     0.018 C 
ENDBRANCH   1   8
TORSDOF 1
ENDMDL
