MODEL 1
REMARK minimizedAffinity -6.13626766
REMARK minimizedRMSD -1
REMARK  1 active torsions:
REMARK  status: ('A' for Active; 'I' for Inactive)
REMARK    1  A    between atoms: C1_2  and  C2_3 
ROOT
ATOM      1  C2  UNL d   1      -0.011   4.718   1.467  0.00  0.00    -0.073 A 
ATOM      2  C3  UNL d   1       0.997   4.633   2.434  0.00  0.00    -0.002 A 
ATOM      3  C4  UNL d   1       2.328   4.458   2.051  0.00  0.00     0.004 A 
ATOM      4  C5  UNL d   1       2.664   4.374   0.700  0.00  0.00    -0.004 A 
ATOM      5  C6  UNL d   1       1.672   4.468  -0.282  0.00  0.00    -0.075 A 
ATOM      6  C7  UNL d   1       2.017   4.377  -1.739  0.00  0.00     0.076 C 
ATOM      7  C8  UNL d   1       0.338   4.641   0.111  0.00  0.00     0.001 A 
ENDROOT
BRANCH   1   8
ATOM      8  C1  UNL d   1      -1.449   4.913   1.876  0.00  0.00     0.053 C 
ATOM      9  C   UNL d   1      -2.293   5.473   0.742  0.00  0.00     0.018 C 
ENDBRANCH   1   8
TORSDOF 1
ENDMDL
