MODEL 1
REMARK minimizedAffinity -5.33064175
REMARK minimizedRMSD -1
REMARK  1 active torsions:
REMARK  status: ('A' for Active; 'I' for Inactive)
REMARK    1  A    between atoms: C1_2  and  C2_3 
ROOT
ATOM      1  C2  UNL d   1      -0.627   3.104   0.312  0.00  0.00    -0.073 A 
ATOM      2  C3  UNL d   1      -1.291   4.088   1.053  0.00  0.00    -0.002 A 
ATOM      3  C4  UNL d   1      -0.565   5.048   1.760  0.00  0.00     0.004 A 
ATOM      4  C5  UNL d   1       0.829   5.038   1.728  0.00  0.00    -0.004 A 
ATOM      5  C6  UNL d   1       1.511   4.069   0.984  0.00  0.00    -0.075 A 
ATOM      6  C7  UNL d   1       3.011   4.043   0.941  0.00  0.00     0.076 C 
ATOM      7  C8  UNL d   1       0.775   3.107   0.278  0.00  0.00     0.001 A 
ENDROOT
BRANCH   1   8
ATOM      8  C1  UNL d   1      -1.406   2.070  -0.459  0.00  0.00     0.053 C 
ATOM      9  C   UNL d   1      -1.083   0.656  -0.002  0.00  0.00     0.018 C 
ENDBRANCH   1   8
TORSDOF 1
ENDMDL
