MODEL 1
REMARK minimizedAffinity -5.63813734
REMARK minimizedRMSD -1
REMARK  1 active torsions:
REMARK  status: ('A' for Active; 'I' for Inactive)
REMARK    1  A    between atoms: C1_2  and  C2_3 
ROOT
ATOM      1  C2  UNL d   1      -0.953  -0.843  -0.083  0.00  0.00    -0.073 A 
ATOM      2  C3  UNL d   1      -0.227  -0.923  -1.276  0.00  0.00    -0.002 A 
ATOM      3  C4  UNL d   1       0.214   0.239  -1.912  0.00  0.00     0.004 A 
ATOM      4  C5  UNL d   1      -0.060   1.489  -1.359  0.00  0.00    -0.004 A 
ATOM      5  C6  UNL d   1      -0.773   1.589  -0.160  0.00  0.00    -0.075 A 
ATOM      6  C7  UNL d   1      -1.077   2.927   0.448  0.00  0.00     0.076 C 
ATOM      7  C8  UNL d   1      -1.215   0.419   0.471  0.00  0.00     0.001 A 
ENDROOT
BRANCH   1   8
ATOM      8  C1  UNL d   1      -1.426  -2.094   0.611  0.00  0.00     0.053 C 
ATOM      9  C   UNL d   1      -0.612  -3.313   0.206  0.00  0.00     0.018 C 
ENDBRANCH   1   8
TORSDOF 1
ENDMDL
