MODEL 1
REMARK minimizedAffinity -5.17226601
REMARK minimizedRMSD -1
REMARK  1 active torsions:
REMARK  status: ('A' for Active; 'I' for Inactive)
REMARK    1  A    between atoms: C1_2  and  C2_3 
ROOT
ATOM      1  C2  UNL d   1      -0.537   2.924   0.399  0.00  0.00    -0.073 A 
ATOM      2  C3  UNL d   1      -1.227   3.900   1.127  0.00  0.00    -0.002 A 
ATOM      3  C4  UNL d   1      -0.534   4.945   1.740  0.00  0.00     0.004 A 
ATOM      4  C5  UNL d   1       0.854   5.028   1.626  0.00  0.00    -0.004 A 
ATOM      5  C6  UNL d   1       1.561   4.068   0.894  0.00  0.00    -0.075 A 
ATOM      6  C7  UNL d   1       3.054   4.142   0.764  0.00  0.00     0.076 C 
ATOM      7  C8  UNL d   1       0.857   3.021   0.283  0.00  0.00     0.001 A 
ENDROOT
BRANCH   1   8
ATOM      8  C1  UNL d   1      -1.282   1.798  -0.270  0.00  0.00     0.053 C 
ATOM      9  C   UNL d   1      -1.098   0.478   0.462  0.00  0.00     0.018 C 
ENDBRANCH   1   8
TORSDOF 1
ENDMDL
