MODEL 1
REMARK minimizedAffinity -5.29766846
REMARK minimizedRMSD -1
REMARK  1 active torsions:
REMARK  status: ('A' for Active; 'I' for Inactive)
REMARK    1  A    between atoms: C1_2  and  C2_3 
ROOT
ATOM      1  C2  UNL d   1      -0.759   2.497   0.341  0.00  0.00    -0.073 A 
ATOM      2  C3  UNL d   1       0.303   2.518  -0.570  0.00  0.00    -0.002 A 
ATOM      3  C4  UNL d   1       0.754   1.333  -1.154  0.00  0.00     0.004 A 
ATOM      4  C5  UNL d   1       0.145   0.119  -0.839  0.00  0.00    -0.004 A 
ATOM      5  C6  UNL d   1      -0.925   0.079   0.060  0.00  0.00    -0.075 A 
ATOM      6  C7  UNL d   1      -1.590  -1.220   0.411  0.00  0.00     0.076 C 
ATOM      7  C8  UNL d   1      -1.371   1.272   0.644  0.00  0.00     0.001 A 
ENDROOT
BRANCH   1   8
ATOM      8  C1  UNL d   1      -1.254   3.774   0.970  0.00  0.00     0.053 C 
ATOM      9  C   UNL d   1      -0.162   4.482   1.757  0.00  0.00     0.018 C 
ENDBRANCH   1   8
TORSDOF 1
ENDMDL
