MODEL 1
REMARK minimizedAffinity -0.230354682
REMARK minimizedRMSD -1
REMARK  1 active torsions:
REMARK  status: ('A' for Active; 'I' for Inactive)
REMARK    1  A    between atoms: C1_2  and  C2_3 
ROOT
ATOM      1  C2  UNL d   1       2.861   4.097  -2.037  0.00  0.00    -0.073 A 
ATOM      2  C3  UNL d   1       3.859   4.227  -1.064  0.00  0.00    -0.002 A 
ATOM      3  C4  UNL d   1       3.629   3.797   0.244  0.00  0.00     0.004 A 
ATOM      4  C5  UNL d   1       2.403   3.229   0.590  0.00  0.00    -0.004 A 
ATOM      5  C6  UNL d   1       1.398   3.079  -0.370  0.00  0.00    -0.075 A 
ATOM      6  C7  UNL d   1       0.073   2.471  -0.013  0.00  0.00     0.076 C 
ATOM      7  C8  UNL d   1       1.636   3.515  -1.681  0.00  0.00     0.001 A 
ENDROOT
BRANCH   1   8
ATOM      8  C1  UNL d   1       3.107   4.553  -3.451  0.00  0.00     0.053 C 
ATOM      9  C   UNL d   1       1.830   5.026  -4.128  0.00  0.00     0.018 C 
ENDBRANCH   1   8
TORSDOF 1
ENDMDL
