MODEL 1
REMARK minimizedAffinity -4.4522953
REMARK minimizedRMSD -1
REMARK  1 active torsions:
REMARK  status: ('A' for Active; 'I' for Inactive)
REMARK    1  A    between atoms: C3_4  and  O_7 
ROOT
ATOM      1  C   UNL d   1      -0.583  -3.206   0.202  0.00  0.00    -0.033 A 
ATOM      2  C1  UNL d   1      -1.368  -2.368   0.996  0.00  0.00     0.039 A 
ATOM      3  C2  UNL d   1      -1.093  -1.000   1.055  0.00  0.00    -0.080 A 
ATOM      4  C3  UNL d   1      -0.033  -0.484   0.315  0.00  0.00     0.150 A 
ATOM      5  C4  UNL d   1       0.750  -1.312  -0.482  0.00  0.00    -0.007 A 
ATOM      6  C5  UNL d   1       0.476  -2.678  -0.538  0.00  0.00     0.039 A 
ENDROOT
BRANCH   4   7
ATOM      7  O   UNL d   1       0.276   0.843   0.344  0.00  0.00    -0.526 OA
ATOM      8  H5  UNL d   1      -0.332   1.288   0.958  0.00  0.00     0.418 HD
ENDBRANCH   4   7
TORSDOF 1
ENDMDL
