MODEL 1
REMARK minimizedAffinity -2.29605699
REMARK minimizedRMSD -1
REMARK  1 active torsions:
REMARK  status: ('A' for Active; 'I' for Inactive)
REMARK    1  A    between atoms: C3_4  and  O_7 
ROOT
ATOM      1  C   UNL d   1      -1.263  -1.426   0.933  0.00  0.00    -0.033 A 
ATOM      2  C1  UNL d   1      -1.445  -2.670   0.327  0.00  0.00     0.039 A 
ATOM      3  C2  UNL d   1      -1.007  -2.882  -0.982  0.00  0.00    -0.080 A 
ATOM      4  C3  UNL d   1      -0.389  -1.843  -1.672  0.00  0.00     0.150 A 
ATOM      5  C4  UNL d   1      -0.200  -0.602  -1.073  0.00  0.00    -0.007 A 
ATOM      6  C5  UNL d   1      -0.639  -0.392   0.234  0.00  0.00     0.039 A 
ENDROOT
BRANCH   4   7
ATOM      7  O   UNL d   1       0.051  -2.000  -2.953  0.00  0.00    -0.526 OA
ATOM      8  H5  UNL d   1      -0.172  -2.899  -3.247  0.00  0.00     0.418 HD
ENDBRANCH   4   7
TORSDOF 1
ENDMDL
