MODEL 1
REMARK minimizedAffinity -4.20260096
REMARK minimizedRMSD -1
REMARK  1 active torsions:
REMARK  status: ('A' for Active; 'I' for Inactive)
REMARK    1  A    between atoms: C3_4  and  O_7 
ROOT
ATOM      1  C   UNL d   1      -1.419  -1.862   0.851  0.00  0.00    -0.033 A 
ATOM      2  C1  UNL d   1      -0.508  -1.959  -0.202  0.00  0.00     0.039 A 
ATOM      3  C2  UNL d   1       0.114  -0.811  -0.697  0.00  0.00    -0.080 A 
ATOM      4  C3  UNL d   1      -0.181   0.425  -0.129  0.00  0.00     0.150 A 
ATOM      5  C4  UNL d   1      -1.085   0.528   0.923  0.00  0.00    -0.007 A 
ATOM      6  C5  UNL d   1      -1.706  -0.619   1.415  0.00  0.00     0.039 A 
ENDROOT
BRANCH   4   7
ATOM      7  O   UNL d   1       0.398   1.573  -0.581  0.00  0.00    -0.526 OA
ATOM      8  H5  UNL d   1       0.977   1.352  -1.329  0.00  0.00     0.418 HD
ENDBRANCH   4   7
TORSDOF 1
ENDMDL
