MODEL 1
REMARK minimizedAffinity -4.67392588
REMARK minimizedRMSD -1
REMARK  1 active torsions:
REMARK  status: ('A' for Active; 'I' for Inactive)
REMARK    1  A    between atoms: C3_4  and  O_7 
ROOT
ATOM      1  C   UNL d   1       0.009  -3.601  -0.074  0.00  0.00    -0.033 A 
ATOM      2  C1  UNL d   1       0.170  -2.951  -1.300  0.00  0.00     0.039 A 
ATOM      3  C2  UNL d   1       0.288  -1.561  -1.345  0.00  0.00    -0.080 A 
ATOM      4  C3  UNL d   1       0.245  -0.833  -0.159  0.00  0.00     0.150 A 
ATOM      5  C4  UNL d   1       0.089  -1.473   1.066  0.00  0.00    -0.007 A 
ATOM      6  C5  UNL d   1      -0.030  -2.862   1.109  0.00  0.00     0.039 A 
ENDROOT
BRANCH   4   7
ATOM      7  O   UNL d   1       0.351   0.527  -0.153  0.00  0.00    -0.526 OA
ATOM      8  H5  UNL d   1       0.426   0.834  -1.072  0.00  0.00     0.418 HD
ENDBRANCH   4   7
TORSDOF 1
ENDMDL
