MODEL 1
REMARK minimizedAffinity -3.1871078
REMARK minimizedRMSD -1
REMARK  1 active torsions:
REMARK  status: ('A' for Active; 'I' for Inactive)
REMARK    1  A    between atoms: C3_4  and  O_7 
ROOT
ATOM      1  C   UNL d   1      -1.182  -2.298   0.690  0.00  0.00    -0.033 A 
ATOM      2  C1  UNL d   1      -0.681  -1.947  -0.566  0.00  0.00     0.039 A 
ATOM      3  C2  UNL d   1      -0.111  -0.689  -0.765  0.00  0.00    -0.080 A 
ATOM      4  C3  UNL d   1      -0.046   0.208   0.298  0.00  0.00     0.150 A 
ATOM      5  C4  UNL d   1      -0.539  -0.136   1.552  0.00  0.00    -0.007 A 
ATOM      6  C5  UNL d   1      -1.109  -1.393   1.749  0.00  0.00     0.039 A 
ENDROOT
BRANCH   4   7
ATOM      7  O   UNL d   1       0.497   1.450   0.150  0.00  0.00    -0.526 OA
ATOM      8  H5  UNL d   1       0.769   1.558  -0.776  0.00  0.00     0.418 HD
ENDBRANCH   4   7
TORSDOF 1
ENDMDL
