MODEL 1
REMARK minimizedAffinity -3.59480524
REMARK minimizedRMSD -1
REMARK  1 active torsions:
REMARK  status: ('A' for Active; 'I' for Inactive)
REMARK    1  A    between atoms: C3_4  and  O_7 
ROOT
ATOM      1  C   UNL d   1      -1.047  -2.756   0.449  0.00  0.00    -0.033 A 
ATOM      2  C1  UNL d   1      -0.351  -2.457  -0.723  0.00  0.00     0.039 A 
ATOM      3  C2  UNL d   1      -0.148  -1.127  -1.097  0.00  0.00    -0.080 A 
ATOM      4  C3  UNL d   1      -0.644  -0.108  -0.290  0.00  0.00     0.150 A 
ATOM      5  C4  UNL d   1      -1.336  -0.398   0.882  0.00  0.00    -0.007 A 
ATOM      6  C5  UNL d   1      -1.539  -1.727   1.252  0.00  0.00     0.039 A 
ENDROOT
BRANCH   4   7
ATOM      7  O   UNL d   1      -0.475   1.205  -0.615  0.00  0.00    -0.526 OA
ATOM      8  H5  UNL d   1      -0.005   1.254  -1.464  0.00  0.00     0.418 HD
ENDBRANCH   4   7
TORSDOF 1
ENDMDL
