MODEL 1
REMARK minimizedAffinity -5.27840662
REMARK minimizedRMSD -1
REMARK  1 active torsions:
REMARK  status: ('A' for Active; 'I' for Inactive)
REMARK    1  A    between atoms: C3_4  and  O_7 
ROOT
ATOM      1  C   UNL d   1       0.333  -2.805   0.450  0.00  0.00    -0.033 A 
ATOM      2  C1  UNL d   1       0.659  -1.448   0.423  0.00  0.00     0.039 A 
ATOM      3  C2  UNL d   1       0.652  -0.751  -0.787  0.00  0.00    -0.080 A 
ATOM      4  C3  UNL d   1       0.317  -1.422  -1.960  0.00  0.00     0.150 A 
ATOM      5  C4  UNL d   1      -0.013  -2.773  -1.939  0.00  0.00    -0.007 A 
ATOM      6  C5  UNL d   1      -0.004  -3.467  -0.730  0.00  0.00     0.039 A 
ENDROOT
BRANCH   4   7
ATOM      7  O   UNL d   1       0.301  -0.785  -3.166  0.00  0.00    -0.526 OA
ATOM      8  H5  UNL d   1       0.577   0.137  -3.031  0.00  0.00     0.418 HD
ENDBRANCH   4   7
TORSDOF 1
ENDMDL
