MODEL 1
REMARK minimizedAffinity -3.8349216
REMARK minimizedRMSD -1
REMARK  1 active torsions:
REMARK  status: ('A' for Active; 'I' for Inactive)
REMARK    1  A    between atoms: C3_4  and  O_7 
ROOT
ATOM      1  C   UNL d   1       0.058   1.892   0.085  0.00  0.00    -0.033 A 
ATOM      2  C1  UNL d   1       0.756   3.096   0.195  0.00  0.00     0.039 A 
ATOM      3  C2  UNL d   1       2.026   3.118   0.775  0.00  0.00    -0.080 A 
ATOM      4  C3  UNL d   1       2.586   1.932   1.240  0.00  0.00     0.150 A 
ATOM      5  C4  UNL d   1       1.898   0.728   1.130  0.00  0.00    -0.007 A 
ATOM      6  C5  UNL d   1       0.630   0.708   0.551  0.00  0.00     0.039 A 
ENDROOT
BRANCH   4   7
ATOM      7  O   UNL d   1       3.820   1.904   1.818  0.00  0.00    -0.526 OA
ATOM      8  H5  UNL d   1       4.164   2.813   1.852  0.00  0.00     0.418 HD
ENDBRANCH   4   7
TORSDOF 1
ENDMDL
