MODEL 1
REMARK minimizedAffinity -5.1696372
REMARK minimizedRMSD -1
REMARK  1 active torsions:
REMARK  status: ('A' for Active; 'I' for Inactive)
REMARK    1  A    between atoms: C3_4  and  O_7 
ROOT
ATOM      1  C   UNL d   1       0.130  -1.155  -0.838  0.00  0.00    -0.033 A 
ATOM      2  C1  UNL d   1       0.007  -2.535  -0.664  0.00  0.00     0.039 A 
ATOM      3  C2  UNL d   1      -0.698  -3.043   0.430  0.00  0.00    -0.080 A 
ATOM      4  C3  UNL d   1      -1.275  -2.161   1.340  0.00  0.00     0.150 A 
ATOM      5  C4  UNL d   1      -1.159  -0.785   1.170  0.00  0.00    -0.007 A 
ATOM      6  C5  UNL d   1      -0.454  -0.280   0.079  0.00  0.00     0.039 A 
ENDROOT
BRANCH   4   7
ATOM      7  O   UNL d   1      -1.968  -2.609   2.424  0.00  0.00    -0.526 OA
ATOM      8  H5  UNL d   1      -1.941  -3.581   2.427  0.00  0.00     0.418 HD
ENDBRANCH   4   7
TORSDOF 1
ENDMDL
