MODEL 1
REMARK minimizedAffinity -1.69619656
REMARK minimizedRMSD -1
REMARK  1 active torsions:
REMARK  status: ('A' for Active; 'I' for Inactive)
REMARK    1  A    between atoms: C3_4  and  O_7 
ROOT
ATOM      1  C   UNL d   1      -0.841  -1.174   1.244  0.00  0.00    -0.033 A 
ATOM      2  C1  UNL d   1      -1.299  -2.463   0.963  0.00  0.00     0.039 A 
ATOM      3  C2  UNL d   1      -1.246  -2.955  -0.342  0.00  0.00    -0.080 A 
ATOM      4  C3  UNL d   1      -0.732  -2.151  -1.356  0.00  0.00     0.150 A 
ATOM      5  C4  UNL d   1      -0.270  -0.868  -1.082  0.00  0.00    -0.007 A 
ATOM      6  C5  UNL d   1      -0.325  -0.377   0.222  0.00  0.00     0.039 A 
ENDROOT
BRANCH   4   7
ATOM      7  O   UNL d   1      -0.665  -2.587  -2.646  0.00  0.00    -0.526 OA
ATOM      8  H5  UNL d   1      -1.046  -3.480  -2.689  0.00  0.00     0.418 HD
ENDBRANCH   4   7
TORSDOF 1
ENDMDL
