MODEL 1
REMARK minimizedAffinity -4.11663485
REMARK minimizedRMSD -1
REMARK  1 active torsions:
REMARK  status: ('A' for Active; 'I' for Inactive)
REMARK    1  A    between atoms: C3_4  and  O_7 
ROOT
ATOM      1  C   UNL d   1       0.211  -0.352  -1.207  0.00  0.00    -0.033 A 
ATOM      2  C1  UNL d   1       0.444  -1.716  -1.019  0.00  0.00     0.039 A 
ATOM      3  C2  UNL d   1      -0.241  -2.412  -0.022  0.00  0.00    -0.080 A 
ATOM      4  C3  UNL d   1      -1.156  -1.734   0.780  0.00  0.00     0.150 A 
ATOM      5  C4  UNL d   1      -1.395  -0.376   0.596  0.00  0.00    -0.007 A 
ATOM      6  C5  UNL d   1      -0.710   0.317  -0.400  0.00  0.00     0.039 A 
ENDROOT
BRANCH   4   7
ATOM      7  O   UNL d   1      -1.845  -2.370   1.770  0.00  0.00    -0.526 OA
ATOM      8  H5  UNL d   1      -1.556  -3.297   1.799  0.00  0.00     0.418 HD
ENDBRANCH   4   7
TORSDOF 1
ENDMDL
