MODEL 1
REMARK minimizedAffinity -1.74231017
REMARK minimizedRMSD -1
REMARK  1 active torsions:
REMARK  status: ('A' for Active; 'I' for Inactive)
REMARK    1  A    between atoms: C3_4  and  O_7 
ROOT
ATOM      1  C   UNL d   1      -1.262  -2.372   1.631  0.00  0.00    -0.033 A 
ATOM      2  C1  UNL d   1      -1.382  -1.087   2.164  0.00  0.00     0.039 A 
ATOM      3  C2  UNL d   1      -1.115   0.028   1.368  0.00  0.00    -0.080 A 
ATOM      4  C3  UNL d   1      -0.730  -0.155   0.043  0.00  0.00     0.150 A 
ATOM      5  C4  UNL d   1      -0.611  -1.432  -0.495  0.00  0.00    -0.007 A 
ATOM      6  C5  UNL d   1      -0.877  -2.544   0.301  0.00  0.00     0.039 A 
ENDROOT
BRANCH   4   7
ATOM      7  O   UNL d   1      -0.454   0.904  -0.771  0.00  0.00    -0.526 OA
ATOM      8  H5  UNL d   1      -0.550   1.722  -0.256  0.00  0.00     0.418 HD
ENDBRANCH   4   7
TORSDOF 1
ENDMDL
