MODEL 1
REMARK minimizedAffinity -5.30941486
REMARK minimizedRMSD -1
REMARK  1 active torsions:
REMARK  status: ('A' for Active; 'I' for Inactive)
REMARK    1  A    between atoms: C3_4  and  O_7 
ROOT
ATOM      1  C   UNL d   1       0.271  -3.120   0.036  0.00  0.00    -0.033 A 
ATOM      2  C1  UNL d   1       0.892  -2.412  -0.994  0.00  0.00     0.039 A 
ATOM      3  C2  UNL d   1       0.578  -1.068  -1.207  0.00  0.00    -0.080 A 
ATOM      4  C3  UNL d   1      -0.357  -0.446  -0.385  0.00  0.00     0.150 A 
ATOM      5  C4  UNL d   1      -0.977  -1.144   0.646  0.00  0.00    -0.007 A 
ATOM      6  C5  UNL d   1      -0.663  -2.486   0.857  0.00  0.00     0.039 A 
ENDROOT
BRANCH   4   7
ATOM      7  O   UNL d   1      -0.699   0.863  -0.558  0.00  0.00    -0.526 OA
ATOM      8  H5  UNL d   1      -0.213   1.209  -1.325  0.00  0.00     0.418 HD
ENDBRANCH   4   7
TORSDOF 1
ENDMDL
