MODEL 1
REMARK minimizedAffinity -1.29131579
REMARK minimizedRMSD -1
REMARK  1 active torsions:
REMARK  status: ('A' for Active; 'I' for Inactive)
REMARK    1  A    between atoms: C3_4  and  O_7 
ROOT
ATOM      1  C   UNL d   1       2.375   3.561   1.126  0.00  0.00    -0.033 A 
ATOM      2  C1  UNL d   1       2.701   2.895  -0.057  0.00  0.00     0.039 A 
ATOM      3  C2  UNL d   1       1.893   1.855  -0.521  0.00  0.00    -0.080 A 
ATOM      4  C3  UNL d   1       0.762   1.493   0.206  0.00  0.00     0.150 A 
ATOM      5  C4  UNL d   1       0.429   2.155   1.383  0.00  0.00    -0.007 A 
ATOM      6  C5  UNL d   1       1.238   3.192   1.845  0.00  0.00     0.039 A 
ENDROOT
BRANCH   4   7
ATOM      7  O   UNL d   1      -0.054   0.481  -0.204  0.00  0.00    -0.526 OA
ATOM      8  H5  UNL d   1       0.316   0.097  -1.017  0.00  0.00     0.418 HD
ENDBRANCH   4   7
TORSDOF 1
ENDMDL
