MODEL 1
REMARK minimizedAffinity -2.20809579
REMARK minimizedRMSD -1
REMARK  1 active torsions:
REMARK  status: ('A' for Active; 'I' for Inactive)
REMARK    1  A    between atoms: C3_4  and  O_7 
ROOT
ATOM      1  C   UNL d   1       1.589   2.714  -0.508  0.00  0.00    -0.033 A 
ATOM      2  C1  UNL d   1       2.452   3.466   0.292  0.00  0.00     0.039 A 
ATOM      3  C2  UNL d   1       1.978   4.071   1.458  0.00  0.00    -0.080 A 
ATOM      4  C3  UNL d   1       0.640   3.916   1.812  0.00  0.00     0.150 A 
ATOM      5  C4  UNL d   1      -0.224   3.166   1.022  0.00  0.00    -0.007 A 
ATOM      6  C5  UNL d   1       0.251   2.563  -0.142  0.00  0.00     0.039 A 
ENDROOT
BRANCH   4   7
ATOM      7  O   UNL d   1       0.130   4.492   2.938  0.00  0.00    -0.526 OA
ATOM      8  H5  UNL d   1       0.836   5.003   3.369  0.00  0.00     0.418 HD
ENDBRANCH   4   7
TORSDOF 1
ENDMDL
