MODEL 1
REMARK minimizedAffinity -3.70090461
REMARK minimizedRMSD -1
REMARK  1 active torsions:
REMARK  status: ('A' for Active; 'I' for Inactive)
REMARK    1  A    between atoms: C3_4  and  O_7 
ROOT
ATOM      1  C   UNL d   1      -0.700   0.649   0.019  0.00  0.00    -0.033 A 
ATOM      2  C1  UNL d   1       0.147  -0.060  -0.835  0.00  0.00     0.039 A 
ATOM      3  C2  UNL d   1       0.260  -1.446  -0.716  0.00  0.00    -0.080 A 
ATOM      4  C3  UNL d   1      -0.477  -2.111   0.260  0.00  0.00     0.150 A 
ATOM      5  C4  UNL d   1      -1.326  -1.411   1.112  0.00  0.00    -0.007 A 
ATOM      6  C5  UNL d   1      -1.437  -0.026   0.992  0.00  0.00     0.039 A 
ENDROOT
BRANCH   4   7
ATOM      7  O   UNL d   1      -0.396  -3.462   0.418  0.00  0.00    -0.526 OA
ATOM      8  H5  UNL d   1       0.250  -3.808  -0.220  0.00  0.00     0.418 HD
ENDBRANCH   4   7
TORSDOF 1
ENDMDL
