MODEL 1
REMARK minimizedAffinity 16.83675
REMARK minimizedRMSD -1
REMARK  1 active torsions:
REMARK  status: ('A' for Active; 'I' for Inactive)
REMARK    1  A    between atoms: C1_2  and  C2_3 
ROOT
ATOM      1  C2  UNL d   1      -2.316   3.991  -2.840  0.00  0.00    -0.077 A 
ATOM      2  C3  UNL d   1      -2.081   5.372  -2.888  0.00  0.00     0.002 A 
ATOM      3  C4  UNL d   1      -1.803   6.000  -4.104  0.00  0.00     0.002 A 
ATOM      4  C5  UNL d   1      -1.762   5.255  -5.281  0.00  0.00    -0.004 A 
ATOM      5  C6  UNL d   1      -1.993   3.880  -5.243  0.00  0.00     0.002 A 
ATOM      6  C7  UNL d   1      -2.269   3.251  -4.028  0.00  0.00     0.002 A 
ENDROOT
BRANCH   1   7
ATOM      7  C1  UNL d   1      -2.665   3.321  -1.536  0.00  0.00     0.055 C 
ATOM      8  C   UNL d   1      -4.088   3.650  -1.108  0.00  0.00     0.019 C 
ENDBRANCH   1   7
TORSDOF 1
ENDMDL
