MODEL 1
REMARK minimizedAffinity 14.0558262
REMARK minimizedRMSD -1
REMARK  1 active torsions:
REMARK  status: ('A' for Active; 'I' for Inactive)
REMARK    1  A    between atoms: C1_2  and  C2_3 
ROOT
ATOM      1  C2  UNL d   1      -2.601   3.467  -2.360  0.00  0.00    -0.077 A 
ATOM      2  C3  UNL d   1      -2.493   4.863  -2.434  0.00  0.00     0.002 A 
ATOM      3  C4  UNL d   1      -3.496   5.678  -1.907  0.00  0.00     0.002 A 
ATOM      4  C5  UNL d   1      -4.613   5.108  -1.299  0.00  0.00    -0.004 A 
ATOM      5  C6  UNL d   1      -4.731   3.720  -1.223  0.00  0.00     0.002 A 
ATOM      6  C7  UNL d   1      -3.729   2.904  -1.750  0.00  0.00     0.002 A 
ENDROOT
BRANCH   1   7
ATOM      7  C1  UNL d   1      -1.497   2.587  -2.884  0.00  0.00     0.055 C 
ATOM      8  C   UNL d   1      -0.421   2.363  -1.832  0.00  0.00     0.019 C 
ENDBRANCH   1   7
TORSDOF 1
ENDMDL
