MODEL 1
REMARK minimizedAffinity 12.779253
REMARK minimizedRMSD -1
REMARK  1 active torsions:
REMARK  status: ('A' for Active; 'I' for Inactive)
REMARK    1  A    between atoms: C1_2  and  C2_3 
ROOT
ATOM      1  C2  UNL d   1       0.437   3.734  -0.403  0.00  0.00    -0.077 A 
ATOM      2  C3  UNL d   1       1.443   2.807  -0.095  0.00  0.00     0.002 A 
ATOM      3  C4  UNL d   1       1.497   1.579  -0.757  0.00  0.00     0.002 A 
ATOM      4  C5  UNL d   1       0.552   1.269  -1.733  0.00  0.00    -0.004 A 
ATOM      5  C6  UNL d   1      -0.453   2.184  -2.045  0.00  0.00     0.002 A 
ATOM      6  C7  UNL d   1      -0.510   3.411  -1.383  0.00  0.00     0.002 A 
ENDROOT
BRANCH   1   7
ATOM      7  C1  UNL d   1       0.406   5.080   0.275  0.00  0.00     0.055 C 
ATOM      8  C   UNL d   1       1.488   6.000  -0.271  0.00  0.00     0.019 C 
ENDBRANCH   1   7
TORSDOF 1
ENDMDL
