MODEL 1
REMARK minimizedAffinity 7.94396925
REMARK minimizedRMSD -1
REMARK  1 active torsions:
REMARK  status: ('A' for Active; 'I' for Inactive)
REMARK    1  A    between atoms: C1_2  and  C2_3 
ROOT
ATOM      1  C2  UNL d   1      -2.580   4.949  -2.990  0.00  0.00    -0.077 A 
ATOM      2  C3  UNL d   1      -2.406   3.588  -3.277  0.00  0.00     0.002 A 
ATOM      3  C4  UNL d   1      -3.181   2.625  -2.628  0.00  0.00     0.002 A 
ATOM      4  C5  UNL d   1      -4.137   3.012  -1.693  0.00  0.00    -0.004 A 
ATOM      5  C6  UNL d   1      -4.316   4.364  -1.399  0.00  0.00     0.002 A 
ATOM      6  C7  UNL d   1      -3.542   5.328  -2.045  0.00  0.00     0.002 A 
ENDROOT
BRANCH   1   7
ATOM      7  C1  UNL d   1      -1.779   5.993  -3.724  0.00  0.00     0.055 C 
ATOM      8  C   UNL d   1      -2.098   5.990  -5.212  0.00  0.00     0.019 C 
ENDBRANCH   1   7
TORSDOF 1
ENDMDL
