MODEL 1
REMARK minimizedAffinity 2.43441033
REMARK minimizedRMSD -1
REMARK  1 active torsions:
REMARK  status: ('A' for Active; 'I' for Inactive)
REMARK    1  A    between atoms: C1_2  and  C2_3 
ROOT
ATOM      1  C2  UNL d   1      -1.593  -2.588   2.667  0.00  0.00    -0.077 A 
ATOM      2  C3  UNL d   1      -2.003  -1.846   3.784  0.00  0.00     0.002 A 
ATOM      3  C4  UNL d   1      -1.135  -0.928   4.379  0.00  0.00     0.002 A 
ATOM      4  C5  UNL d   1       0.145  -0.741   3.863  0.00  0.00    -0.004 A 
ATOM      5  C6  UNL d   1       0.563  -1.476   2.754  0.00  0.00     0.002 A 
ATOM      6  C7  UNL d   1      -0.302  -2.394   2.158  0.00  0.00     0.002 A 
ENDROOT
BRANCH   1   7
ATOM      7  C1  UNL d   1      -2.544  -3.542   1.993  0.00  0.00     0.055 C 
ATOM      8  C   UNL d   1      -3.943  -2.952   1.895  0.00  0.00     0.019 C 
ENDBRANCH   1   7
TORSDOF 1
ENDMDL
