MODEL 1
REMARK minimizedAffinity 7.23222065
REMARK minimizedRMSD -1
REMARK  1 active torsions:
REMARK  status: ('A' for Active; 'I' for Inactive)
REMARK    1  A    between atoms: C1_2  and  C2_3 
ROOT
ATOM      1  C2  UNL d   1       0.567  -1.830   2.283  0.00  0.00    -0.077 A 
ATOM      2  C3  UNL d   1      -0.422  -2.816   2.156  0.00  0.00     0.002 A 
ATOM      3  C4  UNL d   1      -1.543  -2.803   2.988  0.00  0.00     0.002 A 
ATOM      4  C5  UNL d   1      -1.687  -1.805   3.950  0.00  0.00    -0.004 A 
ATOM      5  C6  UNL d   1      -0.708  -0.821   4.085  0.00  0.00     0.002 A 
ATOM      6  C7  UNL d   1       0.414  -0.834   3.255  0.00  0.00     0.002 A 
ENDROOT
BRANCH   1   7
ATOM      7  C1  UNL d   1       1.753  -1.814   1.354  0.00  0.00     0.055 C 
ATOM      8  C   UNL d   1       2.627  -0.592   1.593  0.00  0.00     0.019 C 
ENDBRANCH   1   7
TORSDOF 1
ENDMDL
