MODEL 1
REMARK minimizedAffinity 4.9306879
REMARK minimizedRMSD -1
REMARK  1 active torsions:
REMARK  status: ('A' for Active; 'I' for Inactive)
REMARK    1  A    between atoms: C1_2  and  C2_3 
ROOT
ATOM      1  C2  UNL d   1       0.151  -1.048   3.278  0.00  0.00    -0.077 A 
ATOM      2  C3  UNL d   1       1.161  -0.161   2.878  0.00  0.00     0.002 A 
ATOM      3  C4  UNL d   1       2.068  -0.528   1.881  0.00  0.00     0.002 A 
ATOM      4  C5  UNL d   1       1.971  -1.778   1.274  0.00  0.00    -0.004 A 
ATOM      5  C6  UNL d   1       0.971  -2.667   1.666  0.00  0.00     0.002 A 
ATOM      6  C7  UNL d   1       0.065  -2.303   2.663  0.00  0.00     0.002 A 
ENDROOT
BRANCH   1   7
ATOM      7  C1  UNL d   1      -0.858  -0.635   4.318  0.00  0.00     0.055 C 
ATOM      8  C   UNL d   1      -0.248  -0.636   5.712  0.00  0.00     0.019 C 
ENDBRANCH   1   7
TORSDOF 1
ENDMDL
