MODEL 1
REMARK minimizedAffinity 7.80066061
REMARK minimizedRMSD -1
REMARK  1 active torsions:
REMARK  status: ('A' for Active; 'I' for Inactive)
REMARK    1  A    between atoms: C1_2  and  C2_3 
ROOT
ATOM      1  C2  UNL d   1       2.408  -0.294   1.169  0.00  0.00    -0.077 A 
ATOM      2  C3  UNL d   1       2.926  -1.409   0.494  0.00  0.00     0.002 A 
ATOM      3  C4  UNL d   1       2.423  -2.686   0.751  0.00  0.00     0.002 A 
ATOM      4  C5  UNL d   1       1.399  -2.860   1.679  0.00  0.00    -0.004 A 
ATOM      5  C6  UNL d   1       0.879  -1.758   2.356  0.00  0.00     0.002 A 
ATOM      6  C7  UNL d   1       1.380  -0.481   2.102  0.00  0.00     0.002 A 
ENDROOT
BRANCH   1   7
ATOM      7  C1  UNL d   1       2.914   1.090   0.857  0.00  0.00     0.055 C 
ATOM      8  C   UNL d   1       1.800   1.980   0.325  0.00  0.00     0.019 C 
ENDBRANCH   1   7
TORSDOF 1
ENDMDL
