MODEL 1
REMARK minimizedAffinity 10.332427
REMARK minimizedRMSD -1
REMARK  1 active torsions:
REMARK  status: ('A' for Active; 'I' for Inactive)
REMARK    1  A    between atoms: C1_2  and  C2_3 
ROOT
ATOM      1  C2  UNL d   1      -2.744   4.018  -3.230  0.00  0.00    -0.077 A 
ATOM      2  C3  UNL d   1      -2.288   5.344  -3.211  0.00  0.00     0.002 A 
ATOM      3  C4  UNL d   1      -1.970   5.998  -4.403  0.00  0.00     0.002 A 
ATOM      4  C5  UNL d   1      -2.110   5.337  -5.621  0.00  0.00    -0.004 A 
ATOM      5  C6  UNL d   1      -2.561   4.018  -5.650  0.00  0.00     0.002 A 
ATOM      6  C7  UNL d   1      -2.877   3.362  -4.460  0.00  0.00     0.002 A 
ENDROOT
BRANCH   1   7
ATOM      7  C1  UNL d   1      -3.134   3.327  -1.949  0.00  0.00     0.055 C 
ATOM      8  C   UNL d   1      -4.555   3.682  -1.539  0.00  0.00     0.019 C 
ENDBRANCH   1   7
TORSDOF 1
ENDMDL
