MODEL 1
REMARK minimizedAffinity 15.9461145
REMARK minimizedRMSD -1
REMARK  1 active torsions:
REMARK  status: ('A' for Active; 'I' for Inactive)
REMARK    1  A    between atoms: C1_2  and  C2_3 
ROOT
ATOM      1  C2  UNL d   1      -1.405   3.761  -2.994  0.00  0.00    -0.077 A 
ATOM      2  C3  UNL d   1      -1.860   3.247  -4.216  0.00  0.00     0.002 A 
ATOM      3  C4  UNL d   1      -2.138   4.102  -5.284  0.00  0.00     0.002 A 
ATOM      4  C5  UNL d   1      -1.958   5.477  -5.142  0.00  0.00    -0.004 A 
ATOM      5  C6  UNL d   1      -1.508   5.999  -3.930  0.00  0.00     0.002 A 
ATOM      6  C7  UNL d   1      -1.232   5.145  -2.861  0.00  0.00     0.002 A 
ENDROOT
BRANCH   1   7
ATOM      7  C1  UNL d   1      -1.059   2.836  -1.857  0.00  0.00     0.055 C 
ATOM      8  C   UNL d   1       0.362   3.072  -1.365  0.00  0.00     0.019 C 
ENDBRANCH   1   7
TORSDOF 1
ENDMDL
