MODEL 1
REMARK minimizedAffinity 4.10773277
REMARK minimizedRMSD -1
REMARK  1 active torsions:
REMARK  status: ('A' for Active; 'I' for Inactive)
REMARK    1  A    between atoms: C1_2  and  C2_3 
ROOT
ATOM      1  C2  UNL d   1      -2.739   4.111  -3.358  0.00  0.00    -0.077 A 
ATOM      2  C3  UNL d   1      -2.377   5.437  -3.631  0.00  0.00     0.002 A 
ATOM      3  C4  UNL d   1      -2.149   5.851  -4.945  0.00  0.00     0.002 A 
ATOM      4  C5  UNL d   1      -2.285   4.946  -5.996  0.00  0.00    -0.004 A 
ATOM      5  C6  UNL d   1      -2.643   3.624  -5.734  0.00  0.00     0.002 A 
ATOM      6  C7  UNL d   1      -2.870   3.208  -4.421  0.00  0.00     0.002 A 
ENDROOT
BRANCH   1   7
ATOM      7  C1  UNL d   1      -3.033   3.675  -1.946  0.00  0.00     0.055 C 
ATOM      8  C   UNL d   1      -4.449   4.051  -1.535  0.00  0.00     0.019 C 
ENDBRANCH   1   7
TORSDOF 1
ENDMDL
