MODEL 1
REMARK minimizedAffinity 10.0568581
REMARK minimizedRMSD -1
REMARK  1 active torsions:
REMARK  status: ('A' for Active; 'I' for Inactive)
REMARK    1  A    between atoms: C1_2  and  C2_3 
ROOT
ATOM      1  C2  UNL d   1       0.216  -1.714   2.592  0.00  0.00    -0.077 A 
ATOM      2  C3  UNL d   1      -0.770  -2.709   2.555  0.00  0.00     0.002 A 
ATOM      3  C4  UNL d   1      -1.906  -2.608   3.361  0.00  0.00     0.002 A 
ATOM      4  C5  UNL d   1      -2.068  -1.511   4.205  0.00  0.00    -0.004 A 
ATOM      5  C6  UNL d   1      -1.092  -0.517   4.250  0.00  0.00     0.002 A 
ATOM      6  C7  UNL d   1       0.045  -0.618   3.447  0.00  0.00     0.002 A 
ENDROOT
BRANCH   1   7
ATOM      7  C1  UNL d   1       1.418  -1.797   1.688  0.00  0.00     0.055 C 
ATOM      8  C   UNL d   1       2.001  -0.418   1.414  0.00  0.00     0.019 C 
ENDBRANCH   1   7
TORSDOF 1
ENDMDL
