MODEL 1
REMARK minimizedAffinity 7.30528879
REMARK minimizedRMSD -1
REMARK  1 active torsions:
REMARK  status: ('A' for Active; 'I' for Inactive)
REMARK    1  A    between atoms: C1_2  and  C2_3 
ROOT
ATOM      1  C2  UNL d   1       0.216  -2.021   2.575  0.00  0.00    -0.077 A 
ATOM      2  C3  UNL d   1      -0.686  -3.094   2.533  0.00  0.00     0.002 A 
ATOM      3  C4  UNL d   1      -1.874  -3.047   3.265  0.00  0.00     0.002 A 
ATOM      4  C5  UNL d   1      -2.172  -1.929   4.041  0.00  0.00    -0.004 A 
ATOM      5  C6  UNL d   1      -1.281  -0.858   4.091  0.00  0.00     0.002 A 
ATOM      6  C7  UNL d   1      -0.092  -0.904   3.361  0.00  0.00     0.002 A 
ENDROOT
BRANCH   1   7
ATOM      7  C1  UNL d   1       1.475  -2.049   1.748  0.00  0.00     0.055 C 
ATOM      8  C   UNL d   1       2.002  -0.644   1.496  0.00  0.00     0.019 C 
ENDBRANCH   1   7
TORSDOF 1
ENDMDL
