MODEL 1
REMARK minimizedAffinity -0.567403674
REMARK minimizedRMSD -1
REMARK  0 active torsions:
REMARK  status: ('A' for Active; 'I' for Inactive)
ROOT
ATOM      1  C2' OXE d   1       0.058   0.782   1.851  0.00  0.00     0.078 C 
ATOM      2  C1' OXE d   1       0.521  -0.962  -0.299  0.00  0.00     0.078 C 
ATOM      3  C1  OXE d   1       0.160   0.467  -0.618  0.00  0.00    -0.078 A 
ATOM      4  C2  OXE d   1      -0.111   1.302   0.440  0.00  0.00    -0.078 A 
ATOM      5  C3  OXE d   1      -0.395   2.644   0.204  0.00  0.00     0.003 A 
ATOM      6  C4  OXE d   1      -0.559   3.114  -1.105  0.00  0.00    -0.002 A 
ATOM      7  C5  OXE d   1      -0.328   2.270  -2.197  0.00  0.00    -0.002 A 
ATOM      8  C6  OXE d   1       0.073   0.958  -1.971  0.00  0.00     0.003 A 
ENDROOT
TORSDOF 0
ENDMDL
