MODEL 1
REMARK minimizedAffinity -0.571264625
REMARK minimizedRMSD -1
REMARK  0 active torsions:
REMARK  status: ('A' for Active; 'I' for Inactive)
ROOT
ATOM      1  C2' OXE d   1       0.849  -2.510  -0.958  0.00  0.00     0.078 C 
ATOM      2  C1' OXE d   1       0.833  -1.021   1.422  0.00  0.00     0.078 C 
ATOM      3  C1  OXE d   1       0.404  -0.325   0.154  0.00  0.00    -0.078 A 
ATOM      4  C2  OXE d   1       0.459  -1.048  -1.013  0.00  0.00    -0.078 A 
ATOM      5  C3  OXE d   1       0.022  -0.472  -2.202  0.00  0.00     0.003 A 
ATOM      6  C4  OXE d   1      -0.327   0.883  -2.247  0.00  0.00    -0.002 A 
ATOM      7  C5  OXE d   1      -0.353   1.649  -1.076  0.00  0.00    -0.002 A 
ATOM      8  C6  OXE d   1      -0.032   1.049   0.137  0.00  0.00     0.003 A 
ENDROOT
TORSDOF 0
ENDMDL
