MODEL 1
REMARK minimizedAffinity -5.78916883
REMARK minimizedRMSD -1
REMARK  0 active torsions:
REMARK  status: ('A' for Active; 'I' for Inactive)
ROOT
ATOM      1  C2' OXE d   1       0.641  -0.125   2.003  0.00  0.00     0.078 C 
ATOM      2  C1' OXE d   1       0.122  -0.404  -0.741  0.00  0.00     0.078 C 
ATOM      3  C1  OXE d   1      -0.347   0.858  -0.062  0.00  0.00    -0.078 A 
ATOM      4  C2  OXE d   1      -0.130   0.966   1.291  0.00  0.00    -0.078 A 
ATOM      5  C3  OXE d   1      -0.493   2.133   1.957  0.00  0.00     0.003 A 
ATOM      6  C4  OXE d   1      -1.214   3.132   1.293  0.00  0.00    -0.002 A 
ATOM      7  C5  OXE d   1      -1.480   3.025  -0.076  0.00  0.00    -0.002 A 
ATOM      8  C6  OXE d   1      -1.017   1.916  -0.776  0.00  0.00     0.003 A 
ENDROOT
TORSDOF 0
ENDMDL
