MODEL 1
REMARK minimizedAffinity -5.51644421
REMARK minimizedRMSD -1
REMARK  0 active torsions:
REMARK  status: ('A' for Active; 'I' for Inactive)
ROOT
ATOM      1  C2' OXE d   1      -1.333   3.393   0.867  0.00  0.00     0.078 C 
ATOM      2  C1' OXE d   1      -0.957   2.361  -1.716  0.00  0.00     0.078 C 
ATOM      3  C1  OXE d   1      -0.589   1.482  -0.547  0.00  0.00    -0.078 A 
ATOM      4  C2  OXE d   1      -0.733   2.012   0.712  0.00  0.00    -0.078 A 
ATOM      5  C3  OXE d   1      -0.460   1.224   1.827  0.00  0.00     0.003 A 
ATOM      6  C4  OXE d   1       0.104  -0.048   1.675  0.00  0.00    -0.002 A 
ATOM      7  C5  OXE d   1       0.296  -0.592   0.400  0.00  0.00    -0.002 A 
ATOM      8  C6  OXE d   1      -0.084   0.142  -0.718  0.00  0.00     0.003 A 
ENDROOT
TORSDOF 0
ENDMDL
