MODEL 1
REMARK minimizedAffinity -6.33133364
REMARK minimizedRMSD -1
REMARK  0 active torsions:
REMARK  status: ('A' for Active; 'I' for Inactive)
ROOT
ATOM      1  C2' OXE d   1       0.809   0.243  -1.174  0.00  0.00     0.078 C 
ATOM      2  C1' OXE d   1       0.173   0.347   1.558  0.00  0.00     0.078 C 
ATOM      3  C1  OXE d   1      -0.208   1.528   0.702  0.00  0.00    -0.078 A 
ATOM      4  C2  OXE d   1       0.149   1.489  -0.625  0.00  0.00    -0.078 A 
ATOM      5  C3  OXE d   1      -0.227   2.529  -1.471  0.00  0.00     0.003 A 
ATOM      6  C4  OXE d   1      -0.829   3.682  -0.953  0.00  0.00    -0.002 A 
ATOM      7  C5  OXE d   1      -1.165   3.759   0.403  0.00  0.00    -0.002 A 
ATOM      8  C6  OXE d   1      -0.901   2.676   1.234  0.00  0.00     0.003 A 
ENDROOT
TORSDOF 0
ENDMDL
