MODEL 1
REMARK minimizedAffinity -5.21279716
REMARK minimizedRMSD -1
REMARK  0 active torsions:
REMARK  status: ('A' for Active; 'I' for Inactive)
ROOT
ATOM      1  C2' OXE d   1       0.368  -0.321  -0.533  0.00  0.00     0.078 C 
ATOM      2  C1' OXE d   1       0.805  -0.037   2.225  0.00  0.00     0.078 C 
ATOM      3  C1  OXE d   1      -0.047   1.000   1.537  0.00  0.00    -0.078 A 
ATOM      4  C2  OXE d   1      -0.217   0.879   0.179  0.00  0.00    -0.078 A 
ATOM      5  C3  OXE d   1      -1.039   1.778  -0.495  0.00  0.00     0.003 A 
ATOM      6  C4  OXE d   1      -1.568   2.891   0.169  0.00  0.00    -0.002 A 
ATOM      7  C5  OXE d   1      -1.374   3.055   1.545  0.00  0.00    -0.002 A 
ATOM      8  C6  OXE d   1      -0.653   2.098   2.250  0.00  0.00     0.003 A 
ENDROOT
TORSDOF 0
ENDMDL
