MODEL 1
REMARK minimizedAffinity 3.52346802
REMARK minimizedRMSD -1
REMARK  0 active torsions:
REMARK  status: ('A' for Active; 'I' for Inactive)
ROOT
ATOM      1  C2' OXE d   1       0.018   0.243  -0.519  0.00  0.00     0.078 C 
ATOM      2  C1' OXE d   1       0.115  -0.246   2.243  0.00  0.00     0.078 C 
ATOM      3  C1  OXE d   1       0.173   1.188   1.780  0.00  0.00    -0.078 A 
ATOM      4  C2  OXE d   1       0.172   1.416   0.425  0.00  0.00    -0.078 A 
ATOM      5  C3  OXE d   1       0.169   2.722  -0.055  0.00  0.00     0.003 A 
ATOM      6  C4  OXE d   1       0.322   3.801   0.825  0.00  0.00    -0.002 A 
ATOM      7  C5  OXE d   1       0.365   3.589   2.207  0.00  0.00    -0.002 A 
ATOM      8  C6  OXE d   1       0.249   2.294   2.702  0.00  0.00     0.003 A 
ENDROOT
TORSDOF 0
ENDMDL
