MODEL 1
REMARK minimizedAffinity 6.25753021
REMARK minimizedRMSD -1
REMARK  0 active torsions:
REMARK  status: ('A' for Active; 'I' for Inactive)
ROOT
ATOM      1  C2' OXE d   1       1.789  -0.948   2.414  0.00  0.00     0.078 C 
ATOM      2  C1' OXE d   1       0.308   1.391   2.877  0.00  0.00     0.078 C 
ATOM      3  C1  OXE d   1       0.403   0.887   1.459  0.00  0.00    -0.078 A 
ATOM      4  C2  OXE d   1       1.169  -0.232   1.235  0.00  0.00    -0.078 A 
ATOM      5  C3  OXE d   1       1.245  -0.770  -0.047  0.00  0.00     0.003 A 
ATOM      6  C4  OXE d   1       0.676  -0.095  -1.134  0.00  0.00    -0.002 A 
ATOM      7  C5  OXE d   1      -0.074   1.069  -0.933  0.00  0.00    -0.002 A 
ATOM      8  C6  OXE d   1      -0.256   1.548   0.359  0.00  0.00     0.003 A 
ENDROOT
TORSDOF 0
ENDMDL
