MODEL 1
REMARK minimizedAffinity -2.32508969
REMARK minimizedRMSD -1
REMARK  0 active torsions:
REMARK  status: ('A' for Active; 'I' for Inactive)
ROOT
ATOM      1  C   UNL d   1       2.734  -1.250   1.671  0.00  0.00     0.077 C 
ATOM      2  C1  UNL d   1       1.707  -1.081   0.591  0.00  0.00    -0.074 A 
ATOM      3  C2  UNL d   1       1.740  -1.872  -0.563  0.00  0.00    -0.005 A 
ATOM      4  C3  UNL d   1       0.772  -1.710  -1.554  0.00  0.00     0.006 A 
ATOM      5  C4  UNL d   1      -0.236  -0.758  -1.403  0.00  0.00    -0.005 A 
ATOM      6  C5  UNL d   1      -0.286   0.042  -0.256  0.00  0.00    -0.074 A 
ATOM      7  C6  UNL d   1      -1.368   1.063  -0.074  0.00  0.00     0.077 C 
ATOM      8  C7  UNL d   1       0.686  -0.132   0.739  0.00  0.00    -0.001 A 
ENDROOT
TORSDOF 0
ENDMDL
