MODEL 1
REMARK minimizedAffinity -1.70680332
REMARK minimizedRMSD -1
REMARK  0 active torsions:
REMARK  status: ('A' for Active; 'I' for Inactive)
ROOT
ATOM      1  C   UNL d   1      -1.127  -1.240  -2.018  0.00  0.00     0.077 C 
ATOM      2  C1  UNL d   1       0.042  -1.290  -1.081  0.00  0.00    -0.074 A 
ATOM      3  C2  UNL d   1       1.009  -2.295  -1.190  0.00  0.00    -0.005 A 
ATOM      4  C3  UNL d   1       2.096  -2.323  -0.316  0.00  0.00     0.006 A 
ATOM      5  C4  UNL d   1       2.228  -1.348   0.673  0.00  0.00    -0.005 A 
ATOM      6  C5  UNL d   1       1.272  -0.335   0.797  0.00  0.00    -0.074 A 
ATOM      7  C6  UNL d   1       1.404   0.727   1.848  0.00  0.00     0.077 C 
ATOM      8  C7  UNL d   1       0.186  -0.309  -0.089  0.00  0.00    -0.001 A 
ENDROOT
TORSDOF 0
ENDMDL
