MODEL 1
REMARK minimizedAffinity -1.48493791
REMARK minimizedRMSD -1
REMARK  0 active torsions:
REMARK  status: ('A' for Active; 'I' for Inactive)
ROOT
ATOM      1  C   UNL d   1      -2.634   0.180  -0.101  0.00  0.00     0.077 C 
ATOM      2  C1  UNL d   1      -1.213   0.606   0.123  0.00  0.00    -0.074 A 
ATOM      3  C2  UNL d   1      -0.808   1.919  -0.137  0.00  0.00    -0.005 A 
ATOM      4  C3  UNL d   1       0.515   2.304   0.085  0.00  0.00     0.006 A 
ATOM      5  C4  UNL d   1       1.443   1.381   0.568  0.00  0.00    -0.005 A 
ATOM      6  C5  UNL d   1       1.056   0.064   0.834  0.00  0.00    -0.074 A 
ATOM      7  C6  UNL d   1       2.039  -0.938   1.363  0.00  0.00     0.077 C 
ATOM      8  C7  UNL d   1      -0.276  -0.313   0.615  0.00  0.00    -0.001 A 
ENDROOT
TORSDOF 0
ENDMDL
