MODEL 1
REMARK minimizedAffinity -3.08182001
REMARK minimizedRMSD -1
REMARK  0 active torsions:
REMARK  status: ('A' for Active; 'I' for Inactive)
ROOT
ATOM      1  C   UNL d   1       2.783  -1.765   0.918  0.00  0.00     0.077 C 
ATOM      2  C1  UNL d   1       1.589  -1.145   0.255  0.00  0.00    -0.074 A 
ATOM      3  C2  UNL d   1       0.457  -1.909  -0.047  0.00  0.00    -0.005 A 
ATOM      4  C3  UNL d   1      -0.649  -1.317  -0.656  0.00  0.00     0.006 A 
ATOM      5  C4  UNL d   1      -0.635   0.043  -0.968  0.00  0.00    -0.005 A 
ATOM      6  C5  UNL d   1       0.487   0.823  -0.673  0.00  0.00    -0.074 A 
ATOM      7  C6  UNL d   1       0.515   2.288  -0.993  0.00  0.00     0.077 C 
ATOM      8  C7  UNL d   1       1.592   0.222  -0.055  0.00  0.00    -0.001 A 
ENDROOT
TORSDOF 0
ENDMDL
