MODEL 1
REMARK minimizedAffinity -4.82533503
REMARK minimizedRMSD -1
REMARK  0 active torsions:
REMARK  status: ('A' for Active; 'I' for Inactive)
ROOT
ATOM      1  C   UNL d   1       0.597   2.685  -0.072  0.00  0.00     0.077 C 
ATOM      2  C1  UNL d   1       0.615   1.191  -0.206  0.00  0.00    -0.074 A 
ATOM      3  C2  UNL d   1      -0.533   0.490  -0.587  0.00  0.00    -0.005 A 
ATOM      4  C3  UNL d   1      -0.499  -0.898  -0.717  0.00  0.00     0.006 A 
ATOM      5  C4  UNL d   1       0.683  -1.598  -0.468  0.00  0.00    -0.005 A 
ATOM      6  C5  UNL d   1       1.841  -0.914  -0.087  0.00  0.00    -0.074 A 
ATOM      7  C6  UNL d   1       3.122  -1.650   0.175  0.00  0.00     0.077 C 
ATOM      8  C7  UNL d   1       1.800   0.482   0.035  0.00  0.00    -0.001 A 
ENDROOT
TORSDOF 0
ENDMDL
