MODEL 1
REMARK minimizedAffinity -3.85956216
REMARK minimizedRMSD -1
REMARK  0 active torsions:
REMARK  status: ('A' for Active; 'I' for Inactive)
ROOT
ATOM      1  C   UNL d   1       1.542   2.374   0.854  0.00  0.00     0.077 C 
ATOM      2  C1  UNL d   1       1.051   1.028   0.411  0.00  0.00    -0.074 A 
ATOM      3  C2  UNL d   1      -0.262   0.854  -0.038  0.00  0.00    -0.005 A 
ATOM      4  C3  UNL d   1      -0.702  -0.402  -0.455  0.00  0.00     0.006 A 
ATOM      5  C4  UNL d   1       0.165  -1.495  -0.429  0.00  0.00    -0.005 A 
ATOM      6  C5  UNL d   1       1.482  -1.340   0.015  0.00  0.00    -0.074 A 
ATOM      7  C6  UNL d   1       2.430  -2.502   0.041  0.00  0.00     0.077 C 
ATOM      8  C7  UNL d   1       1.918  -0.073   0.427  0.00  0.00    -0.001 A 
ENDROOT
TORSDOF 0
ENDMDL
