MODEL 1
REMARK minimizedAffinity -3.53039479
REMARK minimizedRMSD -1
REMARK  0 active torsions:
REMARK  status: ('A' for Active; 'I' for Inactive)
ROOT
ATOM      1  C   UNL d   1       1.718   1.520   1.219  0.00  0.00     0.077 C 
ATOM      2  C1  UNL d   1       0.626   0.709   0.587  0.00  0.00    -0.074 A 
ATOM      3  C2  UNL d   1       0.890  -0.554   0.047  0.00  0.00    -0.005 A 
ATOM      4  C3  UNL d   1      -0.138  -1.300  -0.530  0.00  0.00     0.006 A 
ATOM      5  C4  UNL d   1      -1.437  -0.793  -0.572  0.00  0.00    -0.005 A 
ATOM      6  C5  UNL d   1      -1.719   0.468  -0.037  0.00  0.00    -0.074 A 
ATOM      7  C6  UNL d   1      -3.112   1.024  -0.066  0.00  0.00     0.077 C 
ATOM      8  C7  UNL d   1      -0.683   1.209   0.547  0.00  0.00    -0.001 A 
ENDROOT
TORSDOF 0
ENDMDL
