MODEL 1
REMARK minimizedAffinity -5.62138128
REMARK minimizedRMSD -1
REMARK  0 active torsions:
REMARK  status: ('A' for Active; 'I' for Inactive)
ROOT
ATOM      1  C   UNL d   1      -1.752   0.662  -0.374  0.00  0.00     0.077 C 
ATOM      2  C1  UNL d   1      -0.293   0.826  -0.068  0.00  0.00    -0.074 A 
ATOM      3  C2  UNL d   1       0.305   2.091  -0.071  0.00  0.00    -0.005 A 
ATOM      4  C3  UNL d   1       1.661   2.228   0.224  0.00  0.00     0.006 A 
ATOM      5  C4  UNL d   1       2.432   1.105   0.525  0.00  0.00    -0.005 A 
ATOM      6  C5  UNL d   1       1.851  -0.167   0.535  0.00  0.00    -0.074 A 
ATOM      7  C6  UNL d   1       2.664  -1.384   0.866  0.00  0.00     0.077 C 
ATOM      8  C7  UNL d   1       0.486  -0.297   0.243  0.00  0.00    -0.001 A 
ENDROOT
TORSDOF 0
ENDMDL
