MODEL 1
REMARK minimizedAffinity -4.65254831
REMARK minimizedRMSD -1
REMARK  0 active torsions:
REMARK  status: ('A' for Active; 'I' for Inactive)
ROOT
ATOM      1  C   UNL d   1       2.990  -1.270   0.953  0.00  0.00     0.077 C 
ATOM      2  C1  UNL d   1       1.717  -1.229   0.161  0.00  0.00    -0.074 A 
ATOM      3  C2  UNL d   1       1.455  -2.183  -0.829  0.00  0.00    -0.005 A 
ATOM      4  C3  UNL d   1       0.263  -2.137  -1.551  0.00  0.00     0.006 A 
ATOM      5  C4  UNL d   1      -0.678  -1.140  -1.292  0.00  0.00    -0.005 A 
ATOM      6  C5  UNL d   1      -0.434  -0.179  -0.306  0.00  0.00    -0.074 A 
ATOM      7  C6  UNL d   1      -1.439   0.894  -0.008  0.00  0.00     0.077 C 
ATOM      8  C7  UNL d   1       0.763  -0.235   0.421  0.00  0.00    -0.001 A 
ENDROOT
TORSDOF 0
ENDMDL
