MODEL 1
REMARK minimizedAffinity -2.50323081
REMARK minimizedRMSD -1
REMARK  0 active torsions:
REMARK  status: ('A' for Active; 'I' for Inactive)
ROOT
ATOM      1  C   UNL d   1      -0.013   0.237   0.176  0.00  0.00     0.078 C 
ATOM      2  C1  UNL d   1       0.450   0.956  -1.055  0.00  0.00    -0.077 A 
ATOM      3  C2  UNL d   1      -0.287   0.900  -2.244  0.00  0.00    -0.001 A 
ATOM      4  C3  UNL d   1       0.162   1.567  -3.385  0.00  0.00     0.003 A 
ATOM      5  C4  UNL d   1       1.349   2.295  -3.349  0.00  0.00    -0.005 A 
ATOM      6  C5  UNL d   1       2.091   2.355  -2.170  0.00  0.00     0.003 A 
ATOM      7  C6  UNL d   1       1.644   1.689  -1.028  0.00  0.00    -0.001 A 
ENDROOT
TORSDOF 0
ENDMDL
