MODEL 1
REMARK minimizedAffinity -2.02436233
REMARK minimizedRMSD -1
REMARK  0 active torsions:
REMARK  status: ('A' for Active; 'I' for Inactive)
ROOT
ATOM      1  C   UNL d   1       0.252   1.038  -0.717  0.00  0.00     0.078 C 
ATOM      2  C1  UNL d   1       0.333  -0.137   0.211  0.00  0.00    -0.077 A 
ATOM      3  C2  UNL d   1       1.552  -0.522   0.783  0.00  0.00    -0.001 A 
ATOM      4  C3  UNL d   1       1.614  -1.624   1.638  0.00  0.00     0.003 A 
ATOM      5  C4  UNL d   1       0.461  -2.350   1.928  0.00  0.00    -0.005 A 
ATOM      6  C5  UNL d   1      -0.756  -1.976   1.362  0.00  0.00     0.003 A 
ATOM      7  C6  UNL d   1      -0.820  -0.874   0.507  0.00  0.00    -0.001 A 
ENDROOT
TORSDOF 0
ENDMDL
