MODEL 1
REMARK minimizedAffinity -3.48225904
REMARK minimizedRMSD -1
REMARK  0 active torsions:
REMARK  status: ('A' for Active; 'I' for Inactive)
ROOT
ATOM      1  C   UNL d   1      -2.772  -0.003   2.316  0.00  0.00     0.078 C 
ATOM      2  C1  UNL d   1      -1.582  -0.577   1.608  0.00  0.00    -0.077 A 
ATOM      3  C2  UNL d   1      -1.182  -1.901   1.828  0.00  0.00    -0.001 A 
ATOM      4  C3  UNL d   1      -0.066  -2.420   1.170  0.00  0.00     0.003 A 
ATOM      5  C4  UNL d   1       0.661  -1.621   0.288  0.00  0.00    -0.005 A 
ATOM      6  C5  UNL d   1       0.272  -0.302   0.065  0.00  0.00     0.003 A 
ATOM      7  C6  UNL d   1      -0.844   0.218   0.722  0.00  0.00    -0.001 A 
ENDROOT
TORSDOF 0
ENDMDL
