MODEL 1
REMARK minimizedAffinity -4.36873674
REMARK minimizedRMSD -1
REMARK  0 active torsions:
REMARK  status: ('A' for Active; 'I' for Inactive)
ROOT
ATOM      1  C   UNL d   1       0.585   1.088  -0.438  0.00  0.00     0.078 C 
ATOM      2  C1  UNL d   1       0.010  -0.091   0.289  0.00  0.00    -0.077 A 
ATOM      3  C2  UNL d   1      -1.132   0.041   1.089  0.00  0.00    -0.001 A 
ATOM      4  C3  UNL d   1      -1.651  -1.063   1.767  0.00  0.00     0.003 A 
ATOM      5  C4  UNL d   1      -1.034  -2.307   1.653  0.00  0.00    -0.005 A 
ATOM      6  C5  UNL d   1       0.104  -2.448   0.861  0.00  0.00     0.003 A 
ATOM      7  C6  UNL d   1       0.624  -1.345   0.182  0.00  0.00    -0.001 A 
ENDROOT
TORSDOF 0
ENDMDL
