MODEL 1
REMARK minimizedAffinity -4.24083424
REMARK minimizedRMSD -1
REMARK  0 active torsions:
REMARK  status: ('A' for Active; 'I' for Inactive)
ROOT
ATOM      1  C   UNL d   1      -2.340  -0.509   2.333  0.00  0.00     0.078 C 
ATOM      2  C1  UNL d   1      -1.172  -0.875   1.467  0.00  0.00    -0.077 A 
ATOM      3  C2  UNL d   1      -0.415   0.110   0.822  0.00  0.00    -0.001 A 
ATOM      4  C3  UNL d   1       0.663  -0.246   0.011  0.00  0.00     0.003 A 
ATOM      5  C4  UNL d   1       0.995  -1.588  -0.163  0.00  0.00    -0.005 A 
ATOM      6  C5  UNL d   1       0.246  -2.576   0.473  0.00  0.00     0.003 A 
ATOM      7  C6  UNL d   1      -0.833  -2.222   1.285  0.00  0.00    -0.001 A 
ENDROOT
TORSDOF 0
ENDMDL
