MODEL 1
REMARK minimizedAffinity -1.40508151
REMARK minimizedRMSD -1
REMARK  0 active torsions:
REMARK  status: ('A' for Active; 'I' for Inactive)
ROOT
ATOM      1  C   UNL d   1       0.367   1.413   0.479  0.00  0.00     0.078 C 
ATOM      2  C1  UNL d   1       0.749   1.717  -0.939  0.00  0.00    -0.077 A 
ATOM      3  C2  UNL d   1      -0.203   2.166  -1.862  0.00  0.00    -0.001 A 
ATOM      4  C3  UNL d   1       0.165   2.435  -3.181  0.00  0.00     0.003 A 
ATOM      5  C4  UNL d   1       1.486   2.259  -3.589  0.00  0.00    -0.005 A 
ATOM      6  C5  UNL d   1       2.440   1.811  -2.678  0.00  0.00     0.003 A 
ATOM      7  C6  UNL d   1       2.074   1.541  -1.359  0.00  0.00    -0.001 A 
ENDROOT
TORSDOF 0
ENDMDL
