MODEL 1
REMARK minimizedAffinity 2.64419365
REMARK minimizedRMSD -1
REMARK  0 active torsions:
REMARK  status: ('A' for Active; 'I' for Inactive)
ROOT
ATOM      1  C   UNL d   1       4.861   3.366   2.193  0.00  0.00     0.078 C 
ATOM      2  C1  UNL d   1       4.827   4.045   0.856  0.00  0.00    -0.077 A 
ATOM      3  C2  UNL d   1       4.431   5.383   0.737  0.00  0.00    -0.001 A 
ATOM      4  C3  UNL d   1       4.394   6.000  -0.514  0.00  0.00     0.003 A 
ATOM      5  C4  UNL d   1       4.751   5.286  -1.657  0.00  0.00    -0.005 A 
ATOM      6  C5  UNL d   1       5.144   3.954  -1.549  0.00  0.00     0.003 A 
ATOM      7  C6  UNL d   1       5.181   3.335  -0.298  0.00  0.00    -0.001 A 
ENDROOT
TORSDOF 0
ENDMDL
