MODEL 1
REMARK minimizedAffinity -2.30092025
REMARK minimizedRMSD -1
REMARK  0 active torsions:
REMARK  status: ('A' for Active; 'I' for Inactive)
ROOT
ATOM      1  C   UNL d   1      -0.014   0.393  -0.043  0.00  0.00     0.078 C 
ATOM      2  C1  UNL d   1       0.431   1.154  -1.256  0.00  0.00    -0.077 A 
ATOM      3  C2  UNL d   1      -0.316   1.124  -2.440  0.00  0.00    -0.001 A 
ATOM      4  C3  UNL d   1       0.116   1.829  -3.565  0.00  0.00     0.003 A 
ATOM      5  C4  UNL d   1       1.296   2.568  -3.517  0.00  0.00    -0.005 A 
ATOM      6  C5  UNL d   1       2.047   2.602  -2.343  0.00  0.00     0.003 A 
ATOM      7  C6  UNL d   1       1.617   1.898  -1.218  0.00  0.00    -0.001 A 
ENDROOT
TORSDOF 0
ENDMDL
