MODEL 1
REMARK minimizedAffinity -3.12709761
REMARK minimizedRMSD -1
REMARK  0 active torsions:
REMARK  status: ('A' for Active; 'I' for Inactive)
ROOT
ATOM      1  C   UNL d   1      -2.376   1.156   0.769  0.00  0.00     0.078 C 
ATOM      2  C1  UNL d   1      -1.053   0.472   0.597  0.00  0.00    -0.077 A 
ATOM      3  C2  UNL d   1      -0.921  -0.906   0.806  0.00  0.00    -0.001 A 
ATOM      4  C3  UNL d   1       0.319  -1.528   0.652  0.00  0.00     0.003 A 
ATOM      5  C4  UNL d   1       1.437  -0.780   0.291  0.00  0.00    -0.005 A 
ATOM      6  C5  UNL d   1       1.317   0.593   0.083  0.00  0.00     0.003 A 
ATOM      7  C6  UNL d   1       0.077   1.216   0.236  0.00  0.00    -0.001 A 
ENDROOT
TORSDOF 0
ENDMDL
