MODEL 1
REMARK minimizedAffinity -3.94776583
REMARK minimizedRMSD -1
REMARK  0 active torsions:
REMARK  status: ('A' for Active; 'I' for Inactive)
ROOT
ATOM      1  C   UNL d   1       0.453   1.002  -0.472  0.00  0.00     0.078 C 
ATOM      2  C1  UNL d   1      -0.286   0.067   0.437  0.00  0.00    -0.077 A 
ATOM      3  C2  UNL d   1      -1.431   0.486   1.126  0.00  0.00    -0.001 A 
ATOM      4  C3  UNL d   1      -2.104  -0.392   1.977  0.00  0.00     0.003 A 
ATOM      5  C4  UNL d   1      -1.639  -1.694   2.149  0.00  0.00    -0.005 A 
ATOM      6  C5  UNL d   1      -0.500  -2.120   1.469  0.00  0.00     0.003 A 
ATOM      7  C6  UNL d   1       0.174  -1.243   0.618  0.00  0.00    -0.001 A 
ENDROOT
TORSDOF 0
ENDMDL
