MODEL 1
REMARK minimizedAffinity -2.19987035
REMARK minimizedRMSD -1
REMARK  0 active torsions:
REMARK  status: ('A' for Active; 'I' for Inactive)
ROOT
ATOM      1  C   UNL d   1       0.373   0.849  -0.078  0.00  0.00     0.078 C 
ATOM      2  C1  UNL d   1       0.848   1.472  -1.357  0.00  0.00    -0.077 A 
ATOM      3  C2  UNL d   1       0.016   1.532  -2.482  0.00  0.00    -0.001 A 
ATOM      4  C3  UNL d   1       0.474   2.105  -3.669  0.00  0.00     0.003 A 
ATOM      5  C4  UNL d   1       1.767   2.621  -3.744  0.00  0.00    -0.005 A 
ATOM      6  C5  UNL d   1       2.602   2.564  -2.630  0.00  0.00     0.003 A 
ATOM      7  C6  UNL d   1       2.146   1.991  -1.442  0.00  0.00    -0.001 A 
ENDROOT
TORSDOF 0
ENDMDL
