MODEL 1
REMARK minimizedAffinity -0.520056665
REMARK minimizedRMSD -1
REMARK  0 active torsions:
REMARK  status: ('A' for Active; 'I' for Inactive)
ROOT
ATOM      1  C   UNL d   1      -1.147  -5.258  -5.855  0.00  0.00     0.078 C 
ATOM      2  C1  UNL d   1      -2.012  -4.194  -5.247  0.00  0.00    -0.077 A 
ATOM      3  C2  UNL d   1      -1.816  -3.774  -3.926  0.00  0.00    -0.001 A 
ATOM      4  C3  UNL d   1      -2.635  -2.790  -3.369  0.00  0.00     0.003 A 
ATOM      5  C4  UNL d   1      -3.656  -2.219  -4.127  0.00  0.00    -0.005 A 
ATOM      6  C5  UNL d   1      -3.860  -2.633  -5.442  0.00  0.00     0.003 A 
ATOM      7  C6  UNL d   1      -3.042  -3.617  -5.999  0.00  0.00    -0.001 A 
ENDROOT
TORSDOF 0
ENDMDL
