MODEL 1
REMARK minimizedAffinity -1.79270422
REMARK minimizedRMSD -1
REMARK  0 active torsions:
REMARK  status: ('A' for Active; 'I' for Inactive)
ROOT
ATOM      1  C   UNL d   1      -1.299  -2.277   1.835  0.00  0.00     0.078 C 
ATOM      2  C1  UNL d   1      -0.722  -0.998   1.306  0.00  0.00    -0.077 A 
ATOM      3  C2  UNL d   1       0.483  -0.991   0.593  0.00  0.00    -0.001 A 
ATOM      4  C3  UNL d   1       1.014   0.208   0.115  0.00  0.00     0.003 A 
ATOM      5  C4  UNL d   1       0.346   1.409   0.345  0.00  0.00    -0.005 A 
ATOM      6  C5  UNL d   1      -0.853   1.413   1.055  0.00  0.00     0.003 A 
ATOM      7  C6  UNL d   1      -1.385   0.215   1.534  0.00  0.00    -0.001 A 
ENDROOT
TORSDOF 0
ENDMDL
