MODEL 1
REMARK minimizedAffinity -2.86470509
REMARK minimizedRMSD -1
REMARK  0 active torsions:
REMARK  status: ('A' for Active; 'I' for Inactive)
ROOT
ATOM      1  C   UNL d   1       1.083   1.440  -0.708  0.00  0.00     0.078 C 
ATOM      2  C1  UNL d   1       0.654   0.168  -0.039  0.00  0.00    -0.077 A 
ATOM      3  C2  UNL d   1       1.332  -1.034  -0.272  0.00  0.00    -0.001 A 
ATOM      4  C3  UNL d   1       0.916  -2.212   0.350  0.00  0.00     0.003 A 
ATOM      5  C4  UNL d   1      -0.182  -2.200   1.208  0.00  0.00    -0.005 A 
ATOM      6  C5  UNL d   1      -0.865  -1.008   1.445  0.00  0.00     0.003 A 
ATOM      7  C6  UNL d   1      -0.450   0.171   0.824  0.00  0.00    -0.001 A 
ENDROOT
TORSDOF 0
ENDMDL
