MODEL 1
REMARK minimizedAffinity 1.5366137
REMARK minimizedRMSD -1
REMARK  3 active torsions:
REMARK  status: ('A' for Active; 'I' for Inactive)
REMARK    1  A    between atoms: C3'_2  and  C2'_3 
REMARK    2  A    between atoms: C2'_3  and  C1'_4 
REMARK    3  A    between atoms: C1'_4  and  C1_5 
ROOT
ATOM      1  C1  N4B d   1       0.501   0.966   1.898  0.00  0.00    -0.075 A 
ATOM      2  C2  N4B d   1       0.992   2.005   1.077  0.00  0.00     0.002 A 
ATOM      3  C3  N4B d   1       2.158   1.830   0.372  0.00  0.00     0.002 A 
ATOM      4  C4  N4B d   1       2.858   0.639   0.489  0.00  0.00    -0.004 A 
ATOM      5  C5  N4B d   1       2.364  -0.369   1.265  0.00  0.00     0.002 A 
ATOM      6  C6  N4B d   1       1.191  -0.209   1.975  0.00  0.00     0.002 A 
ENDROOT
BRANCH   1   7
ATOM      7  C1' N4B d   1      -0.724   1.142   2.754  0.00  0.00     0.057 C 
BRANCH   7   8
ATOM      8  C2' N4B d   1      -1.670  -0.033   2.521  0.00  0.00     0.009 C 
BRANCH   8   9
ATOM      9  C3' N4B d   1      -2.458   0.120   1.232  0.00  0.00     0.004 C 
ATOM     10  C4' N4B d   1      -1.888  -0.687   0.103  0.00  0.00     0.003 C 
ENDBRANCH   8   9
ENDBRANCH   7   8
ENDBRANCH   1   7
TORSDOF 3
ENDMDL
