MODEL 1
REMARK minimizedAffinity -3.32931519
REMARK minimizedRMSD -1
REMARK  3 active torsions:
REMARK  status: ('A' for Active; 'I' for Inactive)
REMARK    1  A    between atoms: C3'_2  and  C2'_3 
REMARK    2  A    between atoms: C2'_3  and  C1'_4 
REMARK    3  A    between atoms: C1'_4  and  C1_5 
ROOT
ATOM      1  C1  N4B d   1       0.819   1.349   1.174  0.00  0.00    -0.075 A 
ATOM      2  C2  N4B d   1       0.129   0.267   0.584  0.00  0.00     0.002 A 
ATOM      3  C3  N4B d   1      -1.006  -0.229   1.177  0.00  0.00     0.002 A 
ATOM      4  C4  N4B d   1      -1.458   0.326   2.365  0.00  0.00    -0.004 A 
ATOM      5  C5  N4B d   1      -0.800   1.387   2.915  0.00  0.00     0.002 A 
ATOM      6  C6  N4B d   1       0.340   1.898   2.328  0.00  0.00     0.002 A 
ENDROOT
BRANCH   1   7
ATOM      7  C1' N4B d   1       2.112   1.869   0.609  0.00  0.00     0.057 C 
BRANCH   7   8
ATOM      8  C2' N4B d   1       2.439   1.110  -0.674  0.00  0.00     0.009 C 
BRANCH   8   9
ATOM      9  C3' N4B d   1       2.246   1.973  -1.909  0.00  0.00     0.004 C 
ATOM     10  C4' N4B d   1       1.086   1.531  -2.751  0.00  0.00     0.003 C 
ENDBRANCH   8   9
ENDBRANCH   7   8
ENDBRANCH   1   7
TORSDOF 3
ENDMDL
