MODEL 1
REMARK minimizedAffinity 1.99659324
REMARK minimizedRMSD -1
REMARK  0 active torsions:
REMARK  status: ('A' for Active; 'I' for Inactive)
ROOT
ATOM      1  C   UNL d   1      -1.655   0.889   1.457  0.00  0.00     0.124 A 
ATOM      2  C1  UNL d   1      -2.210   1.078   0.199  0.00  0.00     0.062 A 
ATOM      3  C2  UNL d   1      -1.430   0.916  -0.942  0.00  0.00     0.162 A 
ATOM      4  C3  UNL d   1      -0.085   0.562  -0.831  0.00  0.00    -0.034 A 
ATOM      5  C4  UNL d   1       0.467   0.375   0.438  0.00  0.00     0.162 A 
ATOM      6  C5  UNL d   1      -0.318   0.538   1.575  0.00  0.00     0.062 A 
ATOM      7  F   UNL d   1       0.220   0.356   2.790  0.00  0.00    -0.097 F 
ATOM      8  F1  UNL d   1       1.756   0.034   0.582  0.00  0.00    -0.096 F 
ATOM      9  I   UNL d   1       1.085   0.318  -2.534  0.00  0.00    -0.060 I 
ATOM     10  F2  UNL d   1      -1.992   1.104  -2.145  0.00  0.00    -0.096 F 
ATOM     11  F3  UNL d   1      -3.502   1.418   0.081  0.00  0.00    -0.097 F 
ATOM     12  F4  UNL d   1      -2.408   1.047   2.553  0.00  0.00    -0.092 F 
ENDROOT
TORSDOF 0
ENDMDL
