MODEL 1
REMARK minimizedAffinity 0.712329268
REMARK minimizedRMSD -1
REMARK  0 active torsions:
REMARK  status: ('A' for Active; 'I' for Inactive)
ROOT
ATOM      1  C   UNL d   1      -1.250   0.373   1.752  0.00  0.00     0.124 A 
ATOM      2  C1  UNL d   1      -1.885   0.647   0.548  0.00  0.00     0.062 A 
ATOM      3  C2  UNL d   1      -1.172   0.599  -0.646  0.00  0.00     0.162 A 
ATOM      4  C3  UNL d   1       0.184   0.274  -0.644  0.00  0.00    -0.034 A 
ATOM      5  C4  UNL d   1       0.816  -0.000   0.570  0.00  0.00     0.162 A 
ATOM      6  C5  UNL d   1       0.100   0.049   1.762  0.00  0.00     0.062 A 
ATOM      7  F   UNL d   1       0.715  -0.216   2.923  0.00  0.00    -0.097 F 
ATOM      8  F1  UNL d   1       2.119  -0.316   0.609  0.00  0.00    -0.096 F 
ATOM      9  I   UNL d   1       1.253   0.201  -2.428  0.00  0.00    -0.060 I 
ATOM     10  F2  UNL d   1      -1.812   0.869  -1.794  0.00  0.00    -0.096 F 
ATOM     11  F3  UNL d   1      -3.189   0.961   0.536  0.00  0.00    -0.097 F 
ATOM     12  F4  UNL d   1      -1.938   0.421   2.900  0.00  0.00    -0.092 F 
ENDROOT
TORSDOF 0
ENDMDL
