MODEL 1
REMARK minimizedAffinity -0.966874838
REMARK minimizedRMSD -1
REMARK  0 active torsions:
REMARK  status: ('A' for Active; 'I' for Inactive)
ROOT
ATOM      1  C   UNL d   1      -1.318   0.583   2.241  0.00  0.00     0.124 A 
ATOM      2  C1  UNL d   1      -2.083   0.579   1.083  0.00  0.00     0.062 A 
ATOM      3  C2  UNL d   1      -1.472   0.434  -0.159  0.00  0.00     0.162 A 
ATOM      4  C3  UNL d   1      -0.087   0.290  -0.250  0.00  0.00    -0.034 A 
ATOM      5  C4  UNL d   1       0.675   0.296   0.920  0.00  0.00     0.162 A 
ATOM      6  C5  UNL d   1       0.060   0.442   2.159  0.00  0.00     0.062 A 
ATOM      7  F   UNL d   1       0.800   0.445   3.277  0.00  0.00    -0.097 F 
ATOM      8  F1  UNL d   1       2.009   0.160   0.869  0.00  0.00    -0.096 F 
ATOM      9  I   UNL d   1       0.830   0.072  -2.105  0.00  0.00    -0.060 I 
ATOM     10  F2  UNL d   1      -2.236   0.433  -1.262  0.00  0.00    -0.096 F 
ATOM     11  F3  UNL d   1      -3.415   0.717   1.160  0.00  0.00    -0.097 F 
ATOM     12  F4  UNL d   1      -1.909   0.724   3.435  0.00  0.00    -0.092 F 
ENDROOT
TORSDOF 0
ENDMDL
