MODEL 1
REMARK minimizedAffinity -0.764881611
REMARK minimizedRMSD -1
REMARK  0 active torsions:
REMARK  status: ('A' for Active; 'I' for Inactive)
ROOT
ATOM      1  C   UNL d   1      -1.288   0.895   2.462  0.00  0.00     0.124 A 
ATOM      2  C1  UNL d   1      -2.189   0.826   1.408  0.00  0.00     0.062 A 
ATOM      3  C2  UNL d   1      -1.733   0.616   0.110  0.00  0.00     0.162 A 
ATOM      4  C3  UNL d   1      -0.368   0.473  -0.142  0.00  0.00    -0.034 A 
ATOM      5  C4  UNL d   1       0.532   0.545   0.923  0.00  0.00     0.162 A 
ATOM      6  C5  UNL d   1       0.071   0.755   2.219  0.00  0.00     0.062 A 
ATOM      7  F   UNL d   1       0.942   0.822   3.235  0.00  0.00    -0.097 F 
ATOM      8  F1  UNL d   1       1.850   0.412   0.716  0.00  0.00    -0.096 F 
ATOM      9  I   UNL d   1       0.318   0.159  -2.081  0.00  0.00    -0.060 I 
ATOM     10  F2  UNL d   1      -2.625   0.553  -0.889  0.00  0.00    -0.096 F 
ATOM     11  F3  UNL d   1      -3.502   0.962   1.640  0.00  0.00    -0.097 F 
ATOM     12  F4  UNL d   1      -1.730   1.098   3.710  0.00  0.00    -0.092 F 
ENDROOT
TORSDOF 0
ENDMDL
