MODEL 1
REMARK minimizedAffinity -1.14816916
REMARK minimizedRMSD -1
REMARK  0 active torsions:
REMARK  status: ('A' for Active; 'I' for Inactive)
ROOT
ATOM      1  C   UNL d   1      -1.256   0.490   2.355  0.00  0.00     0.124 A 
ATOM      2  C1  UNL d   1       0.087   0.205   2.154  0.00  0.00     0.062 A 
ATOM      3  C2  UNL d   1       0.613   0.183   0.865  0.00  0.00     0.162 A 
ATOM      4  C3  UNL d   1      -0.205   0.448  -0.233  0.00  0.00    -0.034 A 
ATOM      5  C4  UNL d   1      -1.556   0.732  -0.023  0.00  0.00     0.162 A 
ATOM      6  C5  UNL d   1      -2.076   0.753   1.267  0.00  0.00     0.062 A 
ATOM      7  F   UNL d   1      -3.375   1.028   1.459  0.00  0.00    -0.097 F 
ATOM      8  F1  UNL d   1      -2.370   0.991  -1.056  0.00  0.00    -0.096 F 
ATOM      9  I   UNL d   1       0.577   0.416  -2.161  0.00  0.00    -0.060 I 
ATOM     10  F2  UNL d   1       1.915  -0.094   0.701  0.00  0.00    -0.096 F 
ATOM     11  F3  UNL d   1       0.881  -0.050   3.204  0.00  0.00    -0.097 F 
ATOM     12  F4  UNL d   1      -1.760   0.509   3.596  0.00  0.00    -0.092 F 
ENDROOT
TORSDOF 0
ENDMDL
