MODEL 1
REMARK minimizedAffinity 0.769894302
REMARK minimizedRMSD -1
REMARK  0 active torsions:
REMARK  status: ('A' for Active; 'I' for Inactive)
ROOT
ATOM      1  C   UNL d   1      -0.906   0.637   1.580  0.00  0.00     0.124 A 
ATOM      2  C1  UNL d   1       0.408   0.199   1.496  0.00  0.00     0.062 A 
ATOM      3  C2  UNL d   1       0.978  -0.071   0.255  0.00  0.00     0.162 A 
ATOM      4  C3  UNL d   1       0.234   0.097  -0.912  0.00  0.00    -0.034 A 
ATOM      5  C4  UNL d   1      -1.088   0.537  -0.820  0.00  0.00     0.162 A 
ATOM      6  C5  UNL d   1      -1.653   0.806   0.423  0.00  0.00     0.062 A 
ATOM      7  F   UNL d   1      -2.923   1.229   0.502  0.00  0.00    -0.097 F 
ATOM      8  F1  UNL d   1      -1.832   0.710  -1.922  0.00  0.00    -0.096 F 
ATOM      9  I   UNL d   1       1.082  -0.305  -2.770  0.00  0.00    -0.060 I 
ATOM     10  F2  UNL d   1       2.250  -0.493   0.204  0.00  0.00    -0.096 F 
ATOM     11  F3  UNL d   1       1.131   0.034   2.613  0.00  0.00    -0.097 F 
ATOM     12  F4  UNL d   1      -1.452   0.895   2.776  0.00  0.00    -0.092 F 
ENDROOT
TORSDOF 0
ENDMDL
