MODEL 1
REMARK minimizedAffinity -1.96100175
REMARK minimizedRMSD -1
REMARK  0 active torsions:
REMARK  status: ('A' for Active; 'I' for Inactive)
ROOT
ATOM      1  C   UNL d   1      -1.165   0.711   2.093  0.00  0.00     0.124 A 
ATOM      2  C1  UNL d   1      -1.987   0.682   0.975  0.00  0.00     0.062 A 
ATOM      3  C2  UNL d   1      -1.447   0.437  -0.285  0.00  0.00     0.162 A 
ATOM      4  C3  UNL d   1      -0.077   0.218  -0.433  0.00  0.00    -0.034 A 
ATOM      5  C4  UNL d   1       0.743   0.250   0.696  0.00  0.00     0.162 A 
ATOM      6  C5  UNL d   1       0.199   0.495   1.953  0.00  0.00     0.062 A 
ATOM      7  F   UNL d   1       0.995   0.523   3.032  0.00  0.00    -0.097 F 
ATOM      8  F1  UNL d   1       2.064   0.044   0.590  0.00  0.00    -0.096 F 
ATOM      9  I   UNL d   1       0.734  -0.148  -2.314  0.00  0.00    -0.060 I 
ATOM     10  F2  UNL d   1      -2.265   0.414  -1.347  0.00  0.00    -0.096 F 
ATOM     11  F3  UNL d   1      -3.304   0.891   1.107  0.00  0.00    -0.097 F 
ATOM     12  F4  UNL d   1      -1.687   0.948   3.303  0.00  0.00    -0.092 F 
ENDROOT
TORSDOF 0
ENDMDL
