MODEL 1
REMARK minimizedAffinity 3.37189531
REMARK minimizedRMSD -1
REMARK  0 active torsions:
REMARK  status: ('A' for Active; 'I' for Inactive)
ROOT
ATOM      1  C   UNL d   1      -0.924   0.358   2.195  0.00  0.00     0.124 A 
ATOM      2  C1  UNL d   1      -1.720   0.268   1.061  0.00  0.00     0.062 A 
ATOM      3  C2  UNL d   1      -1.136   0.115  -0.193  0.00  0.00     0.162 A 
ATOM      4  C3  UNL d   1       0.252   0.051  -0.320  0.00  0.00    -0.034 A 
ATOM      5  C4  UNL d   1       1.045   0.144   0.824  0.00  0.00     0.162 A 
ATOM      6  C5  UNL d   1       0.457   0.296   2.076  0.00  0.00     0.062 A 
ATOM      7  F   UNL d   1       1.227   0.384   3.170  0.00  0.00    -0.097 F 
ATOM      8  F1  UNL d   1       2.382   0.086   0.738  0.00  0.00    -0.096 F 
ATOM      9  I   UNL d   1       1.128  -0.178  -2.194  0.00  0.00    -0.060 I 
ATOM     10  F2  UNL d   1      -1.929   0.030  -1.272  0.00  0.00    -0.096 F 
ATOM     11  F3  UNL d   1      -3.055   0.328   1.174  0.00  0.00    -0.097 F 
ATOM     12  F4  UNL d   1      -1.489   0.506   3.400  0.00  0.00    -0.092 F 
ENDROOT
TORSDOF 0
ENDMDL
