MODEL 1
REMARK minimizedAffinity -2.15619493
REMARK minimizedRMSD -1
REMARK  0 active torsions:
REMARK  status: ('A' for Active; 'I' for Inactive)
ROOT
ATOM      1  C   UNL d   1      -1.416   0.546   1.947  0.00  0.00     0.124 A 
ATOM      2  C1  UNL d   1      -2.042   0.763   0.727  0.00  0.00     0.062 A 
ATOM      3  C2  UNL d   1      -1.314   0.689  -0.457  0.00  0.00     0.162 A 
ATOM      4  C3  UNL d   1       0.049   0.396  -0.427  0.00  0.00    -0.034 A 
ATOM      5  C4  UNL d   1       0.673   0.180   0.803  0.00  0.00     0.162 A 
ATOM      6  C5  UNL d   1      -0.060   0.255   1.984  0.00  0.00     0.062 A 
ATOM      7  F   UNL d   1       0.547   0.045   3.161  0.00  0.00    -0.097 F 
ATOM      8  F1  UNL d   1       1.982  -0.105   0.868  0.00  0.00    -0.096 F 
ATOM      9  I   UNL d   1       1.142   0.284  -2.195  0.00  0.00    -0.060 I 
ATOM     10  F2  UNL d   1      -1.945   0.903  -1.621  0.00  0.00    -0.096 F 
ATOM     11  F3  UNL d   1      -3.352   1.046   0.689  0.00  0.00    -0.097 F 
ATOM     12  F4  UNL d   1      -2.119   0.619   3.084  0.00  0.00    -0.092 F 
ENDROOT
TORSDOF 0
ENDMDL
