MODEL 1
REMARK minimizedAffinity -2.86104155
REMARK minimizedRMSD -1
REMARK  0 active torsions:
REMARK  status: ('A' for Active; 'I' for Inactive)
ROOT
ATOM      1  C   UNL d   1      -1.347   0.398   2.336  0.00  0.00     0.124 A 
ATOM      2  C1  UNL d   1       0.016   0.146   2.270  0.00  0.00     0.062 A 
ATOM      3  C2  UNL d   1       0.652   0.059   1.035  0.00  0.00     0.162 A 
ATOM      4  C3  UNL d   1      -0.073   0.226  -0.144  0.00  0.00    -0.034 A 
ATOM      5  C4  UNL d   1      -1.444   0.479  -0.069  0.00  0.00     0.162 A 
ATOM      6  C5  UNL d   1      -2.076   0.565   1.167  0.00  0.00     0.062 A 
ATOM      7  F   UNL d   1      -3.393   0.809   1.229  0.00  0.00    -0.097 F 
ATOM      8  F1  UNL d   1      -2.172   0.645  -1.184  0.00  0.00    -0.096 F 
ATOM      9  I   UNL d   1       0.875   0.097  -1.992  0.00  0.00    -0.060 I 
ATOM     10  F2  UNL d   1       1.971  -0.186   1.001  0.00  0.00    -0.096 F 
ATOM     11  F3  UNL d   1       0.722  -0.016   3.398  0.00  0.00    -0.097 F 
ATOM     12  F4  UNL d   1      -1.958   0.480   3.526  0.00  0.00    -0.092 F 
ENDROOT
TORSDOF 0
ENDMDL
