MODEL 1
REMARK minimizedAffinity 2.56583261
REMARK minimizedRMSD -1
REMARK  0 active torsions:
REMARK  status: ('A' for Active; 'I' for Inactive)
ROOT
ATOM      1  C   UNL d   1       1.563  -1.422  -3.458  0.00  0.00     0.124 A 
ATOM      2  C1  UNL d   1       1.731  -0.110  -3.037  0.00  0.00     0.062 A 
ATOM      3  C2  UNL d   1       1.160   0.321  -1.843  0.00  0.00     0.162 A 
ATOM      4  C3  UNL d   1       0.417  -0.562  -1.060  0.00  0.00    -0.034 A 
ATOM      5  C4  UNL d   1       0.251  -1.880  -1.490  0.00  0.00     0.162 A 
ATOM      6  C5  UNL d   1       0.824  -2.306  -2.684  0.00  0.00     0.062 A 
ATOM      7  F   UNL d   1       0.661  -3.574  -3.089  0.00  0.00    -0.097 F 
ATOM      8  F1  UNL d   1      -0.458  -2.755  -0.761  0.00  0.00    -0.096 F 
ATOM      9  I   UNL d   1      -0.439   0.078   0.726  0.00  0.00    -0.060 I 
ATOM     10  F2  UNL d   1       1.339   1.594  -1.461  0.00  0.00    -0.096 F 
ATOM     11  F3  UNL d   1       2.445   0.745  -3.783  0.00  0.00    -0.097 F 
ATOM     12  F4  UNL d   1       2.113  -1.834  -4.607  0.00  0.00    -0.092 F 
ENDROOT
TORSDOF 0
ENDMDL
