MODEL 1
REMARK minimizedAffinity 1.28583932
REMARK minimizedRMSD -1
REMARK  0 active torsions:
REMARK  status: ('A' for Active; 'I' for Inactive)
ROOT
ATOM      1  C   UNL d   1      -0.857   0.552   2.115  0.00  0.00     0.124 A 
ATOM      2  C1  UNL d   1      -1.757   0.722   1.072  0.00  0.00     0.062 A 
ATOM      3  C2  UNL d   1      -1.332   0.593  -0.247  0.00  0.00     0.162 A 
ATOM      4  C3  UNL d   1       0.000   0.292  -0.531  0.00  0.00    -0.034 A 
ATOM      5  C4  UNL d   1       0.900   0.123   0.523  0.00  0.00     0.162 A 
ATOM      6  C5  UNL d   1       0.470   0.253   1.840  0.00  0.00     0.062 A 
ATOM      7  F   UNL d   1       1.341   0.088   2.846  0.00  0.00    -0.097 F 
ATOM      8  F1  UNL d   1       2.188  -0.167   0.286  0.00  0.00    -0.096 F 
ATOM      9  I   UNL d   1       0.640   0.100  -2.502  0.00  0.00    -0.060 I 
ATOM     10  F2  UNL d   1      -2.223   0.763  -1.235  0.00  0.00    -0.096 F 
ATOM     11  F3  UNL d   1      -3.039   1.012   1.335  0.00  0.00    -0.097 F 
ATOM     12  F4  UNL d   1      -1.268   0.677   3.383  0.00  0.00    -0.092 F 
ENDROOT
TORSDOF 0
ENDMDL
