MODEL 1
REMARK minimizedAffinity -2.36350489
REMARK minimizedRMSD -1
REMARK  0 active torsions:
REMARK  status: ('A' for Active; 'I' for Inactive)
ROOT
ATOM      1  C   UNL d   1      -1.090   0.261   1.973  0.00  0.00     0.124 A 
ATOM      2  C1  UNL d   1       0.278   0.034   1.926  0.00  0.00     0.062 A 
ATOM      3  C2  UNL d   1       0.947   0.036   0.706  0.00  0.00     0.162 A 
ATOM      4  C3  UNL d   1       0.248   0.268  -0.479  0.00  0.00    -0.034 A 
ATOM      5  C4  UNL d   1      -1.128   0.495  -0.424  0.00  0.00     0.162 A 
ATOM      6  C5  UNL d   1      -1.792   0.492   0.798  0.00  0.00     0.062 A 
ATOM      7  F   UNL d   1      -3.114   0.711   0.841  0.00  0.00    -0.097 F 
ATOM      8  F1  UNL d   1      -1.831   0.722  -1.544  0.00  0.00    -0.096 F 
ATOM      9  I   UNL d   1       1.245   0.273  -2.306  0.00  0.00    -0.060 I 
ATOM     10  F2  UNL d   1       2.270  -0.186   0.690  0.00  0.00    -0.096 F 
ATOM     11  F3  UNL d   1       0.959  -0.190   3.060  0.00  0.00    -0.097 F 
ATOM     12  F4  UNL d   1      -1.731   0.257   3.149  0.00  0.00    -0.092 F 
ENDROOT
TORSDOF 0
ENDMDL
