MODEL 1
REMARK minimizedAffinity -1.42709529
REMARK minimizedRMSD -1
REMARK  0 active torsions:
REMARK  status: ('A' for Active; 'I' for Inactive)
ROOT
ATOM      1  C   UNL d   1      -1.540   0.706   2.194  0.00  0.00     0.124 A 
ATOM      2  C1  UNL d   1      -0.176   0.458   2.139  0.00  0.00     0.062 A 
ATOM      3  C2  UNL d   1       0.442   0.210   0.917  0.00  0.00     0.162 A 
ATOM      4  C3  UNL d   1      -0.304   0.210  -0.262  0.00  0.00    -0.034 A 
ATOM      5  C4  UNL d   1      -1.676   0.459  -0.199  0.00  0.00     0.162 A 
ATOM      6  C5  UNL d   1      -2.289   0.707   1.025  0.00  0.00     0.062 A 
ATOM      7  F   UNL d   1      -3.607   0.946   1.076  0.00  0.00    -0.097 F 
ATOM      8  F1  UNL d   1      -2.423   0.467  -1.313  0.00  0.00    -0.096 F 
ATOM      9  I   UNL d   1       0.617  -0.160  -2.091  0.00  0.00    -0.060 I 
ATOM     10  F2  UNL d   1       1.763  -0.027   0.894  0.00  0.00    -0.096 F 
ATOM     11  F3  UNL d   1       0.550   0.456   3.267  0.00  0.00    -0.097 F 
ATOM     12  F4  UNL d   1      -2.132   0.943   3.371  0.00  0.00    -0.092 F 
ENDROOT
TORSDOF 0
ENDMDL
