MODEL 1
REMARK minimizedAffinity 0.379629344
REMARK minimizedRMSD -1
REMARK  0 active torsions:
REMARK  status: ('A' for Active; 'I' for Inactive)
ROOT
ATOM      1  C   UNL d   1      -1.017   0.283   1.699  0.00  0.00     0.124 A 
ATOM      2  C1  UNL d   1       0.360   0.113   1.759  0.00  0.00     0.062 A 
ATOM      3  C2  UNL d   1       1.089  -0.108   0.594  0.00  0.00     0.162 A 
ATOM      4  C3  UNL d   1       0.443  -0.159  -0.642  0.00  0.00    -0.034 A 
ATOM      5  C4  UNL d   1      -0.942   0.012  -0.694  0.00  0.00     0.162 A 
ATOM      6  C5  UNL d   1      -1.666   0.232   0.473  0.00  0.00     0.062 A 
ATOM      7  F   UNL d   1      -2.995   0.396   0.414  0.00  0.00    -0.097 F 
ATOM      8  F1  UNL d   1      -1.594  -0.032  -1.865  0.00  0.00    -0.096 F 
ATOM      9  I   UNL d   1       1.530  -0.489  -2.386  0.00  0.00    -0.060 I 
ATOM     10  F2  UNL d   1       2.417  -0.268   0.681  0.00  0.00    -0.096 F 
ATOM     11  F3  UNL d   1       0.989   0.161   2.942  0.00  0.00    -0.097 F 
ATOM     12  F4  UNL d   1      -1.716   0.494   2.821  0.00  0.00    -0.092 F 
ENDROOT
TORSDOF 0
ENDMDL
