MODEL 1
REMARK minimizedAffinity 1.2732563
REMARK minimizedRMSD -1
REMARK  0 active torsions:
REMARK  status: ('A' for Active; 'I' for Inactive)
ROOT
ATOM      1  C   UNL d   1       0.965  -0.937  -3.133  0.00  0.00     0.124 A 
ATOM      2  C1  UNL d   1       0.236  -1.880  -2.421  0.00  0.00     0.062 A 
ATOM      3  C2  UNL d   1      -0.076  -1.660  -1.083  0.00  0.00     0.162 A 
ATOM      4  C3  UNL d   1       0.341  -0.490  -0.446  0.00  0.00    -0.034 A 
ATOM      5  C4  UNL d   1       1.074   0.453  -1.168  0.00  0.00     0.162 A 
ATOM      6  C5  UNL d   1       1.383   0.228  -2.506  0.00  0.00     0.062 A 
ATOM      7  F   UNL d   1       2.088   1.141  -3.191  0.00  0.00    -0.097 F 
ATOM      8  F1  UNL d   1       1.491   1.588  -0.587  0.00  0.00    -0.096 F 
ATOM      9  I   UNL d   1      -0.123  -0.157   1.555  0.00  0.00    -0.060 I 
ATOM     10  F2  UNL d   1      -0.781  -2.588  -0.420  0.00  0.00    -0.096 F 
ATOM     11  F3  UNL d   1      -0.169  -3.007  -3.025  0.00  0.00    -0.097 F 
ATOM     12  F4  UNL d   1       1.264  -1.152  -4.420  0.00  0.00    -0.092 F 
ENDROOT
TORSDOF 0
ENDMDL
