MODEL 1
REMARK minimizedAffinity -2.56918263
REMARK minimizedRMSD -1
REMARK  0 active torsions:
REMARK  status: ('A' for Active; 'I' for Inactive)
ROOT
ATOM      1  C   UNL d   1      -1.439   0.559   1.904  0.00  0.00     0.124 A 
ATOM      2  C1  UNL d   1      -2.081   0.693   0.681  0.00  0.00     0.062 A 
ATOM      3  C2  UNL d   1      -1.357   0.593  -0.504  0.00  0.00     0.162 A 
ATOM      4  C3  UNL d   1       0.018   0.357  -0.471  0.00  0.00    -0.034 A 
ATOM      5  C4  UNL d   1       0.656   0.224   0.763  0.00  0.00     0.162 A 
ATOM      6  C5  UNL d   1      -0.072   0.325   1.945  0.00  0.00     0.062 A 
ATOM      7  F   UNL d   1       0.550   0.195   3.126  0.00  0.00    -0.097 F 
ATOM      8  F1  UNL d   1       1.976  -0.003   0.831  0.00  0.00    -0.096 F 
ATOM      9  I   UNL d   1       1.103   0.208  -2.240  0.00  0.00    -0.060 I 
ATOM     10  F2  UNL d   1      -2.003   0.727  -1.671  0.00  0.00    -0.096 F 
ATOM     11  F3  UNL d   1      -3.401   0.920   0.640  0.00  0.00    -0.097 F 
ATOM     12  F4  UNL d   1      -2.137   0.656   3.043  0.00  0.00    -0.092 F 
ENDROOT
TORSDOF 0
ENDMDL
