MODEL 1
REMARK minimizedAffinity 12.2724247
REMARK minimizedRMSD -1
REMARK  1 active torsions:
REMARK  status: ('A' for Active; 'I' for Inactive)
REMARK    1  A    between atoms: C1_2  and  C2_3 
ROOT
ATOM      1  C2  UNL d   1      -5.641   5.211   3.764  0.00  0.00    -0.077 A 
ATOM      2  C3  UNL d   1      -5.178   3.889   3.813  0.00  0.00     0.002 A 
ATOM      3  C4  UNL d   1      -4.838   3.216   2.637  0.00  0.00     0.002 A 
ATOM      4  C5  UNL d   1      -4.955   3.858   1.406  0.00  0.00    -0.004 A 
ATOM      5  C6  UNL d   1      -5.417   5.172   1.347  0.00  0.00     0.002 A 
ATOM      6  C7  UNL d   1      -5.757   5.846   2.521  0.00  0.00     0.002 A 
ENDROOT
BRANCH   1   7
ATOM      7  C1  UNL d   1      -5.960   5.955   5.034  0.00  0.00     0.055 C 
ATOM      8  C   UNL d   1      -4.761   5.992   5.971  0.00  0.00     0.019 C 
ENDBRANCH   1   7
TORSDOF 1
ENDMDL
