MODEL 1
REMARK minimizedAffinity 1.07021761
REMARK minimizedRMSD -1
REMARK  1 active torsions:
REMARK  status: ('A' for Active; 'I' for Inactive)
REMARK    1  A    between atoms: C1_2  and  C2_3 
ROOT
ATOM      1  C2  UNL d   1      -4.934   4.523   3.404  0.00  0.00    -0.077 A 
ATOM      2  C3  UNL d   1      -3.816   5.304   3.729  0.00  0.00     0.002 A 
ATOM      3  C4  UNL d   1      -3.768   6.000   4.939  0.00  0.00     0.002 A 
ATOM      4  C5  UNL d   1      -4.832   5.918   5.834  0.00  0.00    -0.004 A 
ATOM      5  C6  UNL d   1      -5.949   5.146   5.520  0.00  0.00     0.002 A 
ATOM      6  C7  UNL d   1      -6.000   4.451   4.310  0.00  0.00     0.002 A 
ENDROOT
BRANCH   1   7
ATOM      7  C1  UNL d   1      -4.967   3.733   2.122  0.00  0.00     0.055 C 
ATOM      8  C   UNL d   1      -4.471   2.311   2.336  0.00  0.00     0.019 C 
ENDBRANCH   1   7
TORSDOF 1
ENDMDL
