MODEL 1
REMARK minimizedAffinity 9.2413969
REMARK minimizedRMSD -1
REMARK  1 active torsions:
REMARK  status: ('A' for Active; 'I' for Inactive)
REMARK    1  A    between atoms: C1_2  and  C2_3 
ROOT
ATOM      1  C2  UNL d   1       2.445  -0.818   1.187  0.00  0.00    -0.077 A 
ATOM      2  C3  UNL d   1       1.807  -0.628  -0.047  0.00  0.00     0.002 A 
ATOM      3  C4  UNL d   1       2.154   0.451  -0.862  0.00  0.00     0.002 A 
ATOM      4  C5  UNL d   1       3.141   1.345  -0.454  0.00  0.00    -0.004 A 
ATOM      5  C6  UNL d   1       3.779   1.166   0.772  0.00  0.00     0.002 A 
ATOM      6  C7  UNL d   1       3.433   0.089   1.589  0.00  0.00     0.002 A 
ENDROOT
BRANCH   1   7
ATOM      7  C1  UNL d   1       2.107  -2.009   2.046  0.00  0.00     0.055 C 
ATOM      8  C   UNL d   1       0.940  -1.709   2.975  0.00  0.00     0.019 C 
ENDBRANCH   1   7
TORSDOF 1
ENDMDL
