MODEL 1
REMARK minimizedAffinity 7.3854804
REMARK minimizedRMSD -1
REMARK  1 active torsions:
REMARK  status: ('A' for Active; 'I' for Inactive)
REMARK    1  A    between atoms: C1_2  and  C2_3 
ROOT
ATOM      1  C2  UNL d   1       3.585   0.949  -1.387  0.00  0.00    -0.077 A 
ATOM      2  C3  UNL d   1       4.128   0.591  -0.145  0.00  0.00     0.002 A 
ATOM      3  C4  UNL d   1       3.291   0.291   0.932  0.00  0.00     0.002 A 
ATOM      4  C5  UNL d   1       1.907   0.342   0.776  0.00  0.00    -0.004 A 
ATOM      5  C6  UNL d   1       1.358   0.699  -0.455  0.00  0.00     0.002 A 
ATOM      6  C7  UNL d   1       2.192   1.000  -1.532  0.00  0.00     0.002 A 
ENDROOT
BRANCH   1   7
ATOM      7  C1  UNL d   1       4.485   1.224  -2.563  0.00  0.00     0.055 C 
ATOM      8  C   UNL d   1       5.516   2.293  -2.232  0.00  0.00     0.019 C 
ENDBRANCH   1   7
TORSDOF 1
ENDMDL
