MODEL 1
REMARK minimizedAffinity 5.19319344
REMARK minimizedRMSD -1
REMARK  1 active torsions:
REMARK  status: ('A' for Active; 'I' for Inactive)
REMARK    1  A    between atoms: C1_2  and  C2_3 
ROOT
ATOM      1  C2  UNL d   1      -4.989   4.119   3.907  0.00  0.00    -0.077 A 
ATOM      2  C3  UNL d   1      -3.962   5.069   3.995  0.00  0.00     0.002 A 
ATOM      3  C4  UNL d   1      -3.948   6.000   5.036  0.00  0.00     0.002 A 
ATOM      4  C5  UNL d   1      -4.957   5.987   5.997  0.00  0.00    -0.004 A 
ATOM      5  C6  UNL d   1      -5.984   5.048   5.917  0.00  0.00     0.002 A 
ATOM      6  C7  UNL d   1      -6.000   4.118   4.877  0.00  0.00     0.002 A 
ENDROOT
BRANCH   1   7
ATOM      7  C1  UNL d   1      -4.979   3.083   2.813  0.00  0.00     0.055 C 
ATOM      8  C   UNL d   1      -4.197   3.567   1.600  0.00  0.00     0.019 C 
ENDBRANCH   1   7
TORSDOF 1
ENDMDL
