MODEL 1
REMARK minimizedAffinity 10.8429728
REMARK minimizedRMSD -1
REMARK  1 active torsions:
REMARK  status: ('A' for Active; 'I' for Inactive)
REMARK    1  A    between atoms: C1_2  and  C2_3 
ROOT
ATOM      1  C2  UNL d   1       3.865   1.270  -1.459  0.00  0.00    -0.077 A 
ATOM      2  C3  UNL d   1       4.371   1.486  -0.169  0.00  0.00     0.002 A 
ATOM      3  C4  UNL d   1       3.756   0.899   0.938  0.00  0.00     0.002 A 
ATOM      4  C5  UNL d   1       2.634   0.090   0.767  0.00  0.00    -0.004 A 
ATOM      5  C6  UNL d   1       2.122  -0.129  -0.512  0.00  0.00     0.002 A 
ATOM      6  C7  UNL d   1       2.735   0.458  -1.619  0.00  0.00     0.002 A 
ENDROOT
BRANCH   1   7
ATOM      7  C1  UNL d   1       4.557   1.863  -2.659  0.00  0.00     0.055 C 
ATOM      8  C   UNL d   1       6.000   2.227  -2.342  0.00  0.00     0.019 C 
ENDBRANCH   1   7
TORSDOF 1
ENDMDL
