MODEL 1
REMARK minimizedAffinity 6.98215055
REMARK minimizedRMSD -1
REMARK  1 active torsions:
REMARK  status: ('A' for Active; 'I' for Inactive)
REMARK    1  A    between atoms: C1_2  and  C2_3 
ROOT
ATOM      1  C2  UNL d   1      -5.114   0.595  -2.250  0.00  0.00    -0.077 A 
ATOM      2  C3  UNL d   1      -5.553  -0.198  -3.320  0.00  0.00     0.002 A 
ATOM      3  C4  UNL d   1      -5.988   0.394  -4.507  0.00  0.00     0.002 A 
ATOM      4  C5  UNL d   1      -5.985   1.781  -4.637  0.00  0.00    -0.004 A 
ATOM      5  C6  UNL d   1      -5.553   2.579  -3.579  0.00  0.00     0.002 A 
ATOM      6  C7  UNL d   1      -5.118   1.989  -2.391  0.00  0.00     0.002 A 
ENDROOT
BRANCH   1   7
ATOM      7  C1  UNL d   1      -4.598  -0.043  -0.987  0.00  0.00     0.055 C 
ATOM      8  C   UNL d   1      -4.086   1.003  -0.008  0.00  0.00     0.019 C 
ENDBRANCH   1   7
TORSDOF 1
ENDMDL
