MODEL 1
REMARK minimizedAffinity 15.7792702
REMARK minimizedRMSD -1
REMARK  0 active torsions:
REMARK  status: ('A' for Active; 'I' for Inactive)
ROOT
ATOM      1  O1  BZF d   1       3.846  -3.391  -0.079  0.00  0.00    -0.204 OA
ATOM      2  C2  BZF d   1       3.664  -4.760  -0.056  0.00  0.00     0.174 A 
ATOM      3  C3  BZF d   1       2.514  -5.100  -0.672  0.00  0.00    -0.012 A 
ATOM      4  C3A BZF d   1       1.986  -3.874  -1.188  0.00  0.00    -0.107 A 
ATOM      5  C4  BZF d   1       0.871  -3.563  -1.912  0.00  0.00     0.055 A 
ATOM      6  C5  BZF d   1       0.609  -2.259  -2.193  0.00  0.00    -0.016 A 
ATOM      7  C6  BZF d   1       1.436  -1.243  -1.762  0.00  0.00     0.022 A 
ATOM      8  C7  BZF d   1       2.557  -1.503  -1.046  0.00  0.00     0.029 A 
ATOM      9  C7A BZF d   1       2.842  -2.822  -0.789  0.00  0.00     0.058 A 
ENDROOT
TORSDOF 0
ENDMDL
