MODEL 1
REMARK minimizedAffinity 12.0772057
REMARK minimizedRMSD -1
REMARK  0 active torsions:
REMARK  status: ('A' for Active; 'I' for Inactive)
ROOT
ATOM      1  O1  BZF d   1       1.848  -5.999  -2.897  0.00  0.00    -0.204 OA
ATOM      2  C2  BZF d   1       0.786  -5.888  -3.773  0.00  0.00     0.174 A 
ATOM      3  C3  BZF d   1       0.292  -4.633  -3.769  0.00  0.00    -0.012 A 
ATOM      4  C3A BZF d   1       1.154  -3.892  -2.900  0.00  0.00    -0.107 A 
ATOM      5  C4  BZF d   1       1.189  -2.586  -2.502  0.00  0.00     0.055 A 
ATOM      6  C5  BZF d   1       2.116  -2.198  -1.588  0.00  0.00    -0.016 A 
ATOM      7  C6  BZF d   1       3.019  -3.090  -1.047  0.00  0.00     0.022 A 
ATOM      8  C7  BZF d   1       3.027  -4.395  -1.414  0.00  0.00     0.029 A 
ATOM      9  C7A BZF d   1       2.112  -4.782  -2.363  0.00  0.00     0.058 A 
ENDROOT
TORSDOF 0
ENDMDL
