MODEL 1
REMARK minimizedAffinity 6.3950448
REMARK minimizedRMSD -1
REMARK  0 active torsions:
REMARK  status: ('A' for Active; 'I' for Inactive)
ROOT
ATOM      1  O1  BZF d   1      -3.165  -1.475  -4.125  0.00  0.00    -0.204 OA
ATOM      2  C2  BZF d   1      -4.003  -0.943  -5.086  0.00  0.00     0.174 A 
ATOM      3  C3  BZF d   1      -4.339  -1.877  -5.998  0.00  0.00    -0.012 A 
ATOM      4  C3A BZF d   1      -3.744  -3.092  -5.530  0.00  0.00    -0.107 A 
ATOM      5  C4  BZF d   1      -3.734  -4.374  -5.999  0.00  0.00     0.055 A 
ATOM      6  C5  BZF d   1      -2.997  -5.311  -5.346  0.00  0.00    -0.016 A 
ATOM      7  C6  BZF d   1      -2.255  -4.999  -4.226  0.00  0.00     0.022 A 
ATOM      8  C7  BZF d   1      -2.237  -3.741  -3.720  0.00  0.00     0.029 A 
ATOM      9  C7A BZF d   1      -3.007  -2.800  -4.359  0.00  0.00     0.058 A 
ENDROOT
TORSDOF 0
ENDMDL
