MODEL 1
REMARK minimizedAffinity 19.2973022
REMARK minimizedRMSD -1
REMARK  0 active torsions:
REMARK  status: ('A' for Active; 'I' for Inactive)
ROOT
ATOM      1  O1  BZF d   1       1.406   4.530  -0.879  0.00  0.00    -0.204 OA
ATOM      2  C2  BZF d   1       0.621   5.053   0.130  0.00  0.00     0.174 A 
ATOM      3  C3  BZF d   1       0.777   4.350   1.270  0.00  0.00    -0.012 A 
ATOM      4  C3A BZF d   1       1.787   3.379   0.979  0.00  0.00    -0.107 A 
ATOM      5  C4  BZF d   1       2.389   2.399   1.716  0.00  0.00     0.055 A 
ATOM      6  C5  BZF d   1       3.285   1.576   1.113  0.00  0.00    -0.016 A 
ATOM      7  C6  BZF d   1       3.600   1.700  -0.224  0.00  0.00     0.022 A 
ATOM      8  C7  BZF d   1       3.034   2.660  -0.995  0.00  0.00     0.029 A 
ATOM      9  C7A BZF d   1       2.152   3.515  -0.381  0.00  0.00     0.058 A 
ENDROOT
TORSDOF 0
ENDMDL
