MODEL 1
REMARK minimizedAffinity 13.5739899
REMARK minimizedRMSD -1
REMARK  0 active torsions:
REMARK  status: ('A' for Active; 'I' for Inactive)
ROOT
ATOM      1  O1  BZF d   1       3.081   2.071  -1.959  0.00  0.00    -0.204 OA
ATOM      2  C2  BZF d   1       2.254   1.858  -3.046  0.00  0.00     0.174 A 
ATOM      3  C3  BZF d   1       1.799   0.589  -3.059  0.00  0.00    -0.012 A 
ATOM      4  C3A BZF d   1       2.304  -0.005  -1.859  0.00  0.00    -0.107 A 
ATOM      5  C4  BZF d   1       2.181  -1.245  -1.301  0.00  0.00     0.055 A 
ATOM      6  C5  BZF d   1       2.858  -1.525  -0.157  0.00  0.00    -0.016 A 
ATOM      7  C6  BZF d   1       3.671  -0.592   0.452  0.00  0.00     0.022 A 
ATOM      8  C7  BZF d   1       3.821   0.653  -0.061  0.00  0.00     0.029 A 
ATOM      9  C7A BZF d   1       3.111   0.950  -1.199  0.00  0.00     0.058 A 
ENDROOT
TORSDOF 0
ENDMDL
