MODEL 1
REMARK minimizedAffinity 0.840331495
REMARK minimizedRMSD -1
REMARK  0 active torsions:
REMARK  status: ('A' for Active; 'I' for Inactive)
ROOT
ATOM      1  O1  BZF d   1       3.994  -1.669   0.358  0.00  0.00    -0.204 OA
ATOM      2  C2  BZF d   1       4.111  -3.012   0.055  0.00  0.00     0.174 A 
ATOM      3  C3  BZF d   1       3.370  -3.325  -1.027  0.00  0.00    -0.012 A 
ATOM      4  C3A BZF d   1       2.824  -2.083  -1.481  0.00  0.00    -0.107 A 
ATOM      5  C4  BZF d   1       2.016  -1.739  -2.527  0.00  0.00     0.055 A 
ATOM      6  C5  BZF d   1       1.606  -0.449  -2.649  0.00  0.00    -0.016 A 
ATOM      7  C6  BZF d   1       1.980   0.520  -1.741  0.00  0.00     0.022 A 
ATOM      8  C7  BZF d   1       2.785   0.228  -0.691  0.00  0.00     0.029 A 
ATOM      9  C7A BZF d   1       3.228  -1.068  -0.584  0.00  0.00     0.058 A 
ENDROOT
TORSDOF 0
ENDMDL
