MODEL 1
REMARK minimizedAffinity 9.71194077
REMARK minimizedRMSD -1
REMARK  0 active torsions:
REMARK  status: ('A' for Active; 'I' for Inactive)
ROOT
ATOM      1  O1  BZF d   1       2.501  -5.047  -1.494  0.00  0.00    -0.204 OA
ATOM      2  C2  BZF d   1       3.249  -4.747  -0.372  0.00  0.00     0.174 A 
ATOM      3  C3  BZF d   1       3.264  -3.417  -0.149  0.00  0.00    -0.012 A 
ATOM      4  C3A BZF d   1       2.402  -2.858  -1.145  0.00  0.00    -0.107 A 
ATOM      5  C4  BZF d   1       1.999  -1.585  -1.431  0.00  0.00     0.055 A 
ATOM      6  C5  BZF d   1       1.210  -1.370  -2.516  0.00  0.00    -0.016 A 
ATOM      7  C6  BZF d   1       0.809  -2.403  -3.338  0.00  0.00     0.022 A 
ATOM      8  C7  BZF d   1       1.178  -3.683  -3.091  0.00  0.00     0.029 A 
ATOM      9  C7A BZF d   1       1.949  -3.908  -1.977  0.00  0.00     0.058 A 
ENDROOT
TORSDOF 0
ENDMDL
