MODEL 1
REMARK minimizedAffinity 18.9827518
REMARK minimizedRMSD -1
REMARK  0 active torsions:
REMARK  status: ('A' for Active; 'I' for Inactive)
ROOT
ATOM      1  O1  BZF d   1      -2.992   1.991   2.542  0.00  0.00    -0.204 OA
ATOM      2  C2  BZF d   1      -3.568   0.738   2.632  0.00  0.00     0.174 A 
ATOM      3  C3  BZF d   1      -2.637  -0.227   2.483  0.00  0.00    -0.012 A 
ATOM      4  C3A BZF d   1      -1.389   0.465   2.381  0.00  0.00    -0.107 A 
ATOM      5  C4  BZF d   1      -0.096   0.052   2.235  0.00  0.00     0.055 A 
ATOM      6  C5  BZF d   1       0.883   0.984   2.093  0.00  0.00    -0.016 A 
ATOM      7  C6  BZF d   1       0.604   2.335   2.088  0.00  0.00     0.022 A 
ATOM      8  C7  BZF d   1      -0.664   2.793   2.235  0.00  0.00     0.029 A 
ATOM      9  C7A BZF d   1      -1.651   1.855   2.411  0.00  0.00     0.058 A 
ENDROOT
TORSDOF 0
ENDMDL
