MODEL 1
REMARK minimizedAffinity 19.2016449
REMARK minimizedRMSD -1
REMARK  0 active torsions:
REMARK  status: ('A' for Active; 'I' for Inactive)
ROOT
ATOM      1  O1  BZF d   1       2.208   2.857  -2.141  0.00  0.00    -0.204 OA
ATOM      2  C2  BZF d   1       2.473   1.798  -1.294  0.00  0.00     0.174 A 
ATOM      3  C3  BZF d   1       2.235   2.140  -0.012  0.00  0.00    -0.012 A 
ATOM      4  C3A BZF d   1       1.706   3.469  -0.068  0.00  0.00    -0.107 A 
ATOM      5  C4  BZF d   1       1.264   4.345   0.881  0.00  0.00     0.055 A 
ATOM      6  C5  BZF d   1       0.880   5.592   0.502  0.00  0.00    -0.016 A 
ATOM      7  C6  BZF d   1       0.929   5.997  -0.816  0.00  0.00     0.022 A 
ATOM      8  C7  BZF d   1       1.356   5.162  -1.794  0.00  0.00     0.029 A 
ATOM      9  C7A BZF d   1       1.713   3.890  -1.418  0.00  0.00     0.058 A 
ENDROOT
TORSDOF 0
ENDMDL
