MODEL 1
REMARK minimizedAffinity 9.3259573
REMARK minimizedRMSD -1
REMARK  0 active torsions:
REMARK  status: ('A' for Active; 'I' for Inactive)
ROOT
ATOM      1  O1  BZF d   1      -1.783   4.179  -4.188  0.00  0.00    -0.204 OA
ATOM      2  C2  BZF d   1      -2.140   3.311  -5.201  0.00  0.00     0.174 A 
ATOM      3  C3  BZF d   1      -1.168   2.402  -5.418  0.00  0.00    -0.012 A 
ATOM      4  C3A BZF d   1      -0.178   2.665  -4.420  0.00  0.00    -0.107 A 
ATOM      5  C4  BZF d   1       1.020   2.086  -4.109  0.00  0.00     0.055 A 
ATOM      6  C5  BZF d   1       1.779   2.628  -3.122  0.00  0.00    -0.016 A 
ATOM      7  C6  BZF d   1       1.376   3.751  -2.429  0.00  0.00     0.022 A 
ATOM      8  C7  BZF d   1       0.194   4.357  -2.698  0.00  0.00     0.029 A 
ATOM      9  C7A BZF d   1      -0.591   3.792  -3.673  0.00  0.00     0.058 A 
ENDROOT
TORSDOF 0
ENDMDL
