MODEL 1
REMARK minimizedAffinity 13.9709988
REMARK minimizedRMSD -1
REMARK  0 active torsions:
REMARK  status: ('A' for Active; 'I' for Inactive)
ROOT
ATOM      1  O1  BZF d   1       3.285  -3.110   0.316  0.00  0.00    -0.204 OA
ATOM      2  C2  BZF d   1       3.332  -4.450  -0.017  0.00  0.00     0.174 A 
ATOM      3  C3  BZF d   1       2.606  -4.694  -1.127  0.00  0.00    -0.012 A 
ATOM      4  C3A BZF d   1       2.147  -3.411  -1.564  0.00  0.00    -0.107 A 
ATOM      5  C4  BZF d   1       1.391  -2.996  -2.623  0.00  0.00     0.055 A 
ATOM      6  C5  BZF d   1       1.061  -1.682  -2.724  0.00  0.00    -0.016 A 
ATOM      7  C6  BZF d   1       1.464  -0.758  -1.783  0.00  0.00     0.022 A 
ATOM      8  C7  BZF d   1       2.220  -1.121  -0.718  0.00  0.00     0.029 A 
ATOM      9  C7A BZF d   1       2.583  -2.443  -0.631  0.00  0.00     0.058 A 
ENDROOT
TORSDOF 0
ENDMDL
