MODEL 1
REMARK minimizedAffinity 3.01573443
REMARK minimizedRMSD -1
REMARK  0 active torsions:
REMARK  status: ('A' for Active; 'I' for Inactive)
ROOT
ATOM      1  O1  BZF d   1      -4.155  -1.882  -5.876  0.00  0.00    -0.204 OA
ATOM      2  C2  BZF d   1      -5.537  -1.899  -5.897  0.00  0.00     0.174 A 
ATOM      3  C3  BZF d   1      -5.999  -3.161  -6.000  0.00  0.00    -0.012 A 
ATOM      4  C3A BZF d   1      -4.835  -3.993  -5.952  0.00  0.00    -0.107 A 
ATOM      5  C4  BZF d   1      -4.645  -5.344  -5.993  0.00  0.00     0.055 A 
ATOM      6  C5  BZF d   1      -3.377  -5.833  -6.000  0.00  0.00    -0.016 A 
ATOM      7  C6  BZF d   1      -2.278  -5.000  -5.971  0.00  0.00     0.022 A 
ATOM      8  C7  BZF d   1      -2.416  -3.653  -5.925  0.00  0.00     0.029 A 
ATOM      9  C7A BZF d   1      -3.697  -3.157  -5.885  0.00  0.00     0.058 A 
ENDROOT
TORSDOF 0
ENDMDL
