MODEL 1
REMARK minimizedAffinity 7.8421402
REMARK minimizedRMSD -1
REMARK  0 active torsions:
REMARK  status: ('A' for Active; 'I' for Inactive)
ROOT
ATOM      1  O1  BZF d   1       1.244   3.833   1.305  0.00  0.00    -0.204 OA
ATOM      2  C2  BZF d   1       0.806   4.737   0.356  0.00  0.00     0.174 A 
ATOM      3  C3  BZF d   1       1.726   4.893  -0.617  0.00  0.00    -0.012 A 
ATOM      4  C3A BZF d   1       2.769   3.965  -0.302  0.00  0.00    -0.107 A 
ATOM      5  C4  BZF d   1       3.950   3.640  -0.904  0.00  0.00     0.055 A 
ATOM      6  C5  BZF d   1       4.774   2.743  -0.302  0.00  0.00    -0.016 A 
ATOM      7  C6  BZF d   1       4.451   2.157   0.904  0.00  0.00     0.022 A 
ATOM      8  C7  BZF d   1       3.288   2.443   1.537  0.00  0.00     0.029 A 
ATOM      9  C7A BZF d   1       2.438   3.324   0.915  0.00  0.00     0.058 A 
ENDROOT
TORSDOF 0
ENDMDL
