MODEL 1
REMARK minimizedAffinity 5.00841331
REMARK minimizedRMSD -1
REMARK  0 active torsions:
REMARK  status: ('A' for Active; 'I' for Inactive)
ROOT
ATOM      1  O1  BZF d   1       2.979  -5.754  -2.178  0.00  0.00    -0.204 OA
ATOM      2  C2  BZF d   1       2.073  -5.999  -3.192  0.00  0.00     0.174 A 
ATOM      3  C3  BZF d   1       1.246  -4.947  -3.361  0.00  0.00    -0.012 A 
ATOM      4  C3A BZF d   1       1.720  -3.948  -2.453  0.00  0.00    -0.107 A 
ATOM      5  C4  BZF d   1       1.320  -2.674  -2.168  0.00  0.00     0.055 A 
ATOM      6  C5  BZF d   1       1.949  -1.990  -1.176  0.00  0.00    -0.016 A 
ATOM      7  C6  BZF d   1       2.977  -2.551  -0.447  0.00  0.00     0.022 A 
ATOM      8  C7  BZF d   1       3.413  -3.810  -0.697  0.00  0.00     0.029 A 
ATOM      9  C7A BZF d   1       2.800  -4.491  -1.721  0.00  0.00     0.058 A 
ENDROOT
TORSDOF 0
ENDMDL
