MODEL 1
REMARK minimizedAffinity 16.4663849
REMARK minimizedRMSD -1
REMARK  0 active torsions:
REMARK  status: ('A' for Active; 'I' for Inactive)
ROOT
ATOM      1  O1  BZF d   1       4.227   2.958   1.966  0.00  0.00    -0.204 OA
ATOM      2  C2  BZF d   1       2.923   2.621   2.274  0.00  0.00     0.174 A 
ATOM      3  C3  BZF d   1       2.308   2.066   1.210  0.00  0.00    -0.012 A 
ATOM      4  C3A BZF d   1       3.316   1.970   0.200  0.00  0.00    -0.107 A 
ATOM      5  C4  BZF d   1       3.322   1.488  -1.078  0.00  0.00     0.055 A 
ATOM      6  C5  BZF d   1       4.452   1.609  -1.824  0.00  0.00    -0.016 A 
ATOM      7  C6  BZF d   1       5.590   2.210  -1.326  0.00  0.00     0.022 A 
ATOM      8  C7  BZF d   1       5.633   2.698  -0.063  0.00  0.00     0.029 A 
ATOM      9  C7A BZF d   1       4.504   2.548   0.705  0.00  0.00     0.058 A 
ENDROOT
TORSDOF 0
ENDMDL
