MODEL 1
REMARK minimizedAffinity 19.9765396
REMARK minimizedRMSD -1
REMARK  0 active torsions:
REMARK  status: ('A' for Active; 'I' for Inactive)
ROOT
ATOM      1  O1  BZF d   1      -3.365   0.164   1.225  0.00  0.00    -0.204 OA
ATOM      2  C2  BZF d   1      -2.636   0.722   2.257  0.00  0.00     0.174 A 
ATOM      3  C3  BZF d   1      -3.080   0.279   3.451  0.00  0.00    -0.012 A 
ATOM      4  C3A BZF d   1      -4.094  -0.682   3.142  0.00  0.00    -0.107 A 
ATOM      5  C4  BZF d   1      -4.896  -1.479   3.908  0.00  0.00     0.055 A 
ATOM      6  C5  BZF d   1      -5.834  -2.251   3.299  0.00  0.00    -0.016 A 
ATOM      7  C6  BZF d   1      -6.000  -2.248   1.930  0.00  0.00     0.022 A 
ATOM      8  C7  BZF d   1      -5.224  -1.478   1.128  0.00  0.00     0.029 A 
ATOM      9  C7A BZF d   1      -4.254  -0.721   1.738  0.00  0.00     0.058 A 
ENDROOT
TORSDOF 0
ENDMDL
