MODEL 1
REMARK minimizedAffinity 1.5244478
REMARK minimizedRMSD -1
REMARK  0 active torsions:
REMARK  status: ('A' for Active; 'I' for Inactive)
ROOT
ATOM      1  C   UNL d   1       2.915   2.670  -1.548  0.00  0.00     0.077 C 
ATOM      2  C1  UNL d   1       1.738   1.870  -2.020  0.00  0.00    -0.074 A 
ATOM      3  C2  UNL d   1       1.481   1.708  -3.385  0.00  0.00    -0.005 A 
ATOM      4  C3  UNL d   1       0.388   0.952  -3.809  0.00  0.00     0.006 A 
ATOM      5  C4  UNL d   1      -0.457   0.352  -2.874  0.00  0.00    -0.005 A 
ATOM      6  C5  UNL d   1      -0.215   0.502  -1.505  0.00  0.00    -0.074 A 
ATOM      7  C6  UNL d   1      -1.107  -0.144  -0.488  0.00  0.00     0.077 C 
ATOM      8  C7  UNL d   1       0.890   1.257  -1.087  0.00  0.00    -0.001 A 
ENDROOT
TORSDOF 0
ENDMDL
