MODEL 1
REMARK minimizedAffinity 5.70942211
REMARK minimizedRMSD -1
REMARK  0 active torsions:
REMARK  status: ('A' for Active; 'I' for Inactive)
ROOT
ATOM      1  C   UNL d   1       1.303  -0.815   0.929  0.00  0.00     0.077 C 
ATOM      2  C1  UNL d   1      -0.063  -0.524   0.382  0.00  0.00    -0.074 A 
ATOM      3  C2  UNL d   1      -1.065  -1.500   0.396  0.00  0.00    -0.005 A 
ATOM      4  C3  UNL d   1      -2.333  -1.212  -0.108  0.00  0.00     0.006 A 
ATOM      5  C4  UNL d   1      -2.612   0.053  -0.628  0.00  0.00    -0.005 A 
ATOM      6  C5  UNL d   1      -1.623   1.041  -0.649  0.00  0.00    -0.074 A 
ATOM      7  C6  UNL d   1      -1.909   2.408  -1.196  0.00  0.00     0.077 C 
ATOM      8  C7  UNL d   1      -0.353   0.746  -0.135  0.00  0.00    -0.001 A 
ENDROOT
TORSDOF 0
ENDMDL
