MODEL 1
REMARK minimizedAffinity 0.0927377939
REMARK minimizedRMSD -1
REMARK  0 active torsions:
REMARK  status: ('A' for Active; 'I' for Inactive)
ROOT
ATOM      1  C   UNL d   1       2.321  -0.234   0.856  0.00  0.00     0.077 C 
ATOM      2  C1  UNL d   1       0.884  -0.115   0.443  0.00  0.00    -0.074 A 
ATOM      3  C2  UNL d   1       0.520  -0.135  -0.908  0.00  0.00    -0.005 A 
ATOM      4  C3  UNL d   1      -0.821  -0.033  -1.276  0.00  0.00     0.006 A 
ATOM      5  C4  UNL d   1      -1.811   0.090  -0.300  0.00  0.00    -0.005 A 
ATOM      6  C5  UNL d   1      -1.466   0.111   1.055  0.00  0.00    -0.074 A 
ATOM      7  C6  UNL d   1      -2.518   0.232   2.117  0.00  0.00     0.077 C 
ATOM      8  C7  UNL d   1      -0.117   0.001   1.418  0.00  0.00    -0.001 A 
ENDROOT
TORSDOF 0
ENDMDL
