MODEL 1
REMARK minimizedAffinity 3.60706186
REMARK minimizedRMSD -1
REMARK  0 active torsions:
REMARK  status: ('A' for Active; 'I' for Inactive)
ROOT
ATOM      1  C   UNL d   1       0.936   1.496  -4.617  0.00  0.00     0.077 C 
ATOM      2  C1  UNL d   1       1.093   1.454  -3.126  0.00  0.00    -0.074 A 
ATOM      3  C2  UNL d   1       2.217   2.008  -2.505  0.00  0.00    -0.005 A 
ATOM      4  C3  UNL d   1       2.345   1.970  -1.117  0.00  0.00     0.006 A 
ATOM      5  C4  UNL d   1       1.352   1.377  -0.336  0.00  0.00    -0.005 A 
ATOM      6  C5  UNL d   1       0.221   0.818  -0.939  0.00  0.00    -0.074 A 
ATOM      7  C6  UNL d   1      -0.861   0.186  -0.113  0.00  0.00     0.077 C 
ATOM      8  C7  UNL d   1       0.096   0.867  -2.334  0.00  0.00    -0.001 A 
ENDROOT
TORSDOF 0
ENDMDL
