MODEL 1
REMARK minimizedAffinity -0.941754162
REMARK minimizedRMSD -1
REMARK  0 active torsions:
REMARK  status: ('A' for Active; 'I' for Inactive)
ROOT
ATOM      1  C   UNL d   1      -0.006   0.495  -4.687  0.00  0.00     0.077 C 
ATOM      2  C1  UNL d   1       0.729   0.531  -3.380  0.00  0.00    -0.074 A 
ATOM      3  C2  UNL d   1       1.913   1.262  -3.241  0.00  0.00    -0.005 A 
ATOM      4  C3  UNL d   1       2.580   1.295  -2.017  0.00  0.00     0.006 A 
ATOM      5  C4  UNL d   1       2.071   0.598  -0.920  0.00  0.00    -0.005 A 
ATOM      6  C5  UNL d   1       0.887  -0.137  -1.040  0.00  0.00    -0.074 A 
ATOM      7  C6  UNL d   1       0.320  -0.883   0.132  0.00  0.00     0.077 C 
ATOM      8  C7  UNL d   1       0.219  -0.159  -2.272  0.00  0.00    -0.001 A 
ENDROOT
TORSDOF 0
ENDMDL
