MODEL 1
REMARK minimizedAffinity -3.78877091
REMARK minimizedRMSD -1
REMARK  0 active torsions:
REMARK  status: ('A' for Active; 'I' for Inactive)
ROOT
ATOM      1  C   UNL d   1       0.011  -0.830  -2.074  0.00  0.00     0.077 C 
ATOM      2  C1  UNL d   1       0.346  -0.700  -0.618  0.00  0.00    -0.074 A 
ATOM      3  C2  UNL d   1       1.546  -1.205  -0.108  0.00  0.00    -0.005 A 
ATOM      4  C3  UNL d   1       1.848  -1.068   1.247  0.00  0.00     0.006 A 
ATOM      5  C4  UNL d   1       0.953  -0.426   2.105  0.00  0.00    -0.005 A 
ATOM      6  C5  UNL d   1      -0.252   0.085   1.613  0.00  0.00    -0.074 A 
ATOM      7  C6  UNL d   1      -1.220   0.786   2.519  0.00  0.00     0.077 C 
ATOM      8  C7  UNL d   1      -0.545  -0.050   0.249  0.00  0.00    -0.001 A 
ENDROOT
TORSDOF 0
ENDMDL
