MODEL 1
REMARK minimizedAffinity 6.44317293
REMARK minimizedRMSD -1
REMARK  1 active torsions:
REMARK  status: ('A' for Active; 'I' for Inactive)
REMARK    1  A    between atoms: C1_2  and  C2_3 
ROOT
ATOM      1  C2  UNL d   1       0.989   1.787  -2.027  0.00  0.00    -0.076 A 
ATOM      2  C3  UNL d   1       0.511   1.340  -0.783  0.00  0.00     0.004 A 
ATOM      3  C4  UNL d   1       1.385   1.091   0.274  0.00  0.00    -0.003 A 
ATOM      4  C5  UNL d   1       2.751   1.286   0.104  0.00  0.00     0.000 A 
ATOM      5  C6  UNL d   1       3.241   1.746  -1.118  0.00  0.00     0.000 A 
ATOM      6  C7  UNL d   1       2.372   2.017  -2.188  0.00  0.00    -0.073 A 
ATOM      7  C8  UNL d   1       2.956   2.505  -3.486  0.00  0.00     0.078 C 
ENDROOT
BRANCH   1   8
ATOM      8  C1  UNL d   1      -0.003   2.013  -3.146  0.00  0.00     0.053 C 
ATOM      9  C   UNL d   1      -0.336   3.485  -3.340  0.00  0.00     0.018 C 
ENDBRANCH   1   8
TORSDOF 1
ENDMDL
