MODEL 1
REMARK minimizedAffinity 11.7043362
REMARK minimizedRMSD -1
REMARK  1 active torsions:
REMARK  status: ('A' for Active; 'I' for Inactive)
REMARK    1  A    between atoms: C1_2  and  C2_3 
ROOT
ATOM      1  C2  UNL d   1      -3.555   4.895  -4.111  0.00  0.00    -0.076 A 
ATOM      2  C3  UNL d   1      -4.797   4.556  -3.548  0.00  0.00     0.004 A 
ATOM      3  C4  UNL d   1      -5.991   4.940  -4.157  0.00  0.00    -0.003 A 
ATOM      4  C5  UNL d   1      -5.961   5.669  -5.340  0.00  0.00     0.000 A 
ATOM      5  C6  UNL d   1      -4.738   6.000  -5.923  0.00  0.00     0.000 A 
ATOM      6  C7  UNL d   1      -3.526   5.606  -5.330  0.00  0.00    -0.073 A 
ATOM      7  C8  UNL d   1      -2.236   5.995  -5.999  0.00  0.00     0.078 C 
ENDROOT
BRANCH   1   8
ATOM      8  C1  UNL d   1      -2.294   4.475  -3.392  0.00  0.00     0.053 C 
ATOM      9  C   UNL d   1      -1.058   4.580  -4.272  0.00  0.00     0.018 C 
ENDBRANCH   1   8
TORSDOF 1
ENDMDL
