MODEL 1
REMARK minimizedAffinity 11.3052216
REMARK minimizedRMSD -1
REMARK  1 active torsions:
REMARK  status: ('A' for Active; 'I' for Inactive)
REMARK    1  A    between atoms: C1_2  and  C2_3 
ROOT
ATOM      1  C2  UNL d   1       0.526   3.951  -3.784  0.00  0.00    -0.076 A 
ATOM      2  C3  UNL d   1      -0.061   3.453  -4.961  0.00  0.00     0.004 A 
ATOM      3  C4  UNL d   1      -0.983   4.211  -5.679  0.00  0.00    -0.003 A 
ATOM      4  C5  UNL d   1      -1.335   5.480  -5.233  0.00  0.00     0.000 A 
ATOM      5  C6  UNL d   1      -0.750   5.998  -4.078  0.00  0.00     0.000 A 
ATOM      6  C7  UNL d   1       0.194   5.253  -3.350  0.00  0.00    -0.073 A 
ATOM      7  C8  UNL d   1       0.789   5.857  -2.108  0.00  0.00     0.078 C 
ENDROOT
BRANCH   1   8
ATOM      8  C1  UNL d   1       1.500   3.073  -3.032  0.00  0.00     0.053 C 
ATOM      9  C   UNL d   1       2.938   3.278  -3.482  0.00  0.00     0.018 C 
ENDBRANCH   1   8
TORSDOF 1
ENDMDL
