MODEL 1
REMARK minimizedAffinity 11.1976871
REMARK minimizedRMSD -1
REMARK  1 active torsions:
REMARK  status: ('A' for Active; 'I' for Inactive)
REMARK    1  A    between atoms: C1_2  and  C2_3 
ROOT
ATOM      1  C2  UNL d   1      -1.072  -0.734   2.712  0.00  0.00    -0.076 A 
ATOM      2  C3  UNL d   1      -1.358  -0.530   4.073  0.00  0.00     0.004 A 
ATOM      3  C4  UNL d   1      -2.081   0.584   4.495  0.00  0.00    -0.003 A 
ATOM      4  C5  UNL d   1      -2.529   1.513   3.562  0.00  0.00     0.000 A 
ATOM      5  C6  UNL d   1      -2.269   1.318   2.206  0.00  0.00     0.000 A 
ATOM      6  C7  UNL d   1      -1.556   0.191   1.763  0.00  0.00    -0.073 A 
ATOM      7  C8  UNL d   1      -1.299   0.034   0.289  0.00  0.00     0.078 C 
ENDROOT
BRANCH   1   8
ATOM      8  C1  UNL d   1      -0.261  -1.947   2.316  0.00  0.00     0.053 C 
ATOM      9  C   UNL d   1       1.053  -2.043   3.076  0.00  0.00     0.018 C 
ENDBRANCH   1   8
TORSDOF 1
ENDMDL
