MODEL 1
REMARK minimizedAffinity 15.558712
REMARK minimizedRMSD -1
REMARK  1 active torsions:
REMARK  status: ('A' for Active; 'I' for Inactive)
REMARK    1  A    between atoms: C1_2  and  C2_3 
ROOT
ATOM      1  C2  UNL d   1      -2.876   5.830  -4.825  0.00  0.00    -0.076 A 
ATOM      2  C3  UNL d   1      -3.633   5.996  -5.998  0.00  0.00     0.004 A 
ATOM      3  C4  UNL d   1      -5.026   5.991  -5.959  0.00  0.00    -0.003 A 
ATOM      4  C5  UNL d   1      -5.686   5.821  -4.747  0.00  0.00     0.000 A 
ATOM      5  C6  UNL d   1      -4.951   5.673  -3.571  0.00  0.00     0.000 A 
ATOM      6  C7  UNL d   1      -3.546   5.692  -3.590  0.00  0.00    -0.073 A 
ATOM      7  C8  UNL d   1      -2.804   5.522  -2.292  0.00  0.00     0.078 C 
ENDROOT
BRANCH   1   8
ATOM      8  C1  UNL d   1      -1.368   5.817  -4.931  0.00  0.00     0.053 C 
ATOM      9  C   UNL d   1      -0.759   4.523  -4.414  0.00  0.00     0.018 C 
ENDBRANCH   1   8
TORSDOF 1
ENDMDL
