MODEL 1
REMARK minimizedAffinity 16.907011
REMARK minimizedRMSD -1
REMARK  1 active torsions:
REMARK  status: ('A' for Active; 'I' for Inactive)
REMARK    1  A    between atoms: C1_2  and  C2_3 
ROOT
ATOM      1  C2  UNL d   1      -2.893  -0.216   1.553  0.00  0.00    -0.076 A 
ATOM      2  C3  UNL d   1      -2.574  -1.398   0.863  0.00  0.00     0.004 A 
ATOM      3  C4  UNL d   1      -1.445  -2.143   1.199  0.00  0.00    -0.003 A 
ATOM      4  C5  UNL d   1      -0.616  -1.718   2.232  0.00  0.00     0.000 A 
ATOM      5  C6  UNL d   1      -0.927  -0.557   2.939  0.00  0.00     0.000 A 
ATOM      6  C7  UNL d   1      -2.071   0.197   2.624  0.00  0.00    -0.073 A 
ATOM      7  C8  UNL d   1      -2.354   1.444   3.416  0.00  0.00     0.078 C 
ENDROOT
BRANCH   1   8
ATOM      8  C1  UNL d   1      -4.115   0.565   1.127  0.00  0.00     0.053 C 
ATOM      9  C   UNL d   1      -4.996  -0.214   0.162  0.00  0.00     0.018 C 
ENDBRANCH   1   8
TORSDOF 1
ENDMDL
