MODEL 1
REMARK minimizedAffinity 13.9278469
REMARK minimizedRMSD -1
REMARK  1 active torsions:
REMARK  status: ('A' for Active; 'I' for Inactive)
REMARK    1  A    between atoms: C1_2  and  C2_3 
ROOT
ATOM      1  C2  UNL d   1       3.545   3.584  -3.565  0.00  0.00    -0.076 A 
ATOM      2  C3  UNL d   1       4.068   4.321  -2.488  0.00  0.00     0.004 A 
ATOM      3  C4  UNL d   1       5.263   5.028  -2.615  0.00  0.00    -0.003 A 
ATOM      4  C5  UNL d   1       5.953   5.011  -3.822  0.00  0.00     0.000 A 
ATOM      5  C6  UNL d   1       5.440   4.300  -4.906  0.00  0.00     0.000 A 
ATOM      6  C7  UNL d   1       4.229   3.595  -4.800  0.00  0.00    -0.073 A 
ATOM      7  C8  UNL d   1       3.724   2.841  -6.000  0.00  0.00     0.078 C 
ENDROOT
BRANCH   1   8
ATOM      8  C1  UNL d   1       2.260   2.815  -3.360  0.00  0.00     0.053 C 
ATOM      9  C   UNL d   1       2.341   1.846  -2.191  0.00  0.00     0.018 C 
ENDBRANCH   1   8
TORSDOF 1
ENDMDL
