MODEL 1
REMARK minimizedAffinity 14.0588303
REMARK minimizedRMSD -1
REMARK  1 active torsions:
REMARK  status: ('A' for Active; 'I' for Inactive)
REMARK    1  A    between atoms: C1_2  and  C2_3 
ROOT
ATOM      1  C2  UNL d   1       1.216   3.025  -3.192  0.00  0.00    -0.076 A 
ATOM      2  C3  UNL d   1       0.640   2.484  -2.030  0.00  0.00     0.004 A 
ATOM      3  C4  UNL d   1       1.418   1.814  -1.088  0.00  0.00    -0.003 A 
ATOM      4  C5  UNL d   1       2.787   1.674  -1.293  0.00  0.00     0.000 A 
ATOM      5  C6  UNL d   1       3.378   2.220  -2.432  0.00  0.00     0.000 A 
ATOM      6  C7  UNL d   1       2.610   2.912  -3.383  0.00  0.00    -0.073 A 
ATOM      7  C8  UNL d   1       3.299   3.475  -4.596  0.00  0.00     0.078 C 
ENDROOT
BRANCH   1   8
ATOM      8  C1  UNL d   1       0.317   3.717  -4.192  0.00  0.00     0.053 C 
ATOM      9  C   UNL d   1      -0.581   4.759  -3.543  0.00  0.00     0.018 C 
ENDBRANCH   1   8
TORSDOF 1
ENDMDL
