MODEL 1
REMARK minimizedAffinity 14.6917524
REMARK minimizedRMSD -1
REMARK  1 active torsions:
REMARK  status: ('A' for Active; 'I' for Inactive)
REMARK    1  A    between atoms: C1_2  and  C2_3 
ROOT
ATOM      1  C2  UNL d   1      -2.158  -0.727   3.107  0.00  0.00    -0.076 A 
ATOM      2  C3  UNL d   1      -0.830  -0.961   2.709  0.00  0.00     0.004 A 
ATOM      3  C4  UNL d   1      -0.514  -2.010   1.847  0.00  0.00    -0.003 A 
ATOM      4  C5  UNL d   1      -1.521  -2.842   1.370  0.00  0.00     0.000 A 
ATOM      5  C6  UNL d   1      -2.845  -2.614   1.741  0.00  0.00     0.000 A 
ATOM      6  C7  UNL d   1      -3.183  -1.550   2.595  0.00  0.00    -0.073 A 
ATOM      7  C8  UNL d   1      -4.627  -1.354   2.968  0.00  0.00     0.078 C 
ENDROOT
BRANCH   1   8
ATOM      8  C1  UNL d   1      -2.437   0.410   4.065  0.00  0.00     0.053 C 
ATOM      9  C   UNL d   1      -1.670   0.272   5.371  0.00  0.00     0.018 C 
ENDBRANCH   1   8
TORSDOF 1
ENDMDL
