MODEL 1
REMARK minimizedAffinity 9.19954205
REMARK minimizedRMSD -1
REMARK  1 active torsions:
REMARK  status: ('A' for Active; 'I' for Inactive)
REMARK    1  A    between atoms: C1_2  and  C2_3 
ROOT
ATOM      1  C2  UNL d   1      -0.579   4.685  -2.807  0.00  0.00    -0.076 A 
ATOM      2  C3  UNL d   1      -0.867   4.697  -1.431  0.00  0.00     0.004 A 
ATOM      3  C4  UNL d   1      -2.158   4.948  -0.970  0.00  0.00    -0.003 A 
ATOM      4  C5  UNL d   1      -3.183   5.192  -1.878  0.00  0.00     0.000 A 
ATOM      5  C6  UNL d   1      -2.919   5.167  -3.247  0.00  0.00     0.000 A 
ATOM      6  C7  UNL d   1      -1.626   4.898  -3.729  0.00  0.00    -0.073 A 
ATOM      7  C8  UNL d   1      -1.396   4.890  -5.215  0.00  0.00     0.078 C 
ENDROOT
BRANCH   1   8
ATOM      8  C1  UNL d   1       0.846   4.433  -3.246  0.00  0.00     0.053 C 
ATOM      9  C   UNL d   1       1.333   3.041  -2.875  0.00  0.00     0.018 C 
ENDBRANCH   1   8
TORSDOF 1
ENDMDL
