MODEL 1
REMARK minimizedAffinity 19.7165623
REMARK minimizedRMSD -1
REMARK  1 active torsions:
REMARK  status: ('A' for Active; 'I' for Inactive)
REMARK    1  A    between atoms: C1_2  and  C2_3 
ROOT
ATOM      1  C2  UNL d   1       4.447   3.180   0.101  0.00  0.00    -0.076 A 
ATOM      2  C3  UNL d   1       3.997   2.223  -0.825  0.00  0.00     0.004 A 
ATOM      3  C4  UNL d   1       2.800   1.537  -0.622  0.00  0.00    -0.003 A 
ATOM      4  C5  UNL d   1       2.034   1.799   0.509  0.00  0.00     0.000 A 
ATOM      5  C6  UNL d   1       2.457   2.758   1.428  0.00  0.00     0.000 A 
ATOM      6  C7  UNL d   1       3.653   3.470   1.230  0.00  0.00    -0.073 A 
ATOM      7  C8  UNL d   1       4.064   4.489   2.257  0.00  0.00     0.078 C 
ENDROOT
BRANCH   1   8
ATOM      8  C1  UNL d   1       5.766   3.873  -0.158  0.00  0.00     0.053 C 
ATOM      9  C   UNL d   1       5.689   4.863  -1.309  0.00  0.00     0.018 C 
ENDBRANCH   1   8
TORSDOF 1
ENDMDL
