MODEL 1
REMARK minimizedAffinity 15.8549938
REMARK minimizedRMSD -1
REMARK  1 active torsions:
REMARK  status: ('A' for Active; 'I' for Inactive)
REMARK    1  A    between atoms: C1_2  and  C2_3 
ROOT
ATOM      1  C2  UNL d   1       3.654   3.511  -3.332  0.00  0.00    -0.076 A 
ATOM      2  C3  UNL d   1       4.223   4.097  -2.188  0.00  0.00     0.004 A 
ATOM      3  C4  UNL d   1       5.386   4.860  -2.275  0.00  0.00    -0.003 A 
ATOM      4  C5  UNL d   1       5.999   5.051  -3.509  0.00  0.00     0.000 A 
ATOM      5  C6  UNL d   1       5.438   4.492  -4.657  0.00  0.00     0.000 A 
ATOM      6  C7  UNL d   1       4.257   3.733  -4.588  0.00  0.00    -0.073 A 
ATOM      7  C8  UNL d   1       3.700   3.148  -5.857  0.00  0.00     0.078 C 
ENDROOT
BRANCH   1   8
ATOM      8  C1  UNL d   1       2.408   2.670  -3.172  0.00  0.00     0.053 C 
ATOM      9  C   UNL d   1       2.393   1.893  -1.865  0.00  0.00     0.018 C 
ENDBRANCH   1   8
TORSDOF 1
ENDMDL
