MODEL 1
REMARK minimizedAffinity 16.0387878
REMARK minimizedRMSD -1
REMARK  1 active torsions:
REMARK  status: ('A' for Active; 'I' for Inactive)
REMARK    1  A    between atoms: C1_2  and  C2_3 
ROOT
ATOM      1  C2  UNL d   1      -0.415  -2.421   2.041  0.00  0.00    -0.076 A 
ATOM      2  C3  UNL d   1      -1.776  -2.177   1.785  0.00  0.00     0.004 A 
ATOM      3  C4  UNL d   1      -2.481  -1.217   2.508  0.00  0.00    -0.003 A 
ATOM      4  C5  UNL d   1      -1.837  -0.484   3.498  0.00  0.00     0.000 A 
ATOM      5  C6  UNL d   1      -0.483  -0.700   3.754  0.00  0.00     0.000 A 
ATOM      6  C7  UNL d   1       0.247  -1.653   3.023  0.00  0.00    -0.073 A 
ATOM      7  C8  UNL d   1       1.703  -1.848   3.344  0.00  0.00     0.078 C 
ENDROOT
BRANCH   1   8
ATOM      8  C1  UNL d   1       0.291  -3.494   1.243  0.00  0.00     0.053 C 
ATOM      9  C   UNL d   1      -0.544  -3.997   0.076  0.00  0.00     0.018 C 
ENDBRANCH   1   8
TORSDOF 1
ENDMDL
