MODEL 1
REMARK minimizedAffinity 13.2539787
REMARK minimizedRMSD -1
REMARK  1 active torsions:
REMARK  status: ('A' for Active; 'I' for Inactive)
REMARK    1  A    between atoms: C1_2  and  C2_3 
ROOT
ATOM      1  C2  UNL d   1      -0.682   5.095  -3.199  0.00  0.00    -0.076 A 
ATOM      2  C3  UNL d   1      -1.579   5.957  -3.854  0.00  0.00     0.004 A 
ATOM      3  C4  UNL d   1      -1.695   5.951  -5.243  0.00  0.00    -0.003 A 
ATOM      4  C5  UNL d   1      -0.916   5.084  -6.000  0.00  0.00     0.000 A 
ATOM      5  C6  UNL d   1      -0.033   4.209  -5.366  0.00  0.00     0.000 A 
ATOM      6  C7  UNL d   1       0.084   4.191  -3.966  0.00  0.00    -0.073 A 
ATOM      7  C8  UNL d   1       1.056   3.231  -3.335  0.00  0.00     0.078 C 
ENDROOT
BRANCH   1   8
ATOM      8  C1  UNL d   1      -0.580   5.165  -1.692  0.00  0.00     0.053 C 
ATOM      9  C   UNL d   1      -1.941   5.167  -1.015  0.00  0.00     0.018 C 
ENDBRANCH   1   8
TORSDOF 1
ENDMDL
