MODEL 1
REMARK minimizedAffinity 12.0088968
REMARK minimizedRMSD -1
REMARK  1 active torsions:
REMARK  status: ('A' for Active; 'I' for Inactive)
REMARK    1  A    between atoms: C1_2  and  C2_3 
ROOT
ATOM      1  C2  UNL d   1      -5.809   1.476  -1.831  0.00  0.00    -0.076 A 
ATOM      2  C3  UNL d   1      -5.988   1.745  -3.199  0.00  0.00     0.004 A 
ATOM      3  C4  UNL d   1      -5.999   0.715  -4.138  0.00  0.00    -0.003 A 
ATOM      4  C5  UNL d   1      -5.832  -0.602  -3.723  0.00  0.00     0.000 A 
ATOM      5  C6  UNL d   1      -5.671  -0.889  -2.368  0.00  0.00     0.000 A 
ATOM      6  C7  UNL d   1      -5.674   0.137  -1.407  0.00  0.00    -0.073 A 
ATOM      7  C8  UNL d   1      -5.491  -0.229   0.040  0.00  0.00     0.078 C 
ENDROOT
BRANCH   1   8
ATOM      8  C1  UNL d   1      -5.779   2.637  -0.863  0.00  0.00     0.053 C 
ATOM      9  C   UNL d   1      -4.875   3.765  -1.334  0.00  0.00     0.018 C 
ENDBRANCH   1   8
TORSDOF 1
ENDMDL
