MODEL 1
REMARK minimizedAffinity 14.7819529
REMARK minimizedRMSD -1
REMARK  1 active torsions:
REMARK  status: ('A' for Active; 'I' for Inactive)
REMARK    1  A    between atoms: C1_2  and  C2_3 
ROOT
ATOM      1  C2  UNL d   1      -2.766  -0.764   2.250  0.00  0.00    -0.076 A 
ATOM      2  C3  UNL d   1      -2.136  -0.157   3.350  0.00  0.00     0.004 A 
ATOM      3  C4  UNL d   1      -2.755   0.875   4.053  0.00  0.00    -0.003 A 
ATOM      4  C5  UNL d   1      -4.016   1.317   3.667  0.00  0.00     0.000 A 
ATOM      5  C6  UNL d   1      -4.664   0.714   2.589  0.00  0.00     0.000 A 
ATOM      6  C7  UNL d   1      -4.060  -0.339   1.880  0.00  0.00    -0.073 A 
ATOM      7  C8  UNL d   1      -4.802  -0.948   0.722  0.00  0.00     0.078 C 
ENDROOT
BRANCH   1   8
ATOM      8  C1  UNL d   1      -2.034  -1.861   1.510  0.00  0.00     0.053 C 
ATOM      9  C   UNL d   1      -0.652  -2.129   2.085  0.00  0.00     0.018 C 
ENDBRANCH   1   8
TORSDOF 1
ENDMDL
