MODEL 1
REMARK minimizedAffinity 12.7036753
REMARK minimizedRMSD -1
REMARK  1 active torsions:
REMARK  status: ('A' for Active; 'I' for Inactive)
REMARK    1  A    between atoms: C1_2  and  C2_3 
ROOT
ATOM      1  C2  UNL d   1      -4.356  -3.965   3.616  0.00  0.00    -0.076 A 
ATOM      2  C3  UNL d   1      -4.346  -3.439   4.919  0.00  0.00     0.004 A 
ATOM      3  C4  UNL d   1      -4.837  -4.177   5.994  0.00  0.00    -0.003 A 
ATOM      4  C5  UNL d   1      -5.345  -5.454   5.784  0.00  0.00     0.000 A 
ATOM      5  C6  UNL d   1      -5.346  -5.999   4.500  0.00  0.00     0.000 A 
ATOM      6  C7  UNL d   1      -4.840  -5.274   3.408  0.00  0.00    -0.073 A 
ATOM      7  C8  UNL d   1      -4.871  -5.908   2.044  0.00  0.00     0.078 C 
ENDROOT
BRANCH   1   8
ATOM      8  C1  UNL d   1      -3.835  -3.107   2.484  0.00  0.00     0.053 C 
ATOM      9  C   UNL d   1      -2.515  -2.433   2.824  0.00  0.00     0.018 C 
ENDBRANCH   1   8
TORSDOF 1
ENDMDL
