MODEL 1
REMARK minimizedAffinity 1.05837297
REMARK minimizedRMSD -1
REMARK  0 active torsions:
REMARK  status: ('A' for Active; 'I' for Inactive)
ROOT
ATOM      1  C4' PXY d   1       2.947  -1.103   3.972  0.00  0.00     0.077 C 
ATOM      2  C1' PXY d   1       5.999  -5.770   5.497  0.00  0.00     0.077 C 
ATOM      3  C1  PXY d   1       5.203  -4.547   5.085  0.00  0.00    -0.082 A 
ATOM      4  C2  PXY d   1       4.845  -3.660   6.000  0.00  0.00     0.003 A 
ATOM      5  C3  PXY d   1       4.098  -2.565   5.650  0.00  0.00     0.003 A 
ATOM      6  C4  PXY d   1       3.759  -2.348   4.341  0.00  0.00    -0.082 A 
ATOM      7  C5  PXY d   1       4.129  -3.242   3.400  0.00  0.00     0.003 A 
ATOM      8  C6  PXY d   1       4.852  -4.369   3.783  0.00  0.00     0.003 A 
ENDROOT
TORSDOF 0
ENDMDL
