MODEL 1
REMARK minimizedAffinity 1.23116779
REMARK minimizedRMSD -1
REMARK  0 active torsions:
REMARK  status: ('A' for Active; 'I' for Inactive)
ROOT
ATOM      1  C4' PXY d   1      -3.178  -4.078  -0.393  0.00  0.00     0.077 C 
ATOM      2  C1' PXY d   1       2.147  -2.428   1.134  0.00  0.00     0.077 C 
ATOM      3  C1  PXY d   1       0.756  -2.871   0.728  0.00  0.00    -0.082 A 
ATOM      4  C2  PXY d   1      -0.212  -1.975   0.622  0.00  0.00     0.003 A 
ATOM      5  C3  PXY d   1      -1.483  -2.363   0.287  0.00  0.00     0.003 A 
ATOM      6  C4  PXY d   1      -1.756  -3.674   0.005  0.00  0.00    -0.082 A 
ATOM      7  C5  PXY d   1      -0.772  -4.594   0.100  0.00  0.00     0.003 A 
ATOM      8  C6  PXY d   1       0.503  -4.185   0.482  0.00  0.00     0.003 A 
ENDROOT
TORSDOF 0
ENDMDL
