MODEL 1
REMARK minimizedAffinity -2.27852845
REMARK minimizedRMSD -1
REMARK  0 active torsions:
REMARK  status: ('A' for Active; 'I' for Inactive)
ROOT
ATOM      1  C4' PXY d   1       0.503  -3.227  -2.851  0.00  0.00     0.077 C 
ATOM      2  C1' PXY d   1      -0.597  -1.736   2.624  0.00  0.00     0.077 C 
ATOM      3  C1  PXY d   1      -0.308  -2.140   1.192  0.00  0.00    -0.082 A 
ATOM      4  C2  PXY d   1       0.217  -1.258   0.357  0.00  0.00     0.003 A 
ATOM      5  C3  PXY d   1       0.455  -1.596  -0.950  0.00  0.00     0.003 A 
ATOM      6  C4  PXY d   1       0.203  -2.867  -1.394  0.00  0.00    -0.082 A 
ATOM      7  C5  PXY d   1      -0.322  -3.776  -0.545  0.00  0.00     0.003 A 
ATOM      8  C6  PXY d   1      -0.595  -3.400   0.767  0.00  0.00     0.003 A 
ENDROOT
TORSDOF 0
ENDMDL
