MODEL 1
REMARK minimizedAffinity -0.90743351
REMARK minimizedRMSD -1
REMARK  0 active torsions:
REMARK  status: ('A' for Active; 'I' for Inactive)
ROOT
ATOM      1  C4' PXY d   1       0.604  -1.872  -2.300  0.00  0.00     0.077 C 
ATOM      2  C1' PXY d   1      -1.594  -2.397   3.020  0.00  0.00     0.077 C 
ATOM      3  C1  PXY d   1      -1.007  -2.265   1.629  0.00  0.00    -0.082 A 
ATOM      4  C2  PXY d   1      -1.490  -1.355   0.799  0.00  0.00     0.003 A 
ATOM      5  C3  PXY d   1      -0.992  -1.243  -0.474  0.00  0.00     0.003 A 
ATOM      6  C4  PXY d   1       0.048  -2.035  -0.883  0.00  0.00    -0.082 A 
ATOM      7  C5  PXY d   1       0.553  -2.958  -0.038  0.00  0.00     0.003 A 
ATOM      8  C6  PXY d   1       0.006  -3.084   1.236  0.00  0.00     0.003 A 
ENDROOT
TORSDOF 0
ENDMDL
