MODEL 1
REMARK minimizedAffinity 9.64613914
REMARK minimizedRMSD -1
REMARK  0 active torsions:
REMARK  status: ('A' for Active; 'I' for Inactive)
ROOT
ATOM      1  C4' PXY d   1       0.579  -4.466   0.285  0.00  0.00     0.077 C 
ATOM      2  C1' PXY d   1       0.290   0.831  -2.011  0.00  0.00     0.077 C 
ATOM      3  C1  PXY d   1       0.358  -0.554  -1.399  0.00  0.00    -0.082 A 
ATOM      4  C2  PXY d   1       1.378  -1.346  -1.686  0.00  0.00     0.003 A 
ATOM      5  C3  PXY d   1       1.439  -2.614  -1.166  0.00  0.00     0.003 A 
ATOM      6  C4  PXY d   1       0.474  -3.056  -0.302  0.00  0.00    -0.082 A 
ATOM      7  C5  PXY d   1      -0.565  -2.249   0.004  0.00  0.00     0.003 A 
ATOM      8  C6  PXY d   1      -0.630  -0.981  -0.566  0.00  0.00     0.003 A 
ENDROOT
TORSDOF 0
ENDMDL
