MODEL 1
REMARK minimizedAffinity 7.38810492
REMARK minimizedRMSD -1
REMARK  0 active torsions:
REMARK  status: ('A' for Active; 'I' for Inactive)
ROOT
ATOM      1  C4' PXY d   1       2.226  -2.168  -2.284  0.00  0.00     0.077 C 
ATOM      2  C1' PXY d   1      -1.850  -2.814   1.764  0.00  0.00     0.077 C 
ATOM      3  C1  PXY d   1      -0.790  -2.638   0.695  0.00  0.00    -0.082 A 
ATOM      4  C2  PXY d   1       0.220  -3.491   0.628  0.00  0.00     0.003 A 
ATOM      5  C3  PXY d   1       1.204  -3.328  -0.313  0.00  0.00     0.003 A 
ATOM      6  C4  PXY d   1       1.127  -2.312  -1.227  0.00  0.00    -0.082 A 
ATOM      7  C5  PXY d   1       0.095  -1.444  -1.172  0.00  0.00     0.003 A 
ATOM      8  C6  PXY d   1      -0.872  -1.603  -0.184  0.00  0.00     0.003 A 
ENDROOT
TORSDOF 0
ENDMDL
