MODEL 1
REMARK minimizedAffinity 10.4354029
REMARK minimizedRMSD -1
REMARK  0 active torsions:
REMARK  status: ('A' for Active; 'I' for Inactive)
ROOT
ATOM      1  C4' PXY d   1      -1.811  -3.202   1.985  0.00  0.00     0.077 C 
ATOM      2  C1' PXY d   1       1.991  -2.419  -2.299  0.00  0.00     0.077 C 
ATOM      3  C1  PXY d   1       0.996  -2.637  -1.176  0.00  0.00    -0.082 A 
ATOM      4  C2  PXY d   1       0.044  -1.743  -0.962  0.00  0.00     0.003 A 
ATOM      5  C3  PXY d   1      -0.844  -1.909   0.069  0.00  0.00     0.003 A 
ATOM      6  C4  PXY d   1      -0.790  -3.028   0.857  0.00  0.00    -0.082 A 
ATOM      7  C5  PXY d   1       0.171  -3.950   0.638  0.00  0.00     0.003 A 
ATOM      8  C6  PXY d   1       1.088  -3.743  -0.388  0.00  0.00     0.003 A 
ENDROOT
TORSDOF 0
ENDMDL
