MODEL 1
REMARK minimizedAffinity 8.20148468
REMARK minimizedRMSD -1
REMARK  0 active torsions:
REMARK  status: ('A' for Active; 'I' for Inactive)
ROOT
ATOM      1  C4' PXY d   1       2.013   2.901   0.756  0.00  0.00     0.077 C 
ATOM      2  C1' PXY d   1       1.469  -1.527  -2.920  0.00  0.00     0.077 C 
ATOM      3  C1  PXY d   1       1.619  -0.373  -1.948  0.00  0.00    -0.082 A 
ATOM      4  C2  PXY d   1       0.721   0.598  -1.943  0.00  0.00     0.003 A 
ATOM      5  C3  PXY d   1       0.858   1.665  -1.093  0.00  0.00     0.003 A 
ATOM      6  C4  PXY d   1       1.897   1.712  -0.202  0.00  0.00    -0.082 A 
ATOM      7  C5  PXY d   1       2.811   0.719  -0.193  0.00  0.00     0.003 A 
ATOM      8  C6  PXY d   1       2.677  -0.335  -1.093  0.00  0.00     0.003 A 
ENDROOT
TORSDOF 0
ENDMDL
