MODEL 1
REMARK minimizedAffinity 1.12352395
REMARK minimizedRMSD -1
REMARK  0 active torsions:
REMARK  status: ('A' for Active; 'I' for Inactive)
ROOT
ATOM      1  C4' PXY d   1      -0.859  -2.387   2.128  0.00  0.00     0.077 C 
ATOM      2  C1' PXY d   1       1.601  -3.227  -3.035  0.00  0.00     0.077 C 
ATOM      3  C1  PXY d   1       0.953  -3.020  -1.681  0.00  0.00    -0.082 A 
ATOM      4  C2  PXY d   1       0.501  -1.821  -1.349  0.00  0.00     0.003 A 
ATOM      5  C3  PXY d   1      -0.059  -1.608  -0.115  0.00  0.00     0.003 A 
ATOM      6  C4  PXY d   1      -0.206  -2.645   0.767  0.00  0.00    -0.082 A 
ATOM      7  C5  PXY d   1       0.242  -3.873   0.431  0.00  0.00     0.003 A 
ATOM      8  C6  PXY d   1       0.845  -4.059  -0.809  0.00  0.00     0.003 A 
ENDROOT
TORSDOF 0
ENDMDL
