MODEL 1
REMARK minimizedAffinity 8.69691181
REMARK minimizedRMSD -1
REMARK  0 active torsions:
REMARK  status: ('A' for Active; 'I' for Inactive)
ROOT
ATOM      1  C4' PXY d   1       1.680  -2.593  -3.528  0.00  0.00     0.077 C 
ATOM      2  C1' PXY d   1      -0.730  -2.974   1.713  0.00  0.00     0.077 C 
ATOM      3  C1  PXY d   1      -0.106  -2.864   0.335  0.00  0.00    -0.082 A 
ATOM      4  C2  PXY d   1       0.526  -3.906  -0.181  0.00  0.00     0.003 A 
ATOM      5  C3  PXY d   1       1.123  -3.814  -1.412  0.00  0.00     0.003 A 
ATOM      6  C4  PXY d   1       1.027  -2.661  -2.145  0.00  0.00    -0.082 A 
ATOM      7  C5  PXY d   1       0.374  -1.598  -1.629  0.00  0.00     0.003 A 
ATOM      8  C6  PXY d   1      -0.190  -1.698  -0.361  0.00  0.00     0.003 A 
ENDROOT
TORSDOF 0
ENDMDL
