MODEL 1
REMARK minimizedAffinity 3.3450644
REMARK minimizedRMSD -1
REMARK  0 active torsions:
REMARK  status: ('A' for Active; 'I' for Inactive)
ROOT
ATOM      1  C4' PXY d   1       5.999   6.000  -4.509  0.00  0.00     0.077 C 
ATOM      2  C1' PXY d   1       2.839   1.935  -1.880  0.00  0.00     0.077 C 
ATOM      3  C1  PXY d   1       3.657   3.007  -2.573  0.00  0.00    -0.082 A 
ATOM      4  C2  PXY d   1       4.874   2.723  -3.008  0.00  0.00     0.003 A 
ATOM      5  C3  PXY d   1       5.639   3.690  -3.608  0.00  0.00     0.003 A 
ATOM      6  C4  PXY d   1       5.134   4.946  -3.812  0.00  0.00    -0.082 A 
ATOM      7  C5  PXY d   1       3.889   5.241  -3.380  0.00  0.00     0.003 A 
ATOM      8  C6  PXY d   1       3.144   4.257  -2.737  0.00  0.00     0.003 A 
ENDROOT
TORSDOF 0
ENDMDL
