MODEL 1
REMARK minimizedAffinity 6.09726286
REMARK minimizedRMSD -1
REMARK  0 active torsions:
REMARK  status: ('A' for Active; 'I' for Inactive)
ROOT
ATOM      1  C4' PXY d   1       2.325  -3.722   1.833  0.00  0.00     0.077 C 
ATOM      2  C1' PXY d   1      -3.084  -2.923  -0.042  0.00  0.00     0.077 C 
ATOM      3  C1  PXY d   1      -1.663  -3.139   0.439  0.00  0.00    -0.082 A 
ATOM      4  C2  PXY d   1      -1.403  -3.134   1.736  0.00  0.00     0.003 A 
ATOM      5  C3  PXY d   1      -0.118  -3.296   2.187  0.00  0.00     0.003 A 
ATOM      6  C4  PXY d   1       0.903  -3.517   1.303  0.00  0.00    -0.082 A 
ATOM      7  C5  PXY d   1       0.645  -3.534  -0.022  0.00  0.00     0.003 A 
ATOM      8  C6  PXY d   1      -0.660  -3.327  -0.461  0.00  0.00     0.003 A 
ENDROOT
TORSDOF 0
ENDMDL
