MODEL 1
REMARK minimizedAffinity 0.860378563
REMARK minimizedRMSD -1
REMARK  0 active torsions:
REMARK  status: ('A' for Active; 'I' for Inactive)
ROOT
ATOM      1  C4' PXY d   1      -0.089  -1.476  -2.116  0.00  0.00     0.077 C 
ATOM      2  C1' PXY d   1      -1.602  -1.296   3.460  0.00  0.00     0.077 C 
ATOM      3  C1  PXY d   1      -1.198  -1.354   2.000  0.00  0.00    -0.082 A 
ATOM      4  C2  PXY d   1      -1.243  -0.255   1.265  0.00  0.00     0.003 A 
ATOM      5  C3  PXY d   1      -0.911  -0.296  -0.065  0.00  0.00     0.003 A 
ATOM      6  C4  PXY d   1      -0.479  -1.463  -0.635  0.00  0.00    -0.082 A 
ATOM      7  C5  PXY d   1      -0.420  -2.586   0.111  0.00  0.00     0.003 A 
ATOM      8  C6  PXY d   1      -0.800  -2.533   1.448  0.00  0.00     0.003 A 
ENDROOT
TORSDOF 0
ENDMDL
