MODEL 1
REMARK minimizedAffinity -1.23447251
REMARK minimizedRMSD -1
REMARK  0 active torsions:
REMARK  status: ('A' for Active; 'I' for Inactive)
ROOT
ATOM      1  C4' PXY d   1       0.503   3.692   1.546  0.00  0.00     0.077 C 
ATOM      2  C1' PXY d   1       0.517  -1.212  -1.513  0.00  0.00     0.077 C 
ATOM      3  C1  PXY d   1       0.502   0.070  -0.705  0.00  0.00    -0.082 A 
ATOM      4  C2  PXY d   1       1.109   1.147  -1.176  0.00  0.00     0.003 A 
ATOM      5  C3  PXY d   1       1.133   2.306  -0.444  0.00  0.00     0.003 A 
ATOM      6  C4  PXY d   1       0.484   2.379   0.760  0.00  0.00    -0.082 A 
ATOM      7  C5  PXY d   1      -0.146   1.287   1.242  0.00  0.00     0.003 A 
ATOM      8  C6  PXY d   1      -0.124   0.108   0.502  0.00  0.00     0.003 A 
ENDROOT
TORSDOF 0
ENDMDL
