MODEL 1
REMARK minimizedAffinity -5.09915209
REMARK minimizedRMSD -1
REMARK  0 active torsions:
REMARK  status: ('A' for Active; 'I' for Inactive)
ROOT
ATOM      1  C4' PXY d   1      -0.644   1.204  -0.004  0.00  0.00     0.077 C 
ATOM      2  C1' PXY d   1       0.591  -4.441  -0.183  0.00  0.00     0.077 C 
ATOM      3  C1  PXY d   1       0.254  -2.963  -0.134  0.00  0.00    -0.082 A 
ATOM      4  C2  PXY d   1       1.054  -2.090  -0.726  0.00  0.00     0.003 A 
ATOM      5  C3  PXY d   1       0.781  -0.748  -0.664  0.00  0.00     0.003 A 
ATOM      6  C4  PXY d   1      -0.349  -0.298  -0.036  0.00  0.00    -0.082 A 
ATOM      7  C5  PXY d   1      -1.175  -1.184   0.561  0.00  0.00     0.003 A 
ATOM      8  C6  PXY d   1      -0.859  -2.539   0.522  0.00  0.00     0.003 A 
ENDROOT
TORSDOF 0
ENDMDL
