MODEL 1
REMARK minimizedAffinity 10.496644
REMARK minimizedRMSD -1
REMARK  0 active torsions:
REMARK  status: ('A' for Active; 'I' for Inactive)
ROOT
ATOM      1  C4' PXY d   1       3.010  -1.514  -1.852  0.00  0.00     0.077 C 
ATOM      2  C1' PXY d   1       4.572  -5.225  -6.000  0.00  0.00     0.077 C 
ATOM      3  C1  PXY d   1       4.175  -4.248  -4.911  0.00  0.00    -0.082 A 
ATOM      4  C2  PXY d   1       3.091  -4.479  -4.188  0.00  0.00     0.003 A 
ATOM      5  C3  PXY d   1       2.700  -3.590  -3.221  0.00  0.00     0.003 A 
ATOM      6  C4  PXY d   1       3.454  -2.479  -2.955  0.00  0.00    -0.082 A 
ATOM      7  C5  PXY d   1       4.567  -2.241  -3.682  0.00  0.00     0.003 A 
ATOM      8  C6  PXY d   1       4.925  -3.135  -4.687  0.00  0.00     0.003 A 
ENDROOT
TORSDOF 0
ENDMDL
