MODEL 1
REMARK minimizedAffinity 2.6319263
REMARK minimizedRMSD -1
REMARK  0 active torsions:
REMARK  status: ('A' for Active; 'I' for Inactive)
ROOT
ATOM      1  C4' PXY d   1      -1.129  -2.999  -2.389  0.00  0.00     0.077 C 
ATOM      2  C1' PXY d   1      -0.751   0.349   2.308  0.00  0.00     0.077 C 
ATOM      3  C1  PXY d   1      -0.853  -0.540   1.083  0.00  0.00    -0.082 A 
ATOM      4  C2  PXY d   1      -0.222  -0.196  -0.028  0.00  0.00     0.003 A 
ATOM      5  C3  PXY d   1      -0.330  -0.972  -1.154  0.00  0.00     0.003 A 
ATOM      6  C4  PXY d   1      -1.046  -2.138  -1.126  0.00  0.00    -0.082 A 
ATOM      7  C5  PXY d   1      -1.684  -2.500   0.007  0.00  0.00     0.003 A 
ATOM      8  C6  PXY d   1      -1.596  -1.678   1.127  0.00  0.00     0.003 A 
ENDROOT
TORSDOF 0
ENDMDL
