MODEL 1
REMARK minimizedAffinity -0.0593481772
REMARK minimizedRMSD -1
REMARK  0 active torsions:
REMARK  status: ('A' for Active; 'I' for Inactive)
ROOT
ATOM      1  C4' PXY d   1      -1.461  -3.447  -2.413  0.00  0.00     0.077 C 
ATOM      2  C1' PXY d   1       0.161  -0.016   1.948  0.00  0.00     0.077 C 
ATOM      3  C1  PXY d   1      -0.264  -0.906   0.796  0.00  0.00    -0.082 A 
ATOM      4  C2  PXY d   1      -0.906  -2.036   1.045  0.00  0.00     0.003 A 
ATOM      5  C3  PXY d   1      -1.269  -2.868   0.017  0.00  0.00     0.003 A 
ATOM      6  C4  PXY d   1      -1.021  -2.513  -1.282  0.00  0.00    -0.082 A 
ATOM      7  C5  PXY d   1      -0.377  -1.356  -1.544  0.00  0.00     0.003 A 
ATOM      8  C6  PXY d   1       0.021  -0.546  -0.485  0.00  0.00     0.003 A 
ENDROOT
TORSDOF 0
ENDMDL
