MODEL 1
REMARK minimizedAffinity -2.37627149
REMARK minimizedRMSD -1
REMARK  0 active torsions:
REMARK  status: ('A' for Active; 'I' for Inactive)
ROOT
ATOM      1  C4' PXY d   1       1.406  -1.603  -2.390  0.00  0.00     0.077 C 
ATOM      2  C1' PXY d   1      -1.778   0.250   2.065  0.00  0.00     0.077 C 
ATOM      3  C1  PXY d   1      -0.942  -0.248   0.902  0.00  0.00    -0.082 A 
ATOM      4  C2  PXY d   1      -0.289   0.621   0.147  0.00  0.00     0.003 A 
ATOM      5  C3  PXY d   1       0.446   0.191  -0.927  0.00  0.00     0.003 A 
ATOM      6  C4  PXY d   1       0.557  -1.147  -1.200  0.00  0.00    -0.082 A 
ATOM      7  C5  PXY d   1      -0.097  -2.040  -0.428  0.00  0.00     0.003 A 
ATOM      8  C6  PXY d   1      -0.871  -1.580   0.634  0.00  0.00     0.003 A 
ENDROOT
TORSDOF 0
ENDMDL
