MODEL 1
REMARK minimizedAffinity 1.3201251
REMARK minimizedRMSD -1
REMARK  0 active torsions:
REMARK  status: ('A' for Active; 'I' for Inactive)
ROOT
ATOM      1  C   UNL d   1      -1.513   3.004  -5.347  0.00  0.00    -0.002 A 
ATOM      2  C1  UNL d   1      -2.170   1.797  -5.157  0.00  0.00     0.010 A 
ATOM      3  C2  UNL d   1      -3.562   1.725  -5.243  0.00  0.00     0.041 A 
ATOM      4  C3  UNL d   1      -4.289   2.898  -5.526  0.00  0.00    -0.075 A 
ATOM      5  S   UNL d   1      -5.999   3.049  -5.679  0.00  0.00     0.015 SA
ATOM      6  C4  UNL d   1      -5.898   4.720  -5.999  0.00  0.00     0.022 A 
ATOM      7  C5  UNL d   1      -4.598   5.168  -5.994  0.00  0.00     0.026 A 
ATOM      8  C6  UNL d   1      -3.649   4.125  -5.721  0.00  0.00    -0.082 A 
ATOM      9  C7  UNL d   1      -2.237   4.166  -5.627  0.00  0.00     0.045 A 
ENDROOT
TORSDOF 0
ENDMDL
