MODEL 1
REMARK minimizedAffinity -0.913206756
REMARK minimizedRMSD -1
REMARK  0 active torsions:
REMARK  status: ('A' for Active; 'I' for Inactive)
ROOT
ATOM      1  C   UNL d   1      -4.437   1.195   2.921  0.00  0.00    -0.002 A 
ATOM      2  C1  UNL d   1      -3.597   1.759   3.871  0.00  0.00     0.010 A 
ATOM      3  C2  UNL d   1      -2.215   1.576   3.796  0.00  0.00     0.041 A 
ATOM      4  C3  UNL d   1      -1.686   0.810   2.739  0.00  0.00    -0.075 A 
ATOM      5  S   UNL d   1      -0.025   0.453   2.444  0.00  0.00     0.015 SA
ATOM      6  C4  UNL d   1      -0.390  -0.456   1.050  0.00  0.00     0.022 A 
ATOM      7  C5  UNL d   1      -1.742  -0.497   0.800  0.00  0.00     0.026 A 
ATOM      8  C6  UNL d   1      -2.510   0.233   1.769  0.00  0.00    -0.082 A 
ATOM      9  C7  UNL d   1      -3.908   0.436   1.873  0.00  0.00     0.045 A 
ENDROOT
TORSDOF 0
ENDMDL
