MODEL 1
REMARK minimizedAffinity 1.50155711
REMARK minimizedRMSD -1
REMARK  0 active torsions:
REMARK  status: ('A' for Active; 'I' for Inactive)
ROOT
ATOM      1  C   UNL d   1       0.025  -3.202  -1.260  0.00  0.00    -0.002 A 
ATOM      2  C1  UNL d   1       0.467  -2.270  -2.188  0.00  0.00     0.010 A 
ATOM      3  C2  UNL d   1       0.426  -0.905  -1.899  0.00  0.00     0.041 A 
ATOM      4  C3  UNL d   1      -0.070  -0.488  -0.648  0.00  0.00    -0.075 A 
ATOM      5  S   UNL d   1      -0.213   1.131  -0.074  0.00  0.00     0.015 SA
ATOM      6  C4  UNL d   1      -0.863   0.624   1.418  0.00  0.00     0.022 A 
ATOM      7  C5  UNL d   1      -0.976  -0.744   1.493  0.00  0.00     0.026 A 
ATOM      8  C6  UNL d   1      -0.520  -1.407   0.304  0.00  0.00    -0.082 A 
ATOM      9  C7  UNL d   1      -0.466  -2.785  -0.020  0.00  0.00     0.045 A 
ENDROOT
TORSDOF 0
ENDMDL
