MODEL 1
REMARK minimizedAffinity 3.87772799
REMARK minimizedRMSD -1
REMARK  0 active torsions:
REMARK  status: ('A' for Active; 'I' for Inactive)
ROOT
ATOM      1  C   UNL d   1       0.759  -0.248  -1.145  0.00  0.00    -0.002 A 
ATOM      2  C1  UNL d   1      -0.263  -0.951  -0.522  0.00  0.00     0.010 A 
ATOM      3  C2  UNL d   1      -0.633  -0.652   0.791  0.00  0.00     0.041 A 
ATOM      4  C3  UNL d   1       0.046   0.377   1.472  0.00  0.00    -0.075 A 
ATOM      5  S   UNL d   1      -0.238   0.919   3.084  0.00  0.00     0.015 SA
ATOM      6  C4  UNL d   1       0.990   2.097   2.984  0.00  0.00     0.022 A 
ATOM      7  C5  UNL d   1       1.611   2.091   1.758  0.00  0.00     0.026 A 
ATOM      8  C6  UNL d   1       1.077   1.100   0.866  0.00  0.00    -0.082 A 
ATOM      9  C7  UNL d   1       1.430   0.772  -0.465  0.00  0.00     0.045 A 
ENDROOT
TORSDOF 0
ENDMDL
