MODEL 1
REMARK minimizedAffinity -0.236929506
REMARK minimizedRMSD -1
REMARK  0 active torsions:
REMARK  status: ('A' for Active; 'I' for Inactive)
ROOT
ATOM      1  C   UNL d   1       1.622   0.046  -2.754  0.00  0.00    -0.002 A 
ATOM      2  C1  UNL d   1       2.437   0.892  -2.016  0.00  0.00     0.010 A 
ATOM      3  C2  UNL d   1       2.137   1.184  -0.684  0.00  0.00     0.041 A 
ATOM      4  C3  UNL d   1       0.994   0.604  -0.100  0.00  0.00    -0.075 A 
ATOM      5  S   UNL d   1       0.430   0.816   1.515  0.00  0.00     0.015 SA
ATOM      6  C4  UNL d   1      -0.906  -0.212   1.264  0.00  0.00     0.022 A 
ATOM      7  C5  UNL d   1      -0.937  -0.713  -0.016  0.00  0.00     0.026 A 
ATOM      8  C6  UNL d   1       0.158  -0.252  -0.823  0.00  0.00    -0.082 A 
ATOM      9  C7  UNL d   1       0.488  -0.527  -2.172  0.00  0.00     0.045 A 
ENDROOT
TORSDOF 0
ENDMDL
