MODEL 1
REMARK minimizedAffinity 0.17028594
REMARK minimizedRMSD -1
REMARK  0 active torsions:
REMARK  status: ('A' for Active; 'I' for Inactive)
ROOT
ATOM      1  C   UNL d   1      -3.952   2.959   4.282  0.00  0.00    -0.002 A 
ATOM      2  C1  UNL d   1      -2.649   2.482   4.283  0.00  0.00     0.010 A 
ATOM      3  C2  UNL d   1      -2.241   1.528   3.349  0.00  0.00     0.041 A 
ATOM      4  C3  UNL d   1      -3.174   1.059   2.402  0.00  0.00    -0.075 A 
ATOM      5  S   UNL d   1      -2.899  -0.107   1.162  0.00  0.00     0.015 SA
ATOM      6  C4  UNL d   1      -4.505   0.002   0.601  0.00  0.00     0.022 A 
ATOM      7  C5  UNL d   1      -5.246   0.901   1.331  0.00  0.00     0.026 A 
ATOM      8  C6  UNL d   1      -4.491   1.525   2.381  0.00  0.00    -0.082 A 
ATOM      9  C7  UNL d   1      -4.874   2.491   3.342  0.00  0.00     0.045 A 
ENDROOT
TORSDOF 0
ENDMDL
