MODEL 1
REMARK minimizedAffinity -3.70021629
REMARK minimizedRMSD -1
REMARK  0 active torsions:
REMARK  status: ('A' for Active; 'I' for Inactive)
ROOT
ATOM      1  C   UNL d   1       1.889  -0.016  -2.777  0.00  0.00    -0.002 A 
ATOM      2  C1  UNL d   1       1.681   1.189  -2.121  0.00  0.00     0.010 A 
ATOM      3  C2  UNL d   1       1.005   1.225  -0.899  0.00  0.00     0.041 A 
ATOM      4  C3  UNL d   1       0.539   0.018  -0.342  0.00  0.00    -0.075 A 
ATOM      5  S   UNL d   1      -0.313  -0.181   1.143  0.00  0.00     0.015 SA
ATOM      6  C4  UNL d   1      -0.420  -1.870   0.942  0.00  0.00     0.022 A 
ATOM      7  C5  UNL d   1       0.174  -2.289  -0.225  0.00  0.00     0.026 A 
ATOM      8  C6  UNL d   1       0.737  -1.208  -0.984  0.00  0.00    -0.082 A 
ATOM      9  C7  UNL d   1       1.425  -1.212  -2.221  0.00  0.00     0.045 A 
ENDROOT
TORSDOF 0
ENDMDL
