MODEL 1
REMARK minimizedAffinity 1.28203189
REMARK minimizedRMSD -1
REMARK  0 active torsions:
REMARK  status: ('A' for Active; 'I' for Inactive)
ROOT
ATOM      1  C   UNL d   1      -1.450   0.406  -0.588  0.00  0.00    -0.002 A 
ATOM      2  C1  UNL d   1      -0.979  -0.769  -0.019  0.00  0.00     0.010 A 
ATOM      3  C2  UNL d   1       0.382  -1.077  -0.048  0.00  0.00     0.041 A 
ATOM      4  C3  UNL d   1       1.272  -0.174  -0.663  0.00  0.00    -0.075 A 
ATOM      5  S   UNL d   1       2.981  -0.340  -0.817  0.00  0.00     0.015 SA
ATOM      6  C4  UNL d   1       3.127   1.145  -1.640  0.00  0.00     0.022 A 
ATOM      7  C5  UNL d   1       1.911   1.766  -1.803  0.00  0.00     0.026 A 
ATOM      8  C6  UNL d   1       0.822   1.016  -1.242  0.00  0.00    -0.082 A 
ATOM      9  C7  UNL d   1      -0.564   1.299  -1.197  0.00  0.00     0.045 A 
ENDROOT
TORSDOF 0
ENDMDL
