MODEL 1
REMARK minimizedAffinity -0.669185519
REMARK minimizedRMSD -1
REMARK  0 active torsions:
REMARK  status: ('A' for Active; 'I' for Inactive)
ROOT
ATOM      1  C   UNL d   1       2.352   2.621   3.123  0.00  0.00    -0.002 A 
ATOM      2  C1  UNL d   1       1.593   1.675   3.797  0.00  0.00     0.010 A 
ATOM      3  C2  UNL d   1       0.828   0.745   3.091  0.00  0.00     0.041 A 
ATOM      4  C3  UNL d   1       0.840   0.780   1.682  0.00  0.00    -0.075 A 
ATOM      5  S   UNL d   1      -0.017  -0.262   0.609  0.00  0.00     0.015 SA
ATOM      6  C4  UNL d   1       0.605   0.524  -0.770  0.00  0.00     0.022 A 
ATOM      7  C5  UNL d   1       1.448   1.558  -0.437  0.00  0.00     0.026 A 
ATOM      8  C6  UNL d   1       1.598   1.722   0.981  0.00  0.00    -0.082 A 
ATOM      9  C7  UNL d   1       2.362   2.653   1.726  0.00  0.00     0.045 A 
ENDROOT
TORSDOF 0
ENDMDL
