MODEL 1
REMARK minimizedAffinity -2.62985921
REMARK minimizedRMSD -1
REMARK  0 active torsions:
REMARK  status: ('A' for Active; 'I' for Inactive)
ROOT
ATOM      1  C   UNL d   1       1.761  -0.224  -3.163  0.00  0.00    -0.002 A 
ATOM      2  C1  UNL d   1       1.006   0.911  -2.903  0.00  0.00     0.010 A 
ATOM      3  C2  UNL d   1       0.186   0.975  -1.775  0.00  0.00     0.041 A 
ATOM      4  C3  UNL d   1       0.138  -0.130  -0.903  0.00  0.00    -0.075 A 
ATOM      5  S   UNL d   1      -0.794  -0.276   0.540  0.00  0.00     0.015 SA
ATOM      6  C4  UNL d   1      -0.212  -1.849   0.845  0.00  0.00     0.022 A 
ATOM      7  C5  UNL d   1       0.673  -2.268  -0.120  0.00  0.00     0.026 A 
ATOM      8  C6  UNL d   1       0.889  -1.284  -1.143  0.00  0.00    -0.082 A 
ATOM      9  C7  UNL d   1       1.711  -1.319  -2.296  0.00  0.00     0.045 A 
ENDROOT
TORSDOF 0
ENDMDL
