MODEL 1
REMARK minimizedAffinity 1.41897702
REMARK minimizedRMSD -1
REMARK  0 active torsions:
REMARK  status: ('A' for Active; 'I' for Inactive)
ROOT
ATOM      1  C   UNL d   1      -2.386  -4.206  -3.995  0.00  0.00    -0.002 A 
ATOM      2  C1  UNL d   1      -2.456  -4.133  -5.379  0.00  0.00     0.010 A 
ATOM      3  C2  UNL d   1      -3.405  -3.318  -6.000  0.00  0.00     0.041 A 
ATOM      4  C3  UNL d   1      -4.290  -2.570  -5.199  0.00  0.00    -0.075 A 
ATOM      5  S   UNL d   1      -5.533  -1.504  -5.739  0.00  0.00     0.015 SA
ATOM      6  C4  UNL d   1      -6.000  -1.121  -4.145  0.00  0.00     0.022 A 
ATOM      7  C5  UNL d   1      -5.237  -1.782  -3.211  0.00  0.00     0.026 A 
ATOM      8  C6  UNL d   1      -4.239  -2.627  -3.803  0.00  0.00    -0.082 A 
ATOM      9  C7  UNL d   1      -3.266  -3.463  -3.203  0.00  0.00     0.045 A 
ENDROOT
TORSDOF 0
ENDMDL
