MODEL 1
REMARK minimizedAffinity 3.04708648
REMARK minimizedRMSD -1
REMARK  0 active torsions:
REMARK  status: ('A' for Active; 'I' for Inactive)
ROOT
ATOM      1  C   UNL d   1      -3.688   2.253   4.128  0.00  0.00    -0.002 A 
ATOM      2  C1  UNL d   1      -3.640   2.648   2.798  0.00  0.00     0.010 A 
ATOM      3  C2  UNL d   1      -2.574   2.263   1.982  0.00  0.00     0.041 A 
ATOM      4  C3  UNL d   1      -1.550   1.467   2.529  0.00  0.00    -0.075 A 
ATOM      5  S   UNL d   1      -0.148   0.875   1.718  0.00  0.00     0.015 SA
ATOM      6  C4  UNL d   1       0.420   0.084   3.117  0.00  0.00     0.022 A 
ATOM      7  C5  UNL d   1      -0.427   0.257   4.186  0.00  0.00     0.026 A 
ATOM      8  C6  UNL d   1      -1.577   1.056   3.865  0.00  0.00    -0.082 A 
ATOM      9  C7  UNL d   1      -2.670   1.463   4.667  0.00  0.00     0.045 A 
ENDROOT
TORSDOF 0
ENDMDL
