MODEL 1
REMARK minimizedAffinity -5.55327177
REMARK minimizedRMSD -1
REMARK  0 active torsions:
REMARK  status: ('A' for Active; 'I' for Inactive)
ROOT
ATOM      1  C   UNL d   1       2.082   0.352  -3.173  0.00  0.00     0.078 C 
ATOM      2  C1  UNL d   1       1.430   0.307  -1.823  0.00  0.00    -0.077 A 
ATOM      3  C2  UNL d   1       0.748  -0.836  -1.389  0.00  0.00    -0.001 A 
ATOM      4  C3  UNL d   1       0.138  -0.860  -0.134  0.00  0.00     0.003 A 
ATOM      5  C4  UNL d   1       0.203   0.257   0.697  0.00  0.00    -0.005 A 
ATOM      6  C5  UNL d   1       0.877   1.400   0.273  0.00  0.00     0.003 A 
ATOM      7  C6  UNL d   1       1.488   1.426  -0.982  0.00  0.00    -0.001 A 
ENDROOT
TORSDOF 0
ENDMDL
