MODEL 1
REMARK minimizedAffinity -4.06643105
REMARK minimizedRMSD -1
REMARK  0 active torsions:
REMARK  status: ('A' for Active; 'I' for Inactive)
ROOT
ATOM      1  C   UNL d   1       1.925   0.226  -2.163  0.00  0.00     0.078 C 
ATOM      2  C1  UNL d   1       1.078   0.023  -0.943  0.00  0.00    -0.077 A 
ATOM      3  C2  UNL d   1       0.766   1.093  -0.095  0.00  0.00    -0.001 A 
ATOM      4  C3  UNL d   1      -0.015   0.888   1.043  0.00  0.00     0.003 A 
ATOM      5  C4  UNL d   1      -0.490  -0.387   1.345  0.00  0.00    -0.005 A 
ATOM      6  C5  UNL d   1      -0.182  -1.458   0.509  0.00  0.00     0.003 A 
ATOM      7  C6  UNL d   1       0.599  -1.255  -0.629  0.00  0.00    -0.001 A 
ENDROOT
TORSDOF 0
ENDMDL
