MODEL 1
REMARK minimizedAffinity -5.42869425
REMARK minimizedRMSD -1
REMARK  0 active torsions:
REMARK  status: ('A' for Active; 'I' for Inactive)
ROOT
ATOM      1  C   UNL d   1       1.548  -2.295  -1.530  0.00  0.00     0.078 C 
ATOM      2  C1  UNL d   1       1.448  -0.813  -1.327  0.00  0.00    -0.077 A 
ATOM      3  C2  UNL d   1       2.125   0.078  -2.169  0.00  0.00    -0.001 A 
ATOM      4  C3  UNL d   1       2.032   1.455  -1.962  0.00  0.00     0.003 A 
ATOM      5  C4  UNL d   1       1.263   1.954  -0.913  0.00  0.00    -0.005 A 
ATOM      6  C5  UNL d   1       0.587   1.076  -0.068  0.00  0.00     0.003 A 
ATOM      7  C6  UNL d   1       0.679  -0.302  -0.273  0.00  0.00    -0.001 A 
ENDROOT
TORSDOF 0
ENDMDL
