MODEL 1
REMARK minimizedAffinity -5.57698107
REMARK minimizedRMSD -1
REMARK  0 active torsions:
REMARK  status: ('A' for Active; 'I' for Inactive)
ROOT
ATOM      1  C   UNL d   1       1.726  -0.345  -3.081  0.00  0.00     0.078 C 
ATOM      2  C1  UNL d   1       1.171   0.097  -1.760  0.00  0.00    -0.077 A 
ATOM      3  C2  UNL d   1       0.388  -0.765  -0.982  0.00  0.00    -0.001 A 
ATOM      4  C3  UNL d   1      -0.129  -0.337   0.241  0.00  0.00     0.003 A 
ATOM      5  C4  UNL d   1       0.129   0.954   0.697  0.00  0.00    -0.005 A 
ATOM      6  C5  UNL d   1       0.905   1.820  -0.071  0.00  0.00     0.003 A 
ATOM      7  C6  UNL d   1       1.423   1.394  -1.295  0.00  0.00    -0.001 A 
ENDROOT
TORSDOF 0
ENDMDL
