MODEL 1
REMARK minimizedAffinity -3.44686961
REMARK minimizedRMSD -1
REMARK  0 active torsions:
REMARK  status: ('A' for Active; 'I' for Inactive)
ROOT
ATOM      1  C   UNL d   1      -0.777  -0.080   1.468  0.00  0.00     0.078 C 
ATOM      2  C1  UNL d   1       0.144   0.195   0.317  0.00  0.00    -0.077 A 
ATOM      3  C2  UNL d   1       1.105   1.211   0.390  0.00  0.00    -0.001 A 
ATOM      4  C3  UNL d   1       1.950   1.463  -0.692  0.00  0.00     0.003 A 
ATOM      5  C4  UNL d   1       1.841   0.704  -1.856  0.00  0.00    -0.005 A 
ATOM      6  C5  UNL d   1       0.887  -0.308  -1.938  0.00  0.00     0.003 A 
ATOM      7  C6  UNL d   1       0.041  -0.561  -0.857  0.00  0.00    -0.001 A 
ENDROOT
TORSDOF 0
ENDMDL
