MODEL 1
REMARK minimizedAffinity -4.8164463
REMARK minimizedRMSD -1
REMARK  0 active torsions:
REMARK  status: ('A' for Active; 'I' for Inactive)
ROOT
ATOM      1  C   UNL d   1      -0.979   0.171   0.930  0.00  0.00     0.078 C 
ATOM      2  C1  UNL d   1       0.039   0.403  -0.146  0.00  0.00    -0.077 A 
ATOM      3  C2  UNL d   1       0.340  -0.595  -1.082  0.00  0.00    -0.001 A 
ATOM      4  C3  UNL d   1       1.297  -0.368  -2.072  0.00  0.00     0.003 A 
ATOM      5  C4  UNL d   1       1.962   0.854  -2.136  0.00  0.00    -0.005 A 
ATOM      6  C5  UNL d   1       1.671   1.852  -1.209  0.00  0.00     0.003 A 
ATOM      7  C6  UNL d   1       0.715   1.628  -0.217  0.00  0.00    -0.001 A 
ENDROOT
TORSDOF 0
ENDMDL
