MODEL 1
REMARK minimizedAffinity -4.46700335
REMARK minimizedRMSD -1
REMARK  0 active torsions:
REMARK  status: ('A' for Active; 'I' for Inactive)
ROOT
ATOM      1  C   UNL d   1      -0.685   0.355   0.400  0.00  0.00     0.078 C 
ATOM      2  C1  UNL d   1       0.367   0.389  -0.669  0.00  0.00    -0.077 A 
ATOM      3  C2  UNL d   1       0.155  -0.227  -1.908  0.00  0.00    -0.001 A 
ATOM      4  C3  UNL d   1       1.147  -0.196  -2.890  0.00  0.00     0.003 A 
ATOM      5  C4  UNL d   1       2.358   0.448  -2.642  0.00  0.00    -0.005 A 
ATOM      6  C5  UNL d   1       2.578   1.061  -1.410  0.00  0.00     0.003 A 
ATOM      7  C6  UNL d   1       1.587   1.032  -0.427  0.00  0.00    -0.001 A 
ENDROOT
TORSDOF 0
ENDMDL
