MODEL 1
REMARK minimizedAffinity -3.9045012
REMARK minimizedRMSD -1
REMARK  0 active torsions:
REMARK  status: ('A' for Active; 'I' for Inactive)
ROOT
ATOM      1  C   UNL d   1       1.480  -0.138  -2.916  0.00  0.00     0.078 C 
ATOM      2  C1  UNL d   1       0.796  -0.360  -1.600  0.00  0.00    -0.077 A 
ATOM      3  C2  UNL d   1       0.312   0.717  -0.848  0.00  0.00    -0.001 A 
ATOM      4  C3  UNL d   1      -0.314   0.496   0.379  0.00  0.00     0.003 A 
ATOM      5  C4  UNL d   1      -0.461  -0.801   0.867  0.00  0.00    -0.005 A 
ATOM      6  C5  UNL d   1       0.020  -1.879   0.126  0.00  0.00     0.003 A 
ATOM      7  C6  UNL d   1       0.646  -1.660  -1.101  0.00  0.00    -0.001 A 
ENDROOT
TORSDOF 0
ENDMDL
