MODEL 1
REMARK minimizedAffinity -4.7312808
REMARK minimizedRMSD -1
REMARK  0 active torsions:
REMARK  status: ('A' for Active; 'I' for Inactive)
ROOT
ATOM      1  C   UNL d   1       5.575  -1.428  -0.987  0.00  0.00     0.078 C 
ATOM      2  C1  UNL d   1       4.308  -0.731  -1.383  0.00  0.00    -0.077 A 
ATOM      3  C2  UNL d   1       4.093   0.614  -1.056  0.00  0.00    -0.001 A 
ATOM      4  C3  UNL d   1       2.905   1.248  -1.423  0.00  0.00     0.003 A 
ATOM      5  C4  UNL d   1       1.922   0.545  -2.117  0.00  0.00    -0.005 A 
ATOM      6  C5  UNL d   1       2.126  -0.794  -2.444  0.00  0.00     0.003 A 
ATOM      7  C6  UNL d   1       3.314  -1.430  -2.079  0.00  0.00    -0.001 A 
ENDROOT
TORSDOF 0
ENDMDL
