MODEL 1
REMARK minimizedAffinity -4.56590843
REMARK minimizedRMSD -1
REMARK  0 active torsions:
REMARK  status: ('A' for Active; 'I' for Inactive)
ROOT
ATOM      1  C   UNL d   1       1.659   0.618  -3.118  0.00  0.00     0.078 C 
ATOM      2  C1  UNL d   1       1.137   0.387  -1.731  0.00  0.00    -0.077 A 
ATOM      3  C2  UNL d   1       0.489  -0.807  -1.393  0.00  0.00    -0.001 A 
ATOM      4  C3  UNL d   1      -0.000  -1.004  -0.101  0.00  0.00     0.003 A 
ATOM      5  C4  UNL d   1       0.151  -0.010   0.863  0.00  0.00    -0.005 A 
ATOM      6  C5  UNL d   1       0.792   1.184   0.536  0.00  0.00     0.003 A 
ATOM      7  C6  UNL d   1       1.282   1.382  -0.756  0.00  0.00    -0.001 A 
ENDROOT
TORSDOF 0
ENDMDL
