MODEL 1
REMARK minimizedAffinity -4.94606972
REMARK minimizedRMSD -1
REMARK  0 active torsions:
REMARK  status: ('A' for Active; 'I' for Inactive)
ROOT
ATOM      1  C   UNL d   1      -1.061  -0.700   0.858  0.00  0.00     0.078 C 
ATOM      2  C1  UNL d   1      -0.094  -0.970  -0.255  0.00  0.00    -0.077 A 
ATOM      3  C2  UNL d   1       0.269  -2.279  -0.594  0.00  0.00    -0.001 A 
ATOM      4  C3  UNL d   1       1.178  -2.515  -1.627  0.00  0.00     0.003 A 
ATOM      5  C4  UNL d   1       1.732  -1.446  -2.328  0.00  0.00    -0.005 A 
ATOM      6  C5  UNL d   1       1.379  -0.140  -1.997  0.00  0.00     0.003 A 
ATOM      7  C6  UNL d   1       0.470   0.098  -0.965  0.00  0.00    -0.001 A 
ENDROOT
TORSDOF 0
ENDMDL
