MODEL 1
REMARK minimizedAffinity -5.3997221
REMARK minimizedRMSD -1
REMARK  0 active torsions:
REMARK  status: ('A' for Active; 'I' for Inactive)
ROOT
ATOM      1  C   UNL d   1      -0.721  -0.127   1.451  0.00  0.00     0.078 C 
ATOM      2  C1  UNL d   1       0.100  -0.139   0.196  0.00  0.00    -0.077 A 
ATOM      3  C2  UNL d   1       0.776   1.009  -0.234  0.00  0.00    -0.001 A 
ATOM      4  C3  UNL d   1       1.528   0.986  -1.409  0.00  0.00     0.003 A 
ATOM      5  C4  UNL d   1       1.611  -0.182  -2.165  0.00  0.00    -0.005 A 
ATOM      6  C5  UNL d   1       0.939  -1.328  -1.746  0.00  0.00     0.003 A 
ATOM      7  C6  UNL d   1       0.187  -1.308  -0.571  0.00  0.00    -0.001 A 
ENDROOT
TORSDOF 0
ENDMDL
