MODEL 1
REMARK minimizedAffinity -4.72164488
REMARK minimizedRMSD -1
REMARK  0 active torsions:
REMARK  status: ('A' for Active; 'I' for Inactive)
ROOT
ATOM      1  C   UNL d   1       1.025   0.184  -2.629  0.00  0.00     0.078 C 
ATOM      2  C1  UNL d   1       0.597   0.080  -1.196  0.00  0.00    -0.077 A 
ATOM      3  C2  UNL d   1       0.849   1.118  -0.291  0.00  0.00    -0.001 A 
ATOM      4  C3  UNL d   1       0.454   1.004   1.043  0.00  0.00     0.003 A 
ATOM      5  C4  UNL d   1      -0.196  -0.147   1.484  0.00  0.00    -0.005 A 
ATOM      6  C5  UNL d   1      -0.450  -1.186   0.591  0.00  0.00     0.003 A 
ATOM      7  C6  UNL d   1      -0.055  -1.074  -0.743  0.00  0.00    -0.001 A 
ENDROOT
TORSDOF 0
ENDMDL
