MODEL 1
REMARK minimizedAffinity -5.50607872
REMARK minimizedRMSD -1
REMARK  0 active torsions:
REMARK  status: ('A' for Active; 'I' for Inactive)
ROOT
ATOM      1  C   UNL d   1       0.742  -2.241  -2.191  0.00  0.00     0.078 C 
ATOM      2  C1  UNL d   1       1.046  -0.910  -1.571  0.00  0.00    -0.077 A 
ATOM      3  C2  UNL d   1       2.065  -0.095  -2.077  0.00  0.00    -0.001 A 
ATOM      4  C3  UNL d   1       2.344   1.137  -1.484  0.00  0.00     0.003 A 
ATOM      5  C4  UNL d   1       1.608   1.565  -0.381  0.00  0.00    -0.005 A 
ATOM      6  C5  UNL d   1       0.593   0.759   0.132  0.00  0.00     0.003 A 
ATOM      7  C6  UNL d   1       0.314  -0.473  -0.460  0.00  0.00    -0.001 A 
ENDROOT
TORSDOF 0
ENDMDL
