MODEL 1
REMARK minimizedAffinity -4.28048134
REMARK minimizedRMSD -1
REMARK  0 active torsions:
REMARK  status: ('A' for Active; 'I' for Inactive)
ROOT
ATOM      1  C   UNL d   1      -0.972  -0.519   1.022  0.00  0.00     0.078 C 
ATOM      2  C1  UNL d   1      -0.074   0.155   0.028  0.00  0.00    -0.077 A 
ATOM      3  C2  UNL d   1       0.305  -0.490  -1.155  0.00  0.00    -0.001 A 
ATOM      4  C3  UNL d   1       1.149   0.146  -2.067  0.00  0.00     0.003 A 
ATOM      5  C4  UNL d   1       1.623   1.430  -1.804  0.00  0.00    -0.005 A 
ATOM      6  C5  UNL d   1       1.253   2.079  -0.627  0.00  0.00     0.003 A 
ATOM      7  C6  UNL d   1       0.409   1.445   0.285  0.00  0.00    -0.001 A 
ENDROOT
TORSDOF 0
ENDMDL
