MODEL 1
REMARK minimizedAffinity -5.19664383
REMARK minimizedRMSD -1
REMARK  0 active torsions:
REMARK  status: ('A' for Active; 'I' for Inactive)
ROOT
ATOM      1  C   UNL d   1       1.239   0.450  -2.862  0.00  0.00     0.078 C 
ATOM      2  C1  UNL d   1       0.693   0.431  -1.466  0.00  0.00    -0.077 A 
ATOM      3  C2  UNL d   1       0.079  -0.716  -0.948  0.00  0.00    -0.001 A 
ATOM      4  C3  UNL d   1      -0.434  -0.717   0.351  0.00  0.00     0.003 A 
ATOM      5  C4  UNL d   1      -0.339   0.427   1.141  0.00  0.00    -0.005 A 
ATOM      6  C5  UNL d   1       0.269   1.573   0.633  0.00  0.00     0.003 A 
ATOM      7  C6  UNL d   1       0.782   1.576  -0.665  0.00  0.00    -0.001 A 
ENDROOT
TORSDOF 0
ENDMDL
