MODEL 1
REMARK minimizedAffinity -4.34047651
REMARK minimizedRMSD -1
REMARK  0 active torsions:
REMARK  status: ('A' for Active; 'I' for Inactive)
ROOT
ATOM      1  C   UNL d   1       1.408  -0.397  -2.745  0.00  0.00     0.078 C 
ATOM      2  C1  UNL d   1       0.804  -0.209  -1.385  0.00  0.00    -0.077 A 
ATOM      3  C2  UNL d   1       0.051  -1.225  -0.784  0.00  0.00    -0.001 A 
ATOM      4  C3  UNL d   1      -0.513  -1.033   0.478  0.00  0.00     0.003 A 
ATOM      5  C4  UNL d   1      -0.332   0.174   1.149  0.00  0.00    -0.005 A 
ATOM      6  C5  UNL d   1       0.413   1.192   0.558  0.00  0.00     0.003 A 
ATOM      7  C6  UNL d   1       0.978   1.002  -0.704  0.00  0.00    -0.001 A 
ENDROOT
TORSDOF 0
ENDMDL
