MODEL 1
REMARK minimizedAffinity -4.03523111
REMARK minimizedRMSD -1
REMARK  0 active torsions:
REMARK  status: ('A' for Active; 'I' for Inactive)
ROOT
ATOM      1  C   UNL d   1       2.244  -2.198  -2.065  0.00  0.00     0.078 C 
ATOM      2  C1  UNL d   1       1.742  -0.941  -1.419  0.00  0.00    -0.077 A 
ATOM      3  C2  UNL d   1       0.775  -0.986  -0.408  0.00  0.00    -0.001 A 
ATOM      4  C3  UNL d   1       0.310   0.193   0.177  0.00  0.00     0.003 A 
ATOM      5  C4  UNL d   1       0.806   1.425  -0.242  0.00  0.00    -0.005 A 
ATOM      6  C5  UNL d   1       1.767   1.481  -1.249  0.00  0.00     0.003 A 
ATOM      7  C6  UNL d   1       2.233   0.303  -1.836  0.00  0.00    -0.001 A 
ENDROOT
TORSDOF 0
ENDMDL
