MODEL 1
REMARK minimizedAffinity 6.8837738
REMARK minimizedRMSD -1
REMARK  0 active torsions:
REMARK  status: ('A' for Active; 'I' for Inactive)
ROOT
ATOM      1  C   UNL d   1      -2.873   1.545   4.488  0.00  0.00     0.023 A 
ATOM      2  C1  UNL d   1      -3.748   1.686   5.565  0.00  0.00     0.003 A 
ATOM      3  C2  UNL d   1      -4.123   2.959   5.999  0.00  0.00     0.048 A 
ATOM      4  C3  UNL d   1      -3.621   4.087   5.351  0.00  0.00     0.023 A 
ATOM      5  C4  UNL d   1      -2.745   3.950   4.272  0.00  0.00     0.048 A 
ATOM      6  C5  UNL d   1      -2.372   2.676   3.842  0.00  0.00     0.003 A 
ATOM      7  I   UNL d   1      -4.178   5.983   5.995  0.00  0.00    -0.146 I 
ENDROOT
TORSDOF 0
ENDMDL
