MODEL 1
REMARK minimizedAffinity 17.1501217
REMARK minimizedRMSD -1
REMARK  0 active torsions:
REMARK  status: ('A' for Active; 'I' for Inactive)
ROOT
ATOM      1  C   UNL d   1      -6.000   3.336  -5.592  0.00  0.00     0.023 A 
ATOM      2  C1  UNL d   1      -5.122   4.214  -4.956  0.00  0.00     0.003 A 
ATOM      3  C2  UNL d   1      -4.074   3.716  -4.179  0.00  0.00     0.048 A 
ATOM      4  C3  UNL d   1      -3.910   2.338  -4.043  0.00  0.00     0.023 A 
ATOM      5  C4  UNL d   1      -4.785   1.455  -4.678  0.00  0.00     0.048 A 
ATOM      6  C5  UNL d   1      -5.832   1.958  -5.453  0.00  0.00     0.003 A 
ATOM      7  I   UNL d   1      -2.351   1.593  -2.887  0.00  0.00    -0.146 I 
ENDROOT
TORSDOF 0
ENDMDL
