MODEL 1
REMARK minimizedAffinity 9.3511467
REMARK minimizedRMSD -1
REMARK  0 active torsions:
REMARK  status: ('A' for Active; 'I' for Inactive)
ROOT
ATOM      1  C   UNL d   1      -4.137   4.870  -5.765  0.00  0.00     0.023 A 
ATOM      2  C1  UNL d   1      -3.489   5.370  -4.635  0.00  0.00     0.003 A 
ATOM      3  C2  UNL d   1      -2.873   4.495  -3.738  0.00  0.00     0.048 A 
ATOM      4  C3  UNL d   1      -2.908   3.121  -3.977  0.00  0.00     0.023 A 
ATOM      5  C4  UNL d   1      -3.555   2.617  -5.106  0.00  0.00     0.048 A 
ATOM      6  C5  UNL d   1      -4.170   3.496  -6.000  0.00  0.00     0.003 A 
ATOM      7  I   UNL d   1      -1.992   1.817  -2.643  0.00  0.00    -0.146 I 
ENDROOT
TORSDOF 0
ENDMDL
