MODEL 1
REMARK minimizedAffinity 8.60359859
REMARK minimizedRMSD -1
REMARK  0 active torsions:
REMARK  status: ('A' for Active; 'I' for Inactive)
ROOT
ATOM      1  C   UNL d   1       3.137  -2.635   0.572  0.00  0.00     0.023 A 
ATOM      2  C1  UNL d   1       2.618  -1.699   1.466  0.00  0.00     0.003 A 
ATOM      3  C2  UNL d   1       1.267  -1.742   1.819  0.00  0.00     0.048 A 
ATOM      4  C3  UNL d   1       0.442  -2.725   1.275  0.00  0.00     0.023 A 
ATOM      5  C4  UNL d   1       0.957  -3.665   0.380  0.00  0.00     0.048 A 
ATOM      6  C5  UNL d   1       2.307  -3.617   0.030  0.00  0.00     0.003 A 
ATOM      7  I   UNL d   1      -1.568  -2.792   1.799  0.00  0.00    -0.146 I 
ENDROOT
TORSDOF 0
ENDMDL
