MODEL 1
REMARK minimizedAffinity 7.1893549
REMARK minimizedRMSD -1
REMARK  1 active torsions:
REMARK  status: ('A' for Active; 'I' for Inactive)
REMARK    1  A    between atoms: C1_2  and  C2_3 
ROOT
ATOM      1  C2  UNL d   1      -4.141   0.370  -2.856  0.00  0.00    -0.076 A 
ATOM      2  C3  UNL d   1      -5.135   0.406  -3.849  0.00  0.00     0.004 A 
ATOM      3  C4  UNL d   1      -5.675  -0.771  -4.366  0.00  0.00    -0.003 A 
ATOM      4  C5  UNL d   1      -5.230  -2.002  -3.897  0.00  0.00     0.000 A 
ATOM      5  C6  UNL d   1      -4.258  -2.056  -2.899  0.00  0.00     0.000 A 
ATOM      6  C7  UNL d   1      -3.714  -0.879  -2.356  0.00  0.00    -0.073 A 
ATOM      7  C8  UNL d   1      -2.664  -0.995  -1.286  0.00  0.00     0.078 C 
ENDROOT
BRANCH   1   8
ATOM      8  C1  UNL d   1      -3.573   1.678  -2.353  0.00  0.00     0.053 C 
ATOM      9  C   UNL d   1      -3.485   2.733  -3.444  0.00  0.00     0.018 C 
ENDBRANCH   1   8
TORSDOF 1
ENDMDL
