MODEL 1
REMARK minimizedAffinity 8.30575752
REMARK minimizedRMSD -1
REMARK  1 active torsions:
REMARK  status: ('A' for Active; 'I' for Inactive)
REMARK    1  A    between atoms: C1_2  and  C2_3 
ROOT
ATOM      1  C2  UNL d   1      -0.241   2.321   2.295  0.00  0.00    -0.076 A 
ATOM      2  C3  UNL d   1       0.773   2.113   3.247  0.00  0.00     0.004 A 
ATOM      3  C4  UNL d   1       1.829   3.013   3.378  0.00  0.00    -0.003 A 
ATOM      4  C5  UNL d   1       1.888   4.137   2.561  0.00  0.00     0.000 A 
ATOM      5  C6  UNL d   1       0.881   4.368   1.624  0.00  0.00     0.000 A 
ATOM      6  C7  UNL d   1      -0.199   3.479   1.490  0.00  0.00    -0.073 A 
ATOM      7  C8  UNL d   1      -1.253   3.775   0.458  0.00  0.00     0.078 C 
ENDROOT
BRANCH   1   8
ATOM      8  C1  UNL d   1      -1.347   1.297   2.180  0.00  0.00     0.053 C 
ATOM      9  C   UNL d   1      -0.956  -0.052   2.764  0.00  0.00     0.018 C 
ENDBRANCH   1   8
TORSDOF 1
ENDMDL
