MODEL 1
REMARK minimizedAffinity 12.0024776
REMARK minimizedRMSD -1
REMARK  1 active torsions:
REMARK  status: ('A' for Active; 'I' for Inactive)
REMARK    1  A    between atoms: C1_2  and  C2_3 
ROOT
ATOM      1  C2  UNL d   1      -1.874   2.604  -3.835  0.00  0.00    -0.076 A 
ATOM      2  C3  UNL d   1      -0.608   3.077  -3.448  0.00  0.00     0.004 A 
ATOM      3  C4  UNL d   1       0.478   3.013  -4.319  0.00  0.00    -0.003 A 
ATOM      4  C5  UNL d   1       0.316   2.474  -5.591  0.00  0.00     0.000 A 
ATOM      5  C6  UNL d   1      -0.937   2.016  -5.997  0.00  0.00     0.000 A 
ATOM      6  C7  UNL d   1      -2.046   2.089  -5.137  0.00  0.00    -0.073 A 
ATOM      7  C8  UNL d   1      -3.373   1.575  -5.625  0.00  0.00     0.078 C 
ENDROOT
BRANCH   1   8
ATOM      8  C1  UNL d   1      -3.009   2.675  -2.838  0.00  0.00     0.053 C 
ATOM      9  C   UNL d   1      -3.006   1.505  -1.866  0.00  0.00     0.018 C 
ENDBRANCH   1   8
TORSDOF 1
ENDMDL
