MODEL 1
REMARK minimizedAffinity 11.3228045
REMARK minimizedRMSD -1
REMARK  1 active torsions:
REMARK  status: ('A' for Active; 'I' for Inactive)
REMARK    1  A    between atoms: C1_2  and  C2_3 
ROOT
ATOM      1  C2  UNL d   1       3.006  -2.785   2.328  0.00  0.00    -0.076 A 
ATOM      2  C3  UNL d   1       2.369  -1.717   2.982  0.00  0.00     0.004 A 
ATOM      3  C4  UNL d   1       1.327  -1.020   2.372  0.00  0.00    -0.003 A 
ATOM      4  C5  UNL d   1       0.906  -1.381   1.096  0.00  0.00     0.000 A 
ATOM      5  C6  UNL d   1       1.515  -2.449   0.440  0.00  0.00     0.000 A 
ATOM      6  C7  UNL d   1       2.556  -3.173   1.048  0.00  0.00    -0.073 A 
ATOM      7  C8  UNL d   1       3.181  -4.312   0.291  0.00  0.00     0.078 C 
ENDROOT
BRANCH   1   8
ATOM      8  C1  UNL d   1       4.148  -3.486   3.029  0.00  0.00     0.053 C 
ATOM      9  C   UNL d   1       4.562  -2.785   4.313  0.00  0.00     0.018 C 
ENDBRANCH   1   8
TORSDOF 1
ENDMDL
