MODEL 1
REMARK minimizedAffinity 10.5306673
REMARK minimizedRMSD -1
REMARK  1 active torsions:
REMARK  status: ('A' for Active; 'I' for Inactive)
REMARK    1  A    between atoms: C1_2  and  C2_3 
ROOT
ATOM      1  C2  UNL d   1       3.735  -4.531   0.327  0.00  0.00    -0.076 A 
ATOM      2  C3  UNL d   1       3.775  -5.093  -0.960  0.00  0.00     0.004 A 
ATOM      3  C4  UNL d   1       4.894  -5.797  -1.401  0.00  0.00    -0.003 A 
ATOM      4  C5  UNL d   1       5.991  -5.952  -0.561  0.00  0.00     0.000 A 
ATOM      5  C6  UNL d   1       5.962  -5.416   0.726  0.00  0.00     0.000 A 
ATOM      6  C7  UNL d   1       4.835  -4.717   1.192  0.00  0.00    -0.073 A 
ATOM      7  C8  UNL d   1       4.859  -4.155   2.587  0.00  0.00     0.078 C 
ENDROOT
BRANCH   1   8
ATOM      8  C1  UNL d   1       2.505  -3.755   0.741  0.00  0.00     0.053 C 
ATOM      9  C   UNL d   1       2.626  -2.269   0.442  0.00  0.00     0.018 C 
ENDBRANCH   1   8
TORSDOF 1
ENDMDL
