MODEL 1
REMARK minimizedAffinity -0.741382599
REMARK minimizedRMSD -1
REMARK  3 active torsions:
REMARK  status: ('A' for Active; 'I' for Inactive)
REMARK    1  A    between atoms: C3'_2  and  C2'_3 
REMARK    2  A    between atoms: C2'_3  and  C1'_4 
REMARK    3  A    between atoms: C1'_4  and  C1_5 
ROOT
ATOM      1  C1  N4B d   1       0.319   0.106  -0.483  0.00  0.00    -0.075 A 
ATOM      2  C2  N4B d   1       1.343  -0.808  -0.816  0.00  0.00     0.002 A 
ATOM      3  C3  N4B d   1       2.381  -1.025   0.057  0.00  0.00     0.002 A 
ATOM      4  C4  N4B d   1       2.426  -0.327   1.254  0.00  0.00    -0.004 A 
ATOM      5  C5  N4B d   1       1.421   0.536   1.580  0.00  0.00     0.002 A 
ATOM      6  C6  N4B d   1       0.369   0.760   0.714  0.00  0.00     0.002 A 
ENDROOT
BRANCH   1   7
ATOM      7  C1' N4B d   1      -0.790   0.440  -1.442  0.00  0.00     0.057 C 
BRANCH   7   8
ATOM      8  C2' N4B d   1      -0.434   1.718  -2.195  0.00  0.00     0.009 C 
BRANCH   8   9
ATOM      9  C3' N4B d   1      -1.666   2.413  -2.751  0.00  0.00     0.004 C 
ATOM     10  C4' N4B d   1      -1.438   3.870  -3.021  0.00  0.00     0.003 C 
ENDBRANCH   8   9
ENDBRANCH   7   8
ENDBRANCH   1   7
TORSDOF 3
ENDMDL
