MODEL 1
REMARK minimizedAffinity -5.07603121
REMARK minimizedRMSD -1
REMARK  3 active torsions:
REMARK  status: ('A' for Active; 'I' for Inactive)
REMARK    1  A    between atoms: C3'_2  and  C2'_3 
REMARK    2  A    between atoms: C2'_3  and  C1'_4 
REMARK    3  A    between atoms: C1'_4  and  C1_5 
ROOT
ATOM      1  C1  N4B d   1      -0.047   0.026  -0.439  0.00  0.00    -0.075 A 
ATOM      2  C2  N4B d   1       1.125  -0.295   0.280  0.00  0.00     0.002 A 
ATOM      3  C3  N4B d   1       1.065  -0.502   1.636  0.00  0.00     0.002 A 
ATOM      4  C4  N4B d   1      -0.149  -0.376   2.295  0.00  0.00    -0.004 A 
ATOM      5  C5  N4B d   1      -1.281  -0.090   1.591  0.00  0.00     0.002 A 
ATOM      6  C6  N4B d   1      -1.236   0.117   0.226  0.00  0.00     0.002 A 
ENDROOT
BRANCH   1   7
ATOM      7  C1' N4B d   1      -0.016   0.346  -1.908  0.00  0.00     0.057 C 
BRANCH   7   8
ATOM      8  C2' N4B d   1      -1.154   1.308  -2.236  0.00  0.00     0.009 C 
BRANCH   8   9
ATOM      9  C3' N4B d   1      -0.653   2.570  -2.918  0.00  0.00     0.004 C 
ATOM     10  C4' N4B d   1      -1.550   3.749  -2.689  0.00  0.00     0.003 C 
ENDBRANCH   8   9
ENDBRANCH   7   8
ENDBRANCH   1   7
TORSDOF 3
ENDMDL
