MODEL 1
REMARK minimizedAffinity -5.55955076
REMARK minimizedRMSD -1
REMARK  3 active torsions:
REMARK  status: ('A' for Active; 'I' for Inactive)
REMARK    1  A    between atoms: C3'_2  and  C2'_3 
REMARK    2  A    between atoms: C2'_3  and  C1'_4 
REMARK    3  A    between atoms: C1'_4  and  C1_5 
ROOT
ATOM      1  C1  N4B d   1       0.011  -0.101   0.098  0.00  0.00    -0.075 A 
ATOM      2  C2  N4B d   1      -1.205   0.025   0.805  0.00  0.00     0.002 A 
ATOM      3  C3  N4B d   1      -1.237  -0.188   2.161  0.00  0.00     0.002 A 
ATOM      4  C4  N4B d   1      -0.073  -0.545   2.826  0.00  0.00    -0.004 A 
ATOM      5  C5  N4B d   1       1.102  -0.640   2.140  0.00  0.00     0.002 A 
ATOM      6  C6  N4B d   1       1.149  -0.425   0.778  0.00  0.00     0.002 A 
ENDROOT
BRANCH   1   7
ATOM      7  C1' N4B d   1       0.078   0.038  -1.398  0.00  0.00     0.057 C 
BRANCH   7   8
ATOM      8  C2' N4B d   1      -0.883   1.137  -1.843  0.00  0.00     0.009 C 
BRANCH   8   9
ATOM      9  C3' N4B d   1      -0.155   2.430  -2.170  0.00  0.00     0.004 C 
ATOM     10  C4' N4B d   1      -0.987   3.649  -1.904  0.00  0.00     0.003 C 
ENDBRANCH   8   9
ENDBRANCH   7   8
ENDBRANCH   1   7
TORSDOF 3
ENDMDL
