MODEL 1
REMARK minimizedAffinity 0.692123592
REMARK minimizedRMSD -1
REMARK  3 active torsions:
REMARK  status: ('A' for Active; 'I' for Inactive)
REMARK    1  A    between atoms: C3'_2  and  C2'_3 
REMARK    2  A    between atoms: C2'_3  and  C1'_4 
REMARK    3  A    between atoms: C1'_4  and  C1_5 
ROOT
ATOM      1  C1  N4B d   1      -3.585   0.659  -3.784  0.00  0.00    -0.075 A 
ATOM      2  C2  N4B d   1      -4.580  -0.031  -4.511  0.00  0.00     0.002 A 
ATOM      3  C3  N4B d   1      -4.827  -1.356  -4.248  0.00  0.00     0.002 A 
ATOM      4  C4  N4B d   1      -4.083  -2.014  -3.281  0.00  0.00    -0.004 A 
ATOM      5  C5  N4B d   1      -3.142  -1.333  -2.565  0.00  0.00     0.002 A 
ATOM      6  C6  N4B d   1      -2.885  -0.000  -2.816  0.00  0.00     0.002 A 
ENDROOT
BRANCH   1   7
ATOM      7  C1' N4B d   1      -3.220   2.085  -4.095  0.00  0.00     0.057 C 
BRANCH   7   8
ATOM      8  C2' N4B d   1      -2.630   2.734  -2.847  0.00  0.00     0.009 C 
BRANCH   8   9
ATOM      9  C3' N4B d   1      -1.349   3.493  -3.152  0.00  0.00     0.004 C 
ATOM     10  C4' N4B d   1      -0.118   2.744  -2.737  0.00  0.00     0.003 C 
ENDBRANCH   8   9
ENDBRANCH   7   8
ENDBRANCH   1   7
TORSDOF 3
ENDMDL
