MODEL 1
REMARK minimizedAffinity 1.76564074
REMARK minimizedRMSD -1
REMARK  3 active torsions:
REMARK  status: ('A' for Active; 'I' for Inactive)
REMARK    1  A    between atoms: C3'_2  and  C2'_3 
REMARK    2  A    between atoms: C2'_3  and  C1'_4 
REMARK    3  A    between atoms: C1'_4  and  C1_5 
ROOT
ATOM      1  C1  N4B d   1      -0.007  -0.850   2.045  0.00  0.00    -0.075 A 
ATOM      2  C2  N4B d   1       0.933   0.203   2.036  0.00  0.00     0.002 A 
ATOM      3  C3  N4B d   1       1.910   0.260   3.000  0.00  0.00     0.002 A 
ATOM      4  C4  N4B d   1       1.954  -0.711   3.990  0.00  0.00    -0.004 A 
ATOM      5  C5  N4B d   1       1.057  -1.739   3.977  0.00  0.00     0.002 A 
ATOM      6  C6  N4B d   1       0.073  -1.811   3.012  0.00  0.00     0.002 A 
ENDROOT
BRANCH   1   7
ATOM      7  C1' N4B d   1      -1.145  -0.908   1.063  0.00  0.00     0.057 C 
BRANCH   7   8
ATOM      8  C2' N4B d   1      -2.461  -0.703   1.809  0.00  0.00     0.009 C 
BRANCH   8   9
ATOM      9  C3' N4B d   1      -2.550   0.678   2.436  0.00  0.00     0.004 C 
ATOM     10  C4' N4B d   1      -3.950   1.051   2.822  0.00  0.00     0.003 C 
ENDBRANCH   8   9
ENDBRANCH   7   8
ENDBRANCH   1   7
TORSDOF 3
ENDMDL
