MODEL 1
REMARK minimizedAffinity -5.33190584
REMARK minimizedRMSD -1
REMARK  3 active torsions:
REMARK  status: ('A' for Active; 'I' for Inactive)
REMARK    1  A    between atoms: C3'_2  and  C2'_3 
REMARK    2  A    between atoms: C2'_3  and  C1'_4 
REMARK    3  A    between atoms: C1'_4  and  C1_5 
ROOT
ATOM      1  C1  N4B d   1       0.035   0.014   0.118  0.00  0.00    -0.075 A 
ATOM      2  C2  N4B d   1      -0.658  -0.086   1.345  0.00  0.00     0.002 A 
ATOM      3  C3  N4B d   1      -0.058  -0.683   2.426  0.00  0.00     0.002 A 
ATOM      4  C4  N4B d   1       1.222  -1.202   2.300  0.00  0.00    -0.004 A 
ATOM      5  C5  N4B d   1       1.894  -1.079   1.119  0.00  0.00     0.002 A 
ATOM      6  C6  N4B d   1       1.305  -0.478   0.025  0.00  0.00     0.002 A 
ENDROOT
BRANCH   1   7
ATOM      7  C1' N4B d   1      -0.612   0.581  -1.116  0.00  0.00     0.057 C 
BRANCH   7   8
ATOM      8  C2' N4B d   1       0.390   1.475  -1.841  0.00  0.00     0.009 C 
BRANCH   8   9
ATOM      9  C3' N4B d   1      -0.244   2.771  -2.314  0.00  0.00     0.004 C 
ATOM     10  C4' N4B d   1      -1.546   3.065  -1.630  0.00  0.00     0.003 C 
ENDBRANCH   8   9
ENDBRANCH   7   8
ENDBRANCH   1   7
TORSDOF 3
ENDMDL
