MODEL 1
REMARK minimizedAffinity 8.98728561
REMARK minimizedRMSD -1
REMARK  3 active torsions:
REMARK  status: ('A' for Active; 'I' for Inactive)
REMARK    1  A    between atoms: C3'_2  and  C2'_3 
REMARK    2  A    between atoms: C2'_3  and  C1'_4 
REMARK    3  A    between atoms: C1'_4  and  C1_5 
ROOT
ATOM      1  C1  N4B d   1       3.042  -4.519   2.127  0.00  0.00    -0.075 A 
ATOM      2  C2  N4B d   1       4.110  -5.281   1.606  0.00  0.00     0.002 A 
ATOM      3  C3  N4B d   1       3.940  -5.999   0.448  0.00  0.00     0.002 A 
ATOM      4  C4  N4B d   1       2.711  -5.986  -0.194  0.00  0.00    -0.004 A 
ATOM      5  C5  N4B d   1       1.691  -5.227   0.303  0.00  0.00     0.002 A 
ATOM      6  C6  N4B d   1       1.849  -4.497   1.464  0.00  0.00     0.002 A 
ENDROOT
BRANCH   1   7
ATOM      7  C1' N4B d   1       3.153  -3.787   3.437  0.00  0.00     0.057 C 
BRANCH   7   8
ATOM      8  C2' N4B d   1       3.225  -2.287   3.167  0.00  0.00     0.009 C 
BRANCH   8   9
ATOM      9  C3' N4B d   1       1.910  -1.591   3.471  0.00  0.00     0.004 C 
ATOM     10  C4' N4B d   1       1.391  -0.796   2.311  0.00  0.00     0.003 C 
ENDBRANCH   8   9
ENDBRANCH   7   8
ENDBRANCH   1   7
TORSDOF 3
ENDMDL
