MODEL 1
REMARK minimizedAffinity 5.65612078
REMARK minimizedRMSD -1
REMARK  3 active torsions:
REMARK  status: ('A' for Active; 'I' for Inactive)
REMARK    1  A    between atoms: C3'_2  and  C2'_3 
REMARK    2  A    between atoms: C2'_3  and  C1'_4 
REMARK    3  A    between atoms: C1'_4  and  C1_5 
ROOT
ATOM      1  C1  N4B d   1       3.636  -5.968  -1.796  0.00  0.00    -0.075 A 
ATOM      2  C2  N4B d   1       3.505  -5.999  -3.202  0.00  0.00     0.002 A 
ATOM      3  C3  N4B d   1       4.624  -5.979  -3.997  0.00  0.00     0.002 A 
ATOM      4  C4  N4B d   1       5.880  -5.910  -3.412  0.00  0.00    -0.004 A 
ATOM      5  C5  N4B d   1       5.999  -5.906  -2.053  0.00  0.00     0.002 A 
ATOM      6  C6  N4B d   1       4.883  -5.929  -1.241  0.00  0.00     0.002 A 
ENDROOT
BRANCH   1   7
ATOM      7  C1' N4B d   1       2.439  -5.901  -0.888  0.00  0.00     0.057 C 
BRANCH   7   8
ATOM      8  C2' N4B d   1       2.890  -5.466   0.503  0.00  0.00     0.009 C 
BRANCH   8   9
ATOM      9  C3' N4B d   1       1.918  -5.914   1.582  0.00  0.00     0.004 C 
ATOM     10  C4' N4B d   1       2.316  -5.452   2.951  0.00  0.00     0.003 C 
ENDBRANCH   8   9
ENDBRANCH   7   8
ENDBRANCH   1   7
TORSDOF 3
ENDMDL
