MODEL 1
REMARK minimizedAffinity -3.15732622
REMARK minimizedRMSD -1
REMARK  3 active torsions:
REMARK  status: ('A' for Active; 'I' for Inactive)
REMARK    1  A    between atoms: C3'_2  and  C2'_3 
REMARK    2  A    between atoms: C2'_3  and  C1'_4 
REMARK    3  A    between atoms: C1'_4  and  C1_5 
ROOT
ATOM      1  C1  N4B d   1       5.670  -1.573  -5.174  0.00  0.00    -0.075 A 
ATOM      2  C2  N4B d   1       5.258  -1.361  -3.839  0.00  0.00     0.002 A 
ATOM      3  C3  N4B d   1       5.043  -0.085  -3.382  0.00  0.00     0.002 A 
ATOM      4  C4  N4B d   1       5.252   0.992  -4.231  0.00  0.00    -0.004 A 
ATOM      5  C5  N4B d   1       5.625   0.778  -5.525  0.00  0.00     0.002 A 
ATOM      6  C6  N4B d   1       5.840  -0.501  -6.000  0.00  0.00     0.002 A 
ENDROOT
BRANCH   1   7
ATOM      7  C1' N4B d   1       5.999  -2.946  -5.694  0.00  0.00     0.057 C 
BRANCH   7   8
ATOM      8  C2' N4B d   1       4.703  -3.691  -5.997  0.00  0.00     0.009 C 
BRANCH   8   9
ATOM      9  C3' N4B d   1       4.672  -5.065  -5.349  0.00  0.00     0.004 C 
ATOM     10  C4' N4B d   1       5.902  -5.872  -5.641  0.00  0.00     0.003 C 
ENDBRANCH   8   9
ENDBRANCH   7   8
ENDBRANCH   1   7
TORSDOF 3
ENDMDL
