MODEL 1
REMARK minimizedAffinity 6.76723528
REMARK minimizedRMSD -1
REMARK  3 active torsions:
REMARK  status: ('A' for Active; 'I' for Inactive)
REMARK    1  A    between atoms: C3'_2  and  C2'_3 
REMARK    2  A    between atoms: C2'_3  and  C1'_4 
REMARK    3  A    between atoms: C1'_4  and  C1_5 
ROOT
ATOM      1  C1  N4B d   1       3.913  -3.642  -5.590  0.00  0.00    -0.075 A 
ATOM      2  C2  N4B d   1       5.319  -3.630  -5.720  0.00  0.00     0.002 A 
ATOM      3  C3  N4B d   1       5.998  -4.805  -5.933  0.00  0.00     0.002 A 
ATOM      4  C4  N4B d   1       5.298  -6.000  -6.000  0.00  0.00    -0.004 A 
ATOM      5  C5  N4B d   1       3.938  -6.000  -5.898  0.00  0.00     0.002 A 
ATOM      6  C6  N4B d   1       3.241  -4.827  -5.688  0.00  0.00     0.002 A 
ENDROOT
BRANCH   1   7
ATOM      7  C1' N4B d   1       3.134  -2.395  -5.271  0.00  0.00     0.057 C 
BRANCH   7   8
ATOM      8  C2' N4B d   1       3.385  -2.007  -3.817  0.00  0.00     0.009 C 
BRANCH   8   9
ATOM      9  C3' N4B d   1       2.707  -0.697  -3.454  0.00  0.00     0.004 C 
ATOM     10  C4' N4B d   1       1.796  -0.823  -2.270  0.00  0.00     0.003 C 
ENDBRANCH   8   9
ENDBRANCH   7   8
ENDBRANCH   1   7
TORSDOF 3
ENDMDL
