MODEL 1
REMARK minimizedAffinity 12.5371723
REMARK minimizedRMSD -1
REMARK  0 active torsions:
REMARK  status: ('A' for Active; 'I' for Inactive)
ROOT
ATOM      1  C   UNL d   1       1.936   3.458   2.436  0.00  0.00    -0.002 A 
ATOM      2  C1  UNL d   1       1.009   2.583   2.984  0.00  0.00     0.010 A 
ATOM      3  C2  UNL d   1      -0.097   2.163   2.243  0.00  0.00     0.041 A 
ATOM      4  C3  UNL d   1      -0.257   2.640   0.927  0.00  0.00    -0.075 A 
ATOM      5  S   UNL d   1      -1.533   2.261  -0.169  0.00  0.00     0.015 SA
ATOM      6  C4  UNL d   1      -0.878   3.252  -1.391  0.00  0.00     0.022 A 
ATOM      7  C5  UNL d   1       0.286   3.864  -0.990  0.00  0.00     0.026 A 
ATOM      8  C6  UNL d   1       0.663   3.522   0.352  0.00  0.00    -0.082 A 
ATOM      9  C7  UNL d   1       1.774   3.930   1.130  0.00  0.00     0.045 A 
ENDROOT
TORSDOF 0
ENDMDL
