MODEL 1
REMARK minimizedAffinity 3.9582293
REMARK minimizedRMSD -1
REMARK  0 active torsions:
REMARK  status: ('A' for Active; 'I' for Inactive)
ROOT
ATOM      1  C   UNL d   1      -0.025   5.804   0.006  0.00  0.00    -0.002 A 
ATOM      2  C1  UNL d   1       1.279   5.367  -0.181  0.00  0.00     0.010 A 
ATOM      3  C2  UNL d   1       1.725   4.186   0.414  0.00  0.00     0.041 A 
ATOM      4  C3  UNL d   1       0.830   3.442   1.208  0.00  0.00    -0.075 A 
ATOM      5  S   UNL d   1       1.154   1.965   2.035  0.00  0.00     0.015 SA
ATOM      6  C4  UNL d   1      -0.430   1.878   2.656  0.00  0.00     0.022 A 
ATOM      7  C5  UNL d   1      -1.202   2.942   2.253  0.00  0.00     0.026 A 
ATOM      8  C6  UNL d   1      -0.488   3.861   1.411  0.00  0.00    -0.082 A 
ATOM      9  C7  UNL d   1      -0.910   5.063   0.794  0.00  0.00     0.045 A 
ENDROOT
TORSDOF 0
ENDMDL
