MODEL 1
REMARK minimizedAffinity 11.7471876
REMARK minimizedRMSD -1
REMARK  0 active torsions:
REMARK  status: ('A' for Active; 'I' for Inactive)
ROOT
ATOM      1  C   UNL d   1      -3.950   2.226  -1.802  0.00  0.00    -0.002 A 
ATOM      2  C1  UNL d   1      -5.289   1.932  -2.018  0.00  0.00     0.010 A 
ATOM      3  C2  UNL d   1      -5.997   2.560  -3.045  0.00  0.00     0.041 A 
ATOM      4  C3  UNL d   1      -5.329   3.495  -3.860  0.00  0.00    -0.075 A 
ATOM      5  S   UNL d   1      -5.994   4.386  -5.178  0.00  0.00     0.015 SA
ATOM      6  C4  UNL d   1      -4.515   5.176  -5.486  0.00  0.00     0.022 A 
ATOM      7  C5  UNL d   1      -3.528   4.782  -4.614  0.00  0.00     0.026 A 
ATOM      8  C6  UNL d   1      -3.981   3.806  -3.663  0.00  0.00    -0.082 A 
ATOM      9  C7  UNL d   1      -3.291   3.154  -2.613  0.00  0.00     0.045 A 
ENDROOT
TORSDOF 0
ENDMDL
