MODEL 1
REMARK minimizedAffinity 11.5280638
REMARK minimizedRMSD -1
REMARK  0 active torsions:
REMARK  status: ('A' for Active; 'I' for Inactive)
ROOT
ATOM      1  C   UNL d   1      -5.997   1.789  -1.984  0.00  0.00    -0.002 A 
ATOM      2  C1  UNL d   1      -6.000   3.033  -1.370  0.00  0.00     0.010 A 
ATOM      3  C2  UNL d   1      -5.323   4.111  -1.946  0.00  0.00     0.041 A 
ATOM      4  C3  UNL d   1      -4.639   3.915  -3.162  0.00  0.00    -0.075 A 
ATOM      5  S   UNL d   1      -3.743   5.089  -4.051  0.00  0.00     0.015 SA
ATOM      6  C4  UNL d   1      -3.337   3.966  -5.267  0.00  0.00     0.022 A 
ATOM      7  C5  UNL d   1      -3.863   2.721  -5.017  0.00  0.00     0.026 A 
ATOM      8  C6  UNL d   1      -4.623   2.671  -3.800  0.00  0.00    -0.082 A 
ATOM      9  C7  UNL d   1      -5.318   1.598  -3.190  0.00  0.00     0.045 A 
ENDROOT
TORSDOF 0
ENDMDL
