MODEL 1
REMARK minimizedAffinity 9.36981201
REMARK minimizedRMSD -1
REMARK  0 active torsions:
REMARK  status: ('A' for Active; 'I' for Inactive)
ROOT
ATOM      1  C   UNL d   1      -5.267   1.679  -1.985  0.00  0.00    -0.002 A 
ATOM      2  C1  UNL d   1      -4.005   2.204  -1.750  0.00  0.00     0.010 A 
ATOM      3  C2  UNL d   1      -3.413   3.070  -2.673  0.00  0.00     0.041 A 
ATOM      4  C3  UNL d   1      -4.119   3.402  -3.846  0.00  0.00    -0.075 A 
ATOM      5  S   UNL d   1      -3.593   4.442  -5.116  0.00  0.00     0.015 SA
ATOM      6  C4  UNL d   1      -5.032   4.214  -6.000  0.00  0.00     0.022 A 
ATOM      7  C5  UNL d   1      -5.903   3.367  -5.356  0.00  0.00     0.026 A 
ATOM      8  C6  UNL d   1      -5.392   2.886  -4.104  0.00  0.00    -0.082 A 
ATOM      9  C7  UNL d   1      -5.964   2.011  -3.150  0.00  0.00     0.045 A 
ENDROOT
TORSDOF 0
ENDMDL
