MODEL 1
REMARK minimizedAffinity -3.52462769
REMARK minimizedRMSD -1
REMARK  0 active torsions:
REMARK  status: ('A' for Active; 'I' for Inactive)
ROOT
ATOM      1  C   UNL d   1      -1.046   1.188   3.474  0.00  0.00     0.077 C 
ATOM      2  C1  UNL d   1      -0.052   0.571   2.535  0.00  0.00    -0.074 A 
ATOM      3  C2  UNL d   1       1.189   0.122   2.995  0.00  0.00    -0.005 A 
ATOM      4  C3  UNL d   1       2.099  -0.458   2.112  0.00  0.00     0.006 A 
ATOM      5  C4  UNL d   1       1.778  -0.594   0.761  0.00  0.00    -0.005 A 
ATOM      6  C5  UNL d   1       0.541  -0.151   0.282  0.00  0.00    -0.074 A 
ATOM      7  C6  UNL d   1       0.175  -0.298  -1.165  0.00  0.00     0.077 C 
ATOM      8  C7  UNL d   1      -0.371   0.424   1.177  0.00  0.00    -0.001 A 
ENDROOT
TORSDOF 0
ENDMDL
