MODEL 1
REMARK minimizedAffinity -4.53754377
REMARK minimizedRMSD -1
REMARK  0 active torsions:
REMARK  status: ('A' for Active; 'I' for Inactive)
ROOT
ATOM      1  C   UNL d   1      -1.366   0.079  -0.474  0.00  0.00     0.077 C 
ATOM      2  C1  UNL d   1      -0.613   0.090   0.824  0.00  0.00    -0.074 A 
ATOM      3  C2  UNL d   1      -1.226   0.515   2.007  0.00  0.00    -0.005 A 
ATOM      4  C3  UNL d   1      -0.516   0.510   3.208  0.00  0.00     0.006 A 
ATOM      5  C4  UNL d   1       0.811   0.081   3.237  0.00  0.00    -0.005 A 
ATOM      6  C5  UNL d   1       1.441  -0.348   2.064  0.00  0.00    -0.074 A 
ATOM      7  C6  UNL d   1       2.864  -0.821   2.081  0.00  0.00     0.077 C 
ATOM      8  C7  UNL d   1       0.719  -0.347   0.863  0.00  0.00    -0.001 A 
ENDROOT
TORSDOF 0
ENDMDL
