MODEL 1
REMARK minimizedAffinity -3.15797567
REMARK minimizedRMSD -1
REMARK  0 active torsions:
REMARK  status: ('A' for Active; 'I' for Inactive)
ROOT
ATOM      1  C   UNL d   1       0.900  -0.249  -1.134  0.00  0.00     0.077 C 
ATOM      2  C1  UNL d   1      -0.174  -0.003  -0.117  0.00  0.00    -0.074 A 
ATOM      3  C2  UNL d   1      -1.521   0.044  -0.492  0.00  0.00    -0.005 A 
ATOM      4  C3  UNL d   1      -2.510   0.264   0.466  0.00  0.00     0.006 A 
ATOM      5  C4  UNL d   1      -2.164   0.439   1.807  0.00  0.00    -0.005 A 
ATOM      6  C5  UNL d   1      -0.822   0.394   2.200  0.00  0.00    -0.074 A 
ATOM      7  C6  UNL d   1      -0.433   0.570   3.638  0.00  0.00     0.077 C 
ATOM      8  C7  UNL d   1       0.165   0.165   1.232  0.00  0.00    -0.001 A 
ENDROOT
TORSDOF 0
ENDMDL
