MODEL 1
REMARK minimizedAffinity -0.69980526
REMARK minimizedRMSD -1
REMARK  0 active torsions:
REMARK  status: ('A' for Active; 'I' for Inactive)
ROOT
ATOM      1  C   UNL d   1      -0.011  -0.029  -1.271  0.00  0.00     0.077 C 
ATOM      2  C1  UNL d   1      -0.056   0.022   0.227  0.00  0.00    -0.074 A 
ATOM      3  C2  UNL d   1      -1.235   0.357   0.900  0.00  0.00    -0.005 A 
ATOM      4  C3  UNL d   1      -1.264   0.391   2.294  0.00  0.00     0.006 A 
ATOM      5  C4  UNL d   1      -0.116   0.092   3.028  0.00  0.00    -0.005 A 
ATOM      6  C5  UNL d   1       1.072  -0.246   2.373  0.00  0.00    -0.074 A 
ATOM      7  C6  UNL d   1       2.312  -0.580   3.147  0.00  0.00     0.077 C 
ATOM      8  C7  UNL d   1       1.092  -0.285   0.972  0.00  0.00    -0.001 A 
ENDROOT
TORSDOF 0
ENDMDL
