MODEL 1
REMARK minimizedAffinity -5.91713381
REMARK minimizedRMSD -1
REMARK  0 active torsions:
REMARK  status: ('A' for Active; 'I' for Inactive)
ROOT
ATOM      1  C   UNL d   1       0.590  -0.380  -1.267  0.00  0.00     0.077 C 
ATOM      2  C1  UNL d   1       0.791  -0.131   0.198  0.00  0.00    -0.074 A 
ATOM      3  C2  UNL d   1       1.906  -0.644   0.868  0.00  0.00    -0.005 A 
ATOM      4  C3  UNL d   1       2.084  -0.396   2.229  0.00  0.00     0.006 A 
ATOM      5  C4  UNL d   1       1.151   0.366   2.933  0.00  0.00    -0.005 A 
ATOM      6  C5  UNL d   1       0.030   0.888   2.279  0.00  0.00    -0.074 A 
ATOM      7  C6  UNL d   1      -0.978   1.717   3.018  0.00  0.00     0.077 C 
ATOM      8  C7  UNL d   1      -0.139   0.640   0.910  0.00  0.00    -0.001 A 
ENDROOT
TORSDOF 0
ENDMDL
