MODEL 1
REMARK minimizedAffinity -1.50792122
REMARK minimizedRMSD -1
REMARK  0 active torsions:
REMARK  status: ('A' for Active; 'I' for Inactive)
ROOT
ATOM      1  C   UNL d   1       0.369   0.338   3.753  0.00  0.00     0.077 C 
ATOM      2  C1  UNL d   1      -0.305   0.343   2.413  0.00  0.00    -0.074 A 
ATOM      3  C2  UNL d   1      -1.519   1.011   2.221  0.00  0.00    -0.005 A 
ATOM      4  C3  UNL d   1      -2.128   1.015   0.967  0.00  0.00     0.006 A 
ATOM      5  C4  UNL d   1      -1.531   0.352  -0.107  0.00  0.00    -0.005 A 
ATOM      6  C5  UNL d   1      -0.317  -0.320   0.066  0.00  0.00    -0.074 A 
ATOM      7  C6  UNL d   1       0.343  -1.028  -1.079  0.00  0.00     0.077 C 
ATOM      8  C7  UNL d   1       0.293  -0.313   1.328  0.00  0.00    -0.001 A 
ENDROOT
TORSDOF 0
ENDMDL
