MODEL 1
REMARK minimizedAffinity -5.77027416
REMARK minimizedRMSD -1
REMARK  0 active torsions:
REMARK  status: ('A' for Active; 'I' for Inactive)
ROOT
ATOM      1  C   UNL d   1       2.546  -0.532   2.894  0.00  0.00     0.077 C 
ATOM      2  C1  UNL d   1       1.194   0.041   2.589  0.00  0.00    -0.074 A 
ATOM      3  C2  UNL d   1       0.547   0.881   3.501  0.00  0.00    -0.005 A 
ATOM      4  C3  UNL d   1      -0.706   1.414   3.200  0.00  0.00     0.006 A 
ATOM      5  C4  UNL d   1      -1.324   1.114   1.985  0.00  0.00    -0.005 A 
ATOM      6  C5  UNL d   1      -0.691   0.277   1.060  0.00  0.00    -0.074 A 
ATOM      7  C6  UNL d   1      -1.337  -0.048  -0.254  0.00  0.00     0.077 C 
ATOM      8  C7  UNL d   1       0.571  -0.250   1.367  0.00  0.00    -0.001 A 
ENDROOT
TORSDOF 0
ENDMDL
