MODEL 1
REMARK minimizedAffinity -5.39197826
REMARK minimizedRMSD -1
REMARK  0 active torsions:
REMARK  status: ('A' for Active; 'I' for Inactive)
ROOT
ATOM      1  C   UNL d   1       2.275  -0.713   2.798  0.00  0.00     0.077 C 
ATOM      2  C1  UNL d   1       1.064  -0.261   2.038  0.00  0.00    -0.074 A 
ATOM      3  C2  UNL d   1       0.009   0.389   2.687  0.00  0.00    -0.005 A 
ATOM      4  C3  UNL d   1      -1.107   0.812   1.965  0.00  0.00     0.006 A 
ATOM      5  C4  UNL d   1      -1.179   0.590   0.589  0.00  0.00    -0.005 A 
ATOM      6  C5  UNL d   1      -0.134  -0.058  -0.077  0.00  0.00    -0.074 A 
ATOM      7  C6  UNL d   1      -0.192  -0.296  -1.557  0.00  0.00     0.077 C 
ATOM      8  C7  UNL d   1       0.987  -0.474   0.654  0.00  0.00    -0.001 A 
ENDROOT
TORSDOF 0
ENDMDL
