MODEL 1
REMARK minimizedAffinity -1.54569888
REMARK minimizedRMSD -1
REMARK  0 active torsions:
REMARK  status: ('A' for Active; 'I' for Inactive)
ROOT
ATOM      1  C   UNL d   1       2.069  -0.753   2.327  0.00  0.00     0.077 C 
ATOM      2  C1  UNL d   1       0.976  -0.519   1.327  0.00  0.00    -0.074 A 
ATOM      3  C2  UNL d   1      -0.332  -0.248   1.742  0.00  0.00    -0.005 A 
ATOM      4  C3  UNL d   1      -1.336  -0.023   0.800  0.00  0.00     0.006 A 
ATOM      5  C4  UNL d   1      -1.043  -0.066  -0.564  0.00  0.00    -0.005 A 
ATOM      6  C5  UNL d   1       0.259  -0.334  -0.997  0.00  0.00    -0.074 A 
ATOM      7  C6  UNL d   1       0.593  -0.375  -2.459  0.00  0.00     0.077 C 
ATOM      8  C7  UNL d   1       1.264  -0.553  -0.045  0.00  0.00    -0.001 A 
ENDROOT
TORSDOF 0
ENDMDL
