MODEL 1
REMARK minimizedAffinity -1.36462152
REMARK minimizedRMSD -1
REMARK  0 active torsions:
REMARK  status: ('A' for Active; 'I' for Inactive)
ROOT
ATOM      1  C   UNL d   1      -1.837   0.309   3.018  0.00  0.00     0.077 C 
ATOM      2  C1  UNL d   1      -0.580  -0.029   2.274  0.00  0.00    -0.074 A 
ATOM      3  C2  UNL d   1       0.611  -0.295   2.957  0.00  0.00    -0.005 A 
ATOM      4  C3  UNL d   1       1.770  -0.618   2.251  0.00  0.00     0.006 A 
ATOM      5  C4  UNL d   1       1.750  -0.678   0.857  0.00  0.00    -0.005 A 
ATOM      6  C5  UNL d   1       0.568  -0.417   0.157  0.00  0.00    -0.074 A 
ATOM      7  C6  UNL d   1       0.526  -0.487  -1.341  0.00  0.00     0.077 C 
ATOM      8  C7  UNL d   1      -0.594  -0.100   0.873  0.00  0.00    -0.001 A 
ENDROOT
TORSDOF 0
ENDMDL
