MODEL 1
REMARK minimizedAffinity -5.83860064
REMARK minimizedRMSD -1
REMARK  0 active torsions:
REMARK  status: ('A' for Active; 'I' for Inactive)
ROOT
ATOM      1  C   UNL d   1       0.529  -0.405  -1.361  0.00  0.00     0.077 C 
ATOM      2  C1  UNL d   1      -0.093  -0.053  -0.043  0.00  0.00    -0.074 A 
ATOM      3  C2  UNL d   1      -1.456   0.247   0.052  0.00  0.00    -0.005 A 
ATOM      4  C3  UNL d   1      -2.023   0.563   1.287  0.00  0.00     0.006 A 
ATOM      5  C4  UNL d   1      -1.234   0.583   2.437  0.00  0.00    -0.005 A 
ATOM      6  C5  UNL d   1       0.131   0.286   2.362  0.00  0.00    -0.074 A 
ATOM      7  C6  UNL d   1       0.991   0.293   3.591  0.00  0.00     0.077 C 
ATOM      8  C7  UNL d   1       0.691  -0.038   1.119  0.00  0.00    -0.001 A 
ENDROOT
TORSDOF 0
ENDMDL
