MODEL 1
REMARK minimizedAffinity -2.62950468
REMARK minimizedRMSD -1
REMARK  0 active torsions:
REMARK  status: ('A' for Active; 'I' for Inactive)
ROOT
ATOM      1  C   UNL d   1       0.459   1.010  -1.367  0.00  0.00     0.077 C 
ATOM      2  C1  UNL d   1      -0.260   0.578  -0.124  0.00  0.00    -0.074 A 
ATOM      3  C2  UNL d   1      -1.181  -0.474  -0.155  0.00  0.00    -0.005 A 
ATOM      4  C3  UNL d   1      -1.835  -0.871   1.011  0.00  0.00     0.006 A 
ATOM      5  C4  UNL d   1      -1.576  -0.221   2.218  0.00  0.00    -0.005 A 
ATOM      6  C5  UNL d   1      -0.658   0.833   2.269  0.00  0.00    -0.074 A 
ATOM      7  C6  UNL d   1      -0.361   1.536   3.560  0.00  0.00     0.077 C 
ATOM      8  C7  UNL d   1       0.000   1.221   1.094  0.00  0.00    -0.001 A 
ENDROOT
TORSDOF 0
ENDMDL
