MODEL 1
REMARK minimizedAffinity -2.04329705
REMARK minimizedRMSD -1
REMARK  0 active torsions:
REMARK  status: ('A' for Active; 'I' for Inactive)
ROOT
ATOM      1  C   UNL d   1      -4.524   5.946  -2.640  0.00  0.00     0.172 C 
ATOM      2  N   UNL d   1      -3.740   5.947  -3.852  0.00  0.00    -0.070 N 
ATOM      3  C1  UNL d   1      -4.239   5.910  -5.127  0.00  0.00    -0.004 A 
ATOM      4  C2  UNL d   1      -3.173   5.925  -5.999  0.00  0.00    -0.047 A 
ATOM      5  C3  UNL d   1      -1.991   5.972  -5.222  0.00  0.00    -0.047 A 
ATOM      6  C4  UNL d   1      -2.371   5.984  -3.897  0.00  0.00    -0.004 A 
ENDROOT
TORSDOF 0
ENDMDL
