MODEL 1
REMARK minimizedAffinity 2.66178203
REMARK minimizedRMSD -1
REMARK  0 active torsions:
REMARK  status: ('A' for Active; 'I' for Inactive)
ROOT
ATOM      1  C   UNL d   1      -2.727   0.851   5.009  0.00  0.00     0.172 C 
ATOM      2  N   UNL d   1      -3.352  -0.023   4.044  0.00  0.00    -0.070 N 
ATOM      3  C1  UNL d   1      -3.050  -0.086   2.710  0.00  0.00    -0.004 A 
ATOM      4  C2  UNL d   1      -3.863  -1.040   2.137  0.00  0.00    -0.047 A 
ATOM      5  C3  UNL d   1      -4.684  -1.568   3.162  0.00  0.00    -0.047 A 
ATOM      6  C4  UNL d   1      -4.347  -0.921   4.332  0.00  0.00    -0.004 A 
ENDROOT
TORSDOF 0
ENDMDL
