MODEL 1
REMARK minimizedAffinity 2.64439678
REMARK minimizedRMSD -1
REMARK  0 active torsions:
REMARK  status: ('A' for Active; 'I' for Inactive)
ROOT
ATOM      1  C   UNL d   1      -4.041   0.621   5.588  0.00  0.00     0.172 C 
ATOM      2  N   UNL d   1      -4.446  -0.329   4.580  0.00  0.00    -0.070 N 
ATOM      3  C1  UNL d   1      -5.258  -1.413   4.785  0.00  0.00    -0.004 A 
ATOM      4  C2  UNL d   1      -5.404  -2.065   3.579  0.00  0.00    -0.047 A 
ATOM      5  C3  UNL d   1      -4.654  -1.349   2.617  0.00  0.00    -0.047 A 
ATOM      6  C4  UNL d   1      -4.071  -0.279   3.263  0.00  0.00    -0.004 A 
ENDROOT
TORSDOF 0
ENDMDL
