MODEL 1
REMARK minimizedAffinity 9.04255486
REMARK minimizedRMSD -1
REMARK  0 active torsions:
REMARK  status: ('A' for Active; 'I' for Inactive)
ROOT
ATOM      1  C   UNL d   1      -5.643   2.226  -1.108  0.00  0.00     0.172 C 
ATOM      2  N   UNL d   1      -5.788   0.995  -1.849  0.00  0.00    -0.070 N 
ATOM      3  C1  UNL d   1      -5.865  -0.260  -1.306  0.00  0.00    -0.004 A 
ATOM      4  C2  UNL d   1      -5.998  -1.160  -2.341  0.00  0.00    -0.047 A 
ATOM      5  C3  UNL d   1      -5.999  -0.421  -3.548  0.00  0.00    -0.047 A 
ATOM      6  C4  UNL d   1      -5.867   0.910  -3.214  0.00  0.00    -0.004 A 
ENDROOT
TORSDOF 0
ENDMDL
