MODEL 1
REMARK minimizedAffinity 8.32279205
REMARK minimizedRMSD -1
REMARK  0 active torsions:
REMARK  status: ('A' for Active; 'I' for Inactive)
ROOT
ATOM      1  C   UNL d   1       4.498  -2.408  -0.964  0.00  0.00     0.172 C 
ATOM      2  N   UNL d   1       4.718  -3.823  -0.775  0.00  0.00    -0.070 N 
ATOM      3  C1  UNL d   1       5.933  -4.422  -0.575  0.00  0.00    -0.004 A 
ATOM      4  C2  UNL d   1       5.718  -5.777  -0.439  0.00  0.00    -0.047 A 
ATOM      5  C3  UNL d   1       4.326  -5.999  -0.564  0.00  0.00    -0.047 A 
ATOM      6  C4  UNL d   1       3.731  -4.773  -0.771  0.00  0.00    -0.004 A 
ENDROOT
TORSDOF 0
ENDMDL
