MODEL 1
REMARK minimizedAffinity 8.23386002
REMARK minimizedRMSD -1
REMARK  0 active torsions:
REMARK  status: ('A' for Active; 'I' for Inactive)
ROOT
ATOM      1  C   UNL d   1       4.144   3.483  -4.583  0.00  0.00     0.172 C 
ATOM      2  N   UNL d   1       3.097   3.095  -3.668  0.00  0.00    -0.070 N 
ATOM      3  C1  UNL d   1       3.239   2.236  -2.611  0.00  0.00    -0.004 A 
ATOM      4  C2  UNL d   1       2.014   2.129  -1.987  0.00  0.00    -0.047 A 
ATOM      5  C3  UNL d   1       1.105   2.951  -2.694  0.00  0.00    -0.047 A 
ATOM      6  C4  UNL d   1       1.802   3.537  -3.730  0.00  0.00    -0.004 A 
ENDROOT
TORSDOF 0
ENDMDL
