MODEL 1
REMARK minimizedAffinity 7.86807013
REMARK minimizedRMSD -1
REMARK  0 active torsions:
REMARK  status: ('A' for Active; 'I' for Inactive)
ROOT
ATOM      1  C   UNL d   1       3.076   1.394   0.377  0.00  0.00     0.172 C 
ATOM      2  N   UNL d   1       4.235   2.168   0.754  0.00  0.00    -0.070 N 
ATOM      3  C1  UNL d   1       4.991   2.936  -0.091  0.00  0.00    -0.004 A 
ATOM      4  C2  UNL d   1       6.000   3.511   0.650  0.00  0.00    -0.047 A 
ATOM      5  C3  UNL d   1       5.846   3.073   1.987  0.00  0.00    -0.047 A 
ATOM      6  C4  UNL d   1       4.746   2.242   2.022  0.00  0.00    -0.004 A 
ENDROOT
TORSDOF 0
ENDMDL
