MODEL 1
REMARK minimizedAffinity 1.69940627
REMARK minimizedRMSD -1
REMARK  0 active torsions:
REMARK  status: ('A' for Active; 'I' for Inactive)
ROOT
ATOM      1  C   UNL d   1      -3.596   5.997  -4.771  0.00  0.00     0.172 C 
ATOM      2  N   UNL d   1      -3.988   5.961  -3.381  0.00  0.00    -0.070 N 
ATOM      3  C1  UNL d   1      -5.275   6.000  -2.914  0.00  0.00    -0.004 A 
ATOM      4  C2  UNL d   1      -5.226   5.944  -1.538  0.00  0.00    -0.047 A 
ATOM      5  C3  UNL d   1      -3.862   5.871  -1.165  0.00  0.00    -0.047 A 
ATOM      6  C4  UNL d   1      -3.118   5.883  -2.326  0.00  0.00    -0.004 A 
ENDROOT
TORSDOF 0
ENDMDL
