MODEL 1
REMARK minimizedAffinity 6.44790936
REMARK minimizedRMSD -1
REMARK  0 active torsions:
REMARK  status: ('A' for Active; 'I' for Inactive)
ROOT
ATOM      1  C   UNL d   1      -4.557  -5.936  -5.905  0.00  0.00     0.172 C 
ATOM      2  N   UNL d   1      -3.243  -5.766  -5.331  0.00  0.00    -0.070 N 
ATOM      3  C1  UNL d   1      -2.978  -5.352  -4.053  0.00  0.00    -0.004 A 
ATOM      4  C2  UNL d   1      -1.610  -5.319  -3.895  0.00  0.00    -0.047 A 
ATOM      5  C3  UNL d   1      -1.032  -5.726  -5.120  0.00  0.00    -0.047 A 
ATOM      6  C4  UNL d   1      -2.066  -5.997  -5.992  0.00  0.00    -0.004 A 
ENDROOT
TORSDOF 0
ENDMDL
