MODEL 1
REMARK minimizedAffinity 6.6284709
REMARK minimizedRMSD -1
REMARK  0 active torsions:
REMARK  status: ('A' for Active; 'I' for Inactive)
ROOT
ATOM      1  C   UNL d   1      -5.954  -1.007  -2.954  0.00  0.00     0.172 C 
ATOM      2  N   UNL d   1      -5.969  -0.041  -1.881  0.00  0.00    -0.070 N 
ATOM      3  C1  UNL d   1      -5.991  -0.333  -0.544  0.00  0.00    -0.004 A 
ATOM      4  C2  UNL d   1      -5.999   0.859   0.148  0.00  0.00    -0.047 A 
ATOM      5  C3  UNL d   1      -5.982   1.904  -0.806  0.00  0.00    -0.047 A 
ATOM      6  C4  UNL d   1      -5.963   1.318  -2.055  0.00  0.00    -0.004 A 
ENDROOT
TORSDOF 0
ENDMDL
