MODEL 1
REMARK minimizedAffinity 7.43458414
REMARK minimizedRMSD -1
REMARK  0 active torsions:
REMARK  status: ('A' for Active; 'I' for Inactive)
ROOT
ATOM      1  C   UNL d   1       0.632   5.998  -1.868  0.00  0.00     0.172 C 
ATOM      2  N   UNL d   1       1.532   5.032  -2.452  0.00  0.00    -0.070 N 
ATOM      3  C1  UNL d   1       1.182   4.046  -3.336  0.00  0.00    -0.004 A 
ATOM      4  C2  UNL d   1       2.321   3.340  -3.654  0.00  0.00    -0.047 A 
ATOM      5  C3  UNL d   1       3.394   3.920  -2.935  0.00  0.00    -0.047 A 
ATOM      6  C4  UNL d   1       2.877   4.965  -2.199  0.00  0.00    -0.004 A 
ENDROOT
TORSDOF 0
ENDMDL
