MODEL 1
REMARK minimizedAffinity 5.81504869
REMARK minimizedRMSD -1
REMARK  0 active torsions:
REMARK  status: ('A' for Active; 'I' for Inactive)
ROOT
ATOM      1  C   UNL d   1       5.999   4.453  -4.528  0.00  0.00     0.172 C 
ATOM      2  N   UNL d   1       4.709   4.062  -4.011  0.00  0.00    -0.070 N 
ATOM      3  C1  UNL d   1       3.811   3.241  -4.641  0.00  0.00    -0.004 A 
ATOM      4  C2  UNL d   1       2.709   3.114  -3.823  0.00  0.00    -0.047 A 
ATOM      5  C3  UNL d   1       2.952   3.886  -2.661  0.00  0.00    -0.047 A 
ATOM      6  C4  UNL d   1       4.197   4.461  -2.804  0.00  0.00    -0.004 A 
ENDROOT
TORSDOF 0
ENDMDL
