MODEL 1
REMARK minimizedAffinity -4.1727457
REMARK minimizedRMSD -1
REMARK  2 active torsions:
REMARK  status: ('A' for Active; 'I' for Inactive)
REMARK    1  A    between atoms: C1_2  and  C2_3 
REMARK    2  A    between atoms: C2_3  and  C3_4 
ROOT
ATOM      1  C3  UNL d   1       0.396   0.882  -0.293  0.00  0.00    -0.075 A 
ATOM      2  C4  UNL d   1       0.101  -0.094   0.670  0.00  0.00     0.002 A 
ATOM      3  C5  UNL d   1       0.098  -1.447   0.331  0.00  0.00     0.002 A 
ATOM      4  C6  UNL d   1       0.380  -1.841  -0.975  0.00  0.00    -0.004 A 
ATOM      5  C7  UNL d   1       0.659  -0.879  -1.944  0.00  0.00     0.002 A 
ATOM      6  C8  UNL d   1       0.667   0.475  -1.606  0.00  0.00     0.002 A 
ENDROOT
BRANCH   1   7
ATOM      7  C2  UNL d   1       0.430   2.346   0.075  0.00  0.00     0.056 C 
BRANCH   7   8
ATOM      8  C1  UNL d   1       1.843   2.922   0.212  0.00  0.00     0.007 C 
ATOM      9  C   UNL d   1       1.913   4.127   1.141  0.00  0.00     0.009 C 
ENDBRANCH   7   8
ENDBRANCH   1   7
TORSDOF 2
ENDMDL
