MODEL 1
REMARK minimizedAffinity -5.00688028
REMARK minimizedRMSD -1
REMARK  2 active torsions:
REMARK  status: ('A' for Active; 'I' for Inactive)
REMARK    1  A    between atoms: C1_2  and  C2_3 
REMARK    2  A    between atoms: C2_3  and  C3_4 
ROOT
ATOM      1  C3  UNL d   1      -1.027  -0.672   0.857  0.00  0.00    -0.075 A 
ATOM      2  C4  UNL d   1      -1.252  -2.043   1.053  0.00  0.00     0.002 A 
ATOM      3  C5  UNL d   1      -0.286  -2.979   0.681  0.00  0.00     0.002 A 
ATOM      4  C6  UNL d   1       0.908  -2.559   0.101  0.00  0.00    -0.004 A 
ATOM      5  C7  UNL d   1       1.135  -1.201  -0.114  0.00  0.00     0.002 A 
ATOM      6  C8  UNL d   1       0.173  -0.262   0.262  0.00  0.00     0.002 A 
ENDROOT
BRANCH   1   7
ATOM      7  C2  UNL d   1      -2.056   0.348   1.285  0.00  0.00     0.056 C 
BRANCH   7   8
ATOM      8  C1  UNL d   1      -3.298  -0.259   1.945  0.00  0.00     0.007 C 
ATOM      9  C   UNL d   1      -3.603   0.338   3.313  0.00  0.00     0.009 C 
ENDBRANCH   7   8
ENDBRANCH   1   7
TORSDOF 2
ENDMDL
