MODEL 1
REMARK minimizedAffinity -2.49915075
REMARK minimizedRMSD -1
REMARK  2 active torsions:
REMARK  status: ('A' for Active; 'I' for Inactive)
REMARK    1  A    between atoms: C1_2  and  C2_3 
REMARK    2  A    between atoms: C2_3  and  C3_4 
ROOT
ATOM      1  C3  UNL d   1       0.464  -1.316  -0.401  0.00  0.00    -0.075 A 
ATOM      2  C4  UNL d   1       0.070  -0.259   0.432  0.00  0.00     0.002 A 
ATOM      3  C5  UNL d   1      -0.257   0.986  -0.108  0.00  0.00     0.002 A 
ATOM      4  C6  UNL d   1      -0.184   1.192  -1.484  0.00  0.00    -0.004 A 
ATOM      5  C7  UNL d   1       0.223   0.154  -2.320  0.00  0.00     0.002 A 
ATOM      6  C8  UNL d   1       0.546  -1.093  -1.782  0.00  0.00     0.002 A 
ENDROOT
BRANCH   1   7
ATOM      7  C2  UNL d   1       0.790  -2.673   0.174  0.00  0.00     0.056 C 
BRANCH   7   8
ATOM      8  C1  UNL d   1      -0.391  -3.649   0.179  0.00  0.00     0.007 C 
ATOM      9  C   UNL d   1      -1.726  -2.975   0.470  0.00  0.00     0.009 C 
ENDBRANCH   7   8
ENDBRANCH   1   7
TORSDOF 2
ENDMDL
