MODEL 1
REMARK minimizedAffinity -3.09110451
REMARK minimizedRMSD -1
REMARK  2 active torsions:
REMARK  status: ('A' for Active; 'I' for Inactive)
REMARK    1  A    between atoms: C1_2  and  C2_3 
REMARK    2  A    between atoms: C2_3  and  C3_4 
ROOT
ATOM      1  C3  UNL d   1      -0.135  -1.227   0.540  0.00  0.00    -0.075 A 
ATOM      2  C4  UNL d   1       0.442  -0.929  -0.703  0.00  0.00     0.002 A 
ATOM      3  C5  UNL d   1       0.623  -1.929  -1.658  0.00  0.00     0.002 A 
ATOM      4  C6  UNL d   1       0.240  -3.240  -1.380  0.00  0.00    -0.004 A 
ATOM      5  C7  UNL d   1      -0.318  -3.551  -0.143  0.00  0.00     0.002 A 
ATOM      6  C8  UNL d   1      -0.505  -2.551   0.814  0.00  0.00     0.002 A 
ENDROOT
BRANCH   1   7
ATOM      7  C2  UNL d   1      -0.361  -0.144   1.567  0.00  0.00     0.056 C 
BRANCH   7   8
ATOM      8  C1  UNL d   1      -1.821   0.306   1.688  0.00  0.00     0.007 C 
ATOM      9  C   UNL d   1      -2.434  -0.007   3.047  0.00  0.00     0.009 C 
ENDBRANCH   7   8
ENDBRANCH   1   7
TORSDOF 2
ENDMDL
