MODEL 1
REMARK minimizedAffinity -2.36927056
REMARK minimizedRMSD -1
REMARK  2 active torsions:
REMARK  status: ('A' for Active; 'I' for Inactive)
REMARK    1  A    between atoms: C1_2  and  C2_3 
REMARK    2  A    between atoms: C2_3  and  C3_4 
ROOT
ATOM      1  C3  UNL d   1       0.535   3.935   1.532  0.00  0.00    -0.075 A 
ATOM      2  C4  UNL d   1      -0.206   2.960   0.849  0.00  0.00     0.002 A 
ATOM      3  C5  UNL d   1       0.381   2.211  -0.172  0.00  0.00     0.002 A 
ATOM      4  C6  UNL d   1       1.709   2.434  -0.528  0.00  0.00    -0.004 A 
ATOM      5  C7  UNL d   1       2.449   3.411   0.133  0.00  0.00     0.002 A 
ATOM      6  C8  UNL d   1       1.866   4.159   1.157  0.00  0.00     0.002 A 
ENDROOT
BRANCH   1   7
ATOM      7  C2  UNL d   1      -0.086   4.729   2.657  0.00  0.00     0.056 C 
BRANCH   7   8
ATOM      8  C1  UNL d   1      -1.613   4.625   2.726  0.00  0.00     0.007 C 
ATOM      9  C   UNL d   1      -2.282   5.912   3.189  0.00  0.00     0.009 C 
ENDBRANCH   7   8
ENDBRANCH   1   7
TORSDOF 2
ENDMDL
