MODEL 1
REMARK minimizedAffinity -4.09668398
REMARK minimizedRMSD -1
REMARK  2 active torsions:
REMARK  status: ('A' for Active; 'I' for Inactive)
REMARK    1  A    between atoms: C1_2  and  C2_3 
REMARK    2  A    between atoms: C2_3  and  C3_4 
ROOT
ATOM      1  C3  UNL d   1      -0.247  -0.687   0.131  0.00  0.00    -0.075 A 
ATOM      2  C4  UNL d   1       0.682  -1.695  -0.164  0.00  0.00     0.002 A 
ATOM      3  C5  UNL d   1       0.427  -3.020   0.191  0.00  0.00     0.002 A 
ATOM      4  C6  UNL d   1      -0.753  -3.352   0.853  0.00  0.00    -0.004 A 
ATOM      5  C7  UNL d   1      -1.676  -2.356   1.166  0.00  0.00     0.002 A 
ATOM      6  C8  UNL d   1      -1.425  -1.030   0.808  0.00  0.00     0.002 A 
ENDROOT
BRANCH   1   7
ATOM      7  C2  UNL d   1       0.009   0.744  -0.277  0.00  0.00     0.056 C 
BRANCH   7   8
ATOM      8  C1  UNL d   1       1.130   1.427   0.514  0.00  0.00     0.007 C 
ATOM      9  C   UNL d   1       0.706   2.752   1.134  0.00  0.00     0.009 C 
ENDBRANCH   7   8
ENDBRANCH   1   7
TORSDOF 2
ENDMDL
