MODEL 1
REMARK minimizedAffinity -2.98339629
REMARK minimizedRMSD -1
REMARK  2 active torsions:
REMARK  status: ('A' for Active; 'I' for Inactive)
REMARK    1  A    between atoms: C1_2  and  C2_3 
REMARK    2  A    between atoms: C2_3  and  C3_4 
ROOT
ATOM      1  C3  UNL d   1       1.593   1.271  -0.050  0.00  0.00    -0.075 A 
ATOM      2  C4  UNL d   1       1.548   0.209   0.866  0.00  0.00     0.002 A 
ATOM      3  C5  UNL d   1       0.787  -0.928   0.594  0.00  0.00     0.002 A 
ATOM      4  C6  UNL d   1       0.056  -1.015  -0.588  0.00  0.00    -0.004 A 
ATOM      5  C7  UNL d   1       0.080   0.040  -1.497  0.00  0.00     0.002 A 
ATOM      6  C8  UNL d   1       0.844   1.178  -1.230  0.00  0.00     0.002 A 
ENDROOT
BRANCH   1   7
ATOM      7  C2  UNL d   1       2.438   2.492   0.225  0.00  0.00     0.056 C 
BRANCH   7   8
ATOM      8  C1  UNL d   1       2.059   3.236   1.510  0.00  0.00     0.007 C 
ATOM      9  C   UNL d   1       1.117   4.408   1.269  0.00  0.00     0.009 C 
ENDBRANCH   7   8
ENDBRANCH   1   7
TORSDOF 2
ENDMDL
