MODEL 1
REMARK minimizedAffinity -4.13232088
REMARK minimizedRMSD -1
REMARK  2 active torsions:
REMARK  status: ('A' for Active; 'I' for Inactive)
REMARK    1  A    between atoms: C1_2  and  C2_3 
REMARK    2  A    between atoms: C2_3  and  C3_4 
ROOT
ATOM      1  C3  UNL d   1      -0.382  -0.428  -0.204  0.00  0.00    -0.075 A 
ATOM      2  C4  UNL d   1      -0.981  -1.401   0.610  0.00  0.00     0.002 A 
ATOM      3  C5  UNL d   1      -1.118  -2.714   0.160  0.00  0.00     0.002 A 
ATOM      4  C6  UNL d   1      -0.669  -3.069  -1.111  0.00  0.00    -0.004 A 
ATOM      5  C7  UNL d   1      -0.088  -2.107  -1.934  0.00  0.00     0.002 A 
ATOM      6  C8  UNL d   1       0.054  -0.793  -1.485  0.00  0.00     0.002 A 
ENDROOT
BRANCH   1   7
ATOM      7  C2  UNL d   1      -0.204   0.988   0.289  0.00  0.00     0.056 C 
BRANCH   7   8
ATOM      8  C1  UNL d   1       1.235   1.335   0.683  0.00  0.00     0.007 C 
ATOM      9  C   UNL d   1       1.414   2.794   1.082  0.00  0.00     0.009 C 
ENDBRANCH   7   8
ENDBRANCH   1   7
TORSDOF 2
ENDMDL
