MODEL 1
REMARK minimizedAffinity -2.16761613
REMARK minimizedRMSD -1
REMARK  2 active torsions:
REMARK  status: ('A' for Active; 'I' for Inactive)
REMARK    1  A    between atoms: C1_2  and  C2_3 
REMARK    2  A    between atoms: C2_3  and  C3_4 
ROOT
ATOM      1  C3  UNL d   1      -1.213  -1.579   0.849  0.00  0.00    -0.075 A 
ATOM      2  C4  UNL d   1      -0.741  -2.871   1.121  0.00  0.00     0.002 A 
ATOM      3  C5  UNL d   1       0.576  -3.223   0.823  0.00  0.00     0.002 A 
ATOM      4  C6  UNL d   1       1.433  -2.292   0.241  0.00  0.00    -0.004 A 
ATOM      5  C7  UNL d   1       0.971  -1.010  -0.048  0.00  0.00     0.002 A 
ATOM      6  C8  UNL d   1      -0.345  -0.654   0.253  0.00  0.00     0.002 A 
ENDROOT
BRANCH   1   7
ATOM      7  C2  UNL d   1      -2.628  -1.184   1.197  0.00  0.00     0.056 C 
BRANCH   7   8
ATOM      8  C1  UNL d   1      -2.980   0.261   0.828  0.00  0.00     0.007 C 
ATOM      9  C   UNL d   1      -4.224   0.777   1.540  0.00  0.00     0.009 C 
ENDBRANCH   7   8
ENDBRANCH   1   7
TORSDOF 2
ENDMDL
