MODEL 1
REMARK minimizedAffinity -5.51577997
REMARK minimizedRMSD -1
REMARK  2 active torsions:
REMARK  status: ('A' for Active; 'I' for Inactive)
REMARK    1  A    between atoms: C1_2  and  C2_3 
REMARK    2  A    between atoms: C2_3  and  C3_4 
ROOT
ATOM      1  C3  UNL d   1       0.099   0.161  -0.024  0.00  0.00    -0.075 A 
ATOM      2  C4  UNL d   1       0.863  -0.645  -0.881  0.00  0.00     0.002 A 
ATOM      3  C5  UNL d   1       0.772  -2.035  -0.815  0.00  0.00     0.002 A 
ATOM      4  C6  UNL d   1      -0.074  -2.637   0.114  0.00  0.00    -0.004 A 
ATOM      5  C7  UNL d   1      -0.825  -1.847   0.982  0.00  0.00     0.002 A 
ATOM      6  C8  UNL d   1      -0.739  -0.455   0.914  0.00  0.00     0.002 A 
ENDROOT
BRANCH   1   7
ATOM      7  C2  UNL d   1       0.171   1.667  -0.111  0.00  0.00     0.056 C 
BRANCH   7   8
ATOM      8  C1  UNL d   1       1.595   2.216  -0.245  0.00  0.00     0.007 C 
ATOM      9  C   UNL d   1       1.870   3.401   0.672  0.00  0.00     0.009 C 
ENDBRANCH   7   8
ENDBRANCH   1   7
TORSDOF 2
ENDMDL
