MODEL 1
REMARK minimizedAffinity -5.43332767
REMARK minimizedRMSD -1
REMARK  2 active torsions:
REMARK  status: ('A' for Active; 'I' for Inactive)
REMARK    1  A    between atoms: C1_2  and  C2_3 
REMARK    2  A    between atoms: C2_3  and  C3_4 
ROOT
ATOM      1  C3  UNL d   1       0.091  -0.213  -0.212  0.00  0.00    -0.075 A 
ATOM      2  C4  UNL d   1      -0.845  -0.417   0.812  0.00  0.00     0.002 A 
ATOM      3  C5  UNL d   1      -0.829  -1.592   1.564  0.00  0.00     0.002 A 
ATOM      4  C6  UNL d   1       0.115  -2.581   1.296  0.00  0.00    -0.004 A 
ATOM      5  C7  UNL d   1       1.040  -2.396   0.270  0.00  0.00     0.002 A 
ATOM      6  C8  UNL d   1       1.028  -1.220  -0.481  0.00  0.00     0.002 A 
ENDROOT
BRANCH   1   7
ATOM      7  C2  UNL d   1       0.098   1.069  -1.010  0.00  0.00     0.056 C 
BRANCH   7   8
ATOM      8  C1  UNL d   1       0.488   2.307  -0.197  0.00  0.00     0.007 C 
ATOM      9  C   UNL d   1       1.958   2.327   0.200  0.00  0.00     0.009 C 
ENDBRANCH   7   8
ENDBRANCH   1   7
TORSDOF 2
ENDMDL
