MODEL 1
REMARK minimizedAffinity -0.767595112
REMARK minimizedRMSD -1
REMARK  0 active torsions:
REMARK  status: ('A' for Active; 'I' for Inactive)
ROOT
ATOM      1  C   UNL d   1       1.287   4.866  -0.787  0.00  0.00     0.020 A 
ATOM      2  C1  UNL d   1       0.041   5.325  -1.211  0.00  0.00     0.020 A 
ATOM      3  C2  UNL d   1      -1.073   4.487  -1.141  0.00  0.00     0.034 A 
ATOM      4  C3  UNL d   1      -0.944   3.184  -0.646  0.00  0.00     0.017 A 
ATOM      5  C4  UNL d   1       0.307   2.724  -0.220  0.00  0.00     0.017 A 
ATOM      6  C5  UNL d   1       1.420   3.568  -0.293  0.00  0.00     0.034 A 
ATOM      7 Cl   UNL d   1       0.545   1.129   0.402  0.00  0.00    -0.070 Cl
ATOM      8 Cl1  UNL d   1      -2.364   2.202  -0.588  0.00  0.00    -0.070 Cl
ENDROOT
TORSDOF 0
ENDMDL
