MODEL 1
REMARK minimizedAffinity 2.00280738
REMARK minimizedRMSD -1
REMARK  0 active torsions:
REMARK  status: ('A' for Active; 'I' for Inactive)
ROOT
ATOM      1  C   UNL d   1       1.454  -1.037   0.847  0.00  0.00     0.020 A 
ATOM      2  C1  UNL d   1       1.610   0.100   1.638  0.00  0.00     0.020 A 
ATOM      3  C2  UNL d   1       1.330   1.362   1.110  0.00  0.00     0.034 A 
ATOM      4  C3  UNL d   1       0.891   1.490  -0.213  0.00  0.00     0.017 A 
ATOM      5  C4  UNL d   1       0.735   0.347  -1.006  0.00  0.00     0.017 A 
ATOM      6  C5  UNL d   1       1.017  -0.914  -0.472  0.00  0.00     0.034 A 
ATOM      7 Cl   UNL d   1       0.198   0.425  -2.647  0.00  0.00    -0.070 Cl
ATOM      8 Cl1  UNL d   1       0.562   3.081  -0.801  0.00  0.00    -0.070 Cl
ENDROOT
TORSDOF 0
ENDMDL
