MODEL 1
REMARK minimizedAffinity 10.8841076
REMARK minimizedRMSD -1
REMARK  0 active torsions:
REMARK  status: ('A' for Active; 'I' for Inactive)
ROOT
ATOM      1  C   UNL d   1      -5.411   0.101  -2.454  0.00  0.00     0.020 A 
ATOM      2  C1  UNL d   1      -4.028   0.041  -2.282  0.00  0.00     0.020 A 
ATOM      3  C2  UNL d   1      -3.232   1.129  -2.644  0.00  0.00     0.034 A 
ATOM      4  C3  UNL d   1      -3.817   2.283  -3.179  0.00  0.00     0.017 A 
ATOM      5  C4  UNL d   1      -5.205   2.342  -3.351  0.00  0.00     0.017 A 
ATOM      6  C5  UNL d   1      -5.998   1.249  -2.987  0.00  0.00     0.034 A 
ATOM      7 Cl   UNL d   1      -6.000   3.731  -4.005  0.00  0.00    -0.070 Cl
ATOM      8 Cl1  UNL d   1      -2.772   3.591  -3.605  0.00  0.00    -0.070 Cl
ENDROOT
TORSDOF 0
ENDMDL
