MODEL 1
REMARK minimizedAffinity 0.305844188
REMARK minimizedRMSD -1
REMARK  0 active torsions:
REMARK  status: ('A' for Active; 'I' for Inactive)
ROOT
ATOM      1  C   UNL d   1      -5.542   4.638  -5.638  0.00  0.00     0.020 A 
ATOM      2  C1  UNL d   1      -4.816   5.108  -4.544  0.00  0.00     0.020 A 
ATOM      3  C2  UNL d   1      -4.016   4.231  -3.809  0.00  0.00     0.034 A 
ATOM      4  C3  UNL d   1      -3.938   2.880  -4.167  0.00  0.00     0.017 A 
ATOM      5  C4  UNL d   1      -4.667   2.410  -5.265  0.00  0.00     0.017 A 
ATOM      6  C5  UNL d   1      -5.467   3.292  -5.998  0.00  0.00     0.034 A 
ATOM      7 Cl   UNL d   1      -4.622   0.756  -5.768  0.00  0.00    -0.070 Cl
ATOM      8 Cl1  UNL d   1      -2.928   1.853  -3.213  0.00  0.00    -0.070 Cl
ENDROOT
TORSDOF 0
ENDMDL
