MODEL 1
REMARK minimizedAffinity 5.41162872
REMARK minimizedRMSD -1
REMARK  0 active torsions:
REMARK  status: ('A' for Active; 'I' for Inactive)
ROOT
ATOM      1  C   UNL d   1      -4.337   5.317  -4.114  0.00  0.00     0.020 A 
ATOM      2  C1  UNL d   1      -5.658   4.876  -4.179  0.00  0.00     0.020 A 
ATOM      3  C2  UNL d   1      -5.994   3.606  -3.704  0.00  0.00     0.034 A 
ATOM      4  C3  UNL d   1      -5.008   2.773  -3.163  0.00  0.00     0.017 A 
ATOM      5  C4  UNL d   1      -3.682   3.217  -3.100  0.00  0.00     0.017 A 
ATOM      6  C5  UNL d   1      -3.351   4.489  -3.576  0.00  0.00     0.034 A 
ATOM      7 Cl   UNL d   1      -2.410   2.246  -2.446  0.00  0.00    -0.070 Cl
ATOM      8 Cl1  UNL d   1      -5.495   1.216  -2.595  0.00  0.00    -0.070 Cl
ENDROOT
TORSDOF 0
ENDMDL
