MODEL 1
REMARK minimizedAffinity -3.63403034
REMARK minimizedRMSD -1
REMARK  0 active torsions:
REMARK  status: ('A' for Active; 'I' for Inactive)
ROOT
ATOM      1  C   UNL d   1      -5.695   4.771  -5.190  0.00  0.00     0.020 A 
ATOM      2  C1  UNL d   1      -4.573   5.221  -4.495  0.00  0.00     0.020 A 
ATOM      3  C2  UNL d   1      -3.755   4.309  -3.826  0.00  0.00     0.034 A 
ATOM      4  C3  UNL d   1      -4.057   2.942  -3.849  0.00  0.00     0.017 A 
ATOM      5  C4  UNL d   1      -5.183   2.492  -4.547  0.00  0.00     0.017 A 
ATOM      6  C5  UNL d   1      -6.000   3.409  -5.215  0.00  0.00     0.034 A 
ATOM      7 Cl   UNL d   1      -5.620   0.821  -4.622  0.00  0.00    -0.070 Cl
ATOM      8 Cl1  UNL d   1      -3.000   1.871  -3.000  0.00  0.00    -0.070 Cl
ENDROOT
TORSDOF 0
ENDMDL
