MODEL 1
REMARK minimizedAffinity -2.18123722
REMARK minimizedRMSD -1
REMARK  0 active torsions:
REMARK  status: ('A' for Active; 'I' for Inactive)
ROOT
ATOM      1  C   UNL d   1      -5.995  -2.084   3.229  0.00  0.00     0.020 A 
ATOM      2  C1  UNL d   1      -5.068  -1.858   4.247  0.00  0.00     0.020 A 
ATOM      3  C2  UNL d   1      -4.146  -0.816   4.133  0.00  0.00     0.034 A 
ATOM      4  C3  UNL d   1      -4.149   0.005   2.999  0.00  0.00     0.017 A 
ATOM      5  C4  UNL d   1      -5.079  -0.223   1.978  0.00  0.00     0.017 A 
ATOM      6  C5  UNL d   1      -6.000  -1.268   2.098  0.00  0.00     0.034 A 
ATOM      7 Cl   UNL d   1      -5.143   0.748   0.549  0.00  0.00    -0.070 Cl
ATOM      8 Cl1  UNL d   1      -2.980   1.276   2.924  0.00  0.00    -0.070 Cl
ENDROOT
TORSDOF 0
ENDMDL
