MODEL 1
REMARK minimizedAffinity -0.358973652
REMARK minimizedRMSD -1
REMARK  1 active torsions:
REMARK  status: ('A' for Active; 'I' for Inactive)
REMARK    1  A    between atoms: C1_2  and  C2_3 
ROOT
ATOM      1  C2  UNL d   1      -0.179  -1.160   0.919  0.00  0.00    -0.077 A 
ATOM      2  C3  UNL d   1       0.542  -1.040  -0.277  0.00  0.00     0.002 A 
ATOM      3  C4  UNL d   1       1.614  -1.894  -0.545  0.00  0.00     0.002 A 
ATOM      4  C5  UNL d   1       1.971  -2.877   0.376  0.00  0.00    -0.004 A 
ATOM      5  C6  UNL d   1       1.261  -3.003   1.570  0.00  0.00     0.002 A 
ATOM      6  C7  UNL d   1       0.191  -2.149   1.840  0.00  0.00     0.002 A 
ENDROOT
BRANCH   1   7
ATOM      7  C1  UNL d   1      -1.365  -0.272   1.188  0.00  0.00     0.055 C 
ATOM      8  C   UNL d   1      -2.283  -0.193  -0.023  0.00  0.00     0.019 C 
ENDBRANCH   1   7
TORSDOF 1
ENDMDL
