MODEL 1
REMARK minimizedAffinity -6.22953129
REMARK minimizedRMSD -1
REMARK  1 active torsions:
REMARK  status: ('A' for Active; 'I' for Inactive)
REMARK    1  A    between atoms: C1_2  and  C2_3 
ROOT
ATOM      1  C2  UNL d   1       1.793  -3.406   1.126  0.00  0.00    -0.077 A 
ATOM      2  C3  UNL d   1       2.277  -2.699   0.017  0.00  0.00     0.002 A 
ATOM      3  C4  UNL d   1       1.783  -1.427  -0.280  0.00  0.00     0.002 A 
ATOM      4  C5  UNL d   1       0.807  -0.850   0.530  0.00  0.00    -0.004 A 
ATOM      5  C6  UNL d   1       0.318  -1.547   1.635  0.00  0.00     0.002 A 
ATOM      6  C7  UNL d   1       0.809  -2.819   1.932  0.00  0.00     0.002 A 
ENDROOT
BRANCH   1   7
ATOM      7  C1  UNL d   1       2.360  -4.758   1.476  0.00  0.00     0.055 C 
ATOM      8  C   UNL d   1       3.510  -4.636   2.465  0.00  0.00     0.019 C 
ENDBRANCH   1   7
TORSDOF 1
ENDMDL
