MODEL 1
REMARK minimizedAffinity 13.0762129
REMARK minimizedRMSD -1
REMARK  1 active torsions:
REMARK  status: ('A' for Active; 'I' for Inactive)
REMARK    1  A    between atoms: C1_2  and  C2_3 
ROOT
ATOM      1  C2  UNL d   1       3.056  -4.597   0.076  0.00  0.00    -0.077 A 
ATOM      2  C3  UNL d   1       4.000  -3.942   0.880  0.00  0.00     0.002 A 
ATOM      3  C4  UNL d   1       5.352  -4.282   0.801  0.00  0.00     0.002 A 
ATOM      4  C5  UNL d   1       5.773  -5.274  -0.082  0.00  0.00    -0.004 A 
ATOM      5  C6  UNL d   1       4.841  -5.933  -0.884  0.00  0.00     0.002 A 
ATOM      6  C7  UNL d   1       3.489  -5.595  -0.805  0.00  0.00     0.002 A 
ENDROOT
BRANCH   1   7
ATOM      7  C1  UNL d   1       1.605  -4.198   0.124  0.00  0.00     0.055 C 
ATOM      8  C   UNL d   1       1.420  -2.735  -0.253  0.00  0.00     0.019 C 
ENDBRANCH   1   7
TORSDOF 1
ENDMDL
