MODEL 1
REMARK minimizedAffinity 4.11349869
REMARK minimizedRMSD -1
REMARK  1 active torsions:
REMARK  status: ('A' for Active; 'I' for Inactive)
REMARK    1  A    between atoms: C1_2  and  C2_3 
ROOT
ATOM      1  C2  UNL d   1       0.684  -2.042   0.740  0.00  0.00    -0.077 A 
ATOM      2  C3  UNL d   1       0.639  -3.373   1.177  0.00  0.00     0.002 A 
ATOM      3  C4  UNL d   1       1.615  -4.284   0.769  0.00  0.00     0.002 A 
ATOM      4  C5  UNL d   1       2.645  -3.873  -0.075  0.00  0.00    -0.004 A 
ATOM      5  C6  UNL d   1       2.697  -2.552  -0.517  0.00  0.00     0.002 A 
ATOM      6  C7  UNL d   1       1.722  -1.640  -0.111  0.00  0.00     0.002 A 
ENDROOT
BRANCH   1   7
ATOM      7  C1  UNL d   1      -0.340  -1.046   1.219  0.00  0.00     0.055 C 
ATOM      8  C   UNL d   1       0.249  -0.103   2.257  0.00  0.00     0.019 C 
ENDBRANCH   1   7
TORSDOF 1
ENDMDL
