MODEL 1
REMARK minimizedAffinity -1.00898314
REMARK minimizedRMSD -1
REMARK  1 active torsions:
REMARK  status: ('A' for Active; 'I' for Inactive)
REMARK    1  A    between atoms: C1_2  and  C2_3 
ROOT
ATOM      1  C2  UNL d   1       1.169  -1.550   0.449  0.00  0.00    -0.077 A 
ATOM      2  C3  UNL d   1      -0.147  -1.490  -0.031  0.00  0.00     0.002 A 
ATOM      3  C4  UNL d   1      -1.083  -0.649   0.575  0.00  0.00     0.002 A 
ATOM      4  C5  UNL d   1      -0.712   0.141   1.661  0.00  0.00    -0.004 A 
ATOM      5  C6  UNL d   1       0.594   0.087   2.147  0.00  0.00     0.002 A 
ATOM      6  C7  UNL d   1       1.530  -0.754   1.544  0.00  0.00     0.002 A 
ENDROOT
BRANCH   1   7
ATOM      7  C1  UNL d   1       2.192  -2.419  -0.234  0.00  0.00     0.055 C 
ATOM      8  C   UNL d   1       2.191  -3.829   0.339  0.00  0.00     0.019 C 
ENDBRANCH   1   7
TORSDOF 1
ENDMDL
