MODEL 1
REMARK minimizedAffinity 4.18135595
REMARK minimizedRMSD -1
REMARK  1 active torsions:
REMARK  status: ('A' for Active; 'I' for Inactive)
REMARK    1  A    between atoms: C1_2  and  C2_3 
ROOT
ATOM      1  C2  UNL d   1       1.751  -2.820   0.651  0.00  0.00    -0.077 A 
ATOM      2  C3  UNL d   1       0.539  -2.718   1.348  0.00  0.00     0.002 A 
ATOM      3  C4  UNL d   1      -0.025  -1.466   1.603  0.00  0.00     0.002 A 
ATOM      4  C5  UNL d   1       0.612  -0.309   1.160  0.00  0.00    -0.004 A 
ATOM      5  C6  UNL d   1       1.819  -0.401   0.467  0.00  0.00     0.002 A 
ATOM      6  C7  UNL d   1       2.386  -1.651   0.213  0.00  0.00     0.002 A 
ENDROOT
BRANCH   1   7
ATOM      7  C1  UNL d   1       2.337  -4.171   0.333  0.00  0.00     0.055 C 
ATOM      8  C   UNL d   1       3.778  -4.276   0.810  0.00  0.00     0.019 C 
ENDBRANCH   1   7
TORSDOF 1
ENDMDL
