MODEL 1
REMARK minimizedAffinity -3.26307034
REMARK minimizedRMSD -1
REMARK  1 active torsions:
REMARK  status: ('A' for Active; 'I' for Inactive)
REMARK    1  A    between atoms: C1_2  and  C2_3 
ROOT
ATOM      1  C2  UNL d   1      -2.503   1.499   0.380  0.00  0.00    -0.073 A 
ATOM      2  C3  UNL d   1      -1.543   1.553  -0.636  0.00  0.00    -0.002 A 
ATOM      3  C4  UNL d   1      -0.220   1.885  -0.340  0.00  0.00     0.004 A 
ATOM      4  C5  UNL d   1       0.157   2.160   0.974  0.00  0.00    -0.004 A 
ATOM      5  C6  UNL d   1      -0.785   2.100   2.006  0.00  0.00    -0.075 A 
ATOM      6  C7  UNL d   1      -0.396   2.396   3.425  0.00  0.00     0.076 C 
ATOM      7  C8  UNL d   1      -2.112   1.768   1.700  0.00  0.00     0.001 A 
ENDROOT
BRANCH   1   8
ATOM      8  C1  UNL d   1      -3.931   1.134   0.066  0.00  0.00     0.053 C 
ATOM      9  C   UNL d   1      -4.917   1.870   0.960  0.00  0.00     0.018 C 
ENDBRANCH   1   8
TORSDOF 1
ENDMDL
