MODEL 1
REMARK minimizedAffinity 3.95336413
REMARK minimizedRMSD -1
REMARK  1 active torsions:
REMARK  status: ('A' for Active; 'I' for Inactive)
REMARK    1  A    between atoms: C1_2  and  C2_3 
ROOT
ATOM      1  C2  UNL d   1      -1.966   1.800   1.732  0.00  0.00    -0.073 A 
ATOM      2  C3  UNL d   1      -1.260   0.955   2.596  0.00  0.00    -0.002 A 
ATOM      3  C4  UNL d   1       0.135   0.930   2.572  0.00  0.00     0.004 A 
ATOM      4  C5  UNL d   1       0.837   1.754   1.693  0.00  0.00    -0.004 A 
ATOM      5  C6  UNL d   1       0.150   2.614   0.831  0.00  0.00    -0.075 A 
ATOM      6  C7  UNL d   1       0.890   3.504  -0.123  0.00  0.00     0.076 C 
ATOM      7  C8  UNL d   1      -1.251   2.631   0.858  0.00  0.00     0.001 A 
ENDROOT
BRANCH   1   8
ATOM      8  C1  UNL d   1      -3.473   1.835   1.758  0.00  0.00     0.053 C 
ATOM      9  C   UNL d   1      -4.082   0.911   0.716  0.00  0.00     0.018 C 
ENDBRANCH   1   8
TORSDOF 1
ENDMDL
