MODEL 1
REMARK minimizedAffinity -0.10820625
REMARK minimizedRMSD -1
REMARK  1 active torsions:
REMARK  status: ('A' for Active; 'I' for Inactive)
REMARK    1  A    between atoms: C1_2  and  C2_3 
ROOT
ATOM      1  C2  UNL d   1      -5.038   0.796  -2.056  0.00  0.00    -0.073 A 
ATOM      2  C3  UNL d   1      -5.997   1.766  -2.371  0.00  0.00    -0.002 A 
ATOM      3  C4  UNL d   1      -5.923   2.465  -3.576  0.00  0.00     0.004 A 
ATOM      4  C5  UNL d   1      -4.896   2.198  -4.481  0.00  0.00    -0.004 A 
ATOM      5  C6  UNL d   1      -3.936   1.224  -4.190  0.00  0.00    -0.075 A 
ATOM      6  C7  UNL d   1      -2.823   0.925  -5.152  0.00  0.00     0.076 C 
ATOM      7  C8  UNL d   1      -4.015   0.528  -2.977  0.00  0.00     0.001 A 
ENDROOT
BRANCH   1   8
ATOM      8  C1  UNL d   1      -5.118   0.034  -0.759  0.00  0.00     0.053 C 
ATOM      9  C   UNL d   1      -4.889   0.933   0.445  0.00  0.00     0.018 C 
ENDBRANCH   1   8
TORSDOF 1
ENDMDL
