MODEL 1
REMARK minimizedAffinity 5.68360472
REMARK minimizedRMSD -1
REMARK  1 active torsions:
REMARK  status: ('A' for Active; 'I' for Inactive)
REMARK    1  A    between atoms: C1_2  and  C2_3 
ROOT
ATOM      1  C2  UNL d   1       1.057   0.074  -0.485  0.00  0.00    -0.073 A 
ATOM      2  C3  UNL d   1       2.406  -0.299  -0.454  0.00  0.00    -0.002 A 
ATOM      3  C4  UNL d   1       2.766  -1.646  -0.488  0.00  0.00     0.004 A 
ATOM      4  C5  UNL d   1       1.783  -2.634  -0.560  0.00  0.00    -0.004 A 
ATOM      5  C6  UNL d   1       0.431  -2.281  -0.604  0.00  0.00    -0.075 A 
ATOM      6  C7  UNL d   1      -0.638  -3.332  -0.679  0.00  0.00     0.076 C 
ATOM      7  C8  UNL d   1       0.077  -0.926  -0.566  0.00  0.00     0.001 A 
ENDROOT
BRANCH   1   8
ATOM      8  C1  UNL d   1       0.663   1.528  -0.455  0.00  0.00     0.053 C 
ATOM      9  C   UNL d   1       1.560   2.342   0.464  0.00  0.00     0.018 C 
ENDBRANCH   1   8
TORSDOF 1
ENDMDL
