MODEL 1
REMARK minimizedAffinity 4.19868088
REMARK minimizedRMSD -1
REMARK  1 active torsions:
REMARK  status: ('A' for Active; 'I' for Inactive)
REMARK    1  A    between atoms: C1_2  and  C2_3 
ROOT
ATOM      1  C2  UNL d   1      -2.945   2.105   1.308  0.00  0.00    -0.073 A 
ATOM      2  C3  UNL d   1      -2.096   2.599   0.311  0.00  0.00    -0.002 A 
ATOM      3  C4  UNL d   1      -0.728   2.731   0.552  0.00  0.00     0.004 A 
ATOM      4  C5  UNL d   1      -0.194   2.365   1.787  0.00  0.00    -0.004 A 
ATOM      5  C6  UNL d   1      -1.024   1.858   2.792  0.00  0.00    -0.075 A 
ATOM      6  C7  UNL d   1      -0.466   1.461   4.127  0.00  0.00     0.076 C 
ATOM      7  C8  UNL d   1      -2.398   1.730   2.544  0.00  0.00     0.001 A 
ENDROOT
BRANCH   1   8
ATOM      8  C1  UNL d   1      -4.422   1.954   1.051  0.00  0.00     0.053 C 
ATOM      9  C   UNL d   1      -4.704   1.055  -0.142  0.00  0.00     0.018 C 
ENDBRANCH   1   8
TORSDOF 1
ENDMDL
