MODEL 1
REMARK minimizedAffinity 4.29791403
REMARK minimizedRMSD -1
REMARK  1 active torsions:
REMARK  status: ('A' for Active; 'I' for Inactive)
REMARK    1  A    between atoms: C1_2  and  C2_3 
ROOT
ATOM      1  C2  UNL d   1      -2.179   2.468   1.238  0.00  0.00    -0.073 A 
ATOM      2  C3  UNL d   1      -1.425   2.669   0.076  0.00  0.00    -0.002 A 
ATOM      3  C4  UNL d   1      -0.067   2.347   0.052  0.00  0.00     0.004 A 
ATOM      4  C5  UNL d   1       0.548   1.815   1.185  0.00  0.00    -0.004 A 
ATOM      5  C6  UNL d   1      -0.191   1.596   2.352  0.00  0.00    -0.075 A 
ATOM      6  C7  UNL d   1       0.457   1.026   3.580  0.00  0.00     0.076 C 
ATOM      7  C8  UNL d   1      -1.553   1.924   2.369  0.00  0.00     0.001 A 
ENDROOT
BRANCH   1   8
ATOM      8  C1  UNL d   1      -3.646   2.809   1.267  0.00  0.00     0.053 C 
ATOM      9  C   UNL d   1      -4.497   1.719   0.633  0.00  0.00     0.018 C 
ENDBRANCH   1   8
TORSDOF 1
ENDMDL
