MODEL 1
REMARK minimizedAffinity 2.14640045
REMARK minimizedRMSD -1
REMARK  2 active torsions:
REMARK  status: ('A' for Active; 'I' for Inactive)
REMARK    1  A    between atoms: C2'_3  and  C1'_4 
REMARK    2  A    between atoms: C1'_4  and  C1_5 
ROOT
ATOM      1  C1  I4B d   1       1.861  -2.627   4.247  0.00  0.00    -0.075 A 
ATOM      2  C2  I4B d   1       2.647  -3.426   3.455  0.00  0.00     0.003 A 
ATOM      3  C3  I4B d   1       2.970  -4.742   3.867  0.00  0.00     0.002 A 
ATOM      4  C4  I4B d   1       2.530  -5.198   5.093  0.00  0.00    -0.004 A 
ATOM      5  C5  I4B d   1       1.714  -4.395   5.884  0.00  0.00     0.002 A 
ATOM      6  C6  I4B d   1       1.367  -3.106   5.454  0.00  0.00     0.003 A 
ENDROOT
BRANCH   1   7
ATOM      7  C1' I4B d   1       1.567  -1.231   3.797  0.00  0.00     0.060 C 
BRANCH   7   8
ATOM      8  C2' I4B d   1       1.870  -1.146   2.315  0.00  0.00    -0.013 C 
ATOM      9  C4' I4B d   1       0.644  -1.433   1.490  0.00  0.00     0.013 C 
ATOM     10  C3' I4B d   1       2.405   0.226   2.030  0.00  0.00     0.013 C 
ENDBRANCH   7   8
ENDBRANCH   1   7
TORSDOF 2
ENDMDL
