MODEL 1
REMARK minimizedAffinity -2.19054413
REMARK minimizedRMSD -1
REMARK  2 active torsions:
REMARK  status: ('A' for Active; 'I' for Inactive)
REMARK    1  A    between atoms: C2'_3  and  C1'_4 
REMARK    2  A    between atoms: C1'_4  and  C1_5 
ROOT
ATOM      1  C1  I4B d   1       0.725  -1.600   0.861  0.00  0.00    -0.075 A 
ATOM      2  C2  I4B d   1       0.748  -2.014   2.169  0.00  0.00     0.003 A 
ATOM      3  C3  I4B d   1       1.550  -1.334   3.118  0.00  0.00     0.002 A 
ATOM      4  C4  I4B d   1       2.346  -0.284   2.707  0.00  0.00    -0.004 A 
ATOM      5  C5  I4B d   1       2.304   0.148   1.385  0.00  0.00     0.002 A 
ATOM      6  C6  I4B d   1       1.480  -0.506   0.458  0.00  0.00     0.003 A 
ENDROOT
BRANCH   1   7
ATOM      7  C1' I4B d   1      -0.107  -2.361  -0.121  0.00  0.00     0.060 C 
BRANCH   7   8
ATOM      8  C2' I4B d   1      -1.563  -2.174   0.256  0.00  0.00    -0.013 C 
ATOM      9  C4' I4B d   1      -1.945  -0.717   0.245  0.00  0.00     0.013 C 
ATOM     10  C3' I4B d   1      -2.397  -2.960  -0.711  0.00  0.00     0.013 C 
ENDBRANCH   7   8
ENDBRANCH   1   7
TORSDOF 2
ENDMDL
