MODEL 1
REMARK minimizedAffinity -1.73248053
REMARK minimizedRMSD -1
REMARK  0 active torsions:
REMARK  status: ('A' for Active; 'I' for Inactive)
ROOT
ATOM      1  C4' PXY d   1       5.626  -3.364   5.163  0.00  0.00     0.077 C 
ATOM      2  C1' PXY d   1       5.997   2.330   4.243  0.00  0.00     0.077 C 
ATOM      3  C1  PXY d   1       5.903   0.839   4.496  0.00  0.00    -0.082 A 
ATOM      4  C2  PXY d   1       5.999  -0.005   3.482  0.00  0.00     0.003 A 
ATOM      5  C3  PXY d   1       5.884  -1.355   3.689  0.00  0.00     0.003 A 
ATOM      6  C4  PXY d   1       5.724  -1.851   4.955  0.00  0.00    -0.082 A 
ATOM      7  C5  PXY d   1       5.636  -0.997   5.997  0.00  0.00     0.003 A 
ATOM      8  C6  PXY d   1       5.713   0.372   5.761  0.00  0.00     0.003 A 
ENDROOT
TORSDOF 0
ENDMDL
