MODEL 1
REMARK minimizedAffinity -2.50925565
REMARK minimizedRMSD -1
REMARK  0 active torsions:
REMARK  status: ('A' for Active; 'I' for Inactive)
ROOT
ATOM      1  C4' PXY d   1       6.000  -0.242   5.802  0.00  0.00     0.077 C 
ATOM      2  C1' PXY d   1       5.980   4.598   2.641  0.00  0.00     0.077 C 
ATOM      3  C1  PXY d   1       5.990   3.335   3.480  0.00  0.00    -0.082 A 
ATOM      4  C2  PXY d   1       6.000   2.154   2.884  0.00  0.00     0.003 A 
ATOM      5  C3  PXY d   1       5.977   1.002   3.628  0.00  0.00     0.003 A 
ATOM      6  C4  PXY d   1       5.999   1.059   4.996  0.00  0.00    -0.082 A 
ATOM      7  C5  PXY d   1       6.000   2.261   5.611  0.00  0.00     0.003 A 
ATOM      8  C6  PXY d   1       5.981   3.418   4.839  0.00  0.00     0.003 A 
ENDROOT
TORSDOF 0
ENDMDL
