MODEL 1
REMARK minimizedAffinity 0.599513352
REMARK minimizedRMSD -1
REMARK  0 active torsions:
REMARK  status: ('A' for Active; 'I' for Inactive)
ROOT
ATOM      1  C4' PXY d   1       6.000  -1.522   4.518  0.00  0.00     0.077 C 
ATOM      2  C1' PXY d   1       5.978   4.202   3.718  0.00  0.00     0.077 C 
ATOM      3  C1  PXY d   1       5.989   2.703   3.940  0.00  0.00    -0.082 A 
ATOM      4  C2  PXY d   1       5.998   1.888   2.898  0.00  0.00     0.003 A 
ATOM      5  C3  PXY d   1       5.976   0.529   3.080  0.00  0.00     0.003 A 
ATOM      6  C4  PXY d   1       5.998  -0.001   4.342  0.00  0.00    -0.082 A 
ATOM      7  C5  PXY d   1       6.000   0.824   5.410  0.00  0.00     0.003 A 
ATOM      8  C6  PXY d   1       5.981   2.200   5.204  0.00  0.00     0.003 A 
ENDROOT
TORSDOF 0
ENDMDL
