MODEL 1
REMARK minimizedAffinity -0.774111629
REMARK minimizedRMSD -1
REMARK  0 active torsions:
REMARK  status: ('A' for Active; 'I' for Inactive)
ROOT
ATOM      1  C4' PXY d   1       5.999   4.124   3.014  0.00  0.00     0.077 C 
ATOM      2  C1' PXY d   1       5.969  -1.082   5.528  0.00  0.00     0.077 C 
ATOM      3  C1  PXY d   1       5.972   0.289   4.879  0.00  0.00    -0.082 A 
ATOM      4  C2  PXY d   1       5.965   0.388   3.560  0.00  0.00     0.003 A 
ATOM      5  C3  PXY d   1       6.000   1.619   2.957  0.00  0.00     0.003 A 
ATOM      6  C4  PXY d   1       5.987   2.761   3.712  0.00  0.00    -0.082 A 
ATOM      7  C5  PXY d   1       5.983   2.668   5.058  0.00  0.00     0.003 A 
ATOM      8  C6  PXY d   1       5.990   1.409   5.651  0.00  0.00     0.003 A 
ENDROOT
TORSDOF 0
ENDMDL
