MODEL 1
REMARK minimizedAffinity 2.83043242
REMARK minimizedRMSD -1
REMARK  0 active torsions:
REMARK  status: ('A' for Active; 'I' for Inactive)
ROOT
ATOM      1  C4' PXY d   1       5.267   2.566   3.748  0.00  0.00     0.077 C 
ATOM      2  C1' PXY d   1       6.000  -2.970   5.243  0.00  0.00     0.077 C 
ATOM      3  C1  PXY d   1       5.805  -1.515   4.864  0.00  0.00    -0.082 A 
ATOM      4  C2  PXY d   1       5.456  -1.203   3.626  0.00  0.00     0.003 A 
ATOM      5  C3  PXY d   1       5.307   0.109   3.257  0.00  0.00     0.003 A 
ATOM      6  C4  PXY d   1       5.465   1.110   4.178  0.00  0.00    -0.082 A 
ATOM      7  C5  PXY d   1       5.811   0.799   5.446  0.00  0.00     0.003 A 
ATOM      8  C6  PXY d   1       5.998  -0.537   5.789  0.00  0.00     0.003 A 
ENDROOT
TORSDOF 0
ENDMDL
