MODEL 1
REMARK minimizedAffinity -1.19113028
REMARK minimizedRMSD -1
REMARK  0 active torsions:
REMARK  status: ('A' for Active; 'I' for Inactive)
ROOT
ATOM      1  C4' PXY d   1       5.983   3.924   3.575  0.00  0.00     0.077 C 
ATOM      2  C1' PXY d   1       5.982  -1.473   5.647  0.00  0.00     0.077 C 
ATOM      3  C1  PXY d   1       5.987  -0.062   5.093  0.00  0.00    -0.082 A 
ATOM      4  C2  PXY d   1       6.000   0.968   5.924  0.00  0.00     0.003 A 
ATOM      5  C3  PXY d   1       5.973   2.250   5.439  0.00  0.00     0.003 A 
ATOM      6  C4  PXY d   1       5.987   2.482   4.090  0.00  0.00    -0.082 A 
ATOM      7  C5  PXY d   1       5.985   1.437   3.236  0.00  0.00     0.003 A 
ATOM      8  C6  PXY d   1       5.970   0.142   3.747  0.00  0.00     0.003 A 
ENDROOT
TORSDOF 0
ENDMDL
