MODEL 1
REMARK minimizedAffinity -3.01968765
REMARK minimizedRMSD -1
REMARK  0 active torsions:
REMARK  status: ('A' for Active; 'I' for Inactive)
ROOT
ATOM      1  C4' PXY d   1       5.620  -1.124   4.513  0.00  0.00     0.077 C 
ATOM      2  C1' PXY d   1       5.592   4.653   4.716  0.00  0.00     0.077 C 
ATOM      3  C1  PXY d   1       5.608   3.138   4.673  0.00  0.00    -0.082 A 
ATOM      4  C2  PXY d   1       5.255   2.512   3.562  0.00  0.00     0.003 A 
ATOM      5  C3  PXY d   1       5.233   1.142   3.515  0.00  0.00     0.003 A 
ATOM      6  C4  PXY d   1       5.627   0.405   4.600  0.00  0.00    -0.082 A 
ATOM      7  C5  PXY d   1       5.999   1.037   5.733  0.00  0.00     0.003 A 
ATOM      8  C6  PXY d   1       5.975   2.428   5.773  0.00  0.00     0.003 A 
ENDROOT
TORSDOF 0
ENDMDL
