MODEL 1
REMARK minimizedAffinity -1.81440735
REMARK minimizedRMSD -1
REMARK  0 active torsions:
REMARK  status: ('A' for Active; 'I' for Inactive)
ROOT
ATOM      1  C4' PXY d   1       5.975   3.978   2.999  0.00  0.00     0.077 C 
ATOM      2  C1' PXY d   1       6.000  -1.430   5.040  0.00  0.00     0.077 C 
ATOM      3  C1  PXY d   1       5.999  -0.016   4.493  0.00  0.00    -0.082 A 
ATOM      4  C2  PXY d   1       5.999   1.009   5.331  0.00  0.00     0.003 A 
ATOM      5  C3  PXY d   1       5.966   2.294   4.854  0.00  0.00     0.003 A 
ATOM      6  C4  PXY d   1       5.986   2.533   3.506  0.00  0.00    -0.082 A 
ATOM      7  C5  PXY d   1       5.997   1.494   2.645  0.00  0.00     0.003 A 
ATOM      8  C6  PXY d   1       5.989   0.196   3.149  0.00  0.00     0.003 A 
ENDROOT
TORSDOF 0
ENDMDL
