MODEL 1
REMARK minimizedAffinity -1.86077094
REMARK minimizedRMSD -1
REMARK  0 active torsions:
REMARK  status: ('A' for Active; 'I' for Inactive)
ROOT
ATOM      1  C4' PXY d   1       5.928  -1.781   4.769  0.00  0.00     0.077 C 
ATOM      2  C1' PXY d   1       5.978   3.999   4.828  0.00  0.00     0.077 C 
ATOM      3  C1  PXY d   1       5.971   2.483   4.824  0.00  0.00    -0.082 A 
ATOM      4  C2  PXY d   1       5.930   1.832   3.673  0.00  0.00     0.003 A 
ATOM      5  C3  PXY d   1       5.890   0.461   3.653  0.00  0.00     0.003 A 
ATOM      6  C4  PXY d   1       5.947  -0.251   4.820  0.00  0.00    -0.082 A 
ATOM      7  C5  PXY d   1       5.999   0.406   5.999  0.00  0.00     0.003 A 
ATOM      8  C6  PXY d   1       5.997   1.798   5.999  0.00  0.00     0.003 A 
ENDROOT
TORSDOF 0
ENDMDL
