MODEL 1
REMARK minimizedAffinity -4.16049051
REMARK minimizedRMSD -1
REMARK  0 active torsions:
REMARK  status: ('A' for Active; 'I' for Inactive)
ROOT
ATOM      1  C4' PXY d   1       5.525   3.731   3.186  0.00  0.00     0.077 C 
ATOM      2  C1' PXY d   1       5.644  -1.672   5.238  0.00  0.00     0.077 C 
ATOM      3  C1  PXY d   1       5.604  -0.252   4.708  0.00  0.00    -0.082 A 
ATOM      4  C2  PXY d   1       5.999  -0.004   3.470  0.00  0.00     0.003 A 
ATOM      5  C3  PXY d   1       5.999   1.279   2.986  0.00  0.00     0.003 A 
ATOM      6  C4  PXY d   1       5.540   2.312   3.759  0.00  0.00    -0.082 A 
ATOM      7  C5  PXY d   1       5.125   2.065   5.020  0.00  0.00     0.003 A 
ATOM      8  C6  PXY d   1       5.172   0.762   5.507  0.00  0.00     0.003 A 
ENDROOT
TORSDOF 0
ENDMDL
