MODEL 1
REMARK minimizedAffinity -1.50301158
REMARK minimizedRMSD -1
REMARK  0 active torsions:
REMARK  status: ('A' for Active; 'I' for Inactive)
ROOT
ATOM      1  C4' PXY d   1       5.989   3.752   3.033  0.00  0.00     0.077 C 
ATOM      2  C1' PXY d   1       5.989  -1.539   5.361  0.00  0.00     0.077 C 
ATOM      3  C1  PXY d   1       5.994  -0.156   4.739  0.00  0.00    -0.082 A 
ATOM      4  C2  PXY d   1       6.000   0.912   5.520  0.00  0.00     0.003 A 
ATOM      5  C3  PXY d   1       5.972   2.170   4.975  0.00  0.00     0.003 A 
ATOM      6  C4  PXY d   1       5.993   2.336   3.617  0.00  0.00    -0.082 A 
ATOM      7  C5  PXY d   1       5.998   1.252   2.813  0.00  0.00     0.003 A 
ATOM      8  C6  PXY d   1       5.984  -0.017   3.386  0.00  0.00     0.003 A 
ENDROOT
TORSDOF 0
ENDMDL
