MODEL 1
REMARK minimizedAffinity 0.935607374
REMARK minimizedRMSD -1
REMARK  0 active torsions:
REMARK  status: ('A' for Active; 'I' for Inactive)
ROOT
ATOM      1  C4' PXY d   1       5.995   5.917   4.974  0.00  0.00     0.077 C 
ATOM      2  C1' PXY d   1       5.956   0.864   2.168  0.00  0.00     0.077 C 
ATOM      3  C1  PXY d   1       5.961   2.183   2.914  0.00  0.00    -0.082 A 
ATOM      4  C2  PXY d   1       5.958   3.319   2.235  0.00  0.00     0.003 A 
ATOM      5  C3  PXY d   1       5.995   4.521   2.894  0.00  0.00     0.003 A 
ATOM      6  C4  PXY d   1       5.981   4.562   4.262  0.00  0.00    -0.082 A 
ATOM      7  C5  PXY d   1       5.973   3.408   4.962  0.00  0.00     0.003 A 
ATOM      8  C6  PXY d   1       5.977   2.197   4.275  0.00  0.00     0.003 A 
ENDROOT
TORSDOF 0
ENDMDL
