MODEL 1
REMARK minimizedAffinity -2.68575931
REMARK minimizedRMSD -1
REMARK  0 active torsions:
REMARK  status: ('A' for Active; 'I' for Inactive)
ROOT
ATOM      1  C4' PXY d   1       5.973   4.092   4.128  0.00  0.00     0.077 C 
ATOM      2  C1' PXY d   1       6.000  -1.644   4.837  0.00  0.00     0.077 C 
ATOM      3  C1  PXY d   1       5.998  -0.141   4.639  0.00  0.00    -0.082 A 
ATOM      4  C2  PXY d   1       5.995   0.657   5.694  0.00  0.00     0.003 A 
ATOM      5  C3  PXY d   1       5.961   2.019   5.533  0.00  0.00     0.003 A 
ATOM      6  C4  PXY d   1       5.984   2.569   4.280  0.00  0.00    -0.082 A 
ATOM      7  C5  PXY d   1       5.999   1.761   3.199  0.00  0.00     0.003 A 
ATOM      8  C6  PXY d   1       5.991   0.381   3.383  0.00  0.00     0.003 A 
ENDROOT
TORSDOF 0
ENDMDL
