MODEL 1
REMARK minimizedAffinity -3.53644609
REMARK minimizedRMSD -1
REMARK  0 active torsions:
REMARK  status: ('A' for Active; 'I' for Inactive)
ROOT
ATOM      1  C4' PXY d   1       5.840  -4.279   4.894  0.00  0.00     0.077 C 
ATOM      2  C1' PXY d   1       6.000   1.499   4.806  0.00  0.00     0.077 C 
ATOM      3  C1  PXY d   1       5.952  -0.016   4.817  0.00  0.00    -0.082 A 
ATOM      4  C2  PXY d   1       5.981  -0.663   5.971  0.00  0.00     0.003 A 
ATOM      5  C3  PXY d   1       5.971  -2.034   5.998  0.00  0.00     0.003 A 
ATOM      6  C4  PXY d   1       5.877  -2.749   4.835  0.00  0.00    -0.082 A 
ATOM      7  C5  PXY d   1       5.837  -2.096   3.654  0.00  0.00     0.003 A 
ATOM      8  C6  PXY d   1       5.890  -0.705   3.646  0.00  0.00     0.003 A 
ENDROOT
TORSDOF 0
ENDMDL
