MODEL 1
REMARK minimizedAffinity 0.998398542
REMARK minimizedRMSD -1
REMARK  0 active torsions:
REMARK  status: ('A' for Active; 'I' for Inactive)
ROOT
ATOM      1  C4' PXY d   1       5.907   5.995  -0.140  0.00  0.00     0.077 C 
ATOM      2  C1' PXY d   1       5.998   3.260   4.952  0.00  0.00     0.077 C 
ATOM      3  C1  PXY d   1       5.979   3.967   3.611  0.00  0.00    -0.082 A 
ATOM      4  C2  PXY d   1       5.937   5.289   3.569  0.00  0.00     0.003 A 
ATOM      5  C3  PXY d   1       5.888   5.943   2.365  0.00  0.00     0.003 A 
ATOM      6  C4  PXY d   1       5.936   5.239   1.192  0.00  0.00    -0.082 A 
ATOM      7  C5  PXY d   1       5.990   3.891   1.227  0.00  0.00     0.003 A 
ATOM      8  C6  PXY d   1       5.998   3.244   2.459  0.00  0.00     0.003 A 
ENDROOT
TORSDOF 0
ENDMDL
