MODEL 1
REMARK minimizedAffinity 4.86216974
REMARK minimizedRMSD -1
REMARK  0 active torsions:
REMARK  status: ('A' for Active; 'I' for Inactive)
ROOT
ATOM      1  C4' PXY d   1       5.990   0.158   3.294  0.00  0.00     0.077 C 
ATOM      2  C1' PXY d   1       5.989   5.937   3.413  0.00  0.00     0.077 C 
ATOM      3  C1  PXY d   1       5.995   4.421   3.393  0.00  0.00    -0.082 A 
ATOM      4  C2  PXY d   1       6.000   3.782   2.235  0.00  0.00     0.003 A 
ATOM      5  C3  PXY d   1       5.973   2.411   2.199  0.00  0.00     0.003 A 
ATOM      6  C4  PXY d   1       5.994   1.687   3.361  0.00  0.00    -0.082 A 
ATOM      7  C5  PXY d   1       6.000   2.332   4.547  0.00  0.00     0.003 A 
ATOM      8  C6  PXY d   1       5.986   3.724   4.562  0.00  0.00     0.003 A 
ENDROOT
TORSDOF 0
ENDMDL
