MODEL 1
REMARK minimizedAffinity -1.42517257
REMARK minimizedRMSD -1
REMARK  0 active torsions:
REMARK  status: ('A' for Active; 'I' for Inactive)
ROOT
ATOM      1  C4' PXY d   1       5.971  -2.401   5.595  0.00  0.00     0.077 C 
ATOM      2  C1' PXY d   1       5.991   3.088   3.783  0.00  0.00     0.077 C 
ATOM      3  C1  PXY d   1       5.980   1.645   4.247  0.00  0.00    -0.082 A 
ATOM      4  C2  PXY d   1       5.964   1.374   5.542  0.00  0.00     0.003 A 
ATOM      5  C3  PXY d   1       5.987   0.075   5.979  0.00  0.00     0.003 A 
ATOM      6  C4  PXY d   1       5.972  -0.959   5.081  0.00  0.00    -0.082 A 
ATOM      7  C5  PXY d   1       5.978  -0.691   3.758  0.00  0.00     0.003 A 
ATOM      8  C6  PXY d   1       5.996   0.635   3.335  0.00  0.00     0.003 A 
ENDROOT
TORSDOF 0
ENDMDL
