MODEL 1
REMARK minimizedAffinity 1.82567585
REMARK minimizedRMSD -1
REMARK  0 active torsions:
REMARK  status: ('A' for Active; 'I' for Inactive)
ROOT
ATOM      1  C4' PXY d   1       5.981   0.440   3.048  0.00  0.00     0.077 C 
ATOM      2  C1' PXY d   1       5.992   5.875   5.015  0.00  0.00     0.077 C 
ATOM      3  C1  PXY d   1       5.995   4.446   4.511  0.00  0.00    -0.082 A 
ATOM      4  C2  PXY d   1       6.000   4.212   3.208  0.00  0.00     0.003 A 
ATOM      5  C3  PXY d   1       5.969   2.925   2.735  0.00  0.00     0.003 A 
ATOM      6  C4  PXY d   1       5.988   1.867   3.603  0.00  0.00    -0.082 A 
ATOM      7  C5  PXY d   1       5.993   2.097   4.933  0.00  0.00     0.003 A 
ATOM      8  C6  PXY d   1       5.982   3.411   5.394  0.00  0.00     0.003 A 
ENDROOT
TORSDOF 0
ENDMDL
