MODEL 1
REMARK minimizedAffinity -2.48016644
REMARK minimizedRMSD -1
REMARK  0 active torsions:
REMARK  status: ('A' for Active; 'I' for Inactive)
ROOT
ATOM      1  C4' PXY d   1       5.966   3.838   3.361  0.00  0.00     0.077 C 
ATOM      2  C1' PXY d   1       5.999  -1.893   4.115  0.00  0.00     0.077 C 
ATOM      3  C1  PXY d   1       5.985  -0.389   3.929  0.00  0.00    -0.082 A 
ATOM      4  C2  PXY d   1       5.969   0.119   2.708  0.00  0.00     0.003 A 
ATOM      5  C3  PXY d   1       5.989   1.478   2.521  0.00  0.00     0.003 A 
ATOM      6  C4  PXY d   1       5.971   2.325   3.597  0.00  0.00    -0.082 A 
ATOM      7  C5  PXY d   1       5.976   1.814   4.846  0.00  0.00     0.003 A 
ATOM      8  C6  PXY d   1       5.998   0.433   5.014  0.00  0.00     0.003 A 
ENDROOT
TORSDOF 0
ENDMDL
