MODEL 1
REMARK minimizedAffinity -1.57546794
REMARK minimizedRMSD -1
REMARK  0 active torsions:
REMARK  status: ('A' for Active; 'I' for Inactive)
ROOT
ATOM      1  C   UNL d   1       2.939  -5.989  -3.197  0.00  0.00     0.023 A 
ATOM      2  C1  UNL d   1       3.285  -6.000  -4.548  0.00  0.00     0.003 A 
ATOM      3  C2  UNL d   1       3.538  -4.800  -5.216  0.00  0.00     0.048 A 
ATOM      4  C3  UNL d   1       3.444  -3.592  -4.525  0.00  0.00     0.023 A 
ATOM      5  C4  UNL d   1       3.099  -3.576  -3.173  0.00  0.00     0.048 A 
ATOM      6  C5  UNL d   1       2.846  -4.778  -2.510  0.00  0.00     0.003 A 
ATOM      7  I   UNL d   1       3.820  -1.804  -5.517  0.00  0.00    -0.146 I 
ENDROOT
TORSDOF 0
ENDMDL
