MODEL 1
REMARK minimizedAffinity 8.03555489
REMARK minimizedRMSD -1
REMARK  0 active torsions:
REMARK  status: ('A' for Active; 'I' for Inactive)
ROOT
ATOM      1  C   UNL d   1       4.892   2.626  -5.297  0.00  0.00     0.023 A 
ATOM      2  C1  UNL d   1       5.909   1.697  -5.074  0.00  0.00     0.003 A 
ATOM      3  C2  UNL d   1       5.669   0.336  -5.274  0.00  0.00     0.048 A 
ATOM      4  C3  UNL d   1       4.411  -0.089  -5.698  0.00  0.00     0.023 A 
ATOM      5  C4  UNL d   1       3.391   0.836  -5.924  0.00  0.00     0.048 A 
ATOM      6  C5  UNL d   1       3.635   2.196  -5.721  0.00  0.00     0.003 A 
ATOM      7  I   UNL d   1       4.052  -2.114  -5.997  0.00  0.00    -0.146 I 
ENDROOT
TORSDOF 0
ENDMDL
