MODEL 1
REMARK minimizedAffinity -0.979778647
REMARK minimizedRMSD -1
REMARK  0 active torsions:
REMARK  status: ('A' for Active; 'I' for Inactive)
ROOT
ATOM      1  C   UNL d   1      -1.897  -1.350   0.669  0.00  0.00     0.023 A 
ATOM      2  C1  UNL d   1      -0.604  -1.872   0.705  0.00  0.00     0.003 A 
ATOM      3  C2  UNL d   1       0.485  -1.068   0.361  0.00  0.00     0.048 A 
ATOM      4  C3  UNL d   1       0.273   0.258  -0.015  0.00  0.00     0.023 A 
ATOM      5  C4  UNL d   1      -1.019   0.785  -0.051  0.00  0.00     0.048 A 
ATOM      6  C5  UNL d   1      -2.104  -0.024   0.292  0.00  0.00     0.003 A 
ATOM      7  I   UNL d   1       1.892   1.457  -0.526  0.00  0.00    -0.146 I 
ENDROOT
TORSDOF 0
ENDMDL
