MODEL 1
REMARK minimizedAffinity 0.0210194141
REMARK minimizedRMSD -1
REMARK  0 active torsions:
REMARK  status: ('A' for Active; 'I' for Inactive)
ROOT
ATOM      1  C   UNL d   1       4.740  -4.258  -5.857  0.00  0.00     0.023 A 
ATOM      2  C1  UNL d   1       5.960  -3.592  -5.982  0.00  0.00     0.003 A 
ATOM      3  C2  UNL d   1       5.996  -2.196  -5.997  0.00  0.00     0.048 A 
ATOM      4  C3  UNL d   1       4.810  -1.472  -5.885  0.00  0.00     0.023 A 
ATOM      5  C4  UNL d   1       3.587  -2.134  -5.759  0.00  0.00     0.048 A 
ATOM      6  C5  UNL d   1       3.556  -3.530  -5.746  0.00  0.00     0.003 A 
ATOM      7  I   UNL d   1       4.862   0.605  -5.907  0.00  0.00    -0.146 I 
ENDROOT
TORSDOF 0
ENDMDL
