MODEL 1
REMARK minimizedAffinity 2.90762424
REMARK minimizedRMSD -1
REMARK  0 active torsions:
REMARK  status: ('A' for Active; 'I' for Inactive)
ROOT
ATOM      1  C   UNL d   1       0.784   1.647  -0.014  0.00  0.00     0.023 A 
ATOM      2  C1  UNL d   1       1.910   1.983   0.738  0.00  0.00     0.003 A 
ATOM      3  C2  UNL d   1       2.265   1.211   1.846  0.00  0.00     0.048 A 
ATOM      4  C3  UNL d   1       1.492   0.104   2.195  0.00  0.00     0.023 A 
ATOM      5  C4  UNL d   1       0.365  -0.236   1.444  0.00  0.00     0.048 A 
ATOM      6  C5  UNL d   1       0.013   0.540   0.338  0.00  0.00     0.003 A 
ATOM      7  I   UNL d   1       2.020  -1.047   3.843  0.00  0.00    -0.146 I 
ENDROOT
TORSDOF 0
ENDMDL
