MODEL 1
REMARK minimizedAffinity -1.25632763
REMARK minimizedRMSD -1
REMARK  0 active torsions:
REMARK  status: ('A' for Active; 'I' for Inactive)
ROOT
ATOM      1  C   UNL d   1      -0.026   0.731  -0.275  0.00  0.00     0.023 A 
ATOM      2  C1  UNL d   1      -0.356  -0.427   0.429  0.00  0.00     0.003 A 
ATOM      3  C2  UNL d   1       0.410  -0.819   1.529  0.00  0.00     0.048 A 
ATOM      4  C3  UNL d   1       1.505  -0.049   1.919  0.00  0.00     0.023 A 
ATOM      5  C4  UNL d   1       1.838   1.111   1.218  0.00  0.00     0.048 A 
ATOM      6  C5  UNL d   1       1.070   1.499   0.119  0.00  0.00     0.003 A 
ATOM      7  I   UNL d   1       2.646  -0.631   3.556  0.00  0.00    -0.146 I 
ENDROOT
TORSDOF 0
ENDMDL
