MODEL 1
REMARK minimizedAffinity 9.76142502
REMARK minimizedRMSD -1
REMARK  0 active torsions:
REMARK  status: ('A' for Active; 'I' for Inactive)
ROOT
ATOM      1  C   UNL d   1      -4.227   2.283  -4.527  0.00  0.00     0.023 A 
ATOM      2  C1  UNL d   1      -3.703   2.271  -3.235  0.00  0.00     0.003 A 
ATOM      3  C2  UNL d   1      -3.098   1.116  -2.736  0.00  0.00     0.048 A 
ATOM      4  C3  UNL d   1      -3.020  -0.024  -3.535  0.00  0.00     0.023 A 
ATOM      5  C4  UNL d   1      -3.543  -0.017  -4.829  0.00  0.00     0.048 A 
ATOM      6  C5  UNL d   1      -4.148   1.140  -5.323  0.00  0.00     0.003 A 
ATOM      7  I   UNL d   1      -2.120  -1.745  -2.794  0.00  0.00    -0.146 I 
ENDROOT
TORSDOF 0
ENDMDL
