MODEL 1
REMARK minimizedAffinity 5.11215115
REMARK minimizedRMSD -1
REMARK  0 active torsions:
REMARK  status: ('A' for Active; 'I' for Inactive)
ROOT
ATOM      1  C   UNL d   1       2.025  -5.700   5.747  0.00  0.00     0.023 A 
ATOM      2  C1  UNL d   1       3.017  -5.367   4.824  0.00  0.00     0.003 A 
ATOM      3  C2  UNL d   1       2.960  -4.149   4.144  0.00  0.00     0.048 A 
ATOM      4  C3  UNL d   1       1.908  -3.267   4.392  0.00  0.00     0.023 A 
ATOM      5  C4  UNL d   1       0.914  -3.595   5.315  0.00  0.00     0.048 A 
ATOM      6  C5  UNL d   1       0.975  -4.815   5.992  0.00  0.00     0.003 A 
ATOM      7  I   UNL d   1       1.821  -1.453   3.381  0.00  0.00    -0.146 I 
ENDROOT
TORSDOF 0
ENDMDL
