MODEL 1
REMARK minimizedAffinity 7.71555328
REMARK minimizedRMSD -1
REMARK  0 active torsions:
REMARK  status: ('A' for Active; 'I' for Inactive)
ROOT
ATOM      1  C   UNL d   1       2.306   0.403   0.915  0.00  0.00     0.023 A 
ATOM      2  C1  UNL d   1       2.084   1.719   0.508  0.00  0.00     0.003 A 
ATOM      3  C2  UNL d   1       0.834   2.097   0.014  0.00  0.00     0.048 A 
ATOM      4  C3  UNL d   1      -0.191   1.155  -0.068  0.00  0.00     0.023 A 
ATOM      5  C4  UNL d   1       0.026  -0.162   0.340  0.00  0.00     0.048 A 
ATOM      6  C5  UNL d   1       1.278  -0.536   0.832  0.00  0.00     0.003 A 
ATOM      7  I   UNL d   1      -2.052   1.715  -0.802  0.00  0.00    -0.146 I 
ENDROOT
TORSDOF 0
ENDMDL
