MODEL 1
REMARK minimizedAffinity 5.25126457
REMARK minimizedRMSD -1
REMARK  0 active torsions:
REMARK  status: ('A' for Active; 'I' for Inactive)
ROOT
ATOM      1  C   UNL d   1       2.718   0.417   3.107  0.00  0.00     0.023 A 
ATOM      2  C1  UNL d   1       1.900  -0.711   3.171  0.00  0.00     0.003 A 
ATOM      3  C2  UNL d   1       1.041  -1.013   2.113  0.00  0.00     0.048 A 
ATOM      4  C3  UNL d   1       1.005  -0.183   0.993  0.00  0.00     0.023 A 
ATOM      5  C4  UNL d   1       1.822   0.946   0.924  0.00  0.00     0.048 A 
ATOM      6  C5  UNL d   1       2.679   1.245   1.985  0.00  0.00     0.003 A 
ATOM      7  I   UNL d   1      -0.273  -0.631  -0.584  0.00  0.00    -0.146 I 
ENDROOT
TORSDOF 0
ENDMDL
