MODEL 1
REMARK minimizedAffinity -1.53892314
REMARK minimizedRMSD -1
REMARK  0 active torsions:
REMARK  status: ('A' for Active; 'I' for Inactive)
ROOT
ATOM      1  C   UNL d   1       5.189  -1.103  -5.796  0.00  0.00     0.023 A 
ATOM      2  C1  UNL d   1       3.814  -1.259  -5.616  0.00  0.00     0.003 A 
ATOM      3  C2  UNL d   1       3.248  -2.536  -5.628  0.00  0.00     0.048 A 
ATOM      4  C3  UNL d   1       4.062  -3.652  -5.820  0.00  0.00     0.023 A 
ATOM      5  C4  UNL d   1       5.438  -3.500  -6.000  0.00  0.00     0.048 A 
ATOM      6  C5  UNL d   1       5.999  -2.222  -5.988  0.00  0.00     0.003 A 
ATOM      7  I   UNL d   1       3.221  -5.552  -5.839  0.00  0.00    -0.146 I 
ENDROOT
TORSDOF 0
ENDMDL
