MODEL 1
REMARK minimizedAffinity 0.259125203
REMARK minimizedRMSD -1
REMARK  0 active torsions:
REMARK  status: ('A' for Active; 'I' for Inactive)
ROOT
ATOM      1  C   UNL d   1       1.327   1.093   0.747  0.00  0.00     0.023 A 
ATOM      2  C1  UNL d   1       2.440   1.520   1.470  0.00  0.00     0.003 A 
ATOM      3  C2  UNL d   1       2.873   0.794   2.582  0.00  0.00     0.048 A 
ATOM      4  C3  UNL d   1       2.189  -0.359   2.964  0.00  0.00     0.023 A 
ATOM      5  C4  UNL d   1       1.075  -0.791   2.242  0.00  0.00     0.048 A 
ATOM      6  C5  UNL d   1       0.645  -0.062   1.132  0.00  0.00     0.003 A 
ATOM      7  I   UNL d   1       2.832  -1.441   4.617  0.00  0.00    -0.146 I 
ENDROOT
TORSDOF 0
ENDMDL
