MODEL 1
REMARK minimizedAffinity 1.53685057
REMARK minimizedRMSD -1
REMARK  0 active torsions:
REMARK  status: ('A' for Active; 'I' for Inactive)
ROOT
ATOM      1  C   UNL d   1      -5.990  -2.150   2.152  0.00  0.00     0.172 C 
ATOM      2  N   UNL d   1      -5.992  -1.967   3.584  0.00  0.00    -0.070 N 
ATOM      3  C1  UNL d   1      -5.989  -0.762   4.235  0.00  0.00    -0.004 A 
ATOM      4  C2  UNL d   1      -5.993  -1.014   5.590  0.00  0.00    -0.047 A 
ATOM      5  C3  UNL d   1      -5.999  -2.419   5.760  0.00  0.00    -0.047 A 
ATOM      6  C4  UNL d   1      -5.998  -2.984   4.502  0.00  0.00    -0.004 A 
ENDROOT
TORSDOF 0
ENDMDL
