MODEL 1
REMARK minimizedAffinity 4.04525518
REMARK minimizedRMSD -1
REMARK  0 active torsions:
REMARK  status: ('A' for Active; 'I' for Inactive)
ROOT
ATOM      1  C   UNL d   1       0.755   4.993   1.295  0.00  0.00     0.172 C 
ATOM      2  N   UNL d   1       1.254   3.978   2.193  0.00  0.00    -0.070 N 
ATOM      3  C1  UNL d   1       0.732   2.722   2.348  0.00  0.00    -0.004 A 
ATOM      4  C2  UNL d   1       1.489   2.063   3.293  0.00  0.00    -0.047 A 
ATOM      5  C3  UNL d   1       2.500   2.955   3.722  0.00  0.00    -0.047 A 
ATOM      6  C4  UNL d   1       2.331   4.133   3.026  0.00  0.00    -0.004 A 
ENDROOT
TORSDOF 0
ENDMDL
