MODEL 1
REMARK minimizedAffinity -3.40529561
REMARK minimizedRMSD -1
REMARK  0 active torsions:
REMARK  status: ('A' for Active; 'I' for Inactive)
ROOT
ATOM      1  C   UNL d   1       0.097   0.023   0.007  0.00  0.00     0.172 C 
ATOM      2  N   UNL d   1      -0.445   1.349   0.189  0.00  0.00    -0.070 N 
ATOM      3  C1  UNL d   1      -1.106   2.078  -0.762  0.00  0.00    -0.004 A 
ATOM      4  C2  UNL d   1      -1.462   3.284  -0.198  0.00  0.00    -0.047 A 
ATOM      5  C3  UNL d   1      -0.998   3.279   1.139  0.00  0.00    -0.047 A 
ATOM      6  C4  UNL d   1      -0.372   2.069   1.352  0.00  0.00    -0.004 A 
ENDROOT
TORSDOF 0
ENDMDL
