MODEL 1
REMARK minimizedAffinity -3.04280162
REMARK minimizedRMSD -1
REMARK  0 active torsions:
REMARK  status: ('A' for Active; 'I' for Inactive)
ROOT
ATOM      1  C   UNL d   1       1.766   2.966   2.782  0.00  0.00     0.172 C 
ATOM      2  N   UNL d   1       0.567   2.913   1.978  0.00  0.00    -0.070 N 
ATOM      3  C1  UNL d   1       0.221   1.897   1.128  0.00  0.00    -0.004 A 
ATOM      4  C2  UNL d   1      -0.989   2.222   0.552  0.00  0.00    -0.047 A 
ATOM      5  C3  UNL d   1      -1.382   3.477   1.074  0.00  0.00    -0.047 A 
ATOM      6  C4  UNL d   1      -0.401   3.882   1.955  0.00  0.00    -0.004 A 
ENDROOT
TORSDOF 0
ENDMDL
