MODEL 1
REMARK minimizedAffinity -2.06740785
REMARK minimizedRMSD -1
REMARK  0 active torsions:
REMARK  status: ('A' for Active; 'I' for Inactive)
ROOT
ATOM      1  C   UNL d   1       2.368   3.438   3.095  0.00  0.00     0.172 C 
ATOM      2  N   UNL d   1       1.907   4.011   1.852  0.00  0.00    -0.070 N 
ATOM      3  C1  UNL d   1       0.709   3.743   1.245  0.00  0.00    -0.004 A 
ATOM      4  C2  UNL d   1       0.647   4.486   0.086  0.00  0.00    -0.047 A 
ATOM      5  C3  UNL d   1       1.850   5.226  -0.007  0.00  0.00    -0.047 A 
ATOM      6  C4  UNL d   1       2.612   4.913   1.099  0.00  0.00    -0.004 A 
ENDROOT
TORSDOF 0
ENDMDL
