MODEL 1
REMARK minimizedAffinity 1.58482003
REMARK minimizedRMSD -1
REMARK  0 active torsions:
REMARK  status: ('A' for Active; 'I' for Inactive)
ROOT
ATOM      1  C   UNL d   1       1.464   5.311  -0.736  0.00  0.00     0.172 C 
ATOM      2  N   UNL d   1       1.420   4.518   0.470  0.00  0.00    -0.070 N 
ATOM      3  C1  UNL d   1       0.323   3.851   0.947  0.00  0.00    -0.004 A 
ATOM      4  C2  UNL d   1       0.690   3.217   2.115  0.00  0.00    -0.047 A 
ATOM      5  C3  UNL d   1       2.053   3.514   2.348  0.00  0.00    -0.047 A 
ATOM      6  C4  UNL d   1       2.480   4.321   1.315  0.00  0.00    -0.004 A 
ENDROOT
TORSDOF 0
ENDMDL
