MODEL 1
REMARK minimizedAffinity 1.47980595
REMARK minimizedRMSD -1
REMARK  0 active torsions:
REMARK  status: ('A' for Active; 'I' for Inactive)
ROOT
ATOM      1  C   UNL d   1      -1.427   0.738  -0.763  0.00  0.00     0.172 C 
ATOM      2  N   UNL d   1      -0.124   0.127  -0.641  0.00  0.00    -0.070 N 
ATOM      3  C1  UNL d   1       0.817   0.047  -1.633  0.00  0.00    -0.004 A 
ATOM      4  C2  UNL d   1       1.917  -0.606  -1.120  0.00  0.00    -0.047 A 
ATOM      5  C3  UNL d   1       1.627  -0.931   0.227  0.00  0.00    -0.047 A 
ATOM      6  C4  UNL d   1       0.357  -0.466   0.497  0.00  0.00    -0.004 A 
ENDROOT
TORSDOF 0
ENDMDL
