MODEL 1
REMARK minimizedAffinity -3.74577832
REMARK minimizedRMSD -1
REMARK  1 active torsions:
REMARK  status: ('A' for Active; 'I' for Inactive)
REMARK    1  A    between atoms: C1_2  and  C2_3 
ROOT
ATOM      1  C2  UNL d   1       1.108  -0.341  -0.248  0.00  0.00    -0.081 A 
ATOM      2  C3  UNL d   1      -0.134   0.211   0.090  0.00  0.00     0.006 A 
ATOM      3  C4  UNL d   1      -0.796  -0.193   1.252  0.00  0.00     0.002 A 
ATOM      4  C5  UNL d   1      -0.224  -1.149   2.098  0.00  0.00    -0.080 A 
ATOM      5  C6  UNL d   1      -0.910  -1.569   3.364  0.00  0.00     0.076 C 
ATOM      6  C7  UNL d   1       1.009  -1.713   1.752  0.00  0.00     0.002 A 
ATOM      7  C8  UNL d   1       1.671  -1.310   0.590  0.00  0.00     0.006 A 
ENDROOT
BRANCH   1   8
ATOM      8  C1  UNL d   1       1.854   0.140  -1.466  0.00  0.00     0.054 C 
ATOM      9  C   UNL d   1       2.450   1.523  -1.240  0.00  0.00     0.018 C 
ENDBRANCH   1   8
TORSDOF 1
ENDMDL
