MODEL 1
REMARK minimizedAffinity -4.51194429
REMARK minimizedRMSD -1
REMARK  1 active torsions:
REMARK  status: ('A' for Active; 'I' for Inactive)
REMARK    1  A    between atoms: C1_2  and  C2_3 
ROOT
ATOM      1  C2  UNL d   1      -0.354   0.000  -0.140  0.00  0.00    -0.081 A 
ATOM      2  C3  UNL d   1      -0.924  -0.684  -1.222  0.00  0.00     0.006 A 
ATOM      3  C4  UNL d   1      -1.534   0.019  -2.263  0.00  0.00     0.002 A 
ATOM      4  C5  UNL d   1      -1.579   1.418  -2.244  0.00  0.00    -0.080 A 
ATOM      5  C6  UNL d   1      -2.204   2.186  -3.370  0.00  0.00     0.076 C 
ATOM      6  C7  UNL d   1      -1.025   2.101  -1.156  0.00  0.00     0.002 A 
ATOM      7  C8  UNL d   1      -0.416   1.398  -0.114  0.00  0.00     0.006 A 
ENDROOT
BRANCH   1   8
ATOM      8  C1  UNL d   1       0.362  -0.753   0.952  0.00  0.00     0.054 C 
ATOM      9  C   UNL d   1       1.381  -1.726   0.377  0.00  0.00     0.018 C 
ENDBRANCH   1   8
TORSDOF 1
ENDMDL
