MODEL 1
REMARK minimizedAffinity -1.70507169
REMARK minimizedRMSD -1
REMARK  1 active torsions:
REMARK  status: ('A' for Active; 'I' for Inactive)
REMARK    1  A    between atoms: C1_2  and  C2_3 
ROOT
ATOM      1  C2  UNL d   1      -0.432   0.699  -0.811  0.00  0.00    -0.081 A 
ATOM      2  C3  UNL d   1       0.876   0.545  -1.284  0.00  0.00     0.006 A 
ATOM      3  C4  UNL d   1       1.752  -0.351  -0.665  0.00  0.00     0.002 A 
ATOM      4  C5  UNL d   1       1.332  -1.111   0.431  0.00  0.00    -0.080 A 
ATOM      5  C6  UNL d   1       2.253  -2.098   1.086  0.00  0.00     0.076 C 
ATOM      6  C7  UNL d   1       0.031  -0.944   0.915  0.00  0.00     0.002 A 
ATOM      7  C8  UNL d   1      -0.845  -0.048   0.298  0.00  0.00     0.006 A 
ENDROOT
BRANCH   1   8
ATOM      8  C1  UNL d   1      -1.399   1.616  -1.516  0.00  0.00     0.054 C 
ATOM      9  C   UNL d   1      -2.091   0.907  -2.671  0.00  0.00     0.018 C 
ENDBRANCH   1   8
TORSDOF 1
ENDMDL
