MODEL 1
REMARK minimizedAffinity -5.65139389
REMARK minimizedRMSD -1
REMARK  1 active torsions:
REMARK  status: ('A' for Active; 'I' for Inactive)
REMARK    1  A    between atoms: C1_2  and  C2_3 
ROOT
ATOM      1  C2  UNL d   1       0.402  -2.016   1.724  0.00  0.00    -0.081 A 
ATOM      2  C3  UNL d   1       1.490  -2.634   1.095  0.00  0.00     0.006 A 
ATOM      3  C4  UNL d   1       2.051  -2.078  -0.057  0.00  0.00     0.002 A 
ATOM      4  C5  UNL d   1       1.539  -0.892  -0.594  0.00  0.00    -0.080 A 
ATOM      5  C6  UNL d   1       2.150  -0.268  -1.814  0.00  0.00     0.076 C 
ATOM      6  C7  UNL d   1       0.441  -0.284   0.024  0.00  0.00     0.002 A 
ATOM      7  C8  UNL d   1      -0.121  -0.840   1.176  0.00  0.00     0.006 A 
ENDROOT
BRANCH   1   8
ATOM      8  C1  UNL d   1      -0.163  -2.579   3.004  0.00  0.00     0.054 C 
ATOM      9  C   UNL d   1      -0.111  -1.555   4.129  0.00  0.00     0.018 C 
ENDBRANCH   1   8
TORSDOF 1
ENDMDL
