MODEL 1
REMARK minimizedAffinity -4.3690362
REMARK minimizedRMSD -1
REMARK  1 active torsions:
REMARK  status: ('A' for Active; 'I' for Inactive)
REMARK    1  A    between atoms: C1_2  and  C2_3 
ROOT
ATOM      1  C2  UNL d   1      -0.167   0.191  -0.545  0.00  0.00    -0.081 A 
ATOM      2  C3  UNL d   1       1.099  -0.347  -0.809  0.00  0.00     0.006 A 
ATOM      3  C4  UNL d   1       1.637  -1.331   0.024  0.00  0.00     0.002 A 
ATOM      4  C5  UNL d   1       0.916  -1.800   1.127  0.00  0.00    -0.080 A 
ATOM      5  C6  UNL d   1       1.470  -2.878   2.011  0.00  0.00     0.076 C 
ATOM      6  C7  UNL d   1      -0.341  -1.250   1.401  0.00  0.00     0.002 A 
ATOM      7  C8  UNL d   1      -0.879  -0.266   0.569  0.00  0.00     0.006 A 
ENDROOT
BRANCH   1   8
ATOM      8  C1  UNL d   1      -0.778   1.205  -1.478  0.00  0.00     0.054 C 
ATOM      9  C   UNL d   1      -1.856   0.578  -2.349  0.00  0.00     0.018 C 
ENDBRANCH   1   8
TORSDOF 1
ENDMDL
