MODEL 1
REMARK minimizedAffinity -3.05392766
REMARK minimizedRMSD -1
REMARK  1 active torsions:
REMARK  status: ('A' for Active; 'I' for Inactive)
REMARK    1  A    between atoms: C1_2  and  C2_3 
ROOT
ATOM      1  C2  UNL d   1       1.012  -0.616   0.521  0.00  0.00    -0.081 A 
ATOM      2  C3  UNL d   1      -0.064  -1.093   1.279  0.00  0.00     0.006 A 
ATOM      3  C4  UNL d   1       0.034  -2.306   1.964  0.00  0.00     0.002 A 
ATOM      4  C5  UNL d   1       1.212  -3.060   1.908  0.00  0.00    -0.080 A 
ATOM      5  C6  UNL d   1       1.341  -4.349   2.662  0.00  0.00     0.076 C 
ATOM      6  C7  UNL d   1       2.281  -2.593   1.136  0.00  0.00     0.002 A 
ATOM      7  C8  UNL d   1       2.183  -1.380   0.450  0.00  0.00     0.006 A 
ENDROOT
BRANCH   1   8
ATOM      8  C1  UNL d   1       0.932   0.723  -0.166  0.00  0.00     0.054 C 
ATOM      9  C   UNL d   1      -0.250   1.536   0.342  0.00  0.00     0.018 C 
ENDBRANCH   1   8
TORSDOF 1
ENDMDL
