MODEL 1
REMARK minimizedAffinity -4.16305017
REMARK minimizedRMSD -1
REMARK  1 active torsions:
REMARK  status: ('A' for Active; 'I' for Inactive)
REMARK    1  A    between atoms: C1_2  and  C2_3 
ROOT
ATOM      1  C2  UNL d   1      -0.413   0.602   0.449  0.00  0.00    -0.081 A 
ATOM      2  C3  UNL d   1       0.805   0.335  -0.187  0.00  0.00     0.006 A 
ATOM      3  C4  UNL d   1       1.479  -0.866   0.049  0.00  0.00     0.002 A 
ATOM      4  C5  UNL d   1       0.942  -1.822   0.917  0.00  0.00    -0.080 A 
ATOM      5  C6  UNL d   1       1.639  -3.129   1.156  0.00  0.00     0.076 C 
ATOM      6  C7  UNL d   1      -0.267  -1.548   1.566  0.00  0.00     0.002 A 
ATOM      7  C8  UNL d   1      -0.940  -0.347   1.332  0.00  0.00     0.006 A 
ENDROOT
BRANCH   1   8
ATOM      8  C1  UNL d   1      -1.174   1.868   0.148  0.00  0.00     0.054 C 
ATOM      9  C   UNL d   1      -1.767   1.837  -1.253  0.00  0.00     0.018 C 
ENDBRANCH   1   8
TORSDOF 1
ENDMDL
