MODEL 1
REMARK minimizedAffinity -5.2407608
REMARK minimizedRMSD -1
REMARK  1 active torsions:
REMARK  status: ('A' for Active; 'I' for Inactive)
REMARK    1  A    between atoms: C1_2  and  C2_3 
ROOT
ATOM      1  C2  UNL d   1      -0.490   0.458  -0.483  0.00  0.00    -0.081 A 
ATOM      2  C3  UNL d   1      -1.087  -0.486   0.361  0.00  0.00     0.006 A 
ATOM      3  C4  UNL d   1      -0.320  -1.490   0.956  0.00  0.00     0.002 A 
ATOM      4  C5  UNL d   1       1.058  -1.563   0.723  0.00  0.00    -0.080 A 
ATOM      5  C6  UNL d   1       1.898  -2.618   1.379  0.00  0.00     0.076 C 
ATOM      6  C7  UNL d   1       1.652  -0.630  -0.135  0.00  0.00     0.002 A 
ATOM      7  C8  UNL d   1       0.885   0.374  -0.730  0.00  0.00     0.006 A 
ENDROOT
BRANCH   1   8
ATOM      8  C1  UNL d   1      -1.304   1.581  -1.074  0.00  0.00     0.054 C 
ATOM      9  C   UNL d   1      -2.232   1.075  -2.169  0.00  0.00     0.018 C 
ENDBRANCH   1   8
TORSDOF 1
ENDMDL
