MODEL 1
REMARK minimizedAffinity -4.92408705
REMARK minimizedRMSD -1
REMARK  1 active torsions:
REMARK  status: ('A' for Active; 'I' for Inactive)
REMARK    1  A    between atoms: C1_2  and  C2_3 
ROOT
ATOM      1  C2  UNL d   1      -0.290  -0.105  -0.000  0.00  0.00    -0.081 A 
ATOM      2  C3  UNL d   1      -0.865  -0.698   1.131  0.00  0.00     0.006 A 
ATOM      3  C4  UNL d   1      -0.188  -1.703   1.825  0.00  0.00     0.002 A 
ATOM      4  C5  UNL d   1       1.078  -2.126   1.406  0.00  0.00    -0.080 A 
ATOM      5  C6  UNL d   1       1.829  -3.183   2.160  0.00  0.00     0.076 C 
ATOM      6  C7  UNL d   1       1.645  -1.547   0.266  0.00  0.00     0.002 A 
ATOM      7  C8  UNL d   1       0.968  -0.543  -0.430  0.00  0.00     0.006 A 
ENDROOT
BRANCH   1   8
ATOM      8  C1  UNL d   1      -0.989   1.024  -0.713  0.00  0.00     0.054 C 
ATOM      9  C   UNL d   1      -1.795   0.514  -1.900  0.00  0.00     0.018 C 
ENDBRANCH   1   8
TORSDOF 1
ENDMDL
