MODEL 1
REMARK minimizedAffinity -4.24368858
REMARK minimizedRMSD -1
REMARK  1 active torsions:
REMARK  status: ('A' for Active; 'I' for Inactive)
REMARK    1  A    between atoms: C1_2  and  C2_3 
ROOT
ATOM      1  C2  UNL d   1       0.053  -1.429   0.901  0.00  0.00    -0.081 A 
ATOM      2  C3  UNL d   1       1.392  -1.793   0.714  0.00  0.00     0.006 A 
ATOM      3  C4  UNL d   1       2.252  -0.977  -0.025  0.00  0.00     0.002 A 
ATOM      4  C5  UNL d   1       1.789   0.219  -0.584  0.00  0.00    -0.080 A 
ATOM      5  C6  UNL d   1       2.709   1.119  -1.355  0.00  0.00     0.076 C 
ATOM      6  C7  UNL d   1       0.447   0.574  -0.413  0.00  0.00     0.002 A 
ATOM      7  C8  UNL d   1      -0.413  -0.241   0.326  0.00  0.00     0.006 A 
ENDROOT
BRANCH   1   8
ATOM      8  C1  UNL d   1      -0.859  -2.273   1.752  0.00  0.00     0.054 C 
ATOM      9  C   UNL d   1      -0.082  -3.346   2.502  0.00  0.00     0.018 C 
ENDBRANCH   1   8
TORSDOF 1
ENDMDL
