MODEL 1
REMARK minimizedAffinity -5.8931284
REMARK minimizedRMSD -1
REMARK  1 active torsions:
REMARK  status: ('A' for Active; 'I' for Inactive)
REMARK    1  A    between atoms: C1_2  and  C2_3 
ROOT
ATOM      1  C2  UNL d   1       0.841  -0.703  -0.062  0.00  0.00    -0.081 A 
ATOM      2  C3  UNL d   1      -0.074   0.257   0.389  0.00  0.00     0.006 A 
ATOM      3  C4  UNL d   1      -1.045   0.770  -0.475  0.00  0.00     0.002 A 
ATOM      4  C5  UNL d   1      -1.121   0.327  -1.800  0.00  0.00    -0.080 A 
ATOM      5  C6  UNL d   1      -2.177   0.848  -2.729  0.00  0.00     0.076 C 
ATOM      6  C7  UNL d   1      -0.196  -0.619  -2.255  0.00  0.00     0.002 A 
ATOM      7  C8  UNL d   1       0.775  -1.132  -1.392  0.00  0.00     0.006 A 
ENDROOT
BRANCH   1   8
ATOM      8  C1  UNL d   1       1.847  -1.306   0.885  0.00  0.00     0.054 C 
ATOM      9  C   UNL d   1       1.763  -2.826   0.887  0.00  0.00     0.018 C 
ENDBRANCH   1   8
TORSDOF 1
ENDMDL
