MODEL 1
REMARK minimizedAffinity -2.01546621
REMARK minimizedRMSD -1
REMARK  1 active torsions:
REMARK  status: ('A' for Active; 'I' for Inactive)
REMARK    1  A    between atoms: C1_2  and  C2_3 
ROOT
ATOM      1  C2  UNL d   1      -0.283   0.252  -0.742  0.00  0.00    -0.081 A 
ATOM      2  C3  UNL d   1      -0.899   1.417  -0.268  0.00  0.00     0.006 A 
ATOM      3  C4  UNL d   1      -1.750   2.155  -1.093  0.00  0.00     0.002 A 
ATOM      4  C5  UNL d   1      -2.006   1.737  -2.404  0.00  0.00    -0.080 A 
ATOM      5  C6  UNL d   1      -2.941   2.504  -3.291  0.00  0.00     0.076 C 
ATOM      6  C7  UNL d   1      -1.377   0.584  -2.884  0.00  0.00     0.002 A 
ATOM      7  C8  UNL d   1      -0.525  -0.154  -2.059  0.00  0.00     0.006 A 
ENDROOT
BRANCH   1   8
ATOM      8  C1  UNL d   1       0.584  -0.581   0.166  0.00  0.00     0.054 C 
ATOM      9  C   UNL d   1      -0.228  -1.658   0.871  0.00  0.00     0.018 C 
ENDBRANCH   1   8
TORSDOF 1
ENDMDL
