MODEL 1
REMARK minimizedAffinity -2.56227279
REMARK minimizedRMSD -1
REMARK  1 active torsions:
REMARK  status: ('A' for Active; 'I' for Inactive)
REMARK    1  A    between atoms: C1_2  and  C2_3 
ROOT
ATOM      1  C2  UNL d   1      -0.327  -0.089  -0.594  0.00  0.00    -0.081 A 
ATOM      2  C3  UNL d   1      -0.994   1.104  -0.290  0.00  0.00     0.006 A 
ATOM      3  C4  UNL d   1      -1.751   1.760  -1.264  0.00  0.00     0.002 A 
ATOM      4  C5  UNL d   1      -1.860   1.230  -2.554  0.00  0.00    -0.080 A 
ATOM      5  C6  UNL d   1      -2.694   1.908  -3.601  0.00  0.00     0.076 C 
ATOM      6  C7  UNL d   1      -1.179   0.047  -2.863  0.00  0.00     0.002 A 
ATOM      7  C8  UNL d   1      -0.422  -0.608  -1.890  0.00  0.00     0.006 A 
ENDROOT
BRANCH   1   8
ATOM      8  C1  UNL d   1       0.437  -0.833   0.472  0.00  0.00     0.054 C 
ATOM      9  C   UNL d   1      -0.463  -1.804   1.222  0.00  0.00     0.018 C 
ENDBRANCH   1   8
TORSDOF 1
ENDMDL
