MODEL 1
REMARK minimizedAffinity 0.112732589
REMARK minimizedRMSD -1
REMARK  0 active torsions:
REMARK  status: ('A' for Active; 'I' for Inactive)
ROOT
ATOM      1  C1  BNZ d   1       4.770   5.872  -1.367  0.00  0.00     0.000 A 
ATOM      2  C2  BNZ d   1       3.613   5.671  -2.070  0.00  0.00     0.000 A 
ATOM      3  C3  BNZ d   1       3.629   5.585  -3.434  0.00  0.00     0.000 A 
ATOM      4  C4  BNZ d   1       4.794   5.740  -4.095  0.00  0.00     0.000 A 
ATOM      5  C5  BNZ d   1       5.969   5.953  -3.400  0.00  0.00     0.000 A 
ATOM      6  C6  BNZ d   1       5.955   6.000  -2.025  0.00  0.00     0.000 A 
ENDROOT
TORSDOF 0
ENDMDL
