MODEL 1
REMARK minimizedAffinity 2.25121737
REMARK minimizedRMSD -1
REMARK  0 active torsions:
REMARK  status: ('A' for Active; 'I' for Inactive)
ROOT
ATOM      1  C1  BNZ d   1      -5.979  -3.919  -5.998  0.00  0.00     0.000 A 
ATOM      2  C2  BNZ d   1      -5.997  -5.288  -6.000  0.00  0.00     0.000 A 
ATOM      3  C3  BNZ d   1      -5.302  -5.999  -5.062  0.00  0.00     0.000 A 
ATOM      4  C4  BNZ d   1      -4.558  -5.342  -4.149  0.00  0.00     0.000 A 
ATOM      5  C5  BNZ d   1      -4.522  -3.962  -4.140  0.00  0.00     0.000 A 
ATOM      6  C6  BNZ d   1      -5.254  -3.249  -5.061  0.00  0.00     0.000 A 
ENDROOT
TORSDOF 0
ENDMDL
