MODEL 1
REMARK minimizedAffinity -0.109808795
REMARK minimizedRMSD -1
REMARK  0 active torsions:
REMARK  status: ('A' for Active; 'I' for Inactive)
ROOT
ATOM      1  C1  BNZ d   1      -3.710   0.487  -4.049  0.00  0.00     0.000 A 
ATOM      2  C2  BNZ d   1      -4.242   1.045  -5.181  0.00  0.00     0.000 A 
ATOM      3  C3  BNZ d   1      -4.559   2.374  -5.224  0.00  0.00     0.000 A 
ATOM      4  C4  BNZ d   1      -4.381   3.134  -4.124  0.00  0.00     0.000 A 
ATOM      5  C5  BNZ d   1      -3.853   2.585  -2.973  0.00  0.00     0.000 A 
ATOM      6  C6  BNZ d   1      -3.499   1.255  -2.945  0.00  0.00     0.000 A 
ENDROOT
TORSDOF 0
ENDMDL
