MODEL 1
REMARK minimizedAffinity 0.686497629
REMARK minimizedRMSD -1
REMARK  0 active torsions:
REMARK  status: ('A' for Active; 'I' for Inactive)
ROOT
ATOM      1  C1  BNZ d   1      -3.032   2.144  -1.125  0.00  0.00     0.000 A 
ATOM      2  C2  BNZ d   1      -3.276   0.924  -1.697  0.00  0.00     0.000 A 
ATOM      3  C3  BNZ d   1      -3.764   0.834  -2.971  0.00  0.00     0.000 A 
ATOM      4  C4  BNZ d   1      -4.044   1.962  -3.655  0.00  0.00     0.000 A 
ATOM      5  C5  BNZ d   1      -3.813   3.199  -3.088  0.00  0.00     0.000 A 
ATOM      6  C6  BNZ d   1      -3.285   3.286  -1.820  0.00  0.00     0.000 A 
ENDROOT
TORSDOF 0
ENDMDL
