MODEL 1
REMARK minimizedAffinity 4.00133133
REMARK minimizedRMSD -1
REMARK  0 active torsions:
REMARK  status: ('A' for Active; 'I' for Inactive)
ROOT
ATOM      1  C1  BNZ d   1       0.267  -0.789   0.999  0.00  0.00     0.000 A 
ATOM      2  C2  BNZ d   1       0.322  -1.941   1.737  0.00  0.00     0.000 A 
ATOM      3  C3  BNZ d   1       1.314  -2.136   2.658  0.00  0.00     0.000 A 
ATOM      4  C4  BNZ d   1       2.271  -1.198   2.810  0.00  0.00     0.000 A 
ATOM      5  C5  BNZ d   1       2.234  -0.035   2.066  0.00  0.00     0.000 A 
ATOM      6  C6  BNZ d   1       1.213   0.175   1.169  0.00  0.00     0.000 A 
ENDROOT
TORSDOF 0
ENDMDL
