MODEL 1
REMARK minimizedAffinity -0.190901503
REMARK minimizedRMSD -1
REMARK  0 active torsions:
REMARK  status: ('A' for Active; 'I' for Inactive)
ROOT
ATOM      1  C1  BNZ d   1       2.245  -5.612  -2.759  0.00  0.00     0.000 A 
ATOM      2  C2  BNZ d   1       2.247  -5.793  -4.116  0.00  0.00     0.000 A 
ATOM      3  C3  BNZ d   1       3.416  -6.000  -4.793  0.00  0.00     0.000 A 
ATOM      4  C4  BNZ d   1       4.584  -5.985  -4.119  0.00  0.00     0.000 A 
ATOM      5  C5  BNZ d   1       4.599  -5.794  -2.752  0.00  0.00     0.000 A 
ATOM      6  C6  BNZ d   1       3.417  -5.625  -2.068  0.00  0.00     0.000 A 
ENDROOT
TORSDOF 0
ENDMDL
