MODEL 1
REMARK minimizedAffinity 2.69607615
REMARK minimizedRMSD -1
REMARK  0 active torsions:
REMARK  status: ('A' for Active; 'I' for Inactive)
ROOT
ATOM      1  C1  BNZ d   1      -6.000  -3.790  -5.997  0.00  0.00     0.000 A 
ATOM      2  C2  BNZ d   1      -5.962  -5.159  -6.000  0.00  0.00     0.000 A 
ATOM      3  C3  BNZ d   1      -5.375  -5.845  -4.973  0.00  0.00     0.000 A 
ATOM      4  C4  BNZ d   1      -4.792  -5.162  -3.967  0.00  0.00     0.000 A 
ATOM      5  C5  BNZ d   1      -4.814  -3.782  -3.954  0.00  0.00     0.000 A 
ATOM      6  C6  BNZ d   1      -5.440  -3.095  -4.969  0.00  0.00     0.000 A 
ENDROOT
TORSDOF 0
ENDMDL
