MODEL 1
REMARK minimizedAffinity 0.0975199118
REMARK minimizedRMSD -1
REMARK  0 active torsions:
REMARK  status: ('A' for Active; 'I' for Inactive)
ROOT
ATOM      1  C1  BNZ d   1       5.997  -3.433   3.713  0.00  0.00     0.000 A 
ATOM      2  C2  BNZ d   1       5.999  -3.949   4.982  0.00  0.00     0.000 A 
ATOM      3  C3  BNZ d   1       4.846  -4.007   5.715  0.00  0.00     0.000 A 
ATOM      4  C4  BNZ d   1       3.704  -3.515   5.195  0.00  0.00     0.000 A 
ATOM      5  C5  BNZ d   1       3.688  -2.983   3.921  0.00  0.00     0.000 A 
ATOM      6  C6  BNZ d   1       4.841  -2.961   3.171  0.00  0.00     0.000 A 
ENDROOT
TORSDOF 0
ENDMDL
