MODEL 1
REMARK minimizedAffinity 7.90189171
REMARK minimizedRMSD -1
REMARK  2 active torsions:
REMARK  status: ('A' for Active; 'I' for Inactive)
REMARK    1  A    between atoms: C2'_3  and  C1'_4 
REMARK    2  A    between atoms: C1'_4  and  C1_5 
ROOT
ATOM      1  C1  I4B d   1      -3.261  -2.051  -2.693  0.00  0.00    -0.075 A 
ATOM      2  C2  I4B d   1      -3.621  -2.478  -3.947  0.00  0.00     0.003 A 
ATOM      3  C3  I4B d   1      -4.374  -3.666  -4.107  0.00  0.00     0.002 A 
ATOM      4  C4  I4B d   1      -4.700  -4.419  -2.997  0.00  0.00    -0.004 A 
ATOM      5  C5  I4B d   1      -4.354  -3.973  -1.724  0.00  0.00     0.002 A 
ATOM      6  C6  I4B d   1      -3.641  -2.775  -1.570  0.00  0.00     0.003 A 
ENDROOT
BRANCH   1   7
ATOM      7  C1' I4B d   1      -2.438  -0.809  -2.562  0.00  0.00     0.060 C 
BRANCH   7   8
ATOM      8  C2' I4B d   1      -3.143   0.119  -1.595  0.00  0.00    -0.013 C 
ATOM      9  C4' I4B d   1      -2.446   0.149  -0.261  0.00  0.00     0.013 C 
ATOM     10  C3' I4B d   1      -3.188   1.485  -2.213  0.00  0.00     0.013 C 
ENDBRANCH   7   8
ENDBRANCH   1   7
TORSDOF 2
ENDMDL
