MODEL 1
REMARK minimizedAffinity 4.37971258
REMARK minimizedRMSD -1
REMARK  2 active torsions:
REMARK  status: ('A' for Active; 'I' for Inactive)
REMARK    1  A    between atoms: C2'_3  and  C1'_4 
REMARK    2  A    between atoms: C1'_4  and  C1_5 
ROOT
ATOM      1  C1  I4B d   1       2.365  -4.452   2.239  0.00  0.00    -0.075 A 
ATOM      2  C2  I4B d   1       2.633  -4.424   3.585  0.00  0.00     0.003 A 
ATOM      3  C3  I4B d   1       2.209  -3.328   4.374  0.00  0.00     0.002 A 
ATOM      4  C4  I4B d   1       1.569  -2.264   3.771  0.00  0.00    -0.004 A 
ATOM      5  C5  I4B d   1       1.278  -2.304   2.410  0.00  0.00     0.002 A 
ATOM      6  C6  I4B d   1       1.667  -3.410   1.641  0.00  0.00     0.003 A 
ENDROOT
BRANCH   1   7
ATOM      7  C1' I4B d   1       2.856  -5.610   1.430  0.00  0.00     0.060 C 
BRANCH   7   8
ATOM      8  C2' I4B d   1       2.548  -5.326  -0.026  0.00  0.00    -0.013 C 
ATOM      9  C4' I4B d   1       3.660  -5.806  -0.922  0.00  0.00     0.013 C 
ATOM     10  C3' I4B d   1       1.251  -5.999  -0.365  0.00  0.00     0.013 C 
ENDBRANCH   7   8
ENDBRANCH   1   7
TORSDOF 2
ENDMDL
