MODEL 1
REMARK minimizedAffinity -0.36046347
REMARK minimizedRMSD -1
REMARK  2 active torsions:
REMARK  status: ('A' for Active; 'I' for Inactive)
REMARK    1  A    between atoms: C2'_3  and  C1'_4 
REMARK    2  A    between atoms: C1'_4  and  C1_5 
ROOT
ATOM      1  C1  I4B d   1       3.236  -5.962  -1.792  0.00  0.00    -0.075 A 
ATOM      2  C2  I4B d   1       4.034  -5.997  -0.675  0.00  0.00     0.003 A 
ATOM      3  C3  I4B d   1       3.453  -5.984   0.616  0.00  0.00     0.002 A 
ATOM      4  C4  I4B d   1       2.083  -5.885   0.745  0.00  0.00    -0.004 A 
ATOM      5  C5  I4B d   1       1.275  -5.873  -0.388  0.00  0.00     0.002 A 
ATOM      6  C6  I4B d   1       1.853  -5.924  -1.665  0.00  0.00     0.003 A 
ENDROOT
BRANCH   1   7
ATOM      7  C1' I4B d   1       3.883  -5.943  -3.140  0.00  0.00     0.060 C 
BRANCH   7   8
ATOM      8  C2' I4B d   1       5.183  -5.172  -3.024  0.00  0.00    -0.013 C 
ATOM      9  C4' I4B d   1       4.928  -3.713  -2.754  0.00  0.00     0.013 C 
ATOM     10  C3' I4B d   1       5.992  -5.792  -1.924  0.00  0.00     0.013 C 
ENDBRANCH   7   8
ENDBRANCH   1   7
TORSDOF 2
ENDMDL
