MODEL 1
REMARK minimizedAffinity 7.8721323
REMARK minimizedRMSD -1
REMARK  2 active torsions:
REMARK  status: ('A' for Active; 'I' for Inactive)
REMARK    1  A    between atoms: C2'_3  and  C1'_4 
REMARK    2  A    between atoms: C1'_4  and  C1_5 
ROOT
ATOM      1  C1  I4B d   1       1.910  -0.507   2.888  0.00  0.00    -0.075 A 
ATOM      2  C2  I4B d   1       2.950  -1.077   2.197  0.00  0.00     0.003 A 
ATOM      3  C3  I4B d   1       3.752  -0.288   1.338  0.00  0.00     0.002 A 
ATOM      4  C4  I4B d   1       3.450   1.047   1.161  0.00  0.00    -0.004 A 
ATOM      5  C5  I4B d   1       2.409   1.628   1.880  0.00  0.00     0.002 A 
ATOM      6  C6  I4B d   1       1.642   0.850   2.759  0.00  0.00     0.003 A 
ENDROOT
BRANCH   1   7
ATOM      7  C1' I4B d   1       1.063  -1.376   3.762  0.00  0.00     0.060 C 
BRANCH   7   8
ATOM      8  C2' I4B d   1       1.647  -1.345   5.160  0.00  0.00    -0.013 C 
ATOM      9  C4' I4B d   1       1.253  -0.086   5.887  0.00  0.00     0.013 C 
ATOM     10  C3' I4B d   1       1.169  -2.564   5.889  0.00  0.00     0.013 C 
ENDBRANCH   7   8
ENDBRANCH   1   7
TORSDOF 2
ENDMDL
