MODEL 1
REMARK minimizedAffinity 6.46954441
REMARK minimizedRMSD -1
REMARK  2 active torsions:
REMARK  status: ('A' for Active; 'I' for Inactive)
REMARK    1  A    between atoms: C2'_3  and  C1'_4 
REMARK    2  A    between atoms: C1'_4  and  C1_5 
ROOT
ATOM      1  C1  I4B d   1       0.306   0.424  -0.581  0.00  0.00    -0.075 A 
ATOM      2  C2  I4B d   1       1.103  -0.691  -0.656  0.00  0.00     0.003 A 
ATOM      3  C3  I4B d   1       2.189  -0.853   0.238  0.00  0.00     0.002 A 
ATOM      4  C4  I4B d   1       2.472   0.142   1.151  0.00  0.00    -0.004 A 
ATOM      5  C5  I4B d   1       1.650   1.262   1.241  0.00  0.00     0.002 A 
ATOM      6  C6  I4B d   1       0.553   1.398   0.378  0.00  0.00     0.003 A 
ENDROOT
BRANCH   1   7
ATOM      7  C1' I4B d   1      -0.812   0.579  -1.562  0.00  0.00     0.060 C 
BRANCH   7   8
ATOM      8  C2' I4B d   1      -0.212   0.613  -2.953  0.00  0.00    -0.013 C 
ATOM      9  C4' I4B d   1      -1.285   0.600  -4.010  0.00  0.00     0.013 C 
ATOM     10  C3' I4B d   1       0.639   1.843  -3.060  0.00  0.00     0.013 C 
ENDBRANCH   7   8
ENDBRANCH   1   7
TORSDOF 2
ENDMDL
