MODEL 1
REMARK minimizedAffinity -5.15922403
REMARK minimizedRMSD -1
REMARK  0 active torsions:
REMARK  status: ('A' for Active; 'I' for Inactive)
ROOT
ATOM      1  C   UNL d   1       0.451  -0.566  -0.785  0.00  0.00     0.078 C 
ATOM      2  C1  UNL d   1       0.151  -0.042   0.588  0.00  0.00    -0.077 A 
ATOM      3  C2  UNL d   1       1.171   0.135   1.531  0.00  0.00    -0.001 A 
ATOM      4  C3  UNL d   1       0.875   0.614   2.808  0.00  0.00     0.003 A 
ATOM      5  C4  UNL d   1      -0.439   0.918   3.154  0.00  0.00    -0.005 A 
ATOM      6  C5  UNL d   1      -1.461   0.743   2.223  0.00  0.00     0.003 A 
ATOM      7  C6  UNL d   1      -1.168   0.264   0.946  0.00  0.00    -0.001 A 
ENDROOT
TORSDOF 0
ENDMDL
