MODEL 1
REMARK minimizedAffinity -5.86390448
REMARK minimizedRMSD -1
REMARK  0 active torsions:
REMARK  status: ('A' for Active; 'I' for Inactive)
ROOT
ATOM      1  C   UNL d   1       1.511   0.776   3.024  0.00  0.00     0.078 C 
ATOM      2  C1  UNL d   1       0.372   0.435   2.110  0.00  0.00    -0.077 A 
ATOM      3  C2  UNL d   1       0.604  -0.107   0.840  0.00  0.00    -0.001 A 
ATOM      4  C3  UNL d   1      -0.466  -0.410  -0.004  0.00  0.00     0.003 A 
ATOM      5  C4  UNL d   1      -1.775  -0.175   0.413  0.00  0.00    -0.005 A 
ATOM      6  C5  UNL d   1      -2.015   0.366   1.674  0.00  0.00     0.003 A 
ATOM      7  C6  UNL d   1      -0.947   0.671   2.519  0.00  0.00    -0.001 A 
ENDROOT
TORSDOF 0
ENDMDL
