MODEL 1
REMARK minimizedAffinity -4.68504095
REMARK minimizedRMSD -1
REMARK  0 active torsions:
REMARK  status: ('A' for Active; 'I' for Inactive)
ROOT
ATOM      1  C   UNL d   1       0.332  -0.572  -1.291  0.00  0.00     0.078 C 
ATOM      2  C1  UNL d   1      -0.210   0.045  -0.036  0.00  0.00    -0.077 A 
ATOM      3  C2  UNL d   1       0.620   0.284   1.067  0.00  0.00    -0.001 A 
ATOM      4  C3  UNL d   1       0.100   0.850   2.232  0.00  0.00     0.003 A 
ATOM      5  C4  UNL d   1      -1.252   1.181   2.306  0.00  0.00    -0.005 A 
ATOM      6  C5  UNL d   1      -2.086   0.944   1.215  0.00  0.00     0.003 A 
ATOM      7  C6  UNL d   1      -1.567   0.378   0.049  0.00  0.00    -0.001 A 
ENDROOT
TORSDOF 0
ENDMDL
