MODEL 1
REMARK minimizedAffinity -6.00197268
REMARK minimizedRMSD -1
REMARK  0 active torsions:
REMARK  status: ('A' for Active; 'I' for Inactive)
ROOT
ATOM      1  C   UNL d   1      -1.978   0.397  -0.263  0.00  0.00     0.078 C 
ATOM      2  C1  UNL d   1      -1.013   0.467   0.882  0.00  0.00    -0.077 A 
ATOM      3  C2  UNL d   1       0.332   0.118   0.714  0.00  0.00    -0.001 A 
ATOM      4  C3  UNL d   1       1.217   0.179   1.792  0.00  0.00     0.003 A 
ATOM      5  C4  UNL d   1       0.766   0.588   3.045  0.00  0.00    -0.005 A 
ATOM      6  C5  UNL d   1      -0.571   0.935   3.223  0.00  0.00     0.003 A 
ATOM      7  C6  UNL d   1      -1.458   0.875   2.146  0.00  0.00    -0.001 A 
ENDROOT
TORSDOF 0
ENDMDL
