MODEL 1
REMARK minimizedAffinity -2.86008835
REMARK minimizedRMSD -1
REMARK  0 active torsions:
REMARK  status: ('A' for Active; 'I' for Inactive)
ROOT
ATOM      1  C1  BNZ d   1      -1.306   0.048   1.827  0.00  0.00     0.000 A 
ATOM      2  C2  BNZ d   1      -0.087  -0.373   1.365  0.00  0.00     0.000 A 
ATOM      3  C3  BNZ d   1       0.259  -0.208   0.053  0.00  0.00     0.000 A 
ATOM      4  C4  BNZ d   1      -0.627   0.340  -0.803  0.00  0.00     0.000 A 
ATOM      5  C5  BNZ d   1      -1.864   0.761  -0.355  0.00  0.00     0.000 A 
ATOM      6  C6  BNZ d   1      -2.194   0.629   0.975  0.00  0.00     0.000 A 
ENDROOT
TORSDOF 0
ENDMDL
