MODEL 1
REMARK minimizedAffinity -2.23856711
REMARK minimizedRMSD -1
REMARK  0 active torsions:
REMARK  status: ('A' for Active; 'I' for Inactive)
ROOT
ATOM      1  C1  BNZ d   1       0.580   1.711  -2.005  0.00  0.00     0.000 A 
ATOM      2  C2  BNZ d   1       0.963   1.771  -3.318  0.00  0.00     0.000 A 
ATOM      3  C3  BNZ d   1       1.121   0.630  -4.054  0.00  0.00     0.000 A 
ATOM      4  C4  BNZ d   1       0.935  -0.570  -3.465  0.00  0.00     0.000 A 
ATOM      5  C5  BNZ d   1       0.557  -0.646  -2.139  0.00  0.00     0.000 A 
ATOM      6  C6  BNZ d   1       0.361   0.506  -1.413  0.00  0.00     0.000 A 
ENDROOT
TORSDOF 0
ENDMDL
