MODEL 1
REMARK minimizedAffinity -2.85162973
REMARK minimizedRMSD -1
REMARK  0 active torsions:
REMARK  status: ('A' for Active; 'I' for Inactive)
ROOT
ATOM      1  C1  BNZ d   1      -1.909   0.800   1.391  0.00  0.00     0.000 A 
ATOM      2  C2  BNZ d   1      -1.953   0.464   0.064  0.00  0.00     0.000 A 
ATOM      3  C3  BNZ d   1      -0.862  -0.076  -0.557  0.00  0.00     0.000 A 
ATOM      4  C4  BNZ d   1       0.282  -0.243   0.137  0.00  0.00     0.000 A 
ATOM      5  C5  BNZ d   1       0.345   0.100   1.473  0.00  0.00     0.000 A 
ATOM      6  C6  BNZ d   1      -0.767   0.607   2.106  0.00  0.00     0.000 A 
ENDROOT
TORSDOF 0
ENDMDL
