MODEL 1
REMARK minimizedAffinity -4.09929705
REMARK minimizedRMSD -1
REMARK  0 active torsions:
REMARK  status: ('A' for Active; 'I' for Inactive)
ROOT
ATOM      1  C1  BNZ d   1       2.120   1.074  -4.008  0.00  0.00     0.000 A 
ATOM      2  C2  BNZ d   1       0.940   1.208  -4.689  0.00  0.00     0.000 A 
ATOM      3  C3  BNZ d   1      -0.163   0.484  -4.329  0.00  0.00     0.000 A 
ATOM      4  C4  BNZ d   1      -0.073  -0.401  -3.316  0.00  0.00     0.000 A 
ATOM      5  C5  BNZ d   1       1.113  -0.555  -2.625  0.00  0.00     0.000 A 
ATOM      6  C6  BNZ d   1       2.209   0.204  -2.965  0.00  0.00     0.000 A 
ENDROOT
TORSDOF 0
ENDMDL
