MODEL 1
REMARK minimizedAffinity 7.93025541
REMARK minimizedRMSD -1
REMARK  0 active torsions:
REMARK  status: ('A' for Active; 'I' for Inactive)
ROOT
ATOM      1  C2' OXE d   1       5.417  -2.591  -0.278  0.00  0.00     0.078 C 
ATOM      2  C1' OXE d   1       4.413  -0.735   1.573  0.00  0.00     0.078 C 
ATOM      3  C1  OXE d   1       3.460  -1.769   1.025  0.00  0.00    -0.078 A 
ATOM      4  C2  OXE d   1       3.949  -2.644   0.085  0.00  0.00    -0.078 A 
ATOM      5  C3  OXE d   1       3.127  -3.651  -0.411  0.00  0.00     0.003 A 
ATOM      6  C4  OXE d   1       1.768  -3.687  -0.078  0.00  0.00    -0.002 A 
ATOM      7  C5  OXE d   1       1.241  -2.780   0.848  0.00  0.00    -0.002 A 
ATOM      8  C6  OXE d   1       2.081  -1.844   1.440  0.00  0.00     0.003 A 
ENDROOT
TORSDOF 0
ENDMDL
