MODEL 1
REMARK minimizedAffinity 5.79463053
REMARK minimizedRMSD -1
REMARK  0 active torsions:
REMARK  status: ('A' for Active; 'I' for Inactive)
ROOT
ATOM      1  C2' OXE d   1      -0.270  -1.838   2.834  0.00  0.00     0.078 C 
ATOM      2  C1' OXE d   1      -2.294  -1.418   0.935  0.00  0.00     0.078 C 
ATOM      3  C1  OXE d   1      -2.258  -0.508   2.137  0.00  0.00    -0.078 A 
ATOM      4  C2  OXE d   1      -1.293  -0.750   3.085  0.00  0.00    -0.078 A 
ATOM      5  C3  OXE d   1      -1.181   0.093   4.186  0.00  0.00     0.003 A 
ATOM      6  C4  OXE d   1      -2.137   1.090   4.416  0.00  0.00    -0.002 A 
ATOM      7  C5  OXE d   1      -3.152   1.328   3.483  0.00  0.00    -0.002 A 
ATOM      8  C6  OXE d   1      -3.201   0.567   2.320  0.00  0.00     0.003 A 
ENDROOT
TORSDOF 0
ENDMDL
