MODEL 1
REMARK minimizedAffinity 5.17157269
REMARK minimizedRMSD -1
REMARK  0 active torsions:
REMARK  status: ('A' for Active; 'I' for Inactive)
ROOT
ATOM      1  C2' OXE d   1      -3.874   0.907   2.010  0.00  0.00     0.078 C 
ATOM      2  C1' OXE d   1      -3.149  -0.943   0.026  0.00  0.00     0.078 C 
ATOM      3  C1  OXE d   1      -2.320  -0.901   1.286  0.00  0.00    -0.078 A 
ATOM      4  C2  OXE d   1      -2.654   0.039   2.231  0.00  0.00    -0.078 A 
ATOM      5  C3  OXE d   1      -1.956   0.083   3.435  0.00  0.00     0.003 A 
ATOM      6  C4  OXE d   1      -0.823  -0.717   3.628  0.00  0.00    -0.002 A 
ATOM      7  C5  OXE d   1      -0.442  -1.653   2.661  0.00  0.00    -0.002 A 
ATOM      8  C6  OXE d   1      -1.204  -1.787   1.505  0.00  0.00     0.003 A 
ENDROOT
TORSDOF 0
ENDMDL
