MODEL 1
REMARK minimizedAffinity 5.63671303
REMARK minimizedRMSD -1
REMARK  0 active torsions:
REMARK  status: ('A' for Active; 'I' for Inactive)
ROOT
ATOM      1  C2' OXE d   1      -3.059   0.717   3.520  0.00  0.00     0.078 C 
ATOM      2  C1' OXE d   1      -1.422  -1.506   3.012  0.00  0.00     0.078 C 
ATOM      3  C1  OXE d   1      -2.079  -0.833   1.834  0.00  0.00    -0.078 A 
ATOM      4  C2  OXE d   1      -2.916   0.226   2.096  0.00  0.00    -0.078 A 
ATOM      5  C3  OXE d   1      -3.505   0.917   1.041  0.00  0.00     0.003 A 
ATOM      6  C4  OXE d   1      -3.375   0.450  -0.273  0.00  0.00    -0.002 A 
ATOM      7  C5  OXE d   1      -2.559  -0.650  -0.558  0.00  0.00    -0.002 A 
ATOM      8  C6  OXE d   1      -1.872  -1.275   0.477  0.00  0.00     0.003 A 
ENDROOT
TORSDOF 0
ENDMDL
