MODEL 1
REMARK minimizedAffinity 8.05693722
REMARK minimizedRMSD -1
REMARK  0 active torsions:
REMARK  status: ('A' for Active; 'I' for Inactive)
ROOT
ATOM      1  C2' OXE d   1      -0.715  -1.056   3.286  0.00  0.00     0.078 C 
ATOM      2  C1' OXE d   1      -2.205  -1.203   0.911  0.00  0.00     0.078 C 
ATOM      3  C1  OXE d   1      -2.664  -0.233   1.971  0.00  0.00    -0.078 A 
ATOM      4  C2  OXE d   1      -1.956  -0.201   3.148  0.00  0.00    -0.078 A 
ATOM      5  C3  OXE d   1      -2.304   0.715   4.137  0.00  0.00     0.003 A 
ATOM      6  C4  OXE d   1      -3.460   1.495   4.006  0.00  0.00    -0.002 A 
ATOM      7  C5  OXE d   1      -4.218   1.449   2.831  0.00  0.00    -0.002 A 
ATOM      8  C6  OXE d   1      -3.810   0.624   1.789  0.00  0.00     0.003 A 
ENDROOT
TORSDOF 0
ENDMDL
