MODEL 1
REMARK minimizedAffinity 3.49584436
REMARK minimizedRMSD -1
REMARK  0 active torsions:
REMARK  status: ('A' for Active; 'I' for Inactive)
ROOT
ATOM      1  C2' OXE d   1       5.869   0.842  -2.767  0.00  0.00     0.078 C 
ATOM      2  C1' OXE d   1       5.455  -0.360  -0.264  0.00  0.00     0.078 C 
ATOM      3  C1  OXE d   1       5.626   1.138  -0.306  0.00  0.00    -0.078 A 
ATOM      4  C2  OXE d   1       5.875   1.713  -1.529  0.00  0.00    -0.078 A 
ATOM      5  C3  OXE d   1       5.986   3.096  -1.631  0.00  0.00     0.003 A 
ATOM      6  C4  OXE d   1       6.000   3.893  -0.479  0.00  0.00    -0.002 A 
ATOM      7  C5  OXE d   1       5.788   3.324   0.781  0.00  0.00    -0.002 A 
ATOM      8  C6  OXE d   1       5.557   1.956   0.880  0.00  0.00     0.003 A 
ENDROOT
TORSDOF 0
ENDMDL
