MODEL 1
REMARK minimizedAffinity 7.68848801
REMARK minimizedRMSD -1
REMARK  0 active torsions:
REMARK  status: ('A' for Active; 'I' for Inactive)
ROOT
ATOM      1  C2' OXE d   1       0.288   4.152  -4.068  0.00  0.00     0.078 C 
ATOM      2  C1' OXE d   1      -2.516   4.294  -4.073  0.00  0.00     0.078 C 
ATOM      3  C1  OXE d   1      -1.871   3.149  -3.333  0.00  0.00    -0.078 A 
ATOM      4  C2  OXE d   1      -0.500   3.061  -3.375  0.00  0.00    -0.078 A 
ATOM      5  C3  OXE d   1       0.148   2.055  -2.664  0.00  0.00     0.003 A 
ATOM      6  C4  OXE d   1      -0.588   1.044  -2.034  0.00  0.00    -0.002 A 
ATOM      7  C5  OXE d   1      -1.986   1.093  -2.013  0.00  0.00    -0.002 A 
ATOM      8  C6  OXE d   1      -2.640   2.159  -2.620  0.00  0.00     0.003 A 
ENDROOT
TORSDOF 0
ENDMDL
