MODEL 1
REMARK minimizedAffinity 6.2331233
REMARK minimizedRMSD -1
REMARK  0 active torsions:
REMARK  status: ('A' for Active; 'I' for Inactive)
ROOT
ATOM      1  C2' OXE d   1       2.414   1.502   1.715  0.00  0.00     0.078 C 
ATOM      2  C1' OXE d   1       2.348  -1.092   0.644  0.00  0.00     0.078 C 
ATOM      3  C1  OXE d   1       3.651  -0.337   0.578  0.00  0.00    -0.078 A 
ATOM      4  C2  OXE d   1       3.662   0.949   1.062  0.00  0.00    -0.078 A 
ATOM      5  C3  OXE d   1       4.852   1.671   1.075  0.00  0.00     0.003 A 
ATOM      6  C4  OXE d   1       6.000   1.157   0.460  0.00  0.00    -0.002 A 
ATOM      7  C5  OXE d   1       6.000  -0.136  -0.075  0.00  0.00    -0.002 A 
ATOM      8  C6  OXE d   1       4.848  -0.910   0.014  0.00  0.00     0.003 A 
ENDROOT
TORSDOF 0
ENDMDL
