MODEL 1
REMARK minimizedAffinity 9.00762749
REMARK minimizedRMSD -1
REMARK  0 active torsions:
REMARK  status: ('A' for Active; 'I' for Inactive)
ROOT
ATOM      1  C2' OXE d   1       2.362   1.899   1.209  0.00  0.00     0.078 C 
ATOM      2  C1' OXE d   1       2.309  -0.819   0.510  0.00  0.00     0.078 C 
ATOM      3  C1  OXE d   1       3.622  -0.087   0.390  0.00  0.00    -0.078 A 
ATOM      4  C2  OXE d   1       3.629   1.254   0.689  0.00  0.00    -0.078 A 
ATOM      5  C3  OXE d   1       4.825   1.964   0.647  0.00  0.00     0.003 A 
ATOM      6  C4  OXE d   1       5.990   1.362   0.156  0.00  0.00    -0.002 A 
ATOM      7  C5  OXE d   1       5.996   0.007  -0.192  0.00  0.00    -0.002 A 
ATOM      8  C6  OXE d   1       4.833  -0.741  -0.041  0.00  0.00     0.003 A 
ENDROOT
TORSDOF 0
ENDMDL
