MODEL 1
REMARK minimizedAffinity 4.73318148
REMARK minimizedRMSD -1
REMARK  0 active torsions:
REMARK  status: ('A' for Active; 'I' for Inactive)
ROOT
ATOM      1  C2' OXE d   1       0.333  -0.398   0.403  0.00  0.00     0.078 C 
ATOM      2  C1' OXE d   1      -0.458  -1.211   2.970  0.00  0.00     0.078 C 
ATOM      3  C1  OXE d   1       0.648  -1.984   2.297  0.00  0.00    -0.078 A 
ATOM      4  C2  OXE d   1       0.997  -1.609   1.022  0.00  0.00    -0.078 A 
ATOM      5  C3  OXE d   1       2.049  -2.253   0.377  0.00  0.00     0.003 A 
ATOM      6  C4  OXE d   1       2.651  -3.378   0.953  0.00  0.00    -0.002 A 
ATOM      7  C5  OXE d   1       2.283  -3.802   2.235  0.00  0.00    -0.002 A 
ATOM      8  C6  OXE d   1       1.315  -3.092   2.936  0.00  0.00     0.003 A 
ENDROOT
TORSDOF 0
ENDMDL
