MODEL 1
REMARK minimizedAffinity -0.771567225
REMARK minimizedRMSD -1
REMARK  0 active torsions:
REMARK  status: ('A' for Active; 'I' for Inactive)
ROOT
ATOM      1  C2' OXE d   1       1.904  -1.840   0.172  0.00  0.00     0.078 C 
ATOM      2  C1' OXE d   1       1.235  -4.314   1.319  0.00  0.00     0.078 C 
ATOM      3  C1  OXE d   1       2.697  -3.955   1.225  0.00  0.00    -0.078 A 
ATOM      4  C2  OXE d   1       3.017  -2.763   0.620  0.00  0.00    -0.078 A 
ATOM      5  C3  OXE d   1       4.347  -2.358   0.557  0.00  0.00     0.003 A 
ATOM      6  C4  OXE d   1       5.371  -3.222   0.964  0.00  0.00    -0.002 A 
ATOM      7  C5  OXE d   1       5.069  -4.457   1.546  0.00  0.00    -0.002 A 
ATOM      8  C6  OXE d   1       3.738  -4.819   1.722  0.00  0.00     0.003 A 
ENDROOT
TORSDOF 0
ENDMDL
