MODEL 1
REMARK minimizedAffinity 3.18410468
REMARK minimizedRMSD -1
REMARK  0 active torsions:
REMARK  status: ('A' for Active; 'I' for Inactive)
ROOT
ATOM      1  C2' OXE d   1      -2.084  -0.727   0.366  0.00  0.00     0.078 C 
ATOM      2  C1' OXE d   1      -2.620   0.521   2.822  0.00  0.00     0.078 C 
ATOM      3  C1  OXE d   1      -1.489  -0.476   2.772  0.00  0.00    -0.078 A 
ATOM      4  C2  OXE d   1      -1.264  -1.116   1.577  0.00  0.00    -0.078 A 
ATOM      5  C3  OXE d   1      -0.198  -2.004   1.461  0.00  0.00     0.003 A 
ATOM      6  C4  OXE d   1       0.549  -2.366   2.588  0.00  0.00    -0.002 A 
ATOM      7  C5  OXE d   1       0.311  -1.755   3.824  0.00  0.00    -0.002 A 
ATOM      8  C6  OXE d   1      -0.675  -0.779   3.923  0.00  0.00     0.003 A 
ENDROOT
TORSDOF 0
ENDMDL
