MODEL 1
REMARK minimizedAffinity 0.0216829628
REMARK minimizedRMSD -1
REMARK  0 active torsions:
REMARK  status: ('A' for Active; 'I' for Inactive)
ROOT
ATOM      1  C2' OXE d   1       1.652  -0.926   3.861  0.00  0.00     0.078 C 
ATOM      2  C1' OXE d   1      -0.069  -2.867   2.788  0.00  0.00     0.078 C 
ATOM      3  C1  OXE d   1      -0.606  -1.468   2.962  0.00  0.00    -0.078 A 
ATOM      4  C2  OXE d   1       0.228  -0.536   3.531  0.00  0.00    -0.078 A 
ATOM      5  C3  OXE d   1      -0.200   0.782   3.663  0.00  0.00     0.003 A 
ATOM      6  C4  OXE d   1      -1.522   1.132   3.364  0.00  0.00    -0.002 A 
ATOM      7  C5  OXE d   1      -2.400   0.188   2.821  0.00  0.00    -0.002 A 
ATOM      8  C6  OXE d   1      -1.946  -1.103   2.574  0.00  0.00     0.003 A 
ENDROOT
TORSDOF 0
ENDMDL
