MODEL 1
REMARK minimizedAffinity -0.429880321
REMARK minimizedRMSD -1
REMARK  0 active torsions:
REMARK  status: ('A' for Active; 'I' for Inactive)
ROOT
ATOM      1  C   UNL d   1       1.496  -4.504  -1.854  0.00  0.00    -0.002 A 
ATOM      2  C1  UNL d   1       2.841  -4.678  -1.563  0.00  0.00     0.010 A 
ATOM      3  C2  UNL d   1       3.821  -4.327  -2.494  0.00  0.00     0.041 A 
ATOM      4  C3  UNL d   1       3.421  -3.792  -3.735  0.00  0.00    -0.075 A 
ATOM      5  S   UNL d   1       4.444  -3.290  -5.028  0.00  0.00     0.015 SA
ATOM      6  C4  UNL d   1       3.120  -2.833  -5.998  0.00  0.00     0.022 A 
ATOM      7  C5  UNL d   1       1.918  -3.051  -5.366  0.00  0.00     0.026 A 
ATOM      8  C6  UNL d   1       2.072  -3.607  -4.051  0.00  0.00    -0.082 A 
ATOM      9  C7  UNL d   1       1.103  -3.973  -3.086  0.00  0.00     0.045 A 
ENDROOT
TORSDOF 0
ENDMDL
