MODEL 1
REMARK minimizedAffinity 4.24820423
REMARK minimizedRMSD -1
REMARK  0 active torsions:
REMARK  status: ('A' for Active; 'I' for Inactive)
ROOT
ATOM      1  C   UNL d   1       3.432  -0.915  -3.917  0.00  0.00    -0.002 A 
ATOM      2  C1  UNL d   1       2.785  -1.968  -3.286  0.00  0.00     0.010 A 
ATOM      3  C2  UNL d   1       3.154  -3.289  -3.550  0.00  0.00     0.041 A 
ATOM      4  C3  UNL d   1       4.194  -3.536  -4.468  0.00  0.00    -0.075 A 
ATOM      5  S   UNL d   1       4.815  -5.071  -4.946  0.00  0.00     0.015 SA
ATOM      6  C4  UNL d   1       5.954  -4.365  -6.000  0.00  0.00     0.022 A 
ATOM      7  C5  UNL d   1       5.876  -2.992  -5.999  0.00  0.00     0.026 A 
ATOM      8  C6  UNL d   1       4.861  -2.492  -5.116  0.00  0.00    -0.082 A 
ATOM      9  C7  UNL d   1       4.463  -1.164  -4.827  0.00  0.00     0.045 A 
ENDROOT
TORSDOF 0
ENDMDL
