MODEL 1
REMARK minimizedAffinity 5.51363277
REMARK minimizedRMSD -1
REMARK  0 active torsions:
REMARK  status: ('A' for Active; 'I' for Inactive)
ROOT
ATOM      1  C   UNL d   1       1.095  -5.633  -1.056  0.00  0.00    -0.002 A 
ATOM      2  C1  UNL d   1       0.950  -4.335  -1.526  0.00  0.00     0.010 A 
ATOM      3  C2  UNL d   1       1.693  -3.291  -0.971  0.00  0.00     0.041 A 
ATOM      4  C3  UNL d   1       2.595  -3.576   0.073  0.00  0.00    -0.075 A 
ATOM      5  S   UNL d   1       3.610  -2.458   0.904  0.00  0.00     0.015 SA
ATOM      6  C4  UNL d   1       4.262  -3.677   1.902  0.00  0.00     0.022 A 
ATOM      7  C5  UNL d   1       3.728  -4.912   1.622  0.00  0.00     0.026 A 
ATOM      8  C6  UNL d   1       2.759  -4.875   0.563  0.00  0.00    -0.082 A 
ATOM      9  C7  UNL d   1       1.990  -5.912  -0.020  0.00  0.00     0.045 A 
ENDROOT
TORSDOF 0
ENDMDL
