MODEL 1
REMARK minimizedAffinity 12.3362713
REMARK minimizedRMSD -1
REMARK  0 active torsions:
REMARK  status: ('A' for Active; 'I' for Inactive)
ROOT
ATOM      1  C   UNL d   1      -5.065   2.722  -2.940  0.00  0.00    -0.002 A 
ATOM      2  C1  UNL d   1      -4.388   3.797  -3.499  0.00  0.00     0.010 A 
ATOM      3  C2  UNL d   1      -3.001   3.758  -3.654  0.00  0.00     0.041 A 
ATOM      4  C3  UNL d   1      -2.300   2.610  -3.236  0.00  0.00    -0.075 A 
ATOM      5  S   UNL d   1      -0.599   2.340  -3.329  0.00  0.00     0.015 SA
ATOM      6  C4  UNL d   1      -0.733   0.791  -2.630  0.00  0.00     0.022 A 
ATOM      7  C5  UNL d   1      -2.035   0.472  -2.327  0.00  0.00     0.026 A 
ATOM      8  C6  UNL d   1      -2.960   1.515  -2.672  0.00  0.00    -0.082 A 
ATOM      9  C7  UNL d   1      -4.366   1.585  -2.527  0.00  0.00     0.045 A 
ENDROOT
TORSDOF 0
ENDMDL
