MODEL 1
REMARK minimizedAffinity 6.72764635
REMARK minimizedRMSD -1
REMARK  0 active torsions:
REMARK  status: ('A' for Active; 'I' for Inactive)
ROOT
ATOM      1  C   UNL d   1       4.834   3.057  -4.430  0.00  0.00    -0.002 A 
ATOM      2  C1  UNL d   1       5.979   3.797  -4.171  0.00  0.00     0.010 A 
ATOM      3  C2  UNL d   1       6.000   4.733  -3.135  0.00  0.00     0.041 A 
ATOM      4  C3  UNL d   1       4.841   4.912  -2.355  0.00  0.00    -0.075 A 
ATOM      5  S   UNL d   1       4.635   6.000  -1.033  0.00  0.00     0.015 SA
ATOM      6  C4  UNL d   1       3.024   5.506  -0.780  0.00  0.00     0.022 A 
ATOM      7  C5  UNL d   1       2.635   4.536  -1.674  0.00  0.00     0.026 A 
ATOM      8  C6  UNL d   1       3.676   4.177  -2.595  0.00  0.00    -0.082 A 
ATOM      9  C7  UNL d   1       3.686   3.237  -3.654  0.00  0.00     0.045 A 
ENDROOT
TORSDOF 0
ENDMDL
