MODEL 1
REMARK minimizedAffinity 1.42446387
REMARK minimizedRMSD -1
REMARK  0 active torsions:
REMARK  status: ('A' for Active; 'I' for Inactive)
ROOT
ATOM      1  C   UNL d   1       5.799  -5.620  -5.167  0.00  0.00    -0.002 A 
ATOM      2  C1  UNL d   1       5.853  -5.503  -3.785  0.00  0.00     0.010 A 
ATOM      3  C2  UNL d   1       5.915  -4.246  -3.180  0.00  0.00     0.041 A 
ATOM      4  C3  UNL d   1       5.920  -3.097  -3.995  0.00  0.00    -0.075 A 
ATOM      5  S   UNL d   1       5.990  -1.455  -3.476  0.00  0.00     0.015 SA
ATOM      6  C4  UNL d   1       5.949  -0.869  -5.077  0.00  0.00     0.022 A 
ATOM      7  C5  UNL d   1       5.884  -1.888  -5.997  0.00  0.00     0.026 A 
ATOM      8  C6  UNL d   1       5.865  -3.189  -5.389  0.00  0.00    -0.082 A 
ATOM      9  C7  UNL d   1       5.804  -4.478  -5.972  0.00  0.00     0.045 A 
ENDROOT
TORSDOF 0
ENDMDL
