MODEL 1
REMARK minimizedAffinity 7.7289443
REMARK minimizedRMSD -1
REMARK  0 active torsions:
REMARK  status: ('A' for Active; 'I' for Inactive)
ROOT
ATOM      1  C   UNL d   1      -4.735  -5.999  -1.169  0.00  0.00     0.023 A 
ATOM      2  C1  UNL d   1      -5.960  -5.441  -0.802  0.00  0.00     0.003 A 
ATOM      3  C2  UNL d   1      -5.998  -4.216  -0.134  0.00  0.00     0.048 A 
ATOM      4  C3  UNL d   1      -4.808  -3.553   0.164  0.00  0.00     0.023 A 
ATOM      5  C4  UNL d   1      -3.580  -4.106  -0.203  0.00  0.00     0.048 A 
ATOM      6  C5  UNL d   1      -3.547  -5.332  -0.870  0.00  0.00     0.003 A 
ATOM      7  I   UNL d   1      -4.863  -1.729   1.158  0.00  0.00    -0.146 I 
ENDROOT
TORSDOF 0
ENDMDL
