MODEL 1
REMARK minimizedAffinity 13.6442575
REMARK minimizedRMSD -1
REMARK  0 active torsions:
REMARK  status: ('A' for Active; 'I' for Inactive)
ROOT
ATOM      1  C   UNL d   1      -2.192   1.390   1.605  0.00  0.00     0.023 A 
ATOM      2  C1  UNL d   1      -3.200   1.539   0.652  0.00  0.00     0.003 A 
ATOM      3  C2  UNL d   1      -4.066   0.478   0.378  0.00  0.00     0.048 A 
ATOM      4  C3  UNL d   1      -3.920  -0.728   1.063  0.00  0.00     0.023 A 
ATOM      5  C4  UNL d   1      -2.914  -0.881   2.018  0.00  0.00     0.048 A 
ATOM      6  C5  UNL d   1      -2.050   0.182   2.287  0.00  0.00     0.003 A 
ATOM      7  I   UNL d   1      -5.208  -2.308   0.658  0.00  0.00    -0.146 I 
ENDROOT
TORSDOF 0
ENDMDL
