MODEL 1
REMARK minimizedAffinity 9.47761345
REMARK minimizedRMSD -1
REMARK  0 active torsions:
REMARK  status: ('A' for Active; 'I' for Inactive)
ROOT
ATOM      1  C   UNL d   1      -3.152  -0.070   1.213  0.00  0.00     0.023 A 
ATOM      2  C1  UNL d   1      -1.954  -0.655   1.622  0.00  0.00     0.003 A 
ATOM      3  C2  UNL d   1      -0.895   0.146   2.054  0.00  0.00     0.048 A 
ATOM      4  C3  UNL d   1      -1.041   1.532   2.076  0.00  0.00     0.023 A 
ATOM      5  C4  UNL d   1      -2.239   2.123   1.668  0.00  0.00     0.048 A 
ATOM      6  C5  UNL d   1      -3.294   1.318   1.236  0.00  0.00     0.003 A 
ATOM      7  I   UNL d   1       0.533   2.727   2.719  0.00  0.00    -0.146 I 
ENDROOT
TORSDOF 0
ENDMDL
