MODEL 1
REMARK minimizedAffinity -3.97839689
REMARK minimizedRMSD -1
REMARK  0 active torsions:
REMARK  status: ('A' for Active; 'I' for Inactive)
ROOT
ATOM      1  C   UNL d   1      -1.111  -0.886  -2.495  0.00  0.00     0.023 A 
ATOM      2  C1  UNL d   1      -0.445  -1.610  -3.484  0.00  0.00     0.003 A 
ATOM      3  C2  UNL d   1      -0.695  -2.975  -3.640  0.00  0.00     0.048 A 
ATOM      4  C3  UNL d   1      -1.613  -3.609  -2.804  0.00  0.00     0.023 A 
ATOM      5  C4  UNL d   1      -2.282  -2.889  -1.813  0.00  0.00     0.048 A 
ATOM      6  C5  UNL d   1      -2.029  -1.525  -1.660  0.00  0.00     0.003 A 
ATOM      7  I   UNL d   1      -1.987  -5.641  -3.034  0.00  0.00    -0.146 I 
ENDROOT
TORSDOF 0
ENDMDL
