MODEL 1
REMARK minimizedAffinity -3.82325935
REMARK minimizedRMSD -1
REMARK  0 active torsions:
REMARK  status: ('A' for Active; 'I' for Inactive)
ROOT
ATOM      1  C   UNL d   1      -1.329  -1.525  -4.378  0.00  0.00     0.023 A 
ATOM      2  C1  UNL d   1      -2.238  -0.966  -3.479  0.00  0.00     0.003 A 
ATOM      3  C2  UNL d   1      -1.792  -0.468  -2.253  0.00  0.00     0.048 A 
ATOM      4  C3  UNL d   1      -0.437  -0.532  -1.932  0.00  0.00     0.023 A 
ATOM      5  C4  UNL d   1       0.476  -1.090  -2.829  0.00  0.00     0.048 A 
ATOM      6  C5  UNL d   1       0.026  -1.588  -4.053  0.00  0.00     0.003 A 
ATOM      7  I   UNL d   1       0.229   0.208  -0.108  0.00  0.00    -0.146 I 
ENDROOT
TORSDOF 0
ENDMDL
