MODEL 1
REMARK minimizedAffinity -2.08437729
REMARK minimizedRMSD -1
REMARK  0 active torsions:
REMARK  status: ('A' for Active; 'I' for Inactive)
ROOT
ATOM      1  C   UNL d   1      -3.347  -6.000  -1.260  0.00  0.00     0.023 A 
ATOM      2  C1  UNL d   1      -2.456  -6.000  -2.333  0.00  0.00     0.003 A 
ATOM      3  C2  UNL d   1      -1.708  -4.857  -2.621  0.00  0.00     0.048 A 
ATOM      4  C3  UNL d   1      -1.856  -3.716  -1.832  0.00  0.00     0.023 A 
ATOM      5  C4  UNL d   1      -2.746  -3.712  -0.757  0.00  0.00     0.048 A 
ATOM      6  C5  UNL d   1      -3.492  -4.857  -0.473  0.00  0.00     0.003 A 
ATOM      7  I   UNL d   1      -0.744  -2.013  -2.259  0.00  0.00    -0.146 I 
ENDROOT
TORSDOF 0
ENDMDL
