MODEL 1
REMARK minimizedAffinity -3.69775081
REMARK minimizedRMSD -1
REMARK  0 active torsions:
REMARK  status: ('A' for Active; 'I' for Inactive)
ROOT
ATOM      1  C   UNL d   1      -2.654  -0.375   1.271  0.00  0.00     0.023 A 
ATOM      2  C1  UNL d   1      -2.139  -0.227  -0.017  0.00  0.00     0.003 A 
ATOM      3  C2  UNL d   1      -0.772  -0.006  -0.202  0.00  0.00     0.048 A 
ATOM      4  C3  UNL d   1       0.073   0.065   0.905  0.00  0.00     0.023 A 
ATOM      5  C4  UNL d   1      -0.438  -0.083   2.195  0.00  0.00     0.048 A 
ATOM      6  C5  UNL d   1      -1.805  -0.303   2.376  0.00  0.00     0.003 A 
ATOM      7  I   UNL d   1       2.107   0.393   0.631  0.00  0.00    -0.146 I 
ENDROOT
TORSDOF 0
ENDMDL
