MODEL 1
REMARK minimizedAffinity -4.17939329
REMARK minimizedRMSD -1
REMARK  0 active torsions:
REMARK  status: ('A' for Active; 'I' for Inactive)
ROOT
ATOM      1  C   UNL d   1       0.769   0.419   2.494  0.00  0.00     0.023 A 
ATOM      2  C1  UNL d   1      -0.554  -0.026   2.476  0.00  0.00     0.003 A 
ATOM      3  C2  UNL d   1      -1.189  -0.279   1.259  0.00  0.00     0.048 A 
ATOM      4  C3  UNL d   1      -0.497  -0.088   0.064  0.00  0.00     0.023 A 
ATOM      5  C4  UNL d   1       0.827   0.356   0.077  0.00  0.00     0.048 A 
ATOM      6  C5  UNL d   1       1.458   0.609   1.296  0.00  0.00     0.003 A 
ATOM      7  I   UNL d   1      -1.440  -0.465  -1.749  0.00  0.00    -0.146 I 
ENDROOT
TORSDOF 0
ENDMDL
