MODEL 1
REMARK minimizedAffinity 3.24012828
REMARK minimizedRMSD -1
REMARK  0 active torsions:
REMARK  status: ('A' for Active; 'I' for Inactive)
ROOT
ATOM      1  C   UNL d   1       0.521   0.880   1.263  0.00  0.00     0.023 A 
ATOM      2  C1  UNL d   1      -0.386   0.841   0.204  0.00  0.00     0.003 A 
ATOM      3  C2  UNL d   1       0.002   0.313  -1.029  0.00  0.00     0.048 A 
ATOM      4  C3  UNL d   1       1.298  -0.174  -1.196  0.00  0.00     0.023 A 
ATOM      5  C4  UNL d   1       2.209  -0.137  -0.139  0.00  0.00     0.048 A 
ATOM      6  C5  UNL d   1       1.817   0.392   1.092  0.00  0.00     0.003 A 
ATOM      7  I   UNL d   1       1.878  -0.960  -3.031  0.00  0.00    -0.146 I 
ENDROOT
TORSDOF 0
ENDMDL
