MODEL 1
REMARK minimizedAffinity -5.05032635
REMARK minimizedRMSD -1
REMARK  0 active torsions:
REMARK  status: ('A' for Active; 'I' for Inactive)
ROOT
ATOM      1  C   UNL d   1      -3.108  -0.209  -1.265  0.00  0.00     0.023 A 
ATOM      2  C1  UNL d   1      -1.820   0.320  -1.344  0.00  0.00     0.003 A 
ATOM      3  C2  UNL d   1      -1.000   0.335  -0.214  0.00  0.00     0.048 A 
ATOM      4  C3  UNL d   1      -1.473  -0.182   0.991  0.00  0.00     0.023 A 
ATOM      5  C4  UNL d   1      -2.761  -0.714   1.074  0.00  0.00     0.048 A 
ATOM      6  C5  UNL d   1      -3.578  -0.726  -0.058  0.00  0.00     0.003 A 
ATOM      7  I   UNL d   1      -0.254  -0.162   2.674  0.00  0.00    -0.146 I 
ENDROOT
TORSDOF 0
ENDMDL
