MODEL 1
REMARK minimizedAffinity -4.4319663
REMARK minimizedRMSD -1
REMARK  0 active torsions:
REMARK  status: ('A' for Active; 'I' for Inactive)
ROOT
ATOM      1  C   UNL d   1       0.449   0.837   2.350  0.00  0.00     0.023 A 
ATOM      2  C1  UNL d   1      -0.818   0.321   2.622  0.00  0.00     0.003 A 
ATOM      3  C2  UNL d   1      -1.633  -0.120   1.577  0.00  0.00     0.048 A 
ATOM      4  C3  UNL d   1      -1.175  -0.042   0.263  0.00  0.00     0.023 A 
ATOM      5  C4  UNL d   1       0.093   0.472  -0.014  0.00  0.00     0.048 A 
ATOM      6  C5  UNL d   1       0.904   0.912   1.034  0.00  0.00     0.003 A 
ATOM      7  I   UNL d   1      -2.386  -0.698  -1.294  0.00  0.00    -0.146 I 
ENDROOT
TORSDOF 0
ENDMDL
