MODEL 1
REMARK minimizedAffinity -4.70421362
REMARK minimizedRMSD -1
REMARK  0 active torsions:
REMARK  status: ('A' for Active; 'I' for Inactive)
ROOT
ATOM      1  C   UNL d   1      -0.602   0.777  -1.787  0.00  0.00     0.023 A 
ATOM      2  C1  UNL d   1       0.568   0.728  -1.029  0.00  0.00     0.003 A 
ATOM      3  C2  UNL d   1       0.509   0.409   0.329  0.00  0.00     0.048 A 
ATOM      4  C3  UNL d   1      -0.723   0.139   0.923  0.00  0.00     0.023 A 
ATOM      5  C4  UNL d   1      -1.897   0.186   0.169  0.00  0.00     0.048 A 
ATOM      6  C5  UNL d   1      -1.833   0.506  -1.189  0.00  0.00     0.003 A 
ATOM      7  I   UNL d   1      -0.813  -0.336   2.944  0.00  0.00    -0.146 I 
ENDROOT
TORSDOF 0
ENDMDL
