MODEL 1
REMARK minimizedAffinity -2.30101275
REMARK minimizedRMSD -1
REMARK  0 active torsions:
REMARK  status: ('A' for Active; 'I' for Inactive)
ROOT
ATOM      1  C   UNL d   1      -2.331  -0.533  -1.105  0.00  0.00     0.023 A 
ATOM      2  C1  UNL d   1      -2.240  -1.527  -2.079  0.00  0.00     0.003 A 
ATOM      3  C2  UNL d   1      -1.022  -1.771  -2.718  0.00  0.00     0.048 A 
ATOM      4  C3  UNL d   1       0.101  -1.018  -2.377  0.00  0.00     0.023 A 
ATOM      5  C4  UNL d   1       0.014  -0.023  -1.401  0.00  0.00     0.048 A 
ATOM      6  C5  UNL d   1      -1.205   0.218  -0.766  0.00  0.00     0.003 A 
ATOM      7  I   UNL d   1       1.914  -1.379  -3.325  0.00  0.00    -0.146 I 
ENDROOT
TORSDOF 0
ENDMDL
