MODEL 1
REMARK minimizedAffinity 14.1737623
REMARK minimizedRMSD -1
REMARK  0 active torsions:
REMARK  status: ('A' for Active; 'I' for Inactive)
ROOT
ATOM      1  C4' PXY d   1      -4.545   4.697  -2.534  0.00  0.00     0.077 C 
ATOM      2  C1' PXY d   1      -2.429  -0.620  -3.354  0.00  0.00     0.077 C 
ATOM      3  C1  PXY d   1      -2.975   0.779  -3.147  0.00  0.00    -0.082 A 
ATOM      4  C2  PXY d   1      -3.623   1.070  -2.031  0.00  0.00     0.003 A 
ATOM      5  C3  PXY d   1      -4.151   2.321  -1.841  0.00  0.00     0.003 A 
ATOM      6  C4  PXY d   1      -3.968   3.300  -2.781  0.00  0.00    -0.082 A 
ATOM      7  C5  PXY d   1      -3.299   3.014  -3.918  0.00  0.00     0.003 A 
ATOM      8  C6  PXY d   1      -2.807   1.727  -4.109  0.00  0.00     0.003 A 
ENDROOT
TORSDOF 0
ENDMDL
