MODEL 1
REMARK minimizedAffinity 20.8577328
REMARK minimizedRMSD -1
REMARK  0 active torsions:
REMARK  status: ('A' for Active; 'I' for Inactive)
ROOT
ATOM      1  C4' PXY d   1      -3.774   3.889  -3.459  0.00  0.00     0.077 C 
ATOM      2  C1' PXY d   1      -2.092  -1.583  -2.656  0.00  0.00     0.077 C 
ATOM      3  C1  PXY d   1      -2.541  -0.149  -2.857  0.00  0.00    -0.082 A 
ATOM      4  C2  PXY d   1      -2.416   0.415  -4.047  0.00  0.00     0.003 A 
ATOM      5  C3  PXY d   1      -2.788   1.721  -4.238  0.00  0.00     0.003 A 
ATOM      6  C4  PXY d   1      -3.342   2.440  -3.213  0.00  0.00    -0.082 A 
ATOM      7  C5  PXY d   1      -3.483   1.868  -1.999  0.00  0.00     0.003 A 
ATOM      8  C6  PXY d   1      -3.062   0.554  -1.815  0.00  0.00     0.003 A 
ENDROOT
TORSDOF 0
ENDMDL
