MODEL 1
REMARK minimizedAffinity -2.20706105
REMARK minimizedRMSD -1
REMARK  0 active torsions:
REMARK  status: ('A' for Active; 'I' for Inactive)
ROOT
ATOM      1  C4' PXY d   1       2.358   0.409   1.842  0.00  0.00     0.077 C 
ATOM      2  C1' PXY d   1      -1.779   0.478  -2.194  0.00  0.00     0.077 C 
ATOM      3  C1  PXY d   1      -0.691   0.472  -1.139  0.00  0.00    -0.082 A 
ATOM      4  C2  PXY d   1      -0.141  -0.674  -0.773  0.00  0.00     0.003 A 
ATOM      5  C3  PXY d   1       0.822  -0.701   0.203  0.00  0.00     0.003 A 
ATOM      6  C4  PXY d   1       1.263   0.463   0.773  0.00  0.00    -0.082 A 
ATOM      7  C5  PXY d   1       0.714   1.638   0.398  0.00  0.00     0.003 A 
ATOM      8  C6  PXY d   1      -0.291   1.639  -0.565  0.00  0.00     0.003 A 
ENDROOT
TORSDOF 0
ENDMDL
