MODEL 1
REMARK minimizedAffinity 9.52816296
REMARK minimizedRMSD -1
REMARK  0 active torsions:
REMARK  status: ('A' for Active; 'I' for Inactive)
ROOT
ATOM      1  C4' PXY d   1      -1.967   0.404  -3.326  0.00  0.00     0.077 C 
ATOM      2  C1' PXY d   1      -4.458   5.384  -1.772  0.00  0.00     0.077 C 
ATOM      3  C1  PXY d   1      -3.809   4.079  -2.192  0.00  0.00    -0.082 A 
ATOM      4  C2  PXY d   1      -3.523   3.168  -1.277  0.00  0.00     0.003 A 
ATOM      5  C3  PXY d   1      -2.907   1.996  -1.634  0.00  0.00     0.003 A 
ATOM      6  C4  PXY d   1      -2.630   1.732  -2.949  0.00  0.00    -0.082 A 
ATOM      7  C5  PXY d   1      -2.930   2.653  -3.890  0.00  0.00     0.003 A 
ATOM      8  C6  PXY d   1      -3.517   3.853  -3.501  0.00  0.00     0.003 A 
ENDROOT
TORSDOF 0
ENDMDL
