MODEL 1
REMARK minimizedAffinity 8.89558887
REMARK minimizedRMSD -1
REMARK  0 active torsions:
REMARK  status: ('A' for Active; 'I' for Inactive)
ROOT
ATOM      1  C4' PXY d   1      -1.944   1.431  -3.495  0.00  0.00     0.077 C 
ATOM      2  C1' PXY d   1      -4.065  -3.919  -2.960  0.00  0.00     0.077 C 
ATOM      3  C1  PXY d   1      -3.500  -2.519  -3.091  0.00  0.00    -0.082 A 
ATOM      4  C2  PXY d   1      -4.258  -1.551  -3.580  0.00  0.00     0.003 A 
ATOM      5  C3  PXY d   1      -3.753  -0.286  -3.736  0.00  0.00     0.003 A 
ATOM      6  C4  PXY d   1      -2.476   0.004  -3.336  0.00  0.00    -0.082 A 
ATOM      7  C5  PXY d   1      -1.700  -0.975  -2.826  0.00  0.00     0.003 A 
ATOM      8  C6  PXY d   1      -2.218  -2.262  -2.715  0.00  0.00     0.003 A 
ENDROOT
TORSDOF 0
ENDMDL
