MODEL 1
REMARK minimizedAffinity 11.2265091
REMARK minimizedRMSD -1
REMARK  0 active torsions:
REMARK  status: ('A' for Active; 'I' for Inactive)
ROOT
ATOM      1  C4' PXY d   1      -1.456  -1.431   1.207  0.00  0.00     0.077 C 
ATOM      2  C1' PXY d   1      -2.497   1.701  -3.538  0.00  0.00     0.077 C 
ATOM      3  C1  PXY d   1      -2.220   0.890  -2.287  0.00  0.00    -0.082 A 
ATOM      4  C2  PXY d   1      -2.006  -0.412  -2.386  0.00  0.00     0.003 A 
ATOM      5  C3  PXY d   1      -1.785  -1.165  -1.262  0.00  0.00     0.003 A 
ATOM      6  C4  PXY d   1      -1.731  -0.571  -0.029  0.00  0.00    -0.082 A 
ATOM      7  C5  PXY d   1      -1.938   0.758   0.078  0.00  0.00     0.003 A 
ATOM      8  C6  PXY d   1      -2.201   1.499  -1.070  0.00  0.00     0.003 A 
ENDROOT
TORSDOF 0
ENDMDL
