MODEL 1
REMARK minimizedAffinity 4.65484905
REMARK minimizedRMSD -1
REMARK  0 active torsions:
REMARK  status: ('A' for Active; 'I' for Inactive)
ROOT
ATOM      1  C4' PXY d   1      -4.011   4.363  -2.951  0.00  0.00     0.077 C 
ATOM      2  C1' PXY d   1      -2.210  -1.101  -3.512  0.00  0.00     0.077 C 
ATOM      3  C1  PXY d   1      -2.677   0.335  -3.376  0.00  0.00    -0.082 A 
ATOM      4  C2  PXY d   1      -2.934   0.829  -2.176  0.00  0.00     0.003 A 
ATOM      5  C3  PXY d   1      -3.387   2.115  -2.037  0.00  0.00     0.003 A 
ATOM      6  C4  PXY d   1      -3.528   2.922  -3.135  0.00  0.00    -0.082 A 
ATOM      7  C5  PXY d   1      -3.258   2.429  -4.362  0.00  0.00     0.003 A 
ATOM      8  C6  PXY d   1      -2.838   1.108  -4.484  0.00  0.00     0.003 A 
ENDROOT
TORSDOF 0
ENDMDL
