MODEL 1
REMARK minimizedAffinity 4.30150318
REMARK minimizedRMSD -1
REMARK  0 active torsions:
REMARK  status: ('A' for Active; 'I' for Inactive)
ROOT
ATOM      1  C4' PXY d   1      -1.759  -1.914   0.845  0.00  0.00     0.077 C 
ATOM      2  C1' PXY d   1      -3.097   0.675  -4.147  0.00  0.00     0.077 C 
ATOM      3  C1  PXY d   1      -2.750  -0.015  -2.843  0.00  0.00    -0.082 A 
ATOM      4  C2  PXY d   1      -2.770   0.673  -1.713  0.00  0.00     0.003 A 
ATOM      5  C3  PXY d   1      -2.427   0.072  -0.529  0.00  0.00     0.003 A 
ATOM      6  C4  PXY d   1      -2.112  -1.260  -0.494  0.00  0.00    -0.082 A 
ATOM      7  C5  PXY d   1      -2.099  -1.971  -1.641  0.00  0.00     0.003 A 
ATOM      8  C6  PXY d   1      -2.410  -1.333  -2.838  0.00  0.00     0.003 A 
ENDROOT
TORSDOF 0
ENDMDL
