MODEL 1
REMARK minimizedAffinity 16.0886402
REMARK minimizedRMSD -1
REMARK  0 active torsions:
REMARK  status: ('A' for Active; 'I' for Inactive)
ROOT
ATOM      1  C4' PXY d   1       3.326   6.000  -0.414  0.00  0.00     0.077 C 
ATOM      2  C1' PXY d   1      -1.448   3.203   1.259  0.00  0.00     0.077 C 
ATOM      3  C1  PXY d   1      -0.203   3.947   0.817  0.00  0.00    -0.082 A 
ATOM      4  C2  PXY d   1       0.872   3.266   0.456  0.00  0.00     0.003 A 
ATOM      5  C3  PXY d   1       2.017   3.923   0.084  0.00  0.00     0.003 A 
ATOM      6  C4  PXY d   1       2.044   5.291   0.031  0.00  0.00    -0.082 A 
ATOM      7  C5  PXY d   1       0.947   5.993   0.387  0.00  0.00     0.003 A 
ATOM      8  C6  PXY d   1      -0.191   5.307   0.801  0.00  0.00     0.003 A 
ENDROOT
TORSDOF 0
ENDMDL
