MODEL 1
REMARK minimizedAffinity 13.2510939
REMARK minimizedRMSD -1
REMARK  0 active torsions:
REMARK  status: ('A' for Active; 'I' for Inactive)
ROOT
ATOM      1  C4' PXY d   1       1.895  -4.163   5.762  0.00  0.00     0.077 C 
ATOM      2  C1' PXY d   1       2.012   1.252   3.743  0.00  0.00     0.077 C 
ATOM      3  C1  PXY d   1       1.972  -0.172   4.263  0.00  0.00    -0.082 A 
ATOM      4  C2  PXY d   1       2.297  -0.417   5.522  0.00  0.00     0.003 A 
ATOM      5  C3  PXY d   1       2.298  -1.702   6.000  0.00  0.00     0.003 A 
ATOM      6  C4  PXY d   1       1.911  -2.741   5.196  0.00  0.00    -0.082 A 
ATOM      7  C5  PXY d   1       1.568  -2.497   3.913  0.00  0.00     0.003 A 
ATOM      8  C6  PXY d   1       1.613  -1.191   3.436  0.00  0.00     0.003 A 
ENDROOT
TORSDOF 0
ENDMDL
