MODEL 1
REMARK minimizedAffinity 3.60481334
REMARK minimizedRMSD -1
REMARK  0 active torsions:
REMARK  status: ('A' for Active; 'I' for Inactive)
ROOT
ATOM      1  C4' PXY d   1      -3.558   3.990  -2.451  0.00  0.00     0.077 C 
ATOM      2  C1' PXY d   1      -1.536  -1.338  -3.422  0.00  0.00     0.077 C 
ATOM      3  C1  PXY d   1      -2.068   0.056  -3.154  0.00  0.00    -0.082 A 
ATOM      4  C2  PXY d   1      -2.576   0.764  -4.150  0.00  0.00     0.003 A 
ATOM      5  C3  PXY d   1      -3.032   2.039  -3.932  0.00  0.00     0.003 A 
ATOM      6  C4  PXY d   1      -3.018   2.574  -2.672  0.00  0.00    -0.082 A 
ATOM      7  C5  PXY d   1      -2.511   1.854  -1.649  0.00  0.00     0.003 A 
ATOM      8  C6  PXY d   1      -2.015   0.578  -1.899  0.00  0.00     0.003 A 
ENDROOT
TORSDOF 0
ENDMDL
