MODEL 1
REMARK minimizedAffinity 2.51797128
REMARK minimizedRMSD -1
REMARK  0 active torsions:
REMARK  status: ('A' for Active; 'I' for Inactive)
ROOT
ATOM      1  C4' PXY d   1       2.700   1.637   5.547  0.00  0.00     0.077 C 
ATOM      2  C1' PXY d   1       1.513  -2.504   1.693  0.00  0.00     0.077 C 
ATOM      3  C1  PXY d   1       1.819  -1.426   2.713  0.00  0.00    -0.082 A 
ATOM      4  C2  PXY d   1       1.916  -0.165   2.324  0.00  0.00     0.003 A 
ATOM      5  C3  PXY d   1       2.224   0.819   3.228  0.00  0.00     0.003 A 
ATOM      6  C4  PXY d   1       2.383   0.516   4.553  0.00  0.00    -0.082 A 
ATOM      7  C5  PXY d   1       2.275  -0.766   4.961  0.00  0.00     0.003 A 
ATOM      8  C6  PXY d   1       2.002  -1.756   4.021  0.00  0.00     0.003 A 
ENDROOT
TORSDOF 0
ENDMDL
