MODEL 1
REMARK minimizedAffinity 3.30706596
REMARK minimizedRMSD -1
REMARK  0 active torsions:
REMARK  status: ('A' for Active; 'I' for Inactive)
ROOT
ATOM      1  C4' PXY d   1      -4.147  -2.705  -5.081  0.00  0.00     0.077 C 
ATOM      2  C1' PXY d   1      -0.187   0.389  -2.225  0.00  0.00     0.077 C 
ATOM      3  C1  PXY d   1      -1.233  -0.422  -2.963  0.00  0.00    -0.082 A 
ATOM      4  C2  PXY d   1      -0.870  -1.190  -3.978  0.00  0.00     0.003 A 
ATOM      5  C3  PXY d   1      -1.808  -1.905  -4.677  0.00  0.00     0.003 A 
ATOM      6  C4  PXY d   1      -3.124  -1.876  -4.300  0.00  0.00    -0.082 A 
ATOM      7  C5  PXY d   1      -3.501  -1.104  -3.260  0.00  0.00     0.003 A 
ATOM      8  C6  PXY d   1      -2.540  -0.353  -2.589  0.00  0.00     0.003 A 
ENDROOT
TORSDOF 0
ENDMDL
