MODEL 1
REMARK minimizedAffinity 13.9856071
REMARK minimizedRMSD -1
REMARK  1 active torsions:
REMARK  status: ('A' for Active; 'I' for Inactive)
REMARK    1  A    between atoms: N_2  and  C1_3 
ROOT
ATOM      1  C1  UNL d   1      -2.908   4.575  -2.604  0.00  0.00     0.143 A 
ATOM      2  C2  UNL d   1      -2.727   3.469  -3.441  0.00  0.00    -0.057 A 
ATOM      3  C3  UNL d   1      -2.248   3.618  -4.748  0.00  0.00     0.033 A 
ATOM      4  C4  UNL d   1      -1.969   4.884  -5.253  0.00  0.00    -0.042 A 
ATOM      5  C5  UNL d   1      -2.166   6.000  -4.447  0.00  0.00     0.033 A 
ATOM      6  C6  UNL d   1      -2.638   5.844  -3.140  0.00  0.00    -0.057 A 
ENDROOT
BRANCH   1   7
ATOM      7  N   UNL d   1      -3.474   4.502  -1.329  0.00  0.00    -0.732 N 
ATOM      8  C   UNL d   1      -4.862   4.129  -1.158  0.00  0.00     0.284 C 
ATOM      9  H3  UNL d   1      -2.845   4.082  -0.648  0.00  0.00     0.395 HD
ENDBRANCH   1   7
TORSDOF 1
ENDMDL
