MODEL 1
REMARK minimizedAffinity 12.5270405
REMARK minimizedRMSD -1
REMARK  1 active torsions:
REMARK  status: ('A' for Active; 'I' for Inactive)
REMARK    1  A    between atoms: N_2  and  C1_3 
ROOT
ATOM      1  C1  UNL d   1      -3.068   4.096  -2.146  0.00  0.00     0.143 A 
ATOM      2  C2  UNL d   1      -2.976   3.310  -3.299  0.00  0.00    -0.057 A 
ATOM      3  C3  UNL d   1      -2.519   3.847  -4.509  0.00  0.00     0.033 A 
ATOM      4  C4  UNL d   1      -2.172   5.191  -4.594  0.00  0.00    -0.042 A 
ATOM      5  C5  UNL d   1      -2.279   5.997  -3.466  0.00  0.00     0.033 A 
ATOM      6  C6  UNL d   1      -2.729   5.454  -2.259  0.00  0.00    -0.057 A 
ENDROOT
BRANCH   1   7
ATOM      7  N   UNL d   1      -3.607   3.646  -0.938  0.00  0.00    -0.732 N 
ATOM      8  C   UNL d   1      -4.970   3.969  -0.574  0.00  0.00     0.284 C 
ATOM      9  H3  UNL d   1      -3.335   2.689  -0.724  0.00  0.00     0.395 HD
ENDBRANCH   1   7
TORSDOF 1
ENDMDL
