MODEL 1
REMARK minimizedAffinity 12.9424076
REMARK minimizedRMSD -1
REMARK  1 active torsions:
REMARK  status: ('A' for Active; 'I' for Inactive)
REMARK    1  A    between atoms: N_2  and  C1_3 
ROOT
ATOM      1  C1  UNL d   1       3.510  -5.817   3.549  0.00  0.00     0.143 A 
ATOM      2  C2  UNL d   1       4.905  -5.896   3.476  0.00  0.00    -0.057 A 
ATOM      3  C3  UNL d   1       5.688  -6.000   4.632  0.00  0.00     0.033 A 
ATOM      4  C4  UNL d   1       5.090  -5.997   5.887  0.00  0.00    -0.042 A 
ATOM      5  C5  UNL d   1       3.707  -5.894   5.985  0.00  0.00     0.033 A 
ATOM      6  C6  UNL d   1       2.930  -5.798   4.827  0.00  0.00    -0.057 A 
ENDROOT
BRANCH   1   7
ATOM      7  N   UNL d   1       2.683  -5.613   2.442  0.00  0.00    -0.732 N 
ATOM      8  C   UNL d   1       1.985  -4.358   2.265  0.00  0.00     0.284 C 
ATOM      9  H3  UNL d   1       3.080  -5.993   1.586  0.00  0.00     0.395 HD
ENDBRANCH   1   7
TORSDOF 1
ENDMDL
