MODEL 1
REMARK minimizedAffinity 18.6345882
REMARK minimizedRMSD -1
REMARK  1 active torsions:
REMARK  status: ('A' for Active; 'I' for Inactive)
REMARK    1  A    between atoms: N_2  and  C1_3 
ROOT
ATOM      1  C1  UNL d   1      -1.998   3.537  -3.602  0.00  0.00     0.143 A 
ATOM      2  C2  UNL d   1      -1.883   4.749  -2.913  0.00  0.00    -0.057 A 
ATOM      3  C3  UNL d   1      -1.833   5.970  -3.596  0.00  0.00     0.033 A 
ATOM      4  C4  UNL d   1      -1.866   5.998  -4.986  0.00  0.00    -0.042 A 
ATOM      5  C5  UNL d   1      -1.955   4.804  -5.692  0.00  0.00     0.033 A 
ATOM      6  C6  UNL d   1      -2.012   3.588  -5.004  0.00  0.00    -0.057 A 
ENDROOT
BRANCH   1   7
ATOM      7  N   UNL d   1      -1.954   2.284  -2.984  0.00  0.00    -0.732 N 
ATOM      8  C   UNL d   1      -0.757   1.840  -2.302  0.00  0.00     0.284 C 
ATOM      9  H3  UNL d   1      -2.818   2.061  -2.495  0.00  0.00     0.395 HD
ENDBRANCH   1   7
TORSDOF 1
ENDMDL
