MODEL 1
REMARK minimizedAffinity 7.68118143
REMARK minimizedRMSD -1
REMARK  1 active torsions:
REMARK  status: ('A' for Active; 'I' for Inactive)
REMARK    1  A    between atoms: N_2  and  C1_3 
ROOT
ATOM      1  C1  UNL d   1       1.048  -0.558   3.332  0.00  0.00     0.143 A 
ATOM      2  C2  UNL d   1       1.090  -1.292   2.141  0.00  0.00    -0.057 A 
ATOM      3  C3  UNL d   1       2.277  -1.425   1.412  0.00  0.00     0.033 A 
ATOM      4  C4  UNL d   1       3.441  -0.800   1.846  0.00  0.00    -0.042 A 
ATOM      5  C5  UNL d   1       3.417  -0.044   3.013  0.00  0.00     0.033 A 
ATOM      6  C6  UNL d   1       2.230   0.079   3.741  0.00  0.00    -0.057 A 
ENDROOT
BRANCH   1   7
ATOM      7  N   UNL d   1      -0.123  -0.307   4.050  0.00  0.00    -0.732 N 
ATOM      8  C   UNL d   1      -1.415  -0.371   3.400  0.00  0.00     0.284 C 
ATOM      9  H3  UNL d   1      -0.105  -0.720   4.979  0.00  0.00     0.395 HD
ENDBRANCH   1   7
TORSDOF 1
ENDMDL
