MODEL 1
REMARK minimizedAffinity 7.79225492
REMARK minimizedRMSD -1
REMARK  1 active torsions:
REMARK  status: ('A' for Active; 'I' for Inactive)
REMARK    1  A    between atoms: N_2  and  C1_3 
ROOT
ATOM      1  C1  UNL d   1       2.263  -0.123   2.960  0.00  0.00     0.143 A 
ATOM      2  C2  UNL d   1       1.022  -0.654   2.591  0.00  0.00    -0.057 A 
ATOM      3  C3  UNL d   1      -0.003  -0.826   3.530  0.00  0.00     0.033 A 
ATOM      4  C4  UNL d   1       0.206  -0.496   4.865  0.00  0.00    -0.042 A 
ATOM      5  C5  UNL d   1       1.440   0.010   5.259  0.00  0.00     0.033 A 
ATOM      6  C6  UNL d   1       2.457   0.186   4.315  0.00  0.00    -0.057 A 
ENDROOT
BRANCH   1   7
ATOM      7  N   UNL d   1       3.353  -0.020   2.093  0.00  0.00    -0.732 N 
ATOM      8  C   UNL d   1       4.649   0.396   2.585  0.00  0.00     0.284 C 
ATOM      9  H3  UNL d   1       3.390  -0.784   1.422  0.00  0.00     0.395 HD
ENDBRANCH   1   7
TORSDOF 1
ENDMDL
