MODEL 1
REMARK minimizedAffinity 20.3258514
REMARK minimizedRMSD -1
REMARK  1 active torsions:
REMARK  status: ('A' for Active; 'I' for Inactive)
REMARK    1  A    between atoms: N_2  and  C1_3 
ROOT
ATOM      1  C1  UNL d   1       2.753   0.651   2.720  0.00  0.00     0.143 A 
ATOM      2  C2  UNL d   1       2.083   0.683   3.947  0.00  0.00    -0.057 A 
ATOM      3  C3  UNL d   1       0.795   0.149   4.085  0.00  0.00     0.033 A 
ATOM      4  C4  UNL d   1       0.142  -0.401   2.987  0.00  0.00    -0.042 A 
ATOM      5  C5  UNL d   1       0.780  -0.420   1.752  0.00  0.00     0.033 A 
ATOM      6  C6  UNL d   1       2.068   0.108   1.622  0.00  0.00    -0.057 A 
ENDROOT
BRANCH   1   7
ATOM      7  N   UNL d   1       3.993   1.253   2.495  0.00  0.00    -0.732 N 
ATOM      8  C   UNL d   1       4.309   1.835   1.208  0.00  0.00     0.284 C 
ATOM      9  H3  UNL d   1       4.306   1.807   3.290  0.00  0.00     0.395 HD
ENDBRANCH   1   7
TORSDOF 1
ENDMDL
