MODEL 1
REMARK minimizedAffinity 15.3335838
REMARK minimizedRMSD -1
REMARK  1 active torsions:
REMARK  status: ('A' for Active; 'I' for Inactive)
REMARK    1  A    between atoms: N_2  and  C1_3 
ROOT
ATOM      1  C1  UNL d   1      -3.559  -4.128   0.456  0.00  0.00     0.143 A 
ATOM      2  C2  UNL d   1      -4.690  -3.442   0.911  0.00  0.00    -0.057 A 
ATOM      3  C3  UNL d   1      -4.616  -2.555   1.992  0.00  0.00     0.033 A 
ATOM      4  C4  UNL d   1      -3.410  -2.360   2.658  0.00  0.00    -0.042 A 
ATOM      5  C5  UNL d   1      -2.278  -3.051   2.239  0.00  0.00     0.033 A 
ATOM      6  C6  UNL d   1      -2.358  -3.930   1.155  0.00  0.00    -0.057 A 
ENDROOT
BRANCH   1   7
ATOM      7  N   UNL d   1      -3.589  -5.097  -0.550  0.00  0.00    -0.732 N 
ATOM      8  C   UNL d   1      -4.760  -5.924  -0.742  0.00  0.00     0.284 C 
ATOM      9  H3  UNL d   1      -3.164  -4.771  -1.415  0.00  0.00     0.395 HD
ENDBRANCH   1   7
TORSDOF 1
ENDMDL
