MODEL 1
REMARK minimizedAffinity 5.99700832
REMARK minimizedRMSD -1
REMARK  1 active torsions:
REMARK  status: ('A' for Active; 'I' for Inactive)
REMARK    1  A    between atoms: N_2  and  C1_3 
ROOT
ATOM      1  C1  UNL d   1      -0.293  -2.387   2.693  0.00  0.00     0.143 A 
ATOM      2  C2  UNL d   1       0.570  -2.770   1.660  0.00  0.00    -0.057 A 
ATOM      3  C3  UNL d   1       1.679  -1.989   1.314  0.00  0.00     0.033 A 
ATOM      4  C4  UNL d   1       1.929  -0.792   1.977  0.00  0.00    -0.042 A 
ATOM      5  C5  UNL d   1       1.070  -0.379   2.989  0.00  0.00     0.033 A 
ATOM      6  C6  UNL d   1      -0.032  -1.167   3.335  0.00  0.00    -0.057 A 
ENDROOT
BRANCH   1   7
ATOM      7  N   UNL d   1      -1.467  -3.071   3.018  0.00  0.00    -0.732 N 
ATOM      8  C   UNL d   1      -2.390  -3.486   1.984  0.00  0.00     0.284 C 
ATOM      9  H3  UNL d   1      -1.323  -3.763   3.750  0.00  0.00     0.395 HD
ENDBRANCH   1   7
TORSDOF 1
ENDMDL
