MODEL 1
REMARK minimizedAffinity 12.3101797
REMARK minimizedRMSD -1
REMARK  1 active torsions:
REMARK  status: ('A' for Active; 'I' for Inactive)
REMARK    1  A    between atoms: N_2  and  C1_3 
ROOT
ATOM      1  C1  UNL d   1       2.416  -0.650   2.544  0.00  0.00     0.143 A 
ATOM      2  C2  UNL d   1       1.197  -1.107   2.032  0.00  0.00    -0.057 A 
ATOM      3  C3  UNL d   1       0.029  -1.077   2.804  0.00  0.00     0.033 A 
ATOM      4  C4  UNL d   1       0.066  -0.616   4.115  0.00  0.00    -0.042 A 
ATOM      5  C5  UNL d   1       1.272  -0.181   4.653  0.00  0.00     0.033 A 
ATOM      6  C6  UNL d   1       2.433  -0.206   3.875  0.00  0.00    -0.057 A 
ENDROOT
BRANCH   1   7
ATOM      7  N   UNL d   1       3.631  -0.745   1.861  0.00  0.00    -0.732 N 
ATOM      8  C   UNL d   1       4.860  -0.291   2.475  0.00  0.00     0.284 C 
ATOM      9  H3  UNL d   1       3.721  -1.620   1.348  0.00  0.00     0.395 HD
ENDBRANCH   1   7
TORSDOF 1
ENDMDL
