MODEL 1
REMARK minimizedAffinity -2.83695245
REMARK minimizedRMSD -1
REMARK  1 active torsions:
REMARK  status: ('A' for Active; 'I' for Inactive)
REMARK    1  A    between atoms: N_2  and  C1_3 
ROOT
ATOM      1  C1  UNL d   1       1.479  -1.280  -0.141  0.00  0.00     0.143 A 
ATOM      2  C2  UNL d   1       0.666  -1.089  -1.264  0.00  0.00    -0.057 A 
ATOM      3  C3  UNL d   1      -0.596  -0.493  -1.154  0.00  0.00     0.033 A 
ATOM      4  C4  UNL d   1      -1.082  -0.104   0.090  0.00  0.00    -0.042 A 
ATOM      5  C5  UNL d   1      -0.303  -0.308   1.223  0.00  0.00     0.033 A 
ATOM      6  C6  UNL d   1       0.960  -0.897   1.106  0.00  0.00    -0.057 A 
ENDROOT
BRANCH   1   7
ATOM      7  N   UNL d   1       2.701  -1.956  -0.172  0.00  0.00    -0.732 N 
ATOM      8  C   UNL d   1       3.874  -1.385   0.456  0.00  0.00     0.284 C 
ATOM      9  H3  UNL d   1       2.596  -2.957  -0.023  0.00  0.00     0.395 HD
ENDBRANCH   1   7
TORSDOF 1
ENDMDL
