MODEL 1
REMARK minimizedAffinity -3.47436261
REMARK minimizedRMSD -1
REMARK  1 active torsions:
REMARK  status: ('A' for Active; 'I' for Inactive)
REMARK    1  A    between atoms: N_2  and  C1_3 
ROOT
ATOM      1  C1  UNL d   1      -0.120   0.648  -0.404  0.00  0.00     0.143 A 
ATOM      2  C2  UNL d   1      -1.300   0.263   0.241  0.00  0.00    -0.057 A 
ATOM      3  C3  UNL d   1      -1.269  -0.459   1.440  0.00  0.00     0.033 A 
ATOM      4  C4  UNL d   1      -0.054  -0.835   2.001  0.00  0.00    -0.042 A 
ATOM      5  C5  UNL d   1       1.132  -0.485   1.364  0.00  0.00     0.033 A 
ATOM      6  C6  UNL d   1       1.094   0.242   0.171  0.00  0.00    -0.057 A 
ENDROOT
BRANCH   1   7
ATOM      7  N   UNL d   1      -0.085   1.282  -1.649  0.00  0.00    -0.732 N 
ATOM      8  C   UNL d   1      -0.509   2.658  -1.788  0.00  0.00     0.284 C 
ATOM      9  H3  UNL d   1       0.751   1.048  -2.180  0.00  0.00     0.395 HD
ENDBRANCH   1   7
TORSDOF 1
ENDMDL
