MODEL 1
REMARK minimizedAffinity 2.25220466
REMARK minimizedRMSD -1
REMARK  1 active torsions:
REMARK  status: ('A' for Active; 'I' for Inactive)
REMARK    1  A    between atoms: N_2  and  C1_3 
ROOT
ATOM      1  C1  UNL d   1      -1.266  -0.466   0.452  0.00  0.00     0.143 A 
ATOM      2  C2  UNL d   1      -0.755  -0.448   1.754  0.00  0.00    -0.057 A 
ATOM      3  C3  UNL d   1       0.593  -0.727   2.009  0.00  0.00     0.033 A 
ATOM      4  C4  UNL d   1       1.450  -1.060   0.966  0.00  0.00    -0.042 A 
ATOM      5  C5  UNL d   1       0.958  -1.109  -0.334  0.00  0.00     0.033 A 
ATOM      6  C6  UNL d   1      -0.388  -0.822  -0.583  0.00  0.00    -0.057 A 
ENDROOT
BRANCH   1   7
ATOM      7  N   UNL d   1      -2.618  -0.294   0.145  0.00  0.00    -0.732 N 
ATOM      8  C   UNL d   1      -3.645  -0.701   1.080  0.00  0.00     0.284 C 
ATOM      9  H3  UNL d   1      -2.802   0.597  -0.313  0.00  0.00     0.395 HD
ENDBRANCH   1   7
TORSDOF 1
ENDMDL
