MODEL 1
REMARK minimizedAffinity 3.50873494
REMARK minimizedRMSD -1
REMARK  1 active torsions:
REMARK  status: ('A' for Active; 'I' for Inactive)
REMARK    1  A    between atoms: N_2  and  C1_3 
ROOT
ATOM      1  C1  UNL d   1      -0.396  -0.601   1.379  0.00  0.00     0.143 A 
ATOM      2  C2  UNL d   1       0.553  -0.326   2.370  0.00  0.00    -0.057 A 
ATOM      3  C3  UNL d   1       1.919  -0.531   2.143  0.00  0.00     0.033 A 
ATOM      4  C4  UNL d   1       2.359  -1.044   0.927  0.00  0.00    -0.042 A 
ATOM      5  C5  UNL d   1       1.431  -1.348  -0.063  0.00  0.00     0.033 A 
ATOM      6  C6  UNL d   1       0.069  -1.134   0.167  0.00  0.00    -0.057 A 
ENDROOT
BRANCH   1   7
ATOM      7  N   UNL d   1      -1.776  -0.511   1.579  0.00  0.00    -0.732 N 
ATOM      8  C   UNL d   1      -2.348  -0.734   2.889  0.00  0.00     0.284 C 
ATOM      9  H3  UNL d   1      -2.192   0.266   1.070  0.00  0.00     0.395 HD
ENDBRANCH   1   7
TORSDOF 1
ENDMDL
