MODEL 1
REMARK minimizedAffinity -2.26659203
REMARK minimizedRMSD -1
REMARK  1 active torsions:
REMARK  status: ('A' for Active; 'I' for Inactive)
REMARK    1  A    between atoms: N_2  and  C1_3 
ROOT
ATOM      1  C1  UNL d   1       3.003   5.978   3.418  0.00  0.00     0.143 A 
ATOM      2  C2  UNL d   1       1.612   5.958   3.569  0.00  0.00    -0.057 A 
ATOM      3  C3  UNL d   1       1.019   5.982   4.837  0.00  0.00     0.033 A 
ATOM      4  C4  UNL d   1       1.810   5.999   5.981  0.00  0.00    -0.042 A 
ATOM      5  C5  UNL d   1       3.194   5.994   5.855  0.00  0.00     0.033 A 
ATOM      6  C6  UNL d   1       3.781   5.976   4.586  0.00  0.00    -0.057 A 
ENDROOT
BRANCH   1   7
ATOM      7  N   UNL d   1       3.653   5.856   2.188  0.00  0.00    -0.732 N 
ATOM      8  C   UNL d   1       5.091   5.995   2.097  0.00  0.00     0.284 C 
ATOM      9  H3  UNL d   1       3.272   5.103   1.620  0.00  0.00     0.395 HD
ENDBRANCH   1   7
TORSDOF 1
ENDMDL
