MODEL 1
REMARK minimizedAffinity -2.04567051
REMARK minimizedRMSD -1
REMARK  1 active torsions:
REMARK  status: ('A' for Active; 'I' for Inactive)
REMARK    1  A    between atoms: N_2  and  C1_3 
ROOT
ATOM      1  C1  UNL d   1       3.971   5.080   3.347  0.00  0.00     0.143 A 
ATOM      2  C2  UNL d   1       3.665   5.702   2.132  0.00  0.00    -0.057 A 
ATOM      3  C3  UNL d   1       4.494   5.557   1.013  0.00  0.00     0.033 A 
ATOM      4  C4  UNL d   1       5.663   4.807   1.098  0.00  0.00    -0.042 A 
ATOM      5  C5  UNL d   1       6.000   4.201   2.303  0.00  0.00     0.033 A 
ATOM      6  C6  UNL d   1       5.165   4.344   3.415  0.00  0.00    -0.057 A 
ENDROOT
BRANCH   1   7
ATOM      7  N   UNL d   1       3.239   5.267   4.522  0.00  0.00    -0.732 N 
ATOM      8  C   UNL d   1       1.954   5.931   4.492  0.00  0.00     0.284 C 
ATOM      9  H3  UNL d   1       3.273   4.454   5.134  0.00  0.00     0.395 HD
ENDBRANCH   1   7
TORSDOF 1
ENDMDL
