MODEL 1
REMARK minimizedAffinity -0.766129613
REMARK minimizedRMSD -1
REMARK  1 active torsions:
REMARK  status: ('A' for Active; 'I' for Inactive)
REMARK    1  A    between atoms: N_2  and  C1_3 
ROOT
ATOM      1  C1  UNL d   1       3.423   5.988   3.596  0.00  0.00     0.143 A 
ATOM      2  C2  UNL d   1       2.041   5.973   3.380  0.00  0.00    -0.057 A 
ATOM      3  C3  UNL d   1       1.139   5.994   4.451  0.00  0.00     0.033 A 
ATOM      4  C4  UNL d   1       1.605   5.999   5.761  0.00  0.00    -0.042 A 
ATOM      5  C5  UNL d   1       2.975   5.989   6.000  0.00  0.00     0.033 A 
ATOM      6  C6  UNL d   1       3.871   5.976   4.926  0.00  0.00    -0.057 A 
ENDROOT
BRANCH   1   7
ATOM      7  N   UNL d   1       4.370   5.870   2.576  0.00  0.00    -0.732 N 
ATOM      8  C   UNL d   1       3.980   6.000   1.189  0.00  0.00     0.284 C 
ATOM      9  H3  UNL d   1       5.248   6.331   2.806  0.00  0.00     0.395 HD
ENDBRANCH   1   7
TORSDOF 1
ENDMDL
