MODEL 1
REMARK minimizedAffinity -2.93311119
REMARK minimizedRMSD -1
REMARK  1 active torsions:
REMARK  status: ('A' for Active; 'I' for Inactive)
REMARK    1  A    between atoms: N_2  and  C1_3 
ROOT
ATOM      1  C1  UNL d   1       3.155   5.996   3.522  0.00  0.00     0.143 A 
ATOM      2  C2  UNL d   1       1.760   5.970   3.427  0.00  0.00    -0.057 A 
ATOM      3  C3  UNL d   1       0.953   5.985   4.572  0.00  0.00     0.033 A 
ATOM      4  C4  UNL d   1       1.532   5.998   5.837  0.00  0.00    -0.042 A 
ATOM      5  C5  UNL d   1       2.917   5.999   5.956  0.00  0.00     0.033 A 
ATOM      6  C6  UNL d   1       3.716   5.990   4.808  0.00  0.00    -0.057 A 
ENDROOT
BRANCH   1   7
ATOM      7  N   UNL d   1       4.012   5.883   2.424  0.00  0.00    -0.732 N 
ATOM      8  C   UNL d   1       5.447   5.936   2.601  0.00  0.00     0.284 C 
ATOM      9  H3  UNL d   1       3.700   5.178   1.760  0.00  0.00     0.395 HD
ENDBRANCH   1   7
TORSDOF 1
ENDMDL
