MODEL 1
REMARK minimizedAffinity 6.26887751
REMARK minimizedRMSD -1
REMARK  1 active torsions:
REMARK  status: ('A' for Active; 'I' for Inactive)
REMARK    1  A    between atoms: C1_2  and  C2_3 
ROOT
ATOM      1  C2  UNL d   1       3.834   1.339  -0.456  0.00  0.00    -0.073 A 
ATOM      2  C3  UNL d   1       2.740   1.495  -1.314  0.00  0.00    -0.002 A 
ATOM      3  C4  UNL d   1       1.728   0.535  -1.349  0.00  0.00     0.004 A 
ATOM      4  C5  UNL d   1       1.795  -0.586  -0.522  0.00  0.00    -0.004 A 
ATOM      5  C6  UNL d   1       2.875  -0.755   0.351  0.00  0.00    -0.075 A 
ATOM      6  C7  UNL d   1       2.963  -1.956   1.245  0.00  0.00     0.076 C 
ATOM      7  C8  UNL d   1       3.889   0.213   0.378  0.00  0.00     0.001 A 
ENDROOT
BRANCH   1   8
ATOM      8  C1  UNL d   1       4.926   2.376  -0.411  0.00  0.00     0.053 C 
ATOM      9  C   UNL d   1       5.464   2.698  -1.796  0.00  0.00     0.018 C 
ENDBRANCH   1   8
TORSDOF 1
ENDMDL
