MODEL 1
REMARK minimizedAffinity 11.158721
REMARK minimizedRMSD -1
REMARK  1 active torsions:
REMARK  status: ('A' for Active; 'I' for Inactive)
REMARK    1  A    between atoms: C1_2  and  C2_3 
ROOT
ATOM      1  C2  UNL d   1       3.585   2.317   0.550  0.00  0.00    -0.073 A 
ATOM      2  C3  UNL d   1       4.275   2.765  -0.582  0.00  0.00    -0.002 A 
ATOM      3  C4  UNL d   1       4.327   1.979  -1.733  0.00  0.00     0.004 A 
ATOM      4  C5  UNL d   1       3.685   0.741  -1.768  0.00  0.00    -0.004 A 
ATOM      5  C6  UNL d   1       2.980   0.281  -0.651  0.00  0.00    -0.075 A 
ATOM      6  C7  UNL d   1       2.285  -1.049  -0.671  0.00  0.00     0.076 C 
ATOM      7  C8  UNL d   1       2.934   1.075   0.503  0.00  0.00     0.001 A 
ENDROOT
BRANCH   1   8
ATOM      8  C1  UNL d   1       3.520   3.165   1.793  0.00  0.00     0.053 C 
ATOM      9  C   UNL d   1       4.904   3.551   2.293  0.00  0.00     0.018 C 
ENDBRANCH   1   8
TORSDOF 1
ENDMDL
