MODEL 1
REMARK minimizedAffinity 15.4060698
REMARK minimizedRMSD -1
REMARK  1 active torsions:
REMARK  status: ('A' for Active; 'I' for Inactive)
REMARK    1  A    between atoms: C1_2  and  C2_3 
ROOT
ATOM      1  C2  UNL d   1       3.016   0.091  -0.081  0.00  0.00    -0.073 A 
ATOM      2  C3  UNL d   1       2.115  -0.917   0.282  0.00  0.00    -0.002 A 
ATOM      3  C4  UNL d   1       2.475  -1.874   1.232  0.00  0.00     0.004 A 
ATOM      4  C5  UNL d   1       3.733  -1.829   1.833  0.00  0.00    -0.004 A 
ATOM      5  C6  UNL d   1       4.642  -0.823   1.492  0.00  0.00    -0.075 A 
ATOM      6  C7  UNL d   1       6.000  -0.762   2.127  0.00  0.00     0.076 C 
ATOM      7  C8  UNL d   1       4.275   0.133   0.535  0.00  0.00     0.001 A 
ENDROOT
BRANCH   1   8
ATOM      8  C1  UNL d   1       2.630   1.130  -1.102  0.00  0.00     0.053 C 
ATOM      9  C   UNL d   1       1.129   1.377  -1.125  0.00  0.00     0.018 C 
ENDBRANCH   1   8
TORSDOF 1
ENDMDL
