MODEL 1
REMARK minimizedAffinity 25.7065487
REMARK minimizedRMSD -1
REMARK  1 active torsions:
REMARK  status: ('A' for Active; 'I' for Inactive)
REMARK    1  A    between atoms: C1_2  and  C2_3 
ROOT
ATOM      1  C2  UNL d   1      -4.777   3.801  -0.945  0.00  0.00    -0.073 A 
ATOM      2  C3  UNL d   1      -5.355   3.640  -2.209  0.00  0.00    -0.002 A 
ATOM      3  C4  UNL d   1      -5.727   2.371  -2.656  0.00  0.00     0.004 A 
ATOM      4  C5  UNL d   1      -5.532   1.255  -1.844  0.00  0.00    -0.004 A 
ATOM      5  C6  UNL d   1      -4.966   1.397  -0.573  0.00  0.00    -0.075 A 
ATOM      6  C7  UNL d   1      -4.746   0.206   0.312  0.00  0.00     0.076 C 
ATOM      7  C8  UNL d   1      -4.592   2.674  -0.132  0.00  0.00     0.001 A 
ENDROOT
BRANCH   1   8
ATOM      8  C1  UNL d   1      -4.379   5.169  -0.454  0.00  0.00     0.053 C 
ATOM      9  C   UNL d   1      -2.869   5.331  -0.379  0.00  0.00     0.018 C 
ENDBRANCH   1   8
TORSDOF 1
ENDMDL
