MODEL 1
REMARK minimizedAffinity 9.25491905
REMARK minimizedRMSD -1
REMARK  1 active torsions:
REMARK  status: ('A' for Active; 'I' for Inactive)
REMARK    1  A    between atoms: C1_2  and  C2_3 
ROOT
ATOM      1  C2  UNL d   1      -5.641   4.698   3.391  0.00  0.00    -0.073 A 
ATOM      2  C3  UNL d   1      -5.929   5.714   2.472  0.00  0.00    -0.002 A 
ATOM      3  C4  UNL d   1      -5.600   5.560   1.125  0.00  0.00     0.004 A 
ATOM      4  C5  UNL d   1      -4.988   4.388   0.681  0.00  0.00    -0.004 A 
ATOM      5  C6  UNL d   1      -4.703   3.356   1.581  0.00  0.00    -0.075 A 
ATOM      6  C7  UNL d   1      -4.043   2.090   1.121  0.00  0.00     0.076 C 
ATOM      7  C8  UNL d   1      -5.034   3.520   2.934  0.00  0.00     0.001 A 
ENDROOT
BRANCH   1   8
ATOM      8  C1  UNL d   1      -5.999   4.857   4.846  0.00  0.00     0.053 C 
ATOM      9  C   UNL d   1      -5.232   5.994   5.501  0.00  0.00     0.018 C 
ENDBRANCH   1   8
TORSDOF 1
ENDMDL
