MODEL 1
REMARK minimizedAffinity -3.90808344
REMARK minimizedRMSD -1
REMARK  0 active torsions:
REMARK  status: ('A' for Active; 'I' for Inactive)
ROOT
ATOM      1  C1  BNZ d   1      -0.085   2.275   0.750  0.00  0.00     0.000 A 
ATOM      2  C2  BNZ d   1       0.482   3.154   1.635  0.00  0.00     0.000 A 
ATOM      3  C3  BNZ d   1       1.755   2.962   2.093  0.00  0.00     0.000 A 
ATOM      4  C4  BNZ d   1       2.445   1.872   1.698  0.00  0.00     0.000 A 
ATOM      5  C5  BNZ d   1       1.884   0.972   0.814  0.00  0.00     0.000 A 
ATOM      6  C6  BNZ d   1       0.617   1.189   0.325  0.00  0.00     0.000 A 
ENDROOT
TORSDOF 0
ENDMDL
