MODEL 1
REMARK minimizedAffinity 0.0784265846
REMARK minimizedRMSD -1
REMARK  0 active torsions:
REMARK  status: ('A' for Active; 'I' for Inactive)
ROOT
ATOM      1  C1  BNZ d   1      -2.150   1.026   0.017  0.00  0.00     0.000 A 
ATOM      2  C2  BNZ d   1      -1.069   1.808  -0.289  0.00  0.00     0.000 A 
ATOM      3  C3  BNZ d   1       0.129   1.626   0.343  0.00  0.00     0.000 A 
ATOM      4  C4  BNZ d   1       0.233   0.689   1.308  0.00  0.00     0.000 A 
ATOM      5  C5  BNZ d   1      -0.850  -0.101   1.635  0.00  0.00     0.000 A 
ATOM      6  C6  BNZ d   1      -2.044   0.059   0.969  0.00  0.00     0.000 A 
ENDROOT
TORSDOF 0
ENDMDL
