MODEL 1
REMARK minimizedAffinity -0.255625457
REMARK minimizedRMSD -1
REMARK  0 active torsions:
REMARK  status: ('A' for Active; 'I' for Inactive)
ROOT
ATOM      1  C1  BNZ d   1      -0.797   2.230  -1.552  0.00  0.00     0.000 A 
ATOM      2  C2  BNZ d   1      -1.242   1.369  -0.585  0.00  0.00     0.000 A 
ATOM      3  C3  BNZ d   1      -0.925   1.569   0.730  0.00  0.00     0.000 A 
ATOM      4  C4  BNZ d   1      -0.132   2.605   1.071  0.00  0.00     0.000 A 
ATOM      5  C5  BNZ d   1       0.332   3.477   0.106  0.00  0.00     0.000 A 
ATOM      6  C6  BNZ d   1      -0.020   3.295  -1.212  0.00  0.00     0.000 A 
ENDROOT
TORSDOF 0
ENDMDL
