MODEL 1
REMARK minimizedAffinity 4.44990492
REMARK minimizedRMSD -1
REMARK  0 active torsions:
REMARK  status: ('A' for Active; 'I' for Inactive)
ROOT
ATOM      1  C1  BNZ d   1       1.199   1.692   2.093  0.00  0.00     0.000 A 
ATOM      2  C2  BNZ d   1       2.038   2.670   2.557  0.00  0.00     0.000 A 
ATOM      3  C3  BNZ d   1       3.252   2.888   1.968  0.00  0.00     0.000 A 
ATOM      4  C4  BNZ d   1       3.643   2.102   0.944  0.00  0.00     0.000 A 
ATOM      5  C5  BNZ d   1       2.812   1.106   0.471  0.00  0.00     0.000 A 
ATOM      6  C6  BNZ d   1       1.574   0.915   1.041  0.00  0.00     0.000 A 
ENDROOT
TORSDOF 0
ENDMDL
