MODEL 1
REMARK minimizedAffinity 1.04587889
REMARK minimizedRMSD -1
REMARK  0 active torsions:
REMARK  status: ('A' for Active; 'I' for Inactive)
ROOT
ATOM      1  C1  BNZ d   1      -3.151  -4.406  -1.013  0.00  0.00     0.000 A 
ATOM      2  C2  BNZ d   1      -3.050  -5.215   0.087  0.00  0.00     0.000 A 
ATOM      3  C3  BNZ d   1      -1.945  -5.997   0.282  0.00  0.00     0.000 A 
ATOM      4  C4  BNZ d   1      -0.964  -5.999  -0.643  0.00  0.00     0.000 A 
ATOM      5  C5  BNZ d   1      -1.055  -5.196  -1.762  0.00  0.00     0.000 A 
ATOM      6  C6  BNZ d   1      -2.151  -4.382  -1.935  0.00  0.00     0.000 A 
ENDROOT
TORSDOF 0
ENDMDL
