MODEL 1
REMARK minimizedAffinity 0.9662745
REMARK minimizedRMSD -1
REMARK  0 active torsions:
REMARK  status: ('A' for Active; 'I' for Inactive)
ROOT
ATOM      1  C1  BNZ d   1       1.400   1.661   1.333  0.00  0.00     0.000 A 
ATOM      2  C2  BNZ d   1       0.251   2.026   1.983  0.00  0.00     0.000 A 
ATOM      3  C3  BNZ d   1      -0.958   1.980   1.347  0.00  0.00     0.000 A 
ATOM      4  C4  BNZ d   1      -1.012   1.607   0.052  0.00  0.00     0.000 A 
ATOM      5  C5  BNZ d   1       0.139   1.245  -0.620  0.00  0.00     0.000 A 
ATOM      6  C6  BNZ d   1       1.349   1.255   0.035  0.00  0.00     0.000 A 
ENDROOT
TORSDOF 0
ENDMDL
