MODEL 1
REMARK minimizedAffinity 1.30070198
REMARK minimizedRMSD -1
REMARK  0 active torsions:
REMARK  status: ('A' for Active; 'I' for Inactive)
ROOT
ATOM      1  C1  BNZ d   1      -0.168   2.906  -0.211  0.00  0.00     0.000 A 
ATOM      2  C2  BNZ d   1      -1.274   2.716  -0.995  0.00  0.00     0.000 A 
ATOM      3  C3  BNZ d   1      -2.170   1.722  -0.714  0.00  0.00     0.000 A 
ATOM      4  C4  BNZ d   1      -1.937   0.895   0.326  0.00  0.00     0.000 A 
ATOM      5  C5  BNZ d   1      -0.822   1.068   1.121  0.00  0.00     0.000 A 
ATOM      6  C6  BNZ d   1       0.057   2.094   0.858  0.00  0.00     0.000 A 
ENDROOT
TORSDOF 0
ENDMDL
