MODEL 1
REMARK minimizedAffinity -3.32708597
REMARK minimizedRMSD -1
REMARK  0 active torsions:
REMARK  status: ('A' for Active; 'I' for Inactive)
ROOT
ATOM      1  C1  BNZ d   1       0.107   3.025   3.660  0.00  0.00     0.000 A 
ATOM      2  C2  BNZ d   1       1.471   3.000   3.542  0.00  0.00     0.000 A 
ATOM      3  C3  BNZ d   1       2.065   2.666   2.357  0.00  0.00     0.000 A 
ATOM      4  C4  BNZ d   1       1.297   2.320   1.304  0.00  0.00     0.000 A 
ATOM      5  C5  BNZ d   1      -0.080   2.332   1.410  0.00  0.00     0.000 A 
ATOM      6  C6  BNZ d   1      -0.675   2.706   2.593  0.00  0.00     0.000 A 
ENDROOT
TORSDOF 0
ENDMDL
