MODEL 1
REMARK minimizedAffinity 1.18208277
REMARK minimizedRMSD -1
REMARK  0 active torsions:
REMARK  status: ('A' for Active; 'I' for Inactive)
ROOT
ATOM      1  C1  BNZ d   1      -0.534   2.617   2.963  0.00  0.00     0.000 A 
ATOM      2  C2  BNZ d   1      -0.886   1.882   1.863  0.00  0.00     0.000 A 
ATOM      3  C3  BNZ d   1       0.069   1.306   1.071  0.00  0.00     0.000 A 
ATOM      4  C4  BNZ d   1       1.372   1.498   1.358  0.00  0.00     0.000 A 
ATOM      5  C5  BNZ d   1       1.743   2.244   2.459  0.00  0.00     0.000 A 
ATOM      6  C6  BNZ d   1       0.779   2.790   3.276  0.00  0.00     0.000 A 
ENDROOT
TORSDOF 0
ENDMDL
