MODEL 1
REMARK minimizedAffinity 0.437585503
REMARK minimizedRMSD -1
REMARK  0 active torsions:
REMARK  status: ('A' for Active; 'I' for Inactive)
ROOT
ATOM      1  C1  BNZ d   1       3.155   5.993   1.453  0.00  0.00     0.000 A 
ATOM      2  C2  BNZ d   1       4.118   5.999   0.479  0.00  0.00     0.000 A 
ATOM      3  C3  BNZ d   1       5.445   5.981   0.806  0.00  0.00     0.000 A 
ATOM      4  C4  BNZ d   1       5.808   5.997   2.105  0.00  0.00     0.000 A 
ATOM      5  C5  BNZ d   1       4.849   6.000   3.098  0.00  0.00     0.000 A 
ATOM      6  C6  BNZ d   1       3.514   5.978   2.765  0.00  0.00     0.000 A 
ENDROOT
TORSDOF 0
ENDMDL
