MODEL 1
REMARK minimizedAffinity 4.29665041
REMARK minimizedRMSD -1
REMARK  0 active torsions:
REMARK  status: ('A' for Active; 'I' for Inactive)
ROOT
ATOM      1  C1  BNZ d   1      -1.051   2.246   1.609  0.00  0.00     0.000 A 
ATOM      2  C2  BNZ d   1      -0.907   2.979   2.756  0.00  0.00     0.000 A 
ATOM      3  C3  BNZ d   1       0.329   3.378   3.181  0.00  0.00     0.000 A 
ATOM      4  C4  BNZ d   1       1.422   3.010   2.482  0.00  0.00     0.000 A 
ATOM      5  C5  BNZ d   1       1.294   2.262   1.328  0.00  0.00     0.000 A 
ATOM      6  C6  BNZ d   1       0.045   1.896   0.882  0.00  0.00     0.000 A 
ENDROOT
TORSDOF 0
ENDMDL
