MODEL 1
REMARK minimizedAffinity 1.30493546
REMARK minimizedRMSD -1
REMARK  0 active torsions:
REMARK  status: ('A' for Active; 'I' for Inactive)
ROOT
ATOM      1  C1  BNZ d   1       2.271   2.143   1.848  0.00  0.00     0.000 A 
ATOM      2  C2  BNZ d   1       1.622   3.012   2.683  0.00  0.00     0.000 A 
ATOM      3  C3  BNZ d   1       0.256   3.039   2.741  0.00  0.00     0.000 A 
ATOM      4  C4  BNZ d   1      -0.457   2.226   1.935  0.00  0.00     0.000 A 
ATOM      5  C5  BNZ d   1       0.183   1.351   1.081  0.00  0.00     0.000 A 
ATOM      6  C6  BNZ d   1       1.558   1.300   1.053  0.00  0.00     0.000 A 
ENDROOT
TORSDOF 0
ENDMDL
