MODEL 1
REMARK minimizedAffinity 1.14227951
REMARK minimizedRMSD -1
REMARK  0 active torsions:
REMARK  status: ('A' for Active; 'I' for Inactive)
ROOT
ATOM      1  C1  BNZ d   1       1.580   3.290   3.297  0.00  0.00     0.000 A 
ATOM      2  C2  BNZ d   1       0.314   3.092   3.779  0.00  0.00     0.000 A 
ATOM      3  C3  BNZ d   1      -0.643   2.491   3.010  0.00  0.00     0.000 A 
ATOM      4  C4  BNZ d   1      -0.344   2.125   1.747  0.00  0.00     0.000 A 
ATOM      5  C5  BNZ d   1       0.925   2.326   1.242  0.00  0.00     0.000 A 
ATOM      6  C6  BNZ d   1       1.897   2.896   2.033  0.00  0.00     0.000 A 
ENDROOT
TORSDOF 0
ENDMDL
