MODEL 1
REMARK minimizedAffinity -1.00362408
REMARK minimizedRMSD -1
REMARK  0 active torsions:
REMARK  status: ('A' for Active; 'I' for Inactive)
ROOT
ATOM      1  C1  BNZ d   1       1.711   3.122   2.747  0.00  0.00     0.000 A 
ATOM      2  C2  BNZ d   1       0.512   3.420   3.336  0.00  0.00     0.000 A 
ATOM      3  C3  BNZ d   1      -0.661   2.950   2.813  0.00  0.00     0.000 A 
ATOM      4  C4  BNZ d   1      -0.635   2.218   1.680  0.00  0.00     0.000 A 
ATOM      5  C5  BNZ d   1       0.566   1.917   1.070  0.00  0.00     0.000 A 
ATOM      6  C6  BNZ d   1       1.747   2.359   1.621  0.00  0.00     0.000 A 
ENDROOT
TORSDOF 0
ENDMDL
