MODEL 1
REMARK minimizedAffinity 1.08267617
REMARK minimizedRMSD -1
REMARK  0 active torsions:
REMARK  status: ('A' for Active; 'I' for Inactive)
ROOT
ATOM      1  C1  BNZ d   1       1.195   0.995   0.960  0.00  0.00     0.000 A 
ATOM      2  C2  BNZ d   1      -0.119   1.206   0.640  0.00  0.00     0.000 A 
ATOM      3  C3  BNZ d   1      -0.874   2.107   1.339  0.00  0.00     0.000 A 
ATOM      4  C4  BNZ d   1      -0.325   2.764   2.381  0.00  0.00     0.000 A 
ATOM      5  C5  BNZ d   1       0.996   2.555   2.722  0.00  0.00     0.000 A 
ATOM      6  C6  BNZ d   1       1.763   1.677   1.992  0.00  0.00     0.000 A 
ENDROOT
TORSDOF 0
ENDMDL
