MODEL 1
REMARK minimizedAffinity 3.66317892
REMARK minimizedRMSD -1
REMARK  0 active torsions:
REMARK  status: ('A' for Active; 'I' for Inactive)
ROOT
ATOM      1  C   UNL d   1      -2.206  -6.000   1.089  0.00  0.00     0.172 C 
ATOM      2  N   UNL d   1      -0.772  -5.999   1.260  0.00  0.00    -0.070 N 
ATOM      3  C1  UNL d   1      -0.112  -5.999   2.460  0.00  0.00    -0.004 A 
ATOM      4  C2  UNL d   1       1.241  -5.999   2.197  0.00  0.00    -0.047 A 
ATOM      5  C3  UNL d   1       1.399  -6.000   0.790  0.00  0.00    -0.047 A 
ATOM      6  C4  UNL d   1       0.137  -6.000   0.235  0.00  0.00    -0.004 A 
ENDROOT
TORSDOF 0
ENDMDL
