MODEL 1
REMARK minimizedAffinity 0.392766207
REMARK minimizedRMSD -1
REMARK  0 active torsions:
REMARK  status: ('A' for Active; 'I' for Inactive)
ROOT
ATOM      1  C   UNL d   1      -2.639   0.477  -5.237  0.00  0.00     0.172 C 
ATOM      2  N   UNL d   1      -1.909   0.906  -4.068  0.00  0.00    -0.070 N 
ATOM      3  C1  UNL d   1      -0.757   1.648  -4.074  0.00  0.00    -0.004 A 
ATOM      4  C2  UNL d   1      -0.377   1.847  -2.764  0.00  0.00    -0.047 A 
ATOM      5  C3  UNL d   1      -1.332   1.202  -1.943  0.00  0.00    -0.047 A 
ATOM      6  C4  UNL d   1      -2.269   0.628  -2.776  0.00  0.00    -0.004 A 
ENDROOT
TORSDOF 0
ENDMDL
