MODEL 1
REMARK minimizedAffinity -0.60950774
REMARK minimizedRMSD -1
REMARK  0 active torsions:
REMARK  status: ('A' for Active; 'I' for Inactive)
ROOT
ATOM      1  C   UNL d   1       2.700  -2.257  -2.005  0.00  0.00     0.172 C 
ATOM      2  N   UNL d   1       2.661  -0.932  -2.579  0.00  0.00    -0.070 N 
ATOM      3  C1  UNL d   1       1.924   0.121  -2.107  0.00  0.00    -0.004 A 
ATOM      4  C2  UNL d   1       2.161   1.203  -2.927  0.00  0.00    -0.047 A 
ATOM      5  C3  UNL d   1       3.071   0.785  -3.928  0.00  0.00    -0.047 A 
ATOM      6  C4  UNL d   1       3.364  -0.541  -3.688  0.00  0.00    -0.004 A 
ENDROOT
TORSDOF 0
ENDMDL
