MODEL 1
REMARK minimizedAffinity 1.80127156
REMARK minimizedRMSD -1
REMARK  0 active torsions:
REMARK  status: ('A' for Active; 'I' for Inactive)
ROOT
ATOM      1  C   UNL d   1      -5.665   2.424   5.743  0.00  0.00     0.172 C 
ATOM      2  N   UNL d   1      -5.190   3.784   5.832  0.00  0.00    -0.070 N 
ATOM      3  C1  UNL d   1      -5.978   4.902   5.903  0.00  0.00    -0.004 A 
ATOM      4  C2  UNL d   1      -5.147   6.000   5.975  0.00  0.00    -0.047 A 
ATOM      5  C3  UNL d   1      -3.815   5.526   5.945  0.00  0.00    -0.047 A 
ATOM      6  C4  UNL d   1      -3.870   4.151   5.856  0.00  0.00    -0.004 A 
ENDROOT
TORSDOF 0
ENDMDL
