MODEL 1
REMARK minimizedAffinity 3.87125325
REMARK minimizedRMSD -1
REMARK  0 active torsions:
REMARK  status: ('A' for Active; 'I' for Inactive)
ROOT
ATOM      1  C   UNL d   1      -1.144   0.903  -2.700  0.00  0.00     0.172 C 
ATOM      2  N   UNL d   1      -1.507   0.148  -3.876  0.00  0.00    -0.070 N 
ATOM      3  C1  UNL d   1      -1.380   0.576  -5.171  0.00  0.00    -0.004 A 
ATOM      4  C2  UNL d   1      -1.833  -0.431  -5.995  0.00  0.00    -0.047 A 
ATOM      5  C3  UNL d   1      -2.249  -1.501  -5.167  0.00  0.00    -0.047 A 
ATOM      6  C4  UNL d   1      -2.036  -1.116  -3.860  0.00  0.00    -0.004 A 
ENDROOT
TORSDOF 0
ENDMDL
