MODEL 1
REMARK minimizedAffinity 2.29669356
REMARK minimizedRMSD -1
REMARK  0 active torsions:
REMARK  status: ('A' for Active; 'I' for Inactive)
ROOT
ATOM      1  C   UNL d   1       1.860   4.407  -4.145  0.00  0.00     0.172 C 
ATOM      2  N   UNL d   1       2.343   3.139  -3.650  0.00  0.00    -0.070 N 
ATOM      3  C1  UNL d   1       2.003   2.567  -2.453  0.00  0.00    -0.004 A 
ATOM      4  C2  UNL d   1       2.672   1.366  -2.354  0.00  0.00    -0.047 A 
ATOM      5  C3  UNL d   1       3.441   1.212  -3.532  0.00  0.00    -0.047 A 
ATOM      6  C4  UNL d   1       3.219   2.323  -4.316  0.00  0.00    -0.004 A 
ENDROOT
TORSDOF 0
ENDMDL
