MODEL 1
REMARK minimizedAffinity 7.55279875
REMARK minimizedRMSD -1
REMARK  0 active torsions:
REMARK  status: ('A' for Active; 'I' for Inactive)
ROOT
ATOM      1  C   UNL d   1      -5.815   3.296   5.510  0.00  0.00     0.172 C 
ATOM      2  N   UNL d   1      -5.662   1.913   5.124  0.00  0.00    -0.070 N 
ATOM      3  C1  UNL d   1      -5.613   1.444   3.839  0.00  0.00    -0.004 A 
ATOM      4  C2  UNL d   1      -5.461   0.076   3.894  0.00  0.00    -0.047 A 
ATOM      5  C3  UNL d   1      -5.418  -0.291   5.260  0.00  0.00    -0.047 A 
ATOM      6  C4  UNL d   1      -5.545   0.866   6.000  0.00  0.00    -0.004 A 
ENDROOT
TORSDOF 0
ENDMDL
