MODEL 1
REMARK minimizedAffinity 1.97475219
REMARK minimizedRMSD -1
REMARK  0 active torsions:
REMARK  status: ('A' for Active; 'I' for Inactive)
ROOT
ATOM      1  C   UNL d   1      -1.512   0.863   0.463  0.00  0.00     0.172 C 
ATOM      2  N   UNL d   1      -2.008   0.531  -0.851  0.00  0.00    -0.070 N 
ATOM      3  C1  UNL d   1      -2.571  -0.663  -1.215  0.00  0.00    -0.004 A 
ATOM      4  C2  UNL d   1      -2.913  -0.581  -2.547  0.00  0.00    -0.047 A 
ATOM      5  C3  UNL d   1      -2.543   0.708  -3.000  0.00  0.00    -0.047 A 
ATOM      6  C4  UNL d   1      -1.985   1.375  -1.930  0.00  0.00    -0.004 A 
ENDROOT
TORSDOF 0
ENDMDL
