MODEL 1
REMARK minimizedAffinity 2.21903062
REMARK minimizedRMSD -1
REMARK  0 active torsions:
REMARK  status: ('A' for Active; 'I' for Inactive)
ROOT
ATOM      1  C   UNL d   1      -5.998   1.200   2.427  0.00  0.00     0.172 C 
ATOM      2  N   UNL d   1      -5.967   1.134   3.870  0.00  0.00    -0.070 N 
ATOM      3  C1  UNL d   1      -6.000  -0.012   4.618  0.00  0.00    -0.004 A 
ATOM      4  C2  UNL d   1      -5.953   0.349   5.947  0.00  0.00    -0.047 A 
ATOM      5  C3  UNL d   1      -5.890   1.762   5.999  0.00  0.00    -0.047 A 
ATOM      6  C4  UNL d   1      -5.901   2.222   4.699  0.00  0.00    -0.004 A 
ENDROOT
TORSDOF 0
ENDMDL
