MODEL 1
REMARK minimizedAffinity -2.99457431
REMARK minimizedRMSD -1
REMARK  0 active torsions:
REMARK  status: ('A' for Active; 'I' for Inactive)
ROOT
ATOM      1  C   UNL d   1       1.943  -1.333  -3.790  0.00  0.00     0.172 C 
ATOM      2  N   UNL d   1       1.362  -0.081  -3.365  0.00  0.00    -0.070 N 
ATOM      3  C1  UNL d   1       2.052   0.990  -2.863  0.00  0.00    -0.004 A 
ATOM      4  C2  UNL d   1       1.140   1.983  -2.578  0.00  0.00    -0.047 A 
ATOM      5  C3  UNL d   1      -0.143   1.491  -2.919  0.00  0.00    -0.047 A 
ATOM      6  C4  UNL d   1       0.024   0.211  -3.404  0.00  0.00    -0.004 A 
ENDROOT
TORSDOF 0
ENDMDL
