MODEL 1
REMARK minimizedAffinity -1.13050032
REMARK minimizedRMSD -1
REMARK  0 active torsions:
REMARK  status: ('A' for Active; 'I' for Inactive)
ROOT
ATOM      1  C   UNL d   1       0.910   2.115  -2.701  0.00  0.00     0.172 C 
ATOM      2  N   UNL d   1      -0.316   1.554  -3.217  0.00  0.00    -0.070 N 
ATOM      3  C1  UNL d   1      -0.555   0.223  -3.437  0.00  0.00    -0.004 A 
ATOM      4  C2  UNL d   1      -1.836   0.100  -3.930  0.00  0.00    -0.047 A 
ATOM      5  C3  UNL d   1      -2.386   1.402  -4.010  0.00  0.00    -0.047 A 
ATOM      6  C4  UNL d   1      -1.423   2.282  -3.563  0.00  0.00    -0.004 A 
ENDROOT
TORSDOF 0
ENDMDL
