MODEL 1
REMARK minimizedAffinity -2.44152021
REMARK minimizedRMSD -1
REMARK  0 active torsions:
REMARK  status: ('A' for Active; 'I' for Inactive)
ROOT
ATOM      1  C   UNL d   1      -1.207  -0.023  -4.179  0.00  0.00     0.172 C 
ATOM      2  N   UNL d   1       0.071   0.057  -3.513  0.00  0.00    -0.070 N 
ATOM      3  C1  UNL d   1       1.109  -0.823  -3.669  0.00  0.00    -0.004 A 
ATOM      4  C2  UNL d   1       2.146  -0.400  -2.865  0.00  0.00    -0.047 A 
ATOM      5  C3  UNL d   1       1.716   0.775  -2.203  0.00  0.00    -0.047 A 
ATOM      6  C4  UNL d   1       0.428   1.035  -2.622  0.00  0.00    -0.004 A 
ENDROOT
TORSDOF 0
ENDMDL
