MODEL 1
REMARK minimizedAffinity 3.37548232
REMARK minimizedRMSD -1
REMARK  0 active torsions:
REMARK  status: ('A' for Active; 'I' for Inactive)
ROOT
ATOM      1  C   UNL d   1      -1.966  -4.516   0.374  0.00  0.00     0.172 C 
ATOM      2  N   UNL d   1      -0.767  -4.870   1.095  0.00  0.00    -0.070 N 
ATOM      3  C1  UNL d   1      -0.593  -6.000   1.849  0.00  0.00    -0.004 A 
ATOM      4  C2  UNL d   1       0.683  -5.968   2.369  0.00  0.00    -0.047 A 
ATOM      5  C3  UNL d   1       1.297  -4.778   1.912  0.00  0.00    -0.047 A 
ATOM      6  C4  UNL d   1       0.377  -4.117   1.125  0.00  0.00    -0.004 A 
ENDROOT
TORSDOF 0
ENDMDL
