MODEL 1
REMARK minimizedAffinity 4.72294044
REMARK minimizedRMSD -1
REMARK  0 active torsions:
REMARK  status: ('A' for Active; 'I' for Inactive)
ROOT
ATOM      1  C   UNL d   1       2.771   1.486  -1.301  0.00  0.00     0.172 C 
ATOM      2  N   UNL d   1       2.961   2.080  -2.604  0.00  0.00    -0.070 N 
ATOM      3  C1  UNL d   1       2.187   3.069  -3.150  0.00  0.00    -0.004 A 
ATOM      4  C2  UNL d   1       2.693   3.359  -4.399  0.00  0.00    -0.047 A 
ATOM      5  C3  UNL d   1       3.808   2.513  -4.611  0.00  0.00    -0.047 A 
ATOM      6  C4  UNL d   1       3.951   1.732  -3.483  0.00  0.00    -0.004 A 
ENDROOT
TORSDOF 0
ENDMDL
