MODEL 1
REMARK minimizedAffinity 4.1608305
REMARK minimizedRMSD -1
REMARK  0 active torsions:
REMARK  status: ('A' for Active; 'I' for Inactive)
ROOT
ATOM      1  C   UNL d   1      -2.426  -5.993   0.640  0.00  0.00     0.172 C 
ATOM      2  N   UNL d   1      -1.070  -5.995   1.136  0.00  0.00    -0.070 N 
ATOM      3  C1  UNL d   1       0.062  -5.995   0.365  0.00  0.00    -0.004 A 
ATOM      4  C2  UNL d   1       1.150  -5.998   1.211  0.00  0.00    -0.047 A 
ATOM      5  C3  UNL d   1       0.654  -6.000   2.537  0.00  0.00    -0.047 A 
ATOM      6  C4  UNL d   1      -0.723  -5.999   2.461  0.00  0.00    -0.004 A 
ENDROOT
TORSDOF 0
ENDMDL
