MODEL 1
REMARK minimizedAffinity 7.65437651
REMARK minimizedRMSD -1
REMARK  0 active torsions:
REMARK  status: ('A' for Active; 'I' for Inactive)
ROOT
ATOM      1  C   UNL d   1      -0.082  -5.998   4.176  0.00  0.00     0.172 C 
ATOM      2  N   UNL d   1       0.262  -5.999   2.773  0.00  0.00    -0.070 N 
ATOM      3  C1  UNL d   1       1.532  -5.998   2.262  0.00  0.00    -0.004 A 
ATOM      4  C2  UNL d   1       1.435  -6.000   0.888  0.00  0.00    -0.047 A 
ATOM      5  C3  UNL d   1       0.058  -6.000   0.561  0.00  0.00    -0.047 A 
ATOM      6  C4  UNL d   1      -0.646  -5.999   1.747  0.00  0.00    -0.004 A 
ENDROOT
TORSDOF 0
ENDMDL
