MODEL 1
REMARK minimizedAffinity -0.675528407
REMARK minimizedRMSD -1
REMARK  0 active torsions:
REMARK  status: ('A' for Active; 'I' for Inactive)
ROOT
ATOM      1  C   UNL d   1      -5.752   2.763   5.989  0.00  0.00     0.172 C 
ATOM      2  N   UNL d   1      -5.229   1.492   5.546  0.00  0.00    -0.070 N 
ATOM      3  C1  UNL d   1      -5.626   0.263   6.000  0.00  0.00    -0.004 A 
ATOM      4  C2  UNL d   1      -4.891  -0.692   5.332  0.00  0.00    -0.047 A 
ATOM      5  C3  UNL d   1      -4.021  -0.014   4.446  0.00  0.00    -0.047 A 
ATOM      6  C4  UNL d   1      -4.251   1.337   4.599  0.00  0.00    -0.004 A 
ENDROOT
TORSDOF 0
ENDMDL
