MODEL 1
REMARK minimizedAffinity -4.7732873
REMARK minimizedRMSD -1
REMARK  0 active torsions:
REMARK  status: ('A' for Active; 'I' for Inactive)
ROOT
ATOM      1  C   UNL d   1       0.340  -0.013  -0.572  0.00  0.00     0.078 C 
ATOM      2  C1  UNL d   1      -0.454  -0.032   0.700  0.00  0.00    -0.077 A 
ATOM      3  C2  UNL d   1      -1.835   0.199   0.691  0.00  0.00    -0.001 A 
ATOM      4  C3  UNL d   1      -2.559   0.188   1.884  0.00  0.00     0.003 A 
ATOM      5  C4  UNL d   1      -1.912  -0.052   3.094  0.00  0.00    -0.005 A 
ATOM      6  C5  UNL d   1      -0.537  -0.280   3.113  0.00  0.00     0.003 A 
ATOM      7  C6  UNL d   1       0.189  -0.270   1.921  0.00  0.00    -0.001 A 
ENDROOT
TORSDOF 0
ENDMDL
