MODEL 1
REMARK minimizedAffinity -2.57734084
REMARK minimizedRMSD -1
REMARK  0 active torsions:
REMARK  status: ('A' for Active; 'I' for Inactive)
ROOT
ATOM      1  C   UNL d   1       0.399  -0.072  -1.388  0.00  0.00     0.078 C 
ATOM      2  C1  UNL d   1       0.082   0.152   0.060  0.00  0.00    -0.077 A 
ATOM      3  C2  UNL d   1      -1.198   0.549   0.466  0.00  0.00    -0.001 A 
ATOM      4  C3  UNL d   1      -1.476   0.763   1.817  0.00  0.00     0.003 A 
ATOM      5  C4  UNL d   1      -0.479   0.585   2.773  0.00  0.00    -0.005 A 
ATOM      6  C5  UNL d   1       0.799   0.192   2.379  0.00  0.00     0.003 A 
ATOM      7  C6  UNL d   1       1.079  -0.022   1.029  0.00  0.00    -0.001 A 
ENDROOT
TORSDOF 0
ENDMDL
