MODEL 1
REMARK minimizedAffinity -3.73180342
REMARK minimizedRMSD -1
REMARK  0 active torsions:
REMARK  status: ('A' for Active; 'I' for Inactive)
ROOT
ATOM      1  C   UNL d   1       0.744   0.001  -1.672  0.00  0.00     0.078 C 
ATOM      2  C1  UNL d   1       0.306   0.223  -0.255  0.00  0.00    -0.077 A 
ATOM      3  C2  UNL d   1       1.162  -0.061   0.817  0.00  0.00    -0.001 A 
ATOM      4  C3  UNL d   1       0.737   0.141   2.131  0.00  0.00     0.003 A 
ATOM      5  C4  UNL d   1      -0.544   0.626   2.386  0.00  0.00    -0.005 A 
ATOM      6  C5  UNL d   1      -1.403   0.908   1.326  0.00  0.00     0.003 A 
ATOM      7  C6  UNL d   1      -0.981   0.707   0.011  0.00  0.00    -0.001 A 
ENDROOT
TORSDOF 0
ENDMDL
