MODEL 1
REMARK minimizedAffinity -3.0594821
REMARK minimizedRMSD -1
REMARK  0 active torsions:
REMARK  status: ('A' for Active; 'I' for Inactive)
ROOT
ATOM      1  C   UNL d   1       0.320   0.104  -1.421  0.00  0.00     0.078 C 
ATOM      2  C1  UNL d   1       0.195   0.249   0.067  0.00  0.00    -0.077 A 
ATOM      3  C2  UNL d   1       1.305   0.082   0.904  0.00  0.00    -0.001 A 
ATOM      4  C3  UNL d   1       1.172   0.210   2.287  0.00  0.00     0.003 A 
ATOM      5  C4  UNL d   1      -0.070   0.506   2.846  0.00  0.00    -0.005 A 
ATOM      6  C5  UNL d   1      -1.181   0.672   2.021  0.00  0.00     0.003 A 
ATOM      7  C6  UNL d   1      -1.049   0.544   0.638  0.00  0.00    -0.001 A 
ENDROOT
TORSDOF 0
ENDMDL
