MODEL 1
REMARK minimizedAffinity -1.59882939
REMARK minimizedRMSD -1
REMARK  0 active torsions:
REMARK  status: ('A' for Active; 'I' for Inactive)
ROOT
ATOM      1  C   UNL d   1       0.688  -0.786  -2.588  0.00  0.00     0.078 C 
ATOM      2  C1  UNL d   1       0.533  -0.376  -1.154  0.00  0.00    -0.077 A 
ATOM      3  C2  UNL d   1      -0.336   0.659  -0.789  0.00  0.00    -0.001 A 
ATOM      4  C3  UNL d   1      -0.462   1.036   0.549  0.00  0.00     0.003 A 
ATOM      5  C4  UNL d   1       0.279   0.385   1.532  0.00  0.00    -0.005 A 
ATOM      6  C5  UNL d   1       1.149  -0.645   1.179  0.00  0.00     0.003 A 
ATOM      7  C6  UNL d   1       1.276  -1.024  -0.159  0.00  0.00    -0.001 A 
ENDROOT
TORSDOF 0
ENDMDL
