MODEL 1
REMARK minimizedAffinity -3.58624196
REMARK minimizedRMSD -1
REMARK  0 active torsions:
REMARK  status: ('A' for Active; 'I' for Inactive)
ROOT
ATOM      1  C   UNL d   1       0.546   0.467  -0.191  0.00  0.00     0.078 C 
ATOM      2  C1  UNL d   1       0.773  -0.318  -1.449  0.00  0.00    -0.077 A 
ATOM      3  C2  UNL d   1       1.617   0.164  -2.457  0.00  0.00    -0.001 A 
ATOM      4  C3  UNL d   1       1.811  -0.573  -3.626  0.00  0.00     0.003 A 
ATOM      5  C4  UNL d   1       1.164  -1.795  -3.800  0.00  0.00    -0.005 A 
ATOM      6  C5  UNL d   1       0.320  -2.281  -2.803  0.00  0.00     0.003 A 
ATOM      7  C6  UNL d   1       0.125  -1.546  -1.632  0.00  0.00    -0.001 A 
ENDROOT
TORSDOF 0
ENDMDL
