MODEL 1
REMARK minimizedAffinity 3.82601619
REMARK minimizedRMSD -1
REMARK  0 active torsions:
REMARK  status: ('A' for Active; 'I' for Inactive)
ROOT
ATOM      1  C   UNL d   1       0.607  -2.395   1.692  0.00  0.00     0.078 C 
ATOM      2  C1  UNL d   1       0.895  -0.933   1.526  0.00  0.00    -0.077 A 
ATOM      3  C2  UNL d   1       1.312  -0.415   0.294  0.00  0.00    -0.001 A 
ATOM      4  C3  UNL d   1       1.587   0.947   0.157  0.00  0.00     0.003 A 
ATOM      5  C4  UNL d   1       1.448   1.802   1.249  0.00  0.00    -0.005 A 
ATOM      6  C5  UNL d   1       1.036   1.295   2.479  0.00  0.00     0.003 A 
ATOM      7  C6  UNL d   1       0.761  -0.066   2.618  0.00  0.00    -0.001 A 
ENDROOT
TORSDOF 0
ENDMDL
