MODEL 1
REMARK minimizedAffinity -2.40204644
REMARK minimizedRMSD -1
REMARK  0 active torsions:
REMARK  status: ('A' for Active; 'I' for Inactive)
ROOT
ATOM      1  C   UNL d   1       0.194   0.495  -0.235  0.00  0.00     0.078 C 
ATOM      2  C1  UNL d   1       0.169  -0.578  -1.282  0.00  0.00    -0.077 A 
ATOM      3  C2  UNL d   1       1.310  -0.878  -2.035  0.00  0.00    -0.001 A 
ATOM      4  C3  UNL d   1       1.269  -1.873  -3.014  0.00  0.00     0.003 A 
ATOM      5  C4  UNL d   1       0.088  -2.575  -3.248  0.00  0.00    -0.005 A 
ATOM      6  C5  UNL d   1      -1.053  -2.283  -2.504  0.00  0.00     0.003 A 
ATOM      7  C6  UNL d   1      -1.014  -1.288  -1.526  0.00  0.00    -0.001 A 
ENDROOT
TORSDOF 0
ENDMDL
