MODEL 1
REMARK minimizedAffinity -5.06529474
REMARK minimizedRMSD -1
REMARK  0 active torsions:
REMARK  status: ('A' for Active; 'I' for Inactive)
ROOT
ATOM      1  C   UNL d   1       1.239  -2.835  -2.698  0.00  0.00     0.078 C 
ATOM      2  C1  UNL d   1       0.557  -1.558  -2.308  0.00  0.00    -0.077 A 
ATOM      3  C2  UNL d   1       0.414  -0.508  -3.224  0.00  0.00    -0.001 A 
ATOM      4  C3  UNL d   1      -0.215   0.679  -2.845  0.00  0.00     0.003 A 
ATOM      5  C4  UNL d   1      -0.704   0.828  -1.549  0.00  0.00    -0.005 A 
ATOM      6  C5  UNL d   1      -0.564  -0.210  -0.630  0.00  0.00     0.003 A 
ATOM      7  C6  UNL d   1       0.064  -1.397  -1.007  0.00  0.00    -0.001 A 
ENDROOT
TORSDOF 0
ENDMDL
