MODEL 1
REMARK minimizedAffinity -2.17288494
REMARK minimizedRMSD -1
REMARK  0 active torsions:
REMARK  status: ('A' for Active; 'I' for Inactive)
ROOT
ATOM      1  C   UNL d   1       0.890  -0.019  -3.141  0.00  0.00     0.078 C 
ATOM      2  C1  UNL d   1       0.764   0.070  -1.649  0.00  0.00    -0.077 A 
ATOM      3  C2  UNL d   1       0.562   1.302  -1.015  0.00  0.00    -0.001 A 
ATOM      4  C3  UNL d   1       0.457   1.371   0.375  0.00  0.00     0.003 A 
ATOM      5  C4  UNL d   1       0.553   0.212   1.143  0.00  0.00    -0.005 A 
ATOM      6  C5  UNL d   1       0.756  -1.018   0.521  0.00  0.00     0.003 A 
ATOM      7  C6  UNL d   1       0.862  -1.089  -0.869  0.00  0.00    -0.001 A 
ENDROOT
TORSDOF 0
ENDMDL
