MODEL 1
REMARK minimizedAffinity -0.718344152
REMARK minimizedRMSD -1
REMARK  0 active torsions:
REMARK  status: ('A' for Active; 'I' for Inactive)
ROOT
ATOM      1  C   UNL d   1       0.297   0.587  -0.349  0.00  0.00     0.078 C 
ATOM      2  C1  UNL d   1       0.661  -0.237  -1.548  0.00  0.00    -0.077 A 
ATOM      3  C2  UNL d   1      -0.182  -1.256  -2.006  0.00  0.00    -0.001 A 
ATOM      4  C3  UNL d   1       0.174  -2.022  -3.117  0.00  0.00     0.003 A 
ATOM      5  C4  UNL d   1       1.376  -1.778  -3.778  0.00  0.00    -0.005 A 
ATOM      6  C5  UNL d   1       2.224  -0.768  -3.328  0.00  0.00     0.003 A 
ATOM      7  C6  UNL d   1       1.868  -0.001  -2.217  0.00  0.00    -0.001 A 
ENDROOT
TORSDOF 0
ENDMDL
