MODEL 1
REMARK minimizedAffinity -0.506424844
REMARK minimizedRMSD -1
REMARK  0 active torsions:
REMARK  status: ('A' for Active; 'I' for Inactive)
ROOT
ATOM      1  C   UNL d   1       0.274  -1.340  -2.478  0.00  0.00     0.078 C 
ATOM      2  C1  UNL d   1       0.404  -0.702  -1.127  0.00  0.00    -0.077 A 
ATOM      3  C2  UNL d   1      -0.190   0.536  -0.854  0.00  0.00    -0.001 A 
ATOM      4  C3  UNL d   1      -0.052   1.123   0.405  0.00  0.00     0.003 A 
ATOM      5  C4  UNL d   1       0.681   0.479   1.400  0.00  0.00    -0.005 A 
ATOM      6  C5  UNL d   1       1.278  -0.752   1.137  0.00  0.00     0.003 A 
ATOM      7  C6  UNL d   1       1.141  -1.340  -0.121  0.00  0.00    -0.001 A 
ENDROOT
TORSDOF 0
ENDMDL
