MODEL 1
REMARK minimizedAffinity -4.83546448
REMARK minimizedRMSD -1
REMARK  0 active torsions:
REMARK  status: ('A' for Active; 'I' for Inactive)
ROOT
ATOM      1  C   UNL d   1      -1.115   0.004   3.458  0.00  0.00     0.078 C 
ATOM      2  C1  UNL d   1      -1.029   0.292   1.989  0.00  0.00    -0.077 A 
ATOM      3  C2  UNL d   1      -2.185   0.470   1.219  0.00  0.00    -0.001 A 
ATOM      4  C3  UNL d   1      -2.090   0.728  -0.149  0.00  0.00     0.003 A 
ATOM      5  C4  UNL d   1      -0.841   0.810  -0.760  0.00  0.00    -0.005 A 
ATOM      6  C5  UNL d   1       0.315   0.632  -0.004  0.00  0.00     0.003 A 
ATOM      7  C6  UNL d   1       0.222   0.374   1.365  0.00  0.00    -0.001 A 
ENDROOT
TORSDOF 0
ENDMDL
