MODEL 1
REMARK minimizedAffinity -5.61489248
REMARK minimizedRMSD -1
REMARK  0 active torsions:
REMARK  status: ('A' for Active; 'I' for Inactive)
ROOT
ATOM      1  C   UNL d   1       0.866  -0.234  -0.020  0.00  0.00     0.078 C 
ATOM      2  C1  UNL d   1      -0.296  -0.252   0.927  0.00  0.00    -0.077 A 
ATOM      3  C2  UNL d   1      -1.612  -0.150   0.458  0.00  0.00    -0.001 A 
ATOM      4  C3  UNL d   1      -2.683  -0.157   1.352  0.00  0.00     0.003 A 
ATOM      5  C4  UNL d   1      -2.451  -0.266   2.721  0.00  0.00    -0.005 A 
ATOM      6  C5  UNL d   1      -1.146  -0.366   3.199  0.00  0.00     0.003 A 
ATOM      7  C6  UNL d   1      -0.073  -0.358   2.306  0.00  0.00    -0.001 A 
ENDROOT
TORSDOF 0
ENDMDL
