MODEL 1
REMARK minimizedAffinity -3.91439414
REMARK minimizedRMSD -1
REMARK  0 active torsions:
REMARK  status: ('A' for Active; 'I' for Inactive)
ROOT
ATOM      1  C   UNL d   1      -1.979   0.469   0.816  0.00  0.00     0.078 C 
ATOM      2  C1  UNL d   1      -0.564  -0.023   0.750  0.00  0.00    -0.077 A 
ATOM      3  C2  UNL d   1       0.514   0.858   0.904  0.00  0.00    -0.001 A 
ATOM      4  C3  UNL d   1       1.826   0.387   0.830  0.00  0.00     0.003 A 
ATOM      5  C4  UNL d   1       2.072  -0.965   0.600  0.00  0.00    -0.005 A 
ATOM      6  C5  UNL d   1       1.006  -1.848   0.443  0.00  0.00     0.003 A 
ATOM      7  C6  UNL d   1      -0.306  -1.380   0.517  0.00  0.00    -0.001 A 
ENDROOT
TORSDOF 0
ENDMDL
