MODEL 1
REMARK minimizedAffinity 23.4192066
REMARK minimizedRMSD -1
REMARK  0 active torsions:
REMARK  status: ('A' for Active; 'I' for Inactive)
ROOT
ATOM      1  C   UNL d   1      -1.541  -3.276  -0.194  0.00  0.00     0.124 A 
ATOM      2  C1  UNL d   1      -0.387  -3.065  -0.936  0.00  0.00     0.062 A 
ATOM      3  C2  UNL d   1       0.745  -3.841  -0.705  0.00  0.00     0.162 A 
ATOM      4  C3  UNL d   1       0.729  -4.836   0.272  0.00  0.00    -0.034 A 
ATOM      5  C4  UNL d   1      -0.434  -5.041   1.015  0.00  0.00     0.162 A 
ATOM      6  C5  UNL d   1      -1.563  -4.264   0.781  0.00  0.00     0.062 A 
ATOM      7  F   UNL d   1      -2.677  -4.469   1.499  0.00  0.00    -0.097 F 
ATOM      8  F1  UNL d   1      -0.484  -5.990   1.963  0.00  0.00    -0.096 F 
ATOM      9  I   UNL d   1       2.421  -5.998   0.620  0.00  0.00    -0.060 I 
ATOM     10  F2  UNL d   1       1.846  -3.615  -1.438  0.00  0.00    -0.096 F 
ATOM     11  F3  UNL d   1      -0.363  -2.111  -1.878  0.00  0.00    -0.097 F 
ATOM     12  F4  UNL d   1      -2.629  -2.528  -0.417  0.00  0.00    -0.092 F 
ENDROOT
TORSDOF 0
ENDMDL
