MODEL 1
REMARK minimizedAffinity 22.6163082
REMARK minimizedRMSD -1
REMARK  0 active torsions:
REMARK  status: ('A' for Active; 'I' for Inactive)
ROOT
ATOM      1  C   UNL d   1       1.176  -1.836   3.746  0.00  0.00     0.124 A 
ATOM      2  C1  UNL d   1       1.920  -1.558   2.608  0.00  0.00     0.062 A 
ATOM      3  C2  UNL d   1       3.298  -1.759   2.605  0.00  0.00     0.162 A 
ATOM      4  C3  UNL d   1       3.940  -2.241   3.745  0.00  0.00    -0.034 A 
ATOM      5  C4  UNL d   1       3.185  -2.518   4.887  0.00  0.00     0.162 A 
ATOM      6  C5  UNL d   1       1.809  -2.315   4.884  0.00  0.00     0.062 A 
ATOM      7  F   UNL d   1       1.092  -2.585   5.984  0.00  0.00    -0.097 F 
ATOM      8  F1  UNL d   1       3.771  -2.983   6.000  0.00  0.00    -0.096 F 
ATOM      9  I   UNL d   1       5.999  -2.543   3.746  0.00  0.00    -0.060 I 
ATOM     10  F2  UNL d   1       3.992  -1.481   1.492  0.00  0.00    -0.096 F 
ATOM     11  F3  UNL d   1       1.311  -1.093   1.507  0.00  0.00    -0.097 F 
ATOM     12  F4  UNL d   1      -0.149  -1.641   3.745  0.00  0.00    -0.092 F 
ENDROOT
TORSDOF 0
ENDMDL
