MODEL 1
REMARK minimizedAffinity 15.0152769
REMARK minimizedRMSD -1
REMARK  0 active torsions:
REMARK  status: ('A' for Active; 'I' for Inactive)
ROOT
ATOM      1  C   UNL d   1      -4.255   0.030  -1.604  0.00  0.00     0.124 A 
ATOM      2  C1  UNL d   1      -3.015   0.077  -2.225  0.00  0.00     0.062 A 
ATOM      3  C2  UNL d   1      -1.980  -0.742  -1.784  0.00  0.00     0.162 A 
ATOM      4  C3  UNL d   1      -2.180  -1.616  -0.716  0.00  0.00    -0.034 A 
ATOM      5  C4  UNL d   1      -3.430  -1.657  -0.095  0.00  0.00     0.162 A 
ATOM      6  C5  UNL d   1      -4.461  -0.836  -0.539  0.00  0.00     0.062 A 
ATOM      7  F   UNL d   1      -5.659  -0.882   0.062  0.00  0.00    -0.097 F 
ATOM      8  F1  UNL d   1      -3.657  -2.485   0.935  0.00  0.00    -0.096 F 
ATOM      9  I   UNL d   1      -0.635  -2.842  -0.053  0.00  0.00    -0.060 I 
ATOM     10  F2  UNL d   1      -0.792  -0.676  -2.404  0.00  0.00    -0.096 F 
ATOM     11  F3  UNL d   1      -2.813   0.914  -3.253  0.00  0.00    -0.097 F 
ATOM     12  F4  UNL d   1      -5.249   0.820  -2.030  0.00  0.00    -0.092 F 
ENDROOT
TORSDOF 0
ENDMDL
