MODEL 1
REMARK minimizedAffinity 14.149147
REMARK minimizedRMSD -1
REMARK  0 active torsions:
REMARK  status: ('A' for Active; 'I' for Inactive)
ROOT
ATOM      1  C   UNL d   1       2.334  -2.508   4.839  0.00  0.00     0.124 A 
ATOM      2  C1  UNL d   1       3.025  -2.529   3.635  0.00  0.00     0.062 A 
ATOM      3  C2  UNL d   1       2.333  -2.466   2.429  0.00  0.00     0.162 A 
ATOM      4  C3  UNL d   1       0.941  -2.380   2.421  0.00  0.00    -0.034 A 
ATOM      5  C4  UNL d   1       0.253  -2.360   3.635  0.00  0.00     0.162 A 
ATOM      6  C5  UNL d   1       0.949  -2.424   4.838  0.00  0.00     0.062 A 
ATOM      7  F   UNL d   1       0.280  -2.403   5.999  0.00  0.00    -0.097 F 
ATOM      8  F1  UNL d   1      -1.086  -2.278   3.663  0.00  0.00    -0.096 F 
ATOM      9  I   UNL d   1      -0.098  -2.285   0.620  0.00  0.00    -0.060 I 
ATOM     10  F2  UNL d   1       3.027  -2.488   1.281  0.00  0.00    -0.096 F 
ATOM     11  F3  UNL d   1       4.364  -2.611   3.633  0.00  0.00    -0.097 F 
ATOM     12  F4  UNL d   1       3.003  -2.570   5.997  0.00  0.00    -0.092 F 
ENDROOT
TORSDOF 0
ENDMDL
