MODEL 1
REMARK minimizedAffinity 20.1723518
REMARK minimizedRMSD -1
REMARK  0 active torsions:
REMARK  status: ('A' for Active; 'I' for Inactive)
ROOT
ATOM      1  C   UNL d   1      -1.146  -2.702  -0.358  0.00  0.00     0.124 A 
ATOM      2  C1  UNL d   1      -1.924  -3.561   0.405  0.00  0.00     0.062 A 
ATOM      3  C2  UNL d   1      -3.309  -3.428   0.416  0.00  0.00     0.162 A 
ATOM      4  C3  UNL d   1      -3.926  -2.432  -0.340  0.00  0.00    -0.034 A 
ATOM      5  C4  UNL d   1      -3.137  -1.571  -1.105  0.00  0.00     0.162 A 
ATOM      6  C5  UNL d   1      -1.753  -1.708  -1.113  0.00  0.00     0.062 A 
ATOM      7  F   UNL d   1      -1.003  -0.877  -1.851  0.00  0.00    -0.097 F 
ATOM      8  F1  UNL d   1      -3.698  -0.602  -1.844  0.00  0.00    -0.096 F 
ATOM      9  I   UNL d   1      -5.998  -2.229  -0.327  0.00  0.00    -0.060 I 
ATOM     10  F2  UNL d   1      -4.036  -4.272   1.163  0.00  0.00    -0.096 F 
ATOM     11  F3  UNL d   1      -1.340  -4.522   1.135  0.00  0.00    -0.097 F 
ATOM     12  F4  UNL d   1       0.187  -2.832  -0.366  0.00  0.00    -0.092 F 
ENDROOT
TORSDOF 0
ENDMDL
