MODEL 1
REMARK minimizedAffinity 20.66119
REMARK minimizedRMSD -1
REMARK  0 active torsions:
REMARK  status: ('A' for Active; 'I' for Inactive)
ROOT
ATOM      1  C   UNL d   1      -1.210  -4.863   0.320  0.00  0.00     0.124 A 
ATOM      2  C1  UNL d   1       0.178  -4.869   0.278  0.00  0.00     0.062 A 
ATOM      3  C2  UNL d   1       0.874  -3.707  -0.041  0.00  0.00     0.162 A 
ATOM      4  C3  UNL d   1       0.184  -2.527  -0.320  0.00  0.00    -0.034 A 
ATOM      5  C4  UNL d   1      -1.211  -2.529  -0.276  0.00  0.00     0.162 A 
ATOM      6  C5  UNL d   1      -1.903  -3.693   0.043  0.00  0.00     0.062 A 
ATOM      7  F   UNL d   1      -3.243  -3.684   0.083  0.00  0.00    -0.097 F 
ATOM      8  F1  UNL d   1      -1.906  -1.412  -0.538  0.00  0.00    -0.096 F 
ATOM      9  I   UNL d   1       1.221  -0.787  -0.797  0.00  0.00    -0.060 I 
ATOM     10  F2  UNL d   1       2.214  -3.743  -0.075  0.00  0.00    -0.096 F 
ATOM     11  F3  UNL d   1       0.850  -5.999   0.544  0.00  0.00    -0.097 F 
ATOM     12  F4  UNL d   1      -1.877  -5.983   0.626  0.00  0.00    -0.092 F 
ENDROOT
TORSDOF 0
ENDMDL
