MODEL 1
REMARK minimizedAffinity 13.6491022
REMARK minimizedRMSD -1
REMARK  0 active torsions:
REMARK  status: ('A' for Active; 'I' for Inactive)
ROOT
ATOM      1  C   UNL d   1      -4.338  -0.384  -1.863  0.00  0.00     0.124 A 
ATOM      2  C1  UNL d   1      -4.714  -1.582  -1.273  0.00  0.00     0.062 A 
ATOM      3  C2  UNL d   1      -3.764  -2.382  -0.645  0.00  0.00     0.162 A 
ATOM      4  C3  UNL d   1      -2.427  -1.986  -0.604  0.00  0.00    -0.034 A 
ATOM      5  C4  UNL d   1      -2.056  -0.780  -1.201  0.00  0.00     0.162 A 
ATOM      6  C5  UNL d   1      -3.009   0.016  -1.827  0.00  0.00     0.062 A 
ATOM      7  F   UNL d   1      -2.644   1.173  -2.397  0.00  0.00    -0.097 F 
ATOM      8  F1  UNL d   1      -0.779  -0.369  -1.179  0.00  0.00    -0.096 F 
ATOM      9  I   UNL d   1      -1.003  -3.180   0.333  0.00  0.00    -0.060 I 
ATOM     10  F2  UNL d   1      -4.156  -3.535  -0.083  0.00  0.00    -0.096 F 
ATOM     11  F3  UNL d   1      -5.997  -1.971  -1.308  0.00  0.00    -0.097 F 
ATOM     12  F4  UNL d   1      -5.254   0.384  -2.467  0.00  0.00    -0.092 F 
ENDROOT
TORSDOF 0
ENDMDL
