MODEL 1
REMARK minimizedAffinity 14.4722462
REMARK minimizedRMSD -1
REMARK  0 active torsions:
REMARK  status: ('A' for Active; 'I' for Inactive)
ROOT
ATOM      1  C   UNL d   1      -1.712   3.245  -1.380  0.00  0.00     0.124 A 
ATOM      2  C1  UNL d   1      -0.332   3.322  -1.246  0.00  0.00     0.062 A 
ATOM      3  C2  UNL d   1       0.302   2.710  -0.168  0.00  0.00     0.162 A 
ATOM      4  C3  UNL d   1      -0.443   2.014   0.784  0.00  0.00    -0.034 A 
ATOM      5  C4  UNL d   1      -1.830   1.941   0.642  0.00  0.00     0.162 A 
ATOM      6  C5  UNL d   1      -2.459   2.555  -0.436  0.00  0.00     0.062 A 
ATOM      7  F   UNL d   1      -3.792   2.479  -0.564  0.00  0.00    -0.097 F 
ATOM      8  F1  UNL d   1      -2.577   1.280   1.539  0.00  0.00    -0.096 F 
ATOM      9  I   UNL d   1       0.501   1.097   2.396  0.00  0.00    -0.060 I 
ATOM     10  F2  UNL d   1       1.636   2.801  -0.064  0.00  0.00    -0.096 F 
ATOM     11  F3  UNL d   1       0.392   3.989  -2.156  0.00  0.00    -0.097 F 
ATOM     12  F4  UNL d   1      -2.319   3.836  -2.417  0.00  0.00    -0.092 F 
ENDROOT
TORSDOF 0
ENDMDL
