MODEL 1
REMARK minimizedAffinity -1.66661751
REMARK minimizedRMSD -1
REMARK  0 active torsions:
REMARK  status: ('A' for Active; 'I' for Inactive)
ROOT
ATOM      1  N1  IND d   1       0.470  -0.250  -2.073  0.00  0.00    -0.196 N 
ATOM      2  C2  IND d   1       0.898   0.071  -0.815  0.00  0.00     0.054 A 
ATOM      3  C3  IND d   1       1.059  -1.048  -0.073  0.00  0.00    -0.031 A 
ATOM      4  C4  IND d   1       0.777  -3.515  -0.752  0.00  0.00     0.051 A 
ATOM      5  C5  IND d   1       0.365  -4.307  -1.786  0.00  0.00    -0.031 A 
ATOM      6  C6  IND d   1      -0.039  -3.777  -2.995  0.00  0.00     0.015 A 
ATOM      7  C7  IND d   1      -0.035  -2.429  -3.218  0.00  0.00    -0.016 A 
ATOM      8  C8  IND d   1       0.376  -1.621  -2.167  0.00  0.00    -0.047 A 
ATOM      9  C9  IND d   1       0.747  -2.152  -0.925  0.00  0.00    -0.096 A 
ATOM     10  HN1 IND d   1       0.289   0.310  -2.700  0.00  0.00     0.298 HD
ENDROOT
TORSDOF 0
ENDMDL
