MODEL 1
REMARK minimizedAffinity -2.70866919
REMARK minimizedRMSD -1
REMARK  0 active torsions:
REMARK  status: ('A' for Active; 'I' for Inactive)
ROOT
ATOM      1  N1  IND d   1       0.574   2.971  -0.801  0.00  0.00    -0.196 N 
ATOM      2  C2  IND d   1      -0.009   3.951  -0.047  0.00  0.00     0.054 A 
ATOM      3  C3  IND d   1      -0.646   3.410   1.016  0.00  0.00    -0.031 A 
ATOM      4  C4  IND d   1      -0.775   0.951   1.767  0.00  0.00     0.051 A 
ATOM      5  C5  IND d   1      -0.429  -0.313   1.380  0.00  0.00    -0.031 A 
ATOM      6  C6  IND d   1       0.286  -0.552   0.224  0.00  0.00     0.015 A 
ATOM      7  C7  IND d   1       0.693   0.471  -0.586  0.00  0.00    -0.016 A 
ATOM      8  C8  IND d   1       0.337   1.755  -0.199  0.00  0.00    -0.047 A 
ATOM      9  C9  IND d   1      -0.424   2.000   0.951  0.00  0.00    -0.096 A 
ATOM     10  HN1 IND d   1       1.015   3.094  -1.530  0.00  0.00     0.298 HD
ENDROOT
TORSDOF 0
ENDMDL
