MODEL 1
REMARK minimizedAffinity -1.51669323
REMARK minimizedRMSD -1
REMARK  0 active torsions:
REMARK  status: ('A' for Active; 'I' for Inactive)
ROOT
ATOM      1  N1  IND d   1      -0.026   0.288  -0.413  0.00  0.00    -0.196 N 
ATOM      2  C2  IND d   1      -0.478  -0.426   0.661  0.00  0.00     0.054 A 
ATOM      3  C3  IND d   1      -0.965   0.407   1.608  0.00  0.00    -0.031 A 
ATOM      4  C4  IND d   1      -1.213   2.969   1.562  0.00  0.00     0.051 A 
ATOM      5  C5  IND d   1      -0.908   4.067   0.808  0.00  0.00    -0.031 A 
ATOM      6  C6  IND d   1      -0.283   3.959  -0.418  0.00  0.00     0.015 A 
ATOM      7  C7  IND d   1       0.051   2.743  -0.943  0.00  0.00    -0.016 A 
ATOM      8  C8  IND d   1      -0.251   1.626  -0.176  0.00  0.00    -0.047 A 
ATOM      9  C9  IND d   1      -0.846   1.732   1.087  0.00  0.00    -0.096 A 
ATOM     10  HN1 IND d   1       0.337  -0.044  -1.119  0.00  0.00     0.298 HD
ENDROOT
TORSDOF 0
ENDMDL
