MODEL 1
REMARK minimizedAffinity -1.91046393
REMARK minimizedRMSD -1
REMARK  0 active torsions:
REMARK  status: ('A' for Active; 'I' for Inactive)
ROOT
ATOM      1  N1  IND d   1       1.959   0.075  -0.414  0.00  0.00    -0.196 N 
ATOM      2  C2  IND d   1       1.827   1.182  -1.205  0.00  0.00     0.054 A 
ATOM      3  C3  IND d   1       0.812   1.958  -0.763  0.00  0.00    -0.031 A 
ATOM      4  C4  IND d   1      -0.699   1.656   1.300  0.00  0.00     0.051 A 
ATOM      5  C5  IND d   1      -0.981   0.778   2.309  0.00  0.00    -0.031 A 
ATOM      6  C6  IND d   1      -0.282  -0.401   2.467  0.00  0.00     0.015 A 
ATOM      7  C7  IND d   1       0.738  -0.743   1.624  0.00  0.00    -0.016 A 
ATOM      8  C8  IND d   1       1.023   0.143   0.594  0.00  0.00    -0.047 A 
ATOM      9  C9  IND d   1       0.289   1.320   0.404  0.00  0.00    -0.096 A 
ATOM     10  HN1 IND d   1       2.531  -0.557  -0.527  0.00  0.00     0.298 HD
ENDROOT
TORSDOF 0
ENDMDL
