MODEL 1
REMARK minimizedAffinity -1.10091043
REMARK minimizedRMSD -1
REMARK  0 active torsions:
REMARK  status: ('A' for Active; 'I' for Inactive)
ROOT
ATOM      1  N1  IND d   1       0.522   2.664  -0.908  0.00  0.00    -0.196 N 
ATOM      2  C2  IND d   1       0.363   3.857  -0.260  0.00  0.00     0.054 A 
ATOM      3  C3  IND d   1      -0.222   3.664   0.944  0.00  0.00    -0.031 A 
ATOM      4  C4  IND d   1      -0.910   1.465   2.094  0.00  0.00     0.051 A 
ATOM      5  C5  IND d   1      -0.996   0.119   1.879  0.00  0.00    -0.031 A 
ATOM      6  C6  IND d   1      -0.570  -0.461   0.701  0.00  0.00     0.015 A 
ATOM      7  C7  IND d   1      -0.029   0.288  -0.306  0.00  0.00    -0.016 A 
ATOM      8  C8  IND d   1       0.054   1.656  -0.094  0.00  0.00    -0.047 A 
ATOM      9  C9  IND d   1      -0.416   2.255   1.083  0.00  0.00    -0.096 A 
ATOM     10  HN1 IND d   1       0.857   2.561  -1.693  0.00  0.00     0.298 HD
ENDROOT
TORSDOF 0
ENDMDL
