MODEL 1
REMARK minimizedAffinity -3.70026183
REMARK minimizedRMSD -1
REMARK  0 active torsions:
REMARK  status: ('A' for Active; 'I' for Inactive)
ROOT
ATOM      1  N1  IND d   1       1.393   0.538  -1.030  0.00  0.00    -0.196 N 
ATOM      2  C2  IND d   1       1.475  -0.826  -1.054  0.00  0.00     0.054 A 
ATOM      3  C3  IND d   1       0.755  -1.358  -0.041  0.00  0.00    -0.031 A 
ATOM      4  C4  IND d   1      -0.717  -0.182   1.714  0.00  0.00     0.051 A 
ATOM      5  C5  IND d   1      -1.077   1.058   2.161  0.00  0.00    -0.031 A 
ATOM      6  C6  IND d   1      -0.624   2.212   1.554  0.00  0.00     0.015 A 
ATOM      7  C7  IND d   1       0.199   2.168   0.465  0.00  0.00    -0.016 A 
ATOM      8  C8  IND d   1       0.572   0.910   0.012  0.00  0.00    -0.047 A 
ATOM      9  C9  IND d   1       0.150  -0.264   0.650  0.00  0.00    -0.096 A 
ATOM     10  HN1 IND d   1       1.789   1.074  -1.574  0.00  0.00     0.298 HD
ENDROOT
TORSDOF 0
ENDMDL
