MODEL 1
REMARK minimizedAffinity -1.33297372
REMARK minimizedRMSD -1
REMARK  0 active torsions:
REMARK  status: ('A' for Active; 'I' for Inactive)
ROOT
ATOM      1  N1  IND d   1       1.295  -0.010  -1.011  0.00  0.00    -0.196 N 
ATOM      2  C2  IND d   1       1.634  -1.334  -1.006  0.00  0.00     0.054 A 
ATOM      3  C3  IND d   1       1.002  -1.978   0.002  0.00  0.00    -0.031 A 
ATOM      4  C4  IND d   1      -0.711  -1.076   1.698  0.00  0.00     0.051 A 
ATOM      5  C5  IND d   1      -1.311   0.080   2.112  0.00  0.00    -0.031 A 
ATOM      6  C6  IND d   1      -1.070   1.289   1.492  0.00  0.00     0.015 A 
ATOM      7  C7  IND d   1      -0.225   1.385   0.423  0.00  0.00    -0.016 A 
ATOM      8  C8  IND d   1       0.391   0.215   0.004  0.00  0.00    -0.047 A 
ATOM      9  C9  IND d   1       0.183  -1.008   0.656  0.00  0.00    -0.096 A 
ATOM     10  HN1 IND d   1       1.595   0.582  -1.557  0.00  0.00     0.298 HD
ENDROOT
TORSDOF 0
ENDMDL
