MODEL 1
REMARK minimizedAffinity -2.28061295
REMARK minimizedRMSD -1
REMARK  0 active torsions:
REMARK  status: ('A' for Active; 'I' for Inactive)
ROOT
ATOM      1  N1  IND d   1       1.038   0.193  -1.107  0.00  0.00    -0.196 N 
ATOM      2  C2  IND d   1       1.084  -1.173  -1.145  0.00  0.00     0.054 A 
ATOM      3  C3  IND d   1       0.339  -1.697  -0.146  0.00  0.00    -0.031 A 
ATOM      4  C4  IND d   1      -1.124  -0.501   1.603  0.00  0.00     0.051 A 
ATOM      5  C5  IND d   1      -1.456   0.743   2.060  0.00  0.00    -0.031 A 
ATOM      6  C6  IND d   1      -0.967   1.891   1.471  0.00  0.00     0.015 A 
ATOM      7  C7  IND d   1      -0.131   1.837   0.391  0.00  0.00    -0.016 A 
ATOM      8  C8  IND d   1       0.214   0.575  -0.071  0.00  0.00    -0.047 A 
ATOM      9  C9  IND d   1      -0.246  -0.594   0.549  0.00  0.00    -0.096 A 
ATOM     10  HN1 IND d   1       1.454   0.724  -1.640  0.00  0.00     0.298 HD
ENDROOT
TORSDOF 0
ENDMDL
