MODEL 1
REMARK minimizedAffinity -1.0649153
REMARK minimizedRMSD -1
REMARK  0 active torsions:
REMARK  status: ('A' for Active; 'I' for Inactive)
ROOT
ATOM      1  N1  IND d   1      -0.390   0.105  -1.321  0.00  0.00    -0.196 N 
ATOM      2  C2  IND d   1      -0.083   0.169   0.010  0.00  0.00     0.054 A 
ATOM      3  C3  IND d   1       0.551  -0.959   0.401  0.00  0.00    -0.031 A 
ATOM      4  C4  IND d   1       1.277  -2.995  -0.997  0.00  0.00     0.051 A 
ATOM      5  C5  IND d   1       1.186  -3.528  -2.252  0.00  0.00    -0.031 A 
ATOM      6  C6  IND d   1       0.555  -2.862  -3.283  0.00  0.00     0.015 A 
ATOM      7  C7  IND d   1      -0.002  -1.628  -3.098  0.00  0.00    -0.016 A 
ATOM      8  C8  IND d   1       0.082  -1.087  -1.823  0.00  0.00    -0.047 A 
ATOM      9  C9  IND d   1       0.685  -1.777  -0.763  0.00  0.00    -0.096 A 
ATOM     10  HN1 IND d   1      -0.808   0.709  -1.768  0.00  0.00     0.298 HD
ENDROOT
TORSDOF 0
ENDMDL
