MODEL 1
REMARK minimizedAffinity -1.43987668
REMARK minimizedRMSD -1
REMARK  0 active torsions:
REMARK  status: ('A' for Active; 'I' for Inactive)
ROOT
ATOM      1  N1  IND d   1       0.023  -0.216  -2.103  0.00  0.00    -0.196 N 
ATOM      2  C2  IND d   1       0.514   0.272  -0.924  0.00  0.00     0.054 A 
ATOM      3  C3  IND d   1       1.103  -0.716  -0.214  0.00  0.00    -0.031 A 
ATOM      4  C4  IND d   1       1.464  -3.187  -0.840  0.00  0.00     0.051 A 
ATOM      5  C5  IND d   1       1.159  -4.111  -1.800  0.00  0.00    -0.031 A 
ATOM      6  C6  IND d   1       0.447  -3.776  -2.934  0.00  0.00     0.015 A 
ATOM      7  C7  IND d   1       0.022  -2.497  -3.157  0.00  0.00    -0.016 A 
ATOM      8  C8  IND d   1       0.325  -1.558  -2.181  0.00  0.00    -0.047 A 
ATOM      9  C9  IND d   1       1.010  -1.900  -1.008  0.00  0.00    -0.096 A 
ATOM     10  HN1 IND d   1      -0.403   0.239  -2.695  0.00  0.00     0.298 HD
ENDROOT
TORSDOF 0
ENDMDL
