MODEL 1
REMARK minimizedAffinity -0.54212451
REMARK minimizedRMSD -1
REMARK  0 active torsions:
REMARK  status: ('A' for Active; 'I' for Inactive)
ROOT
ATOM      1  N1  IND d   1       0.813  -0.398  -1.510  0.00  0.00    -0.196 N 
ATOM      2  C2  IND d   1       1.463  -0.495  -0.311  0.00  0.00     0.054 A 
ATOM      3  C3  IND d   1       1.542  -1.787   0.078  0.00  0.00    -0.031 A 
ATOM      4  C4  IND d   1       0.765  -3.914  -1.147  0.00  0.00     0.051 A 
ATOM      5  C5  IND d   1       0.086  -4.330  -2.258  0.00  0.00    -0.031 A 
ATOM      6  C6  IND d   1      -0.393  -3.439  -3.196  0.00  0.00     0.015 A 
ATOM      7  C7  IND d   1      -0.199  -2.093  -3.064  0.00  0.00    -0.016 A 
ATOM      8  C8  IND d   1       0.484  -1.667  -1.934  0.00  0.00    -0.047 A 
ATOM      9  C9  IND d   1       0.935  -2.563  -0.957  0.00  0.00    -0.096 A 
ATOM     10  HN1 IND d   1       0.640   0.333  -1.929  0.00  0.00     0.298 HD
ENDROOT
TORSDOF 0
ENDMDL
