MODEL 1
REMARK minimizedAffinity -2.30253911
REMARK minimizedRMSD -1
REMARK  0 active torsions:
REMARK  status: ('A' for Active; 'I' for Inactive)
ROOT
ATOM      1  N1  IND d   1       0.399   2.840  -1.121  0.00  0.00    -0.196 N 
ATOM      2  C2  IND d   1      -0.012   4.007  -0.540  0.00  0.00     0.054 A 
ATOM      3  C3  IND d   1      -0.603   3.758   0.650  0.00  0.00    -0.031 A 
ATOM      4  C4  IND d   1      -0.910   1.522   1.887  0.00  0.00     0.051 A 
ATOM      5  C5  IND d   1      -0.730   0.175   1.740  0.00  0.00    -0.031 A 
ATOM      6  C6  IND d   1      -0.149  -0.363   0.609  0.00  0.00     0.015 A 
ATOM      7  C7  IND d   1       0.284   0.430  -0.415  0.00  0.00    -0.016 A 
ATOM      8  C8  IND d   1       0.096   1.798  -0.272  0.00  0.00    -0.047 A 
ATOM      9  C9  IND d   1      -0.531   2.346   0.855  0.00  0.00    -0.096 A 
ATOM     10  HN1 IND d   1       0.783   2.768  -1.887  0.00  0.00     0.298 HD
ENDROOT
TORSDOF 0
ENDMDL
