MODEL 1
REMARK minimizedAffinity -1.22210324
REMARK minimizedRMSD -1
REMARK  0 active torsions:
REMARK  status: ('A' for Active; 'I' for Inactive)
ROOT
ATOM      1  N1  IND d   1       0.770  -1.542  -0.046  0.00  0.00    -0.196 N 
ATOM      2  C2  IND d   1       1.180  -0.296  -0.434  0.00  0.00     0.054 A 
ATOM      3  C3  IND d   1       1.338  -0.250  -1.776  0.00  0.00    -0.031 A 
ATOM      4  C4  IND d   1       0.883  -2.069  -3.540  0.00  0.00     0.051 A 
ATOM      5  C5  IND d   1       0.531  -3.383  -3.666  0.00  0.00    -0.031 A 
ATOM      6  C6  IND d   1       0.232  -4.166  -2.569  0.00  0.00     0.015 A 
ATOM      7  C7  IND d   1       0.264  -3.658  -1.302  0.00  0.00    -0.016 A 
ATOM      8  C8  IND d   1       0.627  -2.326  -1.169  0.00  0.00    -0.047 A 
ATOM      9  C9  IND d   1       0.972  -1.538  -2.275  0.00  0.00    -0.096 A 
ATOM     10  HN1 IND d   1       0.627  -1.793   0.764  0.00  0.00     0.298 HD
ENDROOT
TORSDOF 0
ENDMDL
