MODEL 1
REMARK minimizedAffinity -1.41093886
REMARK minimizedRMSD -1
REMARK  0 active torsions:
REMARK  status: ('A' for Active; 'I' for Inactive)
ROOT
ATOM      1  N1  IND d   1       0.576  -0.013  -0.618  0.00  0.00    -0.196 N 
ATOM      2  C2  IND d   1       0.426  -1.133   0.150  0.00  0.00     0.054 A 
ATOM      3  C3  IND d   1      -0.097  -0.812   1.355  0.00  0.00    -0.031 A 
ATOM      4  C4  IND d   1      -0.878   1.476   2.240  0.00  0.00     0.051 A 
ATOM      5  C5  IND d   1      -0.909   2.803   1.916  0.00  0.00    -0.031 A 
ATOM      6  C6  IND d   1      -0.440   3.269   0.704  0.00  0.00     0.015 A 
ATOM      7  C7  IND d   1       0.070   2.419  -0.236  0.00  0.00    -0.016 A 
ATOM      8  C8  IND d   1       0.110   1.072   0.093  0.00  0.00    -0.047 A 
ATOM      9  C9  IND d   1      -0.326   0.598   1.337  0.00  0.00    -0.096 A 
ATOM     10  HN1 IND d   1       0.906   0.011  -1.411  0.00  0.00     0.298 HD
ENDROOT
TORSDOF 0
ENDMDL
