MODEL 1
REMARK minimizedAffinity -3.19969583
REMARK minimizedRMSD -1
REMARK  0 active torsions:
REMARK  status: ('A' for Active; 'I' for Inactive)
ROOT
ATOM      1  N1  IND d   1      -0.907  -0.358  -1.071  0.00  0.00    -0.196 N 
ATOM      2  C2  IND d   1      -0.176   0.149  -0.033  0.00  0.00     0.054 A 
ATOM      3  C3  IND d   1       0.921  -0.611   0.185  0.00  0.00    -0.031 A 
ATOM      4  C4  IND d   1       1.766  -2.672  -1.106  0.00  0.00     0.051 A 
ATOM      5  C5  IND d   1       1.418  -3.531  -2.109  0.00  0.00    -0.031 A 
ATOM      6  C6  IND d   1       0.255  -3.372  -2.835  0.00  0.00     0.015 A 
ATOM      7  C7  IND d   1      -0.602  -2.337  -2.590  0.00  0.00    -0.016 A 
ATOM      8  C8  IND d   1      -0.255  -1.466  -1.566  0.00  0.00    -0.047 A 
ATOM      9  C9  IND d   1       0.903  -1.647  -0.799  0.00  0.00    -0.096 A 
ATOM     10  HN1 IND d   1      -1.650  -0.039  -1.364  0.00  0.00     0.298 HD
ENDROOT
TORSDOF 0
ENDMDL
