MODEL 1
REMARK minimizedAffinity -3.74098969
REMARK minimizedRMSD -1
REMARK  0 active torsions:
REMARK  status: ('A' for Active; 'I' for Inactive)
ROOT
ATOM      1  N1  IND d   1       0.665  -0.077  -0.746  0.00  0.00    -0.196 N 
ATOM      2  C2  IND d   1       0.309  -0.979   0.217  0.00  0.00     0.054 A 
ATOM      3  C3  IND d   1      -0.402  -0.370   1.192  0.00  0.00    -0.031 A 
ATOM      4  C4  IND d   1      -1.184   2.077   1.361  0.00  0.00     0.051 A 
ATOM      5  C5  IND d   1      -1.073   3.289   0.739  0.00  0.00    -0.031 A 
ATOM      6  C6  IND d   1      -0.364   3.443  -0.435  0.00  0.00     0.015 A 
ATOM      7  C7  IND d   1       0.253   2.384  -1.039  0.00  0.00    -0.016 A 
ATOM      8  C8  IND d   1       0.147   1.154  -0.407  0.00  0.00    -0.047 A 
ATOM      9  C9  IND d   1      -0.535   0.999   0.807  0.00  0.00    -0.096 A 
ATOM     10  HN1 IND d   1       1.134  -0.249  -1.446  0.00  0.00     0.298 HD
ENDROOT
TORSDOF 0
ENDMDL
