MODEL 1
REMARK minimizedAffinity -3.04561925
REMARK minimizedRMSD -1
REMARK  0 active torsions:
REMARK  status: ('A' for Active; 'I' for Inactive)
ROOT
ATOM      1  N1  IND d   1       0.554   2.568  -1.097  0.00  0.00    -0.196 N 
ATOM      2  C2  IND d   1       0.266   3.770  -0.512  0.00  0.00     0.054 A 
ATOM      3  C3  IND d   1      -0.338   3.579   0.682  0.00  0.00    -0.031 A 
ATOM      4  C4  IND d   1      -0.858   1.383   1.920  0.00  0.00     0.051 A 
ATOM      5  C5  IND d   1      -0.814   0.025   1.770  0.00  0.00    -0.031 A 
ATOM      6  C6  IND d   1      -0.299  -0.567   0.634  0.00  0.00     0.015 A 
ATOM      7  C7  IND d   1       0.204   0.181  -0.393  0.00  0.00    -0.016 A 
ATOM      8  C8  IND d   1       0.155   1.560  -0.246  0.00  0.00    -0.047 A 
ATOM      9  C9  IND d   1      -0.406   2.167   0.885  0.00  0.00    -0.096 A 
ATOM     10  HN1 IND d   1       0.923   2.459  -1.866  0.00  0.00     0.298 HD
ENDROOT
TORSDOF 0
ENDMDL
