MODEL 1
REMARK minimizedAffinity -4.24737644
REMARK minimizedRMSD -1
REMARK  0 active torsions:
REMARK  status: ('A' for Active; 'I' for Inactive)
ROOT
ATOM      1  N1  IND d   1       0.681   0.380  -0.876  0.00  0.00    -0.196 N 
ATOM      2  C2  IND d   1       0.717  -0.895  -0.385  0.00  0.00     0.054 A 
ATOM      3  C3  IND d   1      -0.045  -0.993   0.727  0.00  0.00    -0.031 A 
ATOM      4  C4  IND d   1      -1.520   0.787   1.861  0.00  0.00     0.051 A 
ATOM      5  C5  IND d   1      -1.849   2.112   1.798  0.00  0.00    -0.031 A 
ATOM      6  C6  IND d   1      -1.343   2.944   0.820  0.00  0.00     0.015 A 
ATOM      7  C7  IND d   1      -0.495   2.476  -0.144  0.00  0.00    -0.016 A 
ATOM      8  C8  IND d   1      -0.153   1.133  -0.080  0.00  0.00    -0.047 A 
ATOM      9  C9  IND d   1      -0.629   0.294   0.936  0.00  0.00    -0.096 A 
ATOM     10  HN1 IND d   1       1.107   0.664  -1.567  0.00  0.00     0.298 HD
ENDROOT
TORSDOF 0
ENDMDL
