MODEL 1
REMARK minimizedAffinity -5.74007082
REMARK minimizedRMSD -1
REMARK  1 active torsions:
REMARK  status: ('A' for Active; 'I' for Inactive)
REMARK    1  A    between atoms: C3_4  and  O_7 
ROOT
ATOM      1  C   UNL d   1       0.223   2.346  -1.147  0.00  0.00    -0.033 A 
ATOM      2  C1  UNL d   1      -0.430   3.382  -0.477  0.00  0.00     0.039 A 
ATOM      3  C2  UNL d   1      -1.197   3.108   0.658  0.00  0.00    -0.080 A 
ATOM      4  C3  UNL d   1      -1.301   1.796   1.111  0.00  0.00     0.150 A 
ATOM      5  C4  UNL d   1      -0.650   0.759   0.451  0.00  0.00    -0.007 A 
ATOM      6  C5  UNL d   1       0.114   1.035  -0.682  0.00  0.00     0.039 A 
ENDROOT
BRANCH   4   7
ATOM      7  O   UNL d   1      -2.042   1.479   2.211  0.00  0.00    -0.526 OA
ATOM      8  H5  UNL d   1      -2.458   2.291   2.547  0.00  0.00     0.418 HD
ENDBRANCH   4   7
TORSDOF 1
ENDMDL
