MODEL 1
REMARK minimizedAffinity -4.92551327
REMARK minimizedRMSD -1
REMARK  1 active torsions:
REMARK  status: ('A' for Active; 'I' for Inactive)
REMARK    1  A    between atoms: C3_4  and  O_7 
ROOT
ATOM      1  C   UNL d   1       0.215  -0.452   0.270  0.00  0.00    -0.033 A 
ATOM      2  C1  UNL d   1      -0.243   0.482  -0.661  0.00  0.00     0.039 A 
ATOM      3  C2  UNL d   1      -1.176   1.449  -0.282  0.00  0.00    -0.080 A 
ATOM      4  C3  UNL d   1      -1.641   1.471   1.030  0.00  0.00     0.150 A 
ATOM      5  C4  UNL d   1      -1.186   0.546   1.964  0.00  0.00    -0.007 A 
ATOM      6  C5  UNL d   1      -0.255  -0.419   1.583  0.00  0.00     0.039 A 
ENDROOT
BRANCH   4   7
ATOM      7  O   UNL d   1      -2.556   2.393   1.446  0.00  0.00    -0.526 OA
ATOM      8  H5  UNL d   1      -2.800   2.948   0.687  0.00  0.00     0.418 HD
ENDBRANCH   4   7
TORSDOF 1
ENDMDL
