MODEL 1
REMARK minimizedAffinity -3.69597149
REMARK minimizedRMSD -1
REMARK  1 active torsions:
REMARK  status: ('A' for Active; 'I' for Inactive)
REMARK    1  A    between atoms: C3_4  and  O_7 
ROOT
ATOM      1  C   UNL d   1       0.186  -0.159  -0.294  0.00  0.00    -0.033 A 
ATOM      2  C1  UNL d   1      -0.294   1.015  -0.877  0.00  0.00     0.039 A 
ATOM      3  C2  UNL d   1      -1.180   1.834  -0.174  0.00  0.00    -0.080 A 
ATOM      4  C3  UNL d   1      -1.577   1.469   1.109  0.00  0.00     0.150 A 
ATOM      5  C4  UNL d   1      -1.100   0.302   1.698  0.00  0.00    -0.007 A 
ATOM      6  C5  UNL d   1      -0.216  -0.515   0.994  0.00  0.00     0.039 A 
ENDROOT
BRANCH   4   7
ATOM      7  O   UNL d   1      -2.444   2.234   1.832  0.00  0.00    -0.526 OA
ATOM      8  H5  UNL d   1      -2.712   2.993   1.287  0.00  0.00     0.418 HD
ENDBRANCH   4   7
TORSDOF 1
ENDMDL
