MODEL 1
REMARK minimizedAffinity -0.841214597
REMARK minimizedRMSD -1
REMARK  1 active torsions:
REMARK  status: ('A' for Active; 'I' for Inactive)
REMARK    1  A    between atoms: C3_4  and  O_7 
ROOT
ATOM      1  C   UNL d   1       0.750  -0.957  -0.784  0.00  0.00    -0.033 A 
ATOM      2  C1  UNL d   1       0.515   0.345  -1.231  0.00  0.00     0.039 A 
ATOM      3  C2  UNL d   1      -0.283   1.209  -0.479  0.00  0.00    -0.080 A 
ATOM      4  C3  UNL d   1      -0.838   0.761   0.717  0.00  0.00     0.150 A 
ATOM      5  C4  UNL d   1      -0.604  -0.533   1.170  0.00  0.00    -0.007 A 
ATOM      6  C5  UNL d   1       0.193  -1.395   0.418  0.00  0.00     0.039 A 
ENDROOT
BRANCH   4   7
ATOM      7  O   UNL d   1      -1.627   1.567   1.482  0.00  0.00    -0.526 OA
ATOM      8  H5  UNL d   1      -1.724   2.422   1.030  0.00  0.00     0.418 HD
ENDBRANCH   4   7
TORSDOF 1
ENDMDL
