MODEL 1
REMARK minimizedAffinity -4.46444178
REMARK minimizedRMSD -1
REMARK  1 active torsions:
REMARK  status: ('A' for Active; 'I' for Inactive)
REMARK    1  A    between atoms: C3_4  and  O_7 
ROOT
ATOM      1  C   UNL d   1       0.379  -0.614   0.371  0.00  0.00    -0.033 A 
ATOM      2  C1  UNL d   1      -0.090   0.320  -0.554  0.00  0.00     0.039 A 
ATOM      3  C2  UNL d   1      -1.051   1.260  -0.174  0.00  0.00    -0.080 A 
ATOM      4  C3  UNL d   1      -1.531   1.256   1.132  0.00  0.00     0.150 A 
ATOM      5  C4  UNL d   1      -1.065   0.330   2.060  0.00  0.00    -0.007 A 
ATOM      6  C5  UNL d   1      -0.107  -0.608   1.679  0.00  0.00     0.039 A 
ENDROOT
BRANCH   4   7
ATOM      7  O   UNL d   1      -2.472   2.150   1.548  0.00  0.00    -0.526 OA
ATOM      8  H5  UNL d   1      -2.721   2.709   0.793  0.00  0.00     0.418 HD
ENDBRANCH   4   7
TORSDOF 1
ENDMDL
