MODEL 1
REMARK minimizedAffinity -4.74676085
REMARK minimizedRMSD -1
REMARK  1 active torsions:
REMARK  status: ('A' for Active; 'I' for Inactive)
REMARK    1  A    between atoms: C3_4  and  O_7 
ROOT
ATOM      1  C   UNL d   1      -1.978   1.660   1.343  0.00  0.00    -0.033 A 
ATOM      2  C1  UNL d   1      -1.485   1.956   0.070  0.00  0.00     0.039 A 
ATOM      3  C2  UNL d   1      -0.603   1.077  -0.561  0.00  0.00    -0.080 A 
ATOM      4  C3  UNL d   1      -0.223  -0.094   0.090  0.00  0.00     0.150 A 
ATOM      5  C4  UNL d   1      -0.713  -0.397   1.356  0.00  0.00    -0.007 A 
ATOM      6  C5  UNL d   1      -1.593   0.483   1.985  0.00  0.00     0.039 A 
ENDROOT
BRANCH   4   7
ATOM      7  O   UNL d   1       0.639  -0.980  -0.484  0.00  0.00    -0.526 OA
ATOM      8  H5  UNL d   1       0.917  -0.626  -1.345  0.00  0.00     0.418 HD
ENDBRANCH   4   7
TORSDOF 1
ENDMDL
