MODEL 1
REMARK minimizedAffinity -3.58491874
REMARK minimizedRMSD -1
REMARK  1 active torsions:
REMARK  status: ('A' for Active; 'I' for Inactive)
REMARK    1  A    between atoms: C3_4  and  O_7 
ROOT
ATOM      1  C   UNL d   1       0.921  -0.296  -0.433  0.00  0.00    -0.033 A 
ATOM      2  C1  UNL d   1       0.340   0.700  -1.220  0.00  0.00     0.039 A 
ATOM      3  C2  UNL d   1      -0.716   1.463  -0.716  0.00  0.00    -0.080 A 
ATOM      4  C3  UNL d   1      -1.179   1.221   0.574  0.00  0.00     0.150 A 
ATOM      5  C4  UNL d   1      -0.601   0.233   1.365  0.00  0.00    -0.007 A 
ATOM      6  C5  UNL d   1       0.452  -0.528   0.860  0.00  0.00     0.039 A 
ENDROOT
BRANCH   4   7
ATOM      7  O   UNL d   1      -2.210   1.937   1.107  0.00  0.00    -0.526 OA
ATOM      8  H5  UNL d   1      -2.528   2.564   0.436  0.00  0.00     0.418 HD
ENDBRANCH   4   7
TORSDOF 1
ENDMDL
