MODEL 1
REMARK minimizedAffinity -4.9041214
REMARK minimizedRMSD -1
REMARK  1 active torsions:
REMARK  status: ('A' for Active; 'I' for Inactive)
REMARK    1  A    between atoms: C3_4  and  O_7 
ROOT
ATOM      1  C   UNL d   1       0.285   1.701  -1.201  0.00  0.00    -0.033 A 
ATOM      2  C1  UNL d   1      -0.181   0.693  -0.355  0.00  0.00     0.039 A 
ATOM      3  C2  UNL d   1      -1.068   1.000   0.678  0.00  0.00    -0.080 A 
ATOM      4  C3  UNL d   1      -1.482   2.317   0.854  0.00  0.00     0.150 A 
ATOM      5  C4  UNL d   1      -1.026   3.327   0.012  0.00  0.00    -0.007 A 
ATOM      6  C5  UNL d   1      -0.139   3.018  -1.018  0.00  0.00     0.039 A 
ENDROOT
BRANCH   4   7
ATOM      7  O   UNL d   1      -2.344   2.666   1.851  0.00  0.00    -0.526 OA
ATOM      8  H5  UNL d   1      -2.552   1.872   2.370  0.00  0.00     0.418 HD
ENDBRANCH   4   7
TORSDOF 1
ENDMDL
