MODEL 1
REMARK minimizedAffinity -5.23726225
REMARK minimizedRMSD -1
REMARK  1 active torsions:
REMARK  status: ('A' for Active; 'I' for Inactive)
REMARK    1  A    between atoms: C3_4  and  O_7 
ROOT
ATOM      1  C   UNL d   1       0.064  -0.573   0.742  0.00  0.00    -0.033 A 
ATOM      2  C1  UNL d   1      -0.531  -0.657   2.002  0.00  0.00     0.039 A 
ATOM      3  C2  UNL d   1      -1.593   0.186   2.333  0.00  0.00    -0.080 A 
ATOM      4  C3  UNL d   1      -2.052   1.107   1.394  0.00  0.00     0.150 A 
ATOM      5  C4  UNL d   1      -1.467   1.193   0.135  0.00  0.00    -0.007 A 
ATOM      6  C5  UNL d   1      -0.405   0.351  -0.192  0.00  0.00     0.039 A 
ENDROOT
BRANCH   4   7
ATOM      7  O   UNL d   1      -3.083   1.954   1.672  0.00  0.00    -0.526 OA
ATOM      8  H5  UNL d   1      -3.369   1.800   2.588  0.00  0.00     0.418 HD
ENDBRANCH   4   7
TORSDOF 1
ENDMDL
