MODEL 1
REMARK minimizedAffinity -4.28591394
REMARK minimizedRMSD -1
REMARK  1 active torsions:
REMARK  status: ('A' for Active; 'I' for Inactive)
REMARK    1  A    between atoms: C3_4  and  O_7 
ROOT
ATOM      1  C   UNL d   1      -2.061   1.926   1.240  0.00  0.00    -0.033 A 
ATOM      2  C1  UNL d   1      -1.586   0.881   2.036  0.00  0.00     0.039 A 
ATOM      3  C2  UNL d   1      -0.712  -0.066   1.499  0.00  0.00    -0.080 A 
ATOM      4  C3  UNL d   1      -0.321   0.042   0.167  0.00  0.00     0.150 A 
ATOM      5  C4  UNL d   1      -0.788   1.082  -0.630  0.00  0.00    -0.007 A 
ATOM      6  C5  UNL d   1      -1.661   2.027  -0.092  0.00  0.00     0.039 A 
ENDROOT
BRANCH   4   7
ATOM      7  O   UNL d   1       0.526  -0.861  -0.403  0.00  0.00    -0.526 OA
ATOM      8  H5  UNL d   1       0.743  -1.539   0.259  0.00  0.00     0.418 HD
ENDBRANCH   4   7
TORSDOF 1
ENDMDL
