MODEL 1
REMARK minimizedAffinity -2.73618293
REMARK minimizedRMSD -1
REMARK  1 active torsions:
REMARK  status: ('A' for Active; 'I' for Inactive)
REMARK    1  A    between atoms: C3_4  and  O_7 
ROOT
ATOM      1  C   UNL d   1      -0.674  -0.125   1.798  0.00  0.00    -0.033 A 
ATOM      2  C1  UNL d   1       0.100  -0.435   0.678  0.00  0.00     0.039 A 
ATOM      3  C2  UNL d   1       0.396   0.553  -0.263  0.00  0.00    -0.080 A 
ATOM      4  C3  UNL d   1      -0.085   1.845  -0.072  0.00  0.00     0.150 A 
ATOM      5  C4  UNL d   1      -0.853   2.162   1.044  0.00  0.00    -0.007 A 
ATOM      6  C5  UNL d   1      -1.149   1.174   1.982  0.00  0.00     0.039 A 
ENDROOT
BRANCH   4   7
ATOM      7  O   UNL d   1       0.174   2.842  -0.965  0.00  0.00    -0.526 OA
ATOM      8  H5  UNL d   1       0.690   2.471  -1.699  0.00  0.00     0.418 HD
ENDBRANCH   4   7
TORSDOF 1
ENDMDL
