MODEL 1
REMARK minimizedAffinity -3.47403598
REMARK minimizedRMSD -1
REMARK  1 active torsions:
REMARK  status: ('A' for Active; 'I' for Inactive)
REMARK    1  A    between atoms: C3_4  and  O_7 
ROOT
ATOM      1  C   UNL d   1      -1.238   2.201   1.478  0.00  0.00    -0.033 A 
ATOM      2  C1  UNL d   1      -0.747   2.478   0.201  0.00  0.00     0.039 A 
ATOM      3  C2  UNL d   1      -0.070   1.491  -0.518  0.00  0.00    -0.080 A 
ATOM      4  C3  UNL d   1       0.109   0.233   0.051  0.00  0.00     0.150 A 
ATOM      5  C4  UNL d   1      -0.381  -0.051   1.321  0.00  0.00    -0.007 A 
ATOM      6  C5  UNL d   1      -1.056   0.936   2.038  0.00  0.00     0.039 A 
ENDROOT
BRANCH   4   7
ATOM      7  O   UNL d   1       0.768  -0.761  -0.610  0.00  0.00    -0.526 OA
ATOM      8  H5  UNL d   1       1.074  -0.412  -1.464  0.00  0.00     0.418 HD
ENDBRANCH   4   7
TORSDOF 1
ENDMDL
