MODEL 1
REMARK minimizedAffinity -4.74925041
REMARK minimizedRMSD -1
REMARK  1 active torsions:
REMARK  status: ('A' for Active; 'I' for Inactive)
REMARK    1  A    between atoms: C3_4  and  O_7 
ROOT
ATOM      1  C   UNL d   1       0.432  -0.419   0.753  0.00  0.00    -0.033 A 
ATOM      2  C1  UNL d   1       0.302   0.380  -0.385  0.00  0.00     0.039 A 
ATOM      3  C2  UNL d   1      -0.463   1.547  -0.336  0.00  0.00    -0.080 A 
ATOM      4  C3  UNL d   1      -1.091   1.903   0.855  0.00  0.00     0.150 A 
ATOM      5  C4  UNL d   1      -0.963   1.113   1.992  0.00  0.00    -0.007 A 
ATOM      6  C5  UNL d   1      -0.200  -0.052   1.941  0.00  0.00     0.039 A 
ENDROOT
BRANCH   4   7
ATOM      7  O   UNL d   1      -1.852   3.031   0.949  0.00  0.00    -0.526 OA
ATOM      8  H5  UNL d   1      -1.874   3.461   0.079  0.00  0.00     0.418 HD
ENDBRANCH   4   7
TORSDOF 1
ENDMDL
