MODEL 1
REMARK minimizedAffinity -4.47928572
REMARK minimizedRMSD -1
REMARK  1 active torsions:
REMARK  status: ('A' for Active; 'I' for Inactive)
REMARK    1  A    between atoms: C3_4  and  O_7 
ROOT
ATOM      1  C   UNL d   1       0.534  -0.196  -0.013  0.00  0.00    -0.033 A 
ATOM      2  C1  UNL d   1      -0.118   0.675  -0.888  0.00  0.00     0.039 A 
ATOM      3  C2  UNL d   1      -1.212   1.422  -0.446  0.00  0.00    -0.080 A 
ATOM      4  C3  UNL d   1      -1.642   1.290   0.872  0.00  0.00     0.150 A 
ATOM      5  C4  UNL d   1      -0.994   0.427   1.750  0.00  0.00    -0.007 A 
ATOM      6  C5  UNL d   1       0.097  -0.319   1.306  0.00  0.00     0.039 A 
ENDROOT
BRANCH   4   7
ATOM      7  O   UNL d   1      -2.707   1.994   1.348  0.00  0.00    -0.526 OA
ATOM      8  H5  UNL d   1      -3.073   2.527   0.623  0.00  0.00     0.418 HD
ENDBRANCH   4   7
TORSDOF 1
ENDMDL
