MODEL 1
REMARK minimizedAffinity -4.72171068
REMARK minimizedRMSD -1
REMARK  1 active torsions:
REMARK  status: ('A' for Active; 'I' for Inactive)
REMARK    1  A    between atoms: C3_4  and  O_7 
ROOT
ATOM      1  C   UNL d   1      -1.853   1.819   1.526  0.00  0.00    -0.033 A 
ATOM      2  C1  UNL d   1      -1.727   0.562   2.119  0.00  0.00     0.039 A 
ATOM      3  C2  UNL d   1      -0.921  -0.413   1.528  0.00  0.00    -0.080 A 
ATOM      4  C3  UNL d   1      -0.246  -0.118   0.347  0.00  0.00     0.150 A 
ATOM      5  C4  UNL d   1      -0.363   1.134  -0.247  0.00  0.00    -0.007 A 
ATOM      6  C5  UNL d   1      -1.169   2.106   0.343  0.00  0.00     0.039 A 
ENDROOT
BRANCH   4   7
ATOM      7  O   UNL d   1       0.549  -1.039  -0.268  0.00  0.00    -0.526 OA
ATOM      8  H5  UNL d   1       0.512  -1.867   0.240  0.00  0.00     0.418 HD
ENDBRANCH   4   7
TORSDOF 1
ENDMDL
