MODEL 1
REMARK minimizedAffinity -3.67957187
REMARK minimizedRMSD -1
REMARK  1 active torsions:
REMARK  status: ('A' for Active; 'I' for Inactive)
REMARK    1  A    between atoms: C3_4  and  O_7 
ROOT
ATOM      1  C   UNL d   1       0.669  -0.350  -0.187  0.00  0.00    -0.033 A 
ATOM      2  C1  UNL d   1      -0.280  -1.087   0.523  0.00  0.00     0.039 A 
ATOM      3  C2  UNL d   1      -1.353  -0.439   1.138  0.00  0.00    -0.080 A 
ATOM      4  C3  UNL d   1      -1.465   0.945   1.034  0.00  0.00     0.150 A 
ATOM      5  C4  UNL d   1      -0.525   1.685   0.325  0.00  0.00    -0.007 A 
ATOM      6  C5  UNL d   1       0.546   1.036  -0.288  0.00  0.00     0.039 A 
ENDROOT
BRANCH   4   7
ATOM      7  O   UNL d   1      -2.492   1.622   1.622  0.00  0.00    -0.526 OA
ATOM      8  H5  UNL d   1      -3.047   0.985   2.101  0.00  0.00     0.418 HD
ENDBRANCH   4   7
TORSDOF 1
ENDMDL
