MODEL 1
REMARK minimizedAffinity 1.20904648
REMARK minimizedRMSD -1
REMARK  0 active torsions:
REMARK  status: ('A' for Active; 'I' for Inactive)
ROOT
ATOM      1  C   UNL d   1       2.982  -1.908  -0.721  0.00  0.00     0.172 C 
ATOM      2  N   UNL d   1       3.727  -0.734  -0.330  0.00  0.00    -0.070 N 
ATOM      3  C1  UNL d   1       3.764   0.452  -1.014  0.00  0.00    -0.004 A 
ATOM      4  C2  UNL d   1       4.582   1.315  -0.318  0.00  0.00    -0.047 A 
ATOM      5  C3  UNL d   1       5.055   0.624   0.823  0.00  0.00    -0.047 A 
ATOM      6  C4  UNL d   1       4.510  -0.642   0.790  0.00  0.00    -0.004 A 
ENDROOT
TORSDOF 0
ENDMDL
