MODEL 1
REMARK minimizedAffinity -3.31818128
REMARK minimizedRMSD -1
REMARK  0 active torsions:
REMARK  status: ('A' for Active; 'I' for Inactive)
ROOT
ATOM      1  C   UNL d   1       2.312   4.379   5.556  0.00  0.00     0.172 C 
ATOM      2  N   UNL d   1       3.461   3.547   5.284  0.00  0.00    -0.070 N 
ATOM      3  C1  UNL d   1       4.541   3.904   4.523  0.00  0.00    -0.004 A 
ATOM      4  C2  UNL d   1       5.416   2.839   4.507  0.00  0.00    -0.047 A 
ATOM      5  C3  UNL d   1       4.841   1.807   5.285  0.00  0.00    -0.047 A 
ATOM      6  C4  UNL d   1       3.630   2.272   5.754  0.00  0.00    -0.004 A 
ENDROOT
TORSDOF 0
ENDMDL
