MODEL 1
REMARK minimizedAffinity 0.506866813
REMARK minimizedRMSD -1
REMARK  0 active torsions:
REMARK  status: ('A' for Active; 'I' for Inactive)
ROOT
ATOM      1  C   UNL d   1       2.149   4.983   5.979  0.00  0.00     0.172 C 
ATOM      2  N   UNL d   1       3.043   3.849   5.985  0.00  0.00    -0.070 N 
ATOM      3  C1  UNL d   1       4.411   3.912   5.980  0.00  0.00    -0.004 A 
ATOM      4  C2  UNL d   1       4.893   2.620   5.989  0.00  0.00    -0.047 A 
ATOM      5  C3  UNL d   1       3.776   1.752   6.000  0.00  0.00    -0.047 A 
ATOM      6  C4  UNL d   1       2.643   2.539   5.997  0.00  0.00    -0.004 A 
ENDROOT
TORSDOF 0
ENDMDL
