MODEL 1
REMARK minimizedAffinity -1.19573033
REMARK minimizedRMSD -1
REMARK  0 active torsions:
REMARK  status: ('A' for Active; 'I' for Inactive)
ROOT
ATOM      1  C   UNL d   1       2.304   4.860   6.000  0.00  0.00     0.172 C 
ATOM      2  N   UNL d   1       3.324   3.868   5.753  0.00  0.00    -0.070 N 
ATOM      3  C1  UNL d   1       4.570   4.114   5.242  0.00  0.00    -0.004 A 
ATOM      4  C2  UNL d   1       5.237   2.911   5.160  0.00  0.00    -0.047 A 
ATOM      5  C3  UNL d   1       4.362   1.907   5.638  0.00  0.00    -0.047 A 
ATOM      6  C4  UNL d   1       3.184   2.527   5.998  0.00  0.00    -0.004 A 
ENDROOT
TORSDOF 0
ENDMDL
