MODEL 1
REMARK minimizedAffinity 1.03916502
REMARK minimizedRMSD -1
REMARK  0 active torsions:
REMARK  status: ('A' for Active; 'I' for Inactive)
ROOT
ATOM      1  C   UNL d   1      -3.374   4.602   0.750  0.00  0.00     0.172 C 
ATOM      2  N   UNL d   1      -4.272   3.471   0.752  0.00  0.00    -0.070 N 
ATOM      3  C1  UNL d   1      -4.122   2.334   1.500  0.00  0.00    -0.004 A 
ATOM      4  C2  UNL d   1      -5.184   1.501   1.219  0.00  0.00    -0.047 A 
ATOM      5  C3  UNL d   1      -6.000   2.161   0.269  0.00  0.00    -0.047 A 
ATOM      6  C4  UNL d   1      -5.412   3.378  -0.002  0.00  0.00    -0.004 A 
ENDROOT
TORSDOF 0
ENDMDL
