MODEL 1
REMARK minimizedAffinity -1.56835759
REMARK minimizedRMSD -1
REMARK  0 active torsions:
REMARK  status: ('A' for Active; 'I' for Inactive)
ROOT
ATOM      1  C   UNL d   1       1.842   5.140   5.997  0.00  0.00     0.172 C 
ATOM      2  N   UNL d   1       3.025   4.396   5.633  0.00  0.00    -0.070 N 
ATOM      3  C1  UNL d   1       4.063   4.869   4.875  0.00  0.00    -0.004 A 
ATOM      4  C2  UNL d   1       4.993   3.858   4.756  0.00  0.00    -0.047 A 
ATOM      5  C3  UNL d   1       4.496   2.740   5.467  0.00  0.00    -0.047 A 
ATOM      6  C4  UNL d   1       3.277   3.100   6.000  0.00  0.00    -0.004 A 
ENDROOT
TORSDOF 0
ENDMDL
