MODEL 1
REMARK minimizedAffinity 3.01724386
REMARK minimizedRMSD -1
REMARK  0 active torsions:
REMARK  status: ('A' for Active; 'I' for Inactive)
ROOT
ATOM      1  C   UNL d   1       4.875   2.618   2.517  0.00  0.00     0.172 C 
ATOM      2  N   UNL d   1       4.598   2.643   3.934  0.00  0.00    -0.070 N 
ATOM      3  C1  UNL d   1       4.507   3.768   4.710  0.00  0.00    -0.004 A 
ATOM      4  C2  UNL d   1       4.231   3.370   6.000  0.00  0.00    -0.047 A 
ATOM      5  C3  UNL d   1       4.155   1.957   6.000  0.00  0.00    -0.047 A 
ATOM      6  C4  UNL d   1       4.386   1.533   4.708  0.00  0.00    -0.004 A 
ENDROOT
TORSDOF 0
ENDMDL
