MODEL 1
REMARK minimizedAffinity 1.223122
REMARK minimizedRMSD -1
REMARK  0 active torsions:
REMARK  status: ('A' for Active; 'I' for Inactive)
ROOT
ATOM      1  C   UNL d   1       5.198   3.377   3.406  0.00  0.00     0.172 C 
ATOM      2  N   UNL d   1       4.232   3.057   4.431  0.00  0.00    -0.070 N 
ATOM      3  C1  UNL d   1       3.939   1.800   4.887  0.00  0.00    -0.004 A 
ATOM      4  C2  UNL d   1       2.970   1.919   5.860  0.00  0.00    -0.047 A 
ATOM      5  C3  UNL d   1       2.670   3.296   5.992  0.00  0.00    -0.047 A 
ATOM      6  C4  UNL d   1       3.466   3.978   5.096  0.00  0.00    -0.004 A 
ENDROOT
TORSDOF 0
ENDMDL
