MODEL 1
REMARK minimizedAffinity 1.069291
REMARK minimizedRMSD -1
REMARK  0 active torsions:
REMARK  status: ('A' for Active; 'I' for Inactive)
ROOT
ATOM      1  C   UNL d   1       2.307   4.931   5.959  0.00  0.00     0.172 C 
ATOM      2  N   UNL d   1       3.383   4.157   5.384  0.00  0.00    -0.070 N 
ATOM      3  C1  UNL d   1       4.039   3.124   5.998  0.00  0.00    -0.004 A 
ATOM      4  C2  UNL d   1       4.993   2.651   5.123  0.00  0.00    -0.047 A 
ATOM      5  C3  UNL d   1       4.907   3.427   3.943  0.00  0.00    -0.047 A 
ATOM      6  C4  UNL d   1       3.902   4.352   4.132  0.00  0.00    -0.004 A 
ENDROOT
TORSDOF 0
ENDMDL
