MODEL 1
REMARK minimizedAffinity 13.8785925
REMARK minimizedRMSD -1
REMARK  1 active torsions:
REMARK  status: ('A' for Active; 'I' for Inactive)
REMARK    1  A    between atoms: C1_2  and  C2_3 
ROOT
ATOM      1  C2  UNL d   1       0.993   1.455   4.105  0.00  0.00    -0.076 A 
ATOM      2  C3  UNL d   1       2.341   1.718   3.802  0.00  0.00     0.004 A 
ATOM      3  C4  UNL d   1       2.784   1.758   2.481  0.00  0.00    -0.003 A 
ATOM      4  C5  UNL d   1       1.888   1.538   1.442  0.00  0.00     0.000 A 
ATOM      5  C6  UNL d   1       0.544   1.293   1.723  0.00  0.00     0.000 A 
ATOM      6  C7  UNL d   1       0.077   1.265   3.048  0.00  0.00    -0.073 A 
ATOM      7  C8  UNL d   1      -1.382   0.992   3.294  0.00  0.00     0.078 C 
ENDROOT
BRANCH   1   8
ATOM      8  C1  UNL d   1       0.575   1.397   5.557  0.00  0.00     0.053 C 
ATOM      9  C   UNL d   1      -0.182   2.641   5.995  0.00  0.00     0.018 C 
ENDBRANCH   1   8
TORSDOF 1
ENDMDL
