MODEL 1
REMARK minimizedAffinity 12.2061357
REMARK minimizedRMSD -1
REMARK  1 active torsions:
REMARK  status: ('A' for Active; 'I' for Inactive)
REMARK    1  A    between atoms: C1_2  and  C2_3 
ROOT
ATOM      1  C2  UNL d   1       3.331  -1.577   0.284  0.00  0.00    -0.076 A 
ATOM      2  C3  UNL d   1       4.714  -1.422   0.486  0.00  0.00     0.004 A 
ATOM      3  C4  UNL d   1       5.524  -2.519   0.772  0.00  0.00    -0.003 A 
ATOM      4  C5  UNL d   1       4.966  -3.790   0.860  0.00  0.00     0.000 A 
ATOM      5  C6  UNL d   1       3.600  -3.965   0.644  0.00  0.00     0.000 A 
ATOM      6  C7  UNL d   1       2.771  -2.871   0.339  0.00  0.00    -0.073 A 
ATOM      7  C8  UNL d   1       1.303  -3.117   0.121  0.00  0.00     0.078 C 
ENDROOT
BRANCH   1   8
ATOM      8  C1  UNL d   1       2.498  -0.347   0.004  0.00  0.00     0.053 C 
ATOM      9  C   UNL d   1       2.322  -0.089  -1.485  0.00  0.00     0.018 C 
ENDBRANCH   1   8
TORSDOF 1
ENDMDL
