MODEL 1
REMARK minimizedAffinity 10.4591284
REMARK minimizedRMSD -1
REMARK  1 active torsions:
REMARK  status: ('A' for Active; 'I' for Inactive)
REMARK    1  A    between atoms: C1_2  and  C2_3 
ROOT
ATOM      1  C2  UNL d   1       2.353  -1.472  -0.738  0.00  0.00    -0.076 A 
ATOM      2  C3  UNL d   1       3.037  -0.317  -0.320  0.00  0.00     0.004 A 
ATOM      3  C4  UNL d   1       3.014   0.847  -1.086  0.00  0.00    -0.003 A 
ATOM      4  C5  UNL d   1       2.306   0.875  -2.283  0.00  0.00     0.000 A 
ATOM      5  C6  UNL d   1       1.608  -0.256  -2.704  0.00  0.00     0.000 A 
ATOM      6  C7  UNL d   1       1.607  -1.432  -1.935  0.00  0.00    -0.073 A 
ATOM      7  C8  UNL d   1       0.842  -2.624  -2.440  0.00  0.00     0.078 C 
ENDROOT
BRANCH   1   8
ATOM      8  C1  UNL d   1       2.437  -2.714   0.121  0.00  0.00     0.053 C 
ATOM      9  C   UNL d   1       3.869  -3.085   0.472  0.00  0.00     0.018 C 
ENDBRANCH   1   8
TORSDOF 1
ENDMDL
