MODEL 1
REMARK minimizedAffinity 11.6752729
REMARK minimizedRMSD -1
REMARK  1 active torsions:
REMARK  status: ('A' for Active; 'I' for Inactive)
REMARK    1  A    between atoms: C1_2  and  C2_3 
ROOT
ATOM      1  C2  UNL d   1      -2.595   4.439  -4.936  0.00  0.00    -0.076 A 
ATOM      2  C3  UNL d   1      -2.452   5.731  -4.402  0.00  0.00     0.004 A 
ATOM      3  C4  UNL d   1      -1.507   5.997  -3.412  0.00  0.00    -0.003 A 
ATOM      4  C5  UNL d   1      -0.691   4.975  -2.941  0.00  0.00     0.000 A 
ATOM      5  C6  UNL d   1      -0.807   3.691  -3.472  0.00  0.00     0.000 A 
ATOM      6  C7  UNL d   1      -1.743   3.409  -4.482  0.00  0.00    -0.073 A 
ATOM      7  C8  UNL d   1      -1.831   2.005  -5.014  0.00  0.00     0.078 C 
ENDROOT
BRANCH   1   8
ATOM      8  C1  UNL d   1      -3.655   4.204  -5.989  0.00  0.00     0.053 C 
ATOM      9  C   UNL d   1      -4.801   5.200  -5.895  0.00  0.00     0.018 C 
ENDBRANCH   1   8
TORSDOF 1
ENDMDL
