MODEL 1
REMARK minimizedAffinity 14.910264
REMARK minimizedRMSD -1
REMARK  1 active torsions:
REMARK  status: ('A' for Active; 'I' for Inactive)
REMARK    1  A    between atoms: C1_2  and  C2_3 
ROOT
ATOM      1  C2  UNL d   1       1.395  -2.314  -1.848  0.00  0.00    -0.076 A 
ATOM      2  C3  UNL d   1       0.888  -1.122  -2.395  0.00  0.00     0.004 A 
ATOM      3  C4  UNL d   1       1.053   0.096  -1.736  0.00  0.00    -0.003 A 
ATOM      4  C5  UNL d   1       1.728   0.141  -0.522  0.00  0.00     0.000 A 
ATOM      5  C6  UNL d   1       2.252  -1.029   0.026  0.00  0.00     0.000 A 
ATOM      6  C7  UNL d   1       2.109  -2.262  -0.632  0.00  0.00    -0.073 A 
ATOM      7  C8  UNL d   1       2.689  -3.494   0.007  0.00  0.00     0.078 C 
ENDROOT
BRANCH   1   8
ATOM      8  C1  UNL d   1       1.162  -3.609  -2.594  0.00  0.00     0.053 C 
ATOM      9  C   UNL d   1      -0.303  -3.825  -2.942  0.00  0.00     0.018 C 
ENDBRANCH   1   8
TORSDOF 1
ENDMDL
