MODEL 1
REMARK minimizedAffinity 18.2209015
REMARK minimizedRMSD -1
REMARK  1 active torsions:
REMARK  status: ('A' for Active; 'I' for Inactive)
REMARK    1  A    between atoms: C1_2  and  C2_3 
ROOT
ATOM      1  C2  UNL d   1      -0.199   1.925   3.585  0.00  0.00    -0.076 A 
ATOM      2  C3  UNL d   1      -0.588   2.251   4.896  0.00  0.00     0.004 A 
ATOM      3  C4  UNL d   1       0.273   2.047   5.972  0.00  0.00    -0.003 A 
ATOM      4  C5  UNL d   1       1.540   1.515   5.755  0.00  0.00     0.000 A 
ATOM      5  C6  UNL d   1       1.950   1.203   4.460  0.00  0.00     0.000 A 
ATOM      6  C7  UNL d   1       1.099   1.417   3.362  0.00  0.00    -0.073 A 
ATOM      7  C8  UNL d   1       1.591   1.057   1.986  0.00  0.00     0.078 C 
ENDROOT
BRANCH   1   8
ATOM      8  C1  UNL d   1      -1.186   2.143   2.461  0.00  0.00     0.053 C 
ATOM      9  C   UNL d   1      -2.495   1.402   2.684  0.00  0.00     0.018 C 
ENDBRANCH   1   8
TORSDOF 1
ENDMDL
