MODEL 1
REMARK minimizedAffinity 16.9532661
REMARK minimizedRMSD -1
REMARK  1 active torsions:
REMARK  status: ('A' for Active; 'I' for Inactive)
REMARK    1  A    between atoms: C1_2  and  C2_3 
ROOT
ATOM      1  C2  UNL d   1       3.530  -2.483  -1.478  0.00  0.00    -0.076 A 
ATOM      2  C3  UNL d   1       3.988  -2.721  -0.170  0.00  0.00     0.004 A 
ATOM      3  C4  UNL d   1       5.212  -3.347   0.058  0.00  0.00    -0.003 A 
ATOM      4  C5  UNL d   1       5.998  -3.745  -1.018  0.00  0.00     0.000 A 
ATOM      5  C6  UNL d   1       5.568  -3.501  -2.321  0.00  0.00     0.000 A 
ATOM      6  C7  UNL d   1       4.344  -2.856  -2.569  0.00  0.00    -0.073 A 
ATOM      7  C8  UNL d   1       3.926  -2.623  -3.995  0.00  0.00     0.078 C 
ENDROOT
BRANCH   1   8
ATOM      8  C1  UNL d   1       2.182  -1.824  -1.664  0.00  0.00     0.053 C 
ATOM      9  C   UNL d   1       1.974  -0.647  -0.724  0.00  0.00     0.018 C 
ENDBRANCH   1   8
TORSDOF 1
ENDMDL
