MODEL 1
REMARK minimizedAffinity 13.8378029
REMARK minimizedRMSD -1
REMARK  1 active torsions:
REMARK  status: ('A' for Active; 'I' for Inactive)
REMARK    1  A    between atoms: C1_2  and  C2_3 
ROOT
ATOM      1  C2  UNL d   1      -3.229   1.239   3.103  0.00  0.00    -0.076 A 
ATOM      2  C3  UNL d   1      -2.409   2.316   2.724  0.00  0.00     0.004 A 
ATOM      3  C4  UNL d   1      -1.050   2.129   2.474  0.00  0.00    -0.003 A 
ATOM      4  C5  UNL d   1      -0.491   0.862   2.597  0.00  0.00     0.000 A 
ATOM      5  C6  UNL d   1      -1.293  -0.221   2.954  0.00  0.00     0.000 A 
ATOM      6  C7  UNL d   1      -2.668  -0.053   3.194  0.00  0.00    -0.073 A 
ATOM      7  C8  UNL d   1      -3.485  -1.254   3.582  0.00  0.00     0.078 C 
ENDROOT
BRANCH   1   8
ATOM      8  C1  UNL d   1      -4.690   1.507   3.388  0.00  0.00     0.053 C 
ATOM      9  C   UNL d   1      -4.900   2.764   4.217  0.00  0.00     0.018 C 
ENDBRANCH   1   8
TORSDOF 1
ENDMDL
