MODEL 1
REMARK minimizedAffinity 13.0431528
REMARK minimizedRMSD -1
REMARK  1 active torsions:
REMARK  status: ('A' for Active; 'I' for Inactive)
REMARK    1  A    between atoms: C1_2  and  C2_3 
ROOT
ATOM      1  C2  UNL d   1       2.643  -0.847  -0.568  0.00  0.00    -0.076 A 
ATOM      2  C3  UNL d   1       2.060  -0.930  -1.845  0.00  0.00     0.004 A 
ATOM      3  C4  UNL d   1       2.032   0.175  -2.694  0.00  0.00    -0.003 A 
ATOM      4  C5  UNL d   1       2.587   1.381  -2.282  0.00  0.00     0.000 A 
ATOM      5  C6  UNL d   1       3.186   1.477  -1.026  0.00  0.00     0.000 A 
ATOM      6  C7  UNL d   1       3.237   0.368  -0.163  0.00  0.00    -0.073 A 
ATOM      7  C8  UNL d   1       3.889   0.529   1.182  0.00  0.00     0.078 C 
ENDROOT
BRANCH   1   8
ATOM      8  C1  UNL d   1       2.619  -2.070   0.320  0.00  0.00     0.053 C 
ATOM      9  C   UNL d   1       3.923  -2.852   0.269  0.00  0.00     0.018 C 
ENDBRANCH   1   8
TORSDOF 1
ENDMDL
