MODEL 1
REMARK minimizedAffinity 14.6522503
REMARK minimizedRMSD -1
REMARK  1 active torsions:
REMARK  status: ('A' for Active; 'I' for Inactive)
REMARK    1  A    between atoms: C1_2  and  C2_3 
ROOT
ATOM      1  C2  UNL d   1      -2.162  -3.345  -4.481  0.00  0.00    -0.076 A 
ATOM      2  C3  UNL d   1      -2.539  -2.545  -5.574  0.00  0.00     0.004 A 
ATOM      3  C4  UNL d   1      -3.868  -2.474  -5.987  0.00  0.00    -0.003 A 
ATOM      4  C5  UNL d   1      -4.843  -3.202  -5.314  0.00  0.00     0.000 A 
ATOM      5  C6  UNL d   1      -4.490  -3.987  -4.216  0.00  0.00     0.000 A 
ATOM      6  C7  UNL d   1      -3.157  -4.056  -3.777  0.00  0.00    -0.073 A 
ATOM      7  C8  UNL d   1      -2.832  -4.923  -2.591  0.00  0.00     0.078 C 
ENDROOT
BRANCH   1   8
ATOM      8  C1  UNL d   1      -0.702  -3.403  -4.096  0.00  0.00     0.053 C 
ATOM      9  C   UNL d   1      -0.466  -4.202  -2.823  0.00  0.00     0.018 C 
ENDBRANCH   1   8
TORSDOF 1
ENDMDL
