MODEL 1
REMARK minimizedAffinity 8.7040453
REMARK minimizedRMSD -1
REMARK  1 active torsions:
REMARK  status: ('A' for Active; 'I' for Inactive)
REMARK    1  A    between atoms: C1_2  and  C2_3 
ROOT
ATOM      1  C2  UNL d   1       2.928   0.342   0.091  0.00  0.00    -0.076 A 
ATOM      2  C3  UNL d   1       3.875  -0.197   0.978  0.00  0.00     0.004 A 
ATOM      3  C4  UNL d   1       4.238  -1.541   0.910  0.00  0.00    -0.003 A 
ATOM      4  C5  UNL d   1       3.661  -2.368  -0.048  0.00  0.00     0.000 A 
ATOM      5  C6  UNL d   1       2.732  -1.845  -0.948  0.00  0.00     0.000 A 
ATOM      6  C7  UNL d   1       2.367  -0.488  -0.903  0.00  0.00    -0.073 A 
ATOM      7  C8  UNL d   1       1.357   0.020  -1.894  0.00  0.00     0.078 C 
ENDROOT
BRANCH   1   8
ATOM      8  C1  UNL d   1       2.554   1.801   0.230  0.00  0.00     0.053 C 
ATOM      9  C   UNL d   1       1.703   2.069   1.462  0.00  0.00     0.018 C 
ENDBRANCH   1   8
TORSDOF 1
ENDMDL
