MODEL 1
REMARK minimizedAffinity 13.7192497
REMARK minimizedRMSD -1
REMARK  1 active torsions:
REMARK  status: ('A' for Active; 'I' for Inactive)
REMARK    1  A    between atoms: C1_2  and  C2_3 
ROOT
ATOM      1  C2  UNL d   1       3.313  -0.853  -0.574  0.00  0.00    -0.076 A 
ATOM      2  C3  UNL d   1       4.131   0.100   0.058  0.00  0.00     0.004 A 
ATOM      3  C4  UNL d   1       4.187   1.414  -0.402  0.00  0.00    -0.003 A 
ATOM      4  C5  UNL d   1       3.427   1.797  -1.501  0.00  0.00     0.000 A 
ATOM      5  C6  UNL d   1       2.597   0.869  -2.129  0.00  0.00     0.000 A 
ATOM      6  C7  UNL d   1       2.515  -0.456  -1.668  0.00  0.00    -0.073 A 
ATOM      7  C8  UNL d   1       1.608  -1.417  -2.387  0.00  0.00     0.078 C 
ENDROOT
BRANCH   1   8
ATOM      8  C1  UNL d   1       3.313  -2.271  -0.047  0.00  0.00     0.053 C 
ATOM      9  C   UNL d   1       4.711  -2.768   0.287  0.00  0.00     0.018 C 
ENDBRANCH   1   8
TORSDOF 1
ENDMDL
