MODEL 1
REMARK minimizedAffinity 15.1078348
REMARK minimizedRMSD -1
REMARK  1 active torsions:
REMARK  status: ('A' for Active; 'I' for Inactive)
REMARK    1  A    between atoms: C1_2  and  C2_3 
ROOT
ATOM      1  C2  UNL d   1       1.871   0.194   0.597  0.00  0.00    -0.076 A 
ATOM      2  C3  UNL d   1       0.572   0.277   1.128  0.00  0.00     0.004 A 
ATOM      3  C4  UNL d   1       0.257   1.213   2.111  0.00  0.00    -0.003 A 
ATOM      4  C5  UNL d   1       1.236   2.083   2.579  0.00  0.00     0.000 A 
ATOM      5  C6  UNL d   1       2.526   2.027   2.050  0.00  0.00     0.000 A 
ATOM      6  C7  UNL d   1       2.855   1.100   1.047  0.00  0.00    -0.073 A 
ATOM      7  C8  UNL d   1       4.263   1.079   0.518  0.00  0.00     0.078 C 
ENDROOT
BRANCH   1   8
ATOM      8  C1  UNL d   1       2.161  -0.860  -0.448  0.00  0.00     0.053 C 
ATOM      9  C   UNL d   1       2.284  -2.253   0.149  0.00  0.00     0.018 C 
ENDBRANCH   1   8
TORSDOF 1
ENDMDL
