MODEL 1
REMARK minimizedAffinity 10.9886436
REMARK minimizedRMSD -1
REMARK  1 active torsions:
REMARK  status: ('A' for Active; 'I' for Inactive)
REMARK    1  A    between atoms: C1_2  and  C2_3 
ROOT
ATOM      1  C2  UNL d   1      -2.447   0.476   1.839  0.00  0.00    -0.076 A 
ATOM      2  C3  UNL d   1      -1.302   0.119   1.105  0.00  0.00     0.004 A 
ATOM      3  C4  UNL d   1      -0.073   0.730   1.350  0.00  0.00    -0.003 A 
ATOM      4  C5  UNL d   1       0.031   1.707   2.334  0.00  0.00     0.000 A 
ATOM      5  C6  UNL d   1      -1.090   2.060   3.084  0.00  0.00     0.000 A 
ATOM      6  C7  UNL d   1      -2.333   1.443   2.861  0.00  0.00    -0.073 A 
ATOM      7  C8  UNL d   1      -3.510   1.868   3.695  0.00  0.00     0.078 C 
ENDROOT
BRANCH   1   8
ATOM      8  C1  UNL d   1      -3.758  -0.201   1.510  0.00  0.00     0.053 C 
ATOM      9  C   UNL d   1      -3.908  -1.548   2.200  0.00  0.00     0.018 C 
ENDBRANCH   1   8
TORSDOF 1
ENDMDL
