MODEL 1
REMARK minimizedAffinity 4.7049346
REMARK minimizedRMSD -1
REMARK  2 active torsions:
REMARK  status: ('A' for Active; 'I' for Inactive)
REMARK    1  A    between atoms: C1_2  and  C2_3 
REMARK    2  A    between atoms: C2_3  and  C3_4 
ROOT
ATOM      1  C3  UNL d   1      -2.336  -0.481  -0.923  0.00  0.00    -0.075 A 
ATOM      2  C4  UNL d   1      -2.161  -1.481  -1.892  0.00  0.00     0.002 A 
ATOM      3  C5  UNL d   1      -2.434  -1.221  -3.235  0.00  0.00     0.002 A 
ATOM      4  C6  UNL d   1      -2.895   0.034  -3.625  0.00  0.00    -0.004 A 
ATOM      5  C7  UNL d   1      -3.089   1.029  -2.670  0.00  0.00     0.002 A 
ATOM      6  C8  UNL d   1      -2.812   0.774  -1.326  0.00  0.00     0.002 A 
ENDROOT
BRANCH   1   7
ATOM      7  C2  UNL d   1      -2.015  -0.747   0.528  0.00  0.00     0.056 C 
BRANCH   7   8
ATOM      8  C1  UNL d   1      -1.732  -2.219   0.845  0.00  0.00     0.007 C 
ATOM      9  C   UNL d   1      -0.303  -2.470   1.307  0.00  0.00     0.009 C 
ENDBRANCH   7   8
ENDBRANCH   1   7
TORSDOF 2
ENDMDL
