MODEL 1
REMARK minimizedAffinity 11.2349205
REMARK minimizedRMSD -1
REMARK  2 active torsions:
REMARK  status: ('A' for Active; 'I' for Inactive)
REMARK    1  A    between atoms: C1_2  and  C2_3 
REMARK    2  A    between atoms: C2_3  and  C3_4 
ROOT
ATOM      1  C3  UNL d   1       1.709  -2.176   3.570  0.00  0.00    -0.075 A 
ATOM      2  C4  UNL d   1       1.860  -2.941   4.736  0.00  0.00     0.002 A 
ATOM      3  C5  UNL d   1       2.200  -2.330   5.944  0.00  0.00     0.002 A 
ATOM      4  C6  UNL d   1       2.403  -0.953   5.999  0.00  0.00    -0.004 A 
ATOM      5  C7  UNL d   1       2.272  -0.186   4.844  0.00  0.00     0.002 A 
ATOM      6  C8  UNL d   1       1.927  -0.794   3.635  0.00  0.00     0.002 A 
ENDROOT
BRANCH   1   7
ATOM      7  C2  UNL d   1       1.312  -2.826   2.266  0.00  0.00     0.056 C 
BRANCH   7   8
ATOM      8  C1  UNL d   1       2.487  -3.417   1.481  0.00  0.00     0.007 C 
ATOM      9  C   UNL d   1       2.153  -3.699   0.022  0.00  0.00     0.009 C 
ENDBRANCH   7   8
ENDBRANCH   1   7
TORSDOF 2
ENDMDL
