MODEL 1
REMARK minimizedAffinity 19.9741192
REMARK minimizedRMSD -1
REMARK  2 active torsions:
REMARK  status: ('A' for Active; 'I' for Inactive)
REMARK    1  A    between atoms: C1_2  and  C2_3 
REMARK    2  A    between atoms: C2_3  and  C3_4 
ROOT
ATOM      1  C3  UNL d   1      -3.131   2.217  -3.284  0.00  0.00    -0.075 A 
ATOM      2  C4  UNL d   1      -2.804   1.220  -4.215  0.00  0.00     0.002 A 
ATOM      3  C5  UNL d   1      -2.379  -0.038  -3.786  0.00  0.00     0.002 A 
ATOM      4  C6  UNL d   1      -2.266  -0.311  -2.425  0.00  0.00    -0.004 A 
ATOM      5  C7  UNL d   1      -2.572   0.677  -1.492  0.00  0.00     0.002 A 
ATOM      6  C8  UNL d   1      -3.002   1.935  -1.918  0.00  0.00     0.002 A 
ENDROOT
BRANCH   1   7
ATOM      7  C2  UNL d   1      -3.620   3.570  -3.741  0.00  0.00     0.056 C 
BRANCH   7   8
ATOM      8  C1  UNL d   1      -4.792   4.120  -2.921  0.00  0.00     0.007 C 
ATOM      9  C   UNL d   1      -4.647   5.598  -2.582  0.00  0.00     0.009 C 
ENDBRANCH   7   8
ENDBRANCH   1   7
TORSDOF 2
ENDMDL
