MODEL 1
REMARK minimizedAffinity 12.8743811
REMARK minimizedRMSD -1
REMARK  2 active torsions:
REMARK  status: ('A' for Active; 'I' for Inactive)
REMARK    1  A    between atoms: C1_2  and  C2_3 
REMARK    2  A    between atoms: C2_3  and  C3_4 
ROOT
ATOM      1  C3  UNL d   1      -3.634   2.847  -2.981  0.00  0.00    -0.075 A 
ATOM      2  C4  UNL d   1      -2.991   2.360  -4.129  0.00  0.00     0.002 A 
ATOM      3  C5  UNL d   1      -2.598   1.024  -4.208  0.00  0.00     0.002 A 
ATOM      4  C6  UNL d   1      -2.832   0.161  -3.139  0.00  0.00    -0.004 A 
ATOM      5  C7  UNL d   1      -3.455   0.638  -1.988  0.00  0.00     0.002 A 
ATOM      6  C8  UNL d   1      -3.854   1.973  -1.908  0.00  0.00     0.002 A 
ENDROOT
BRANCH   1   7
ATOM      7  C2  UNL d   1      -4.088   4.284  -2.901  0.00  0.00     0.056 C 
BRANCH   7   8
ATOM      8  C1  UNL d   1      -5.424   4.477  -2.175  0.00  0.00     0.007 C 
ATOM      9  C   UNL d   1      -5.690   5.923  -1.780  0.00  0.00     0.009 C 
ENDBRANCH   7   8
ENDBRANCH   1   7
TORSDOF 2
ENDMDL
