MODEL 1
REMARK minimizedAffinity 6.88946056
REMARK minimizedRMSD -1
REMARK  2 active torsions:
REMARK  status: ('A' for Active; 'I' for Inactive)
REMARK    1  A    between atoms: C1_2  and  C2_3 
REMARK    2  A    between atoms: C2_3  and  C3_4 
ROOT
ATOM      1  C3  UNL d   1      -2.819   0.187  -3.399  0.00  0.00    -0.075 A 
ATOM      2  C4  UNL d   1      -3.954  -0.564  -3.735  0.00  0.00     0.002 A 
ATOM      3  C5  UNL d   1      -3.965  -1.948  -3.558  0.00  0.00     0.002 A 
ATOM      4  C6  UNL d   1      -2.841  -2.598  -3.054  0.00  0.00    -0.004 A 
ATOM      5  C7  UNL d   1      -1.702  -1.864  -2.733  0.00  0.00     0.002 A 
ATOM      6  C8  UNL d   1      -1.689  -0.478  -2.904  0.00  0.00     0.002 A 
ENDROOT
BRANCH   1   7
ATOM      7  C2  UNL d   1      -2.810   1.689  -3.560  0.00  0.00     0.056 C 
BRANCH   7   8
ATOM      8  C1  UNL d   1      -3.688   2.430  -2.546  0.00  0.00     0.007 C 
ATOM      9  C   UNL d   1      -4.273   3.725  -3.092  0.00  0.00     0.009 C 
ENDBRANCH   7   8
ENDBRANCH   1   7
TORSDOF 2
ENDMDL
