MODEL 1
REMARK minimizedAffinity 7.41434097
REMARK minimizedRMSD -1
REMARK  2 active torsions:
REMARK  status: ('A' for Active; 'I' for Inactive)
REMARK    1  A    between atoms: C1_2  and  C2_3 
REMARK    2  A    between atoms: C2_3  and  C3_4 
ROOT
ATOM      1  C3  UNL d   1      -2.263  -0.425  -0.776  0.00  0.00    -0.075 A 
ATOM      2  C4  UNL d   1      -2.527  -1.580  -1.526  0.00  0.00     0.002 A 
ATOM      3  C5  UNL d   1      -2.551  -1.530  -2.920  0.00  0.00     0.002 A 
ATOM      4  C6  UNL d   1      -2.322  -0.325  -3.581  0.00  0.00    -0.004 A 
ATOM      5  C7  UNL d   1      -2.075   0.833  -2.846  0.00  0.00     0.002 A 
ATOM      6  C8  UNL d   1      -2.046   0.784  -1.451  0.00  0.00     0.002 A 
ENDROOT
BRANCH   1   7
ATOM      7  C2  UNL d   1      -2.207  -0.478   0.732  0.00  0.00     0.056 C 
BRANCH   7   8
ATOM      8  C1  UNL d   1      -1.962  -1.881   1.297  0.00  0.00     0.007 C 
ATOM      9  C   UNL d   1      -0.536  -2.089   1.790  0.00  0.00     0.009 C 
ENDBRANCH   7   8
ENDBRANCH   1   7
TORSDOF 2
ENDMDL
