MODEL 1
REMARK minimizedAffinity 9.97708988
REMARK minimizedRMSD -1
REMARK  2 active torsions:
REMARK  status: ('A' for Active; 'I' for Inactive)
REMARK    1  A    between atoms: C1_2  and  C2_3 
REMARK    2  A    between atoms: C2_3  and  C3_4 
ROOT
ATOM      1  C3  UNL d   1      -1.773  -0.247  -0.236  0.00  0.00    -0.075 A 
ATOM      2  C4  UNL d   1      -2.160   1.086  -0.435  0.00  0.00     0.002 A 
ATOM      3  C5  UNL d   1      -2.568   1.525  -1.695  0.00  0.00     0.002 A 
ATOM      4  C6  UNL d   1      -2.585   0.641  -2.772  0.00  0.00    -0.004 A 
ATOM      5  C7  UNL d   1      -2.188  -0.681  -2.589  0.00  0.00     0.002 A 
ATOM      6  C8  UNL d   1      -1.783  -1.124  -1.329  0.00  0.00     0.002 A 
ENDROOT
BRANCH   1   7
ATOM      7  C2  UNL d   1      -1.359  -0.736   1.131  0.00  0.00     0.056 C 
BRANCH   7   8
ATOM      8  C1  UNL d   1      -1.295  -2.261   1.256  0.00  0.00     0.007 C 
ATOM      9  C   UNL d   1       0.096  -2.779   1.597  0.00  0.00     0.009 C 
ENDBRANCH   7   8
ENDBRANCH   1   7
TORSDOF 2
ENDMDL
