MODEL 1
REMARK minimizedAffinity 9.1083374
REMARK minimizedRMSD -1
REMARK  2 active torsions:
REMARK  status: ('A' for Active; 'I' for Inactive)
REMARK    1  A    between atoms: C1_2  and  C2_3 
REMARK    2  A    between atoms: C2_3  and  C3_4 
ROOT
ATOM      1  C3  UNL d   1       1.360   4.772   0.165  0.00  0.00    -0.075 A 
ATOM      2  C4  UNL d   1       0.786   3.600   0.677  0.00  0.00     0.002 A 
ATOM      3  C5  UNL d   1      -0.482   3.627   1.258  0.00  0.00     0.002 A 
ATOM      4  C6  UNL d   1      -1.187   4.826   1.344  0.00  0.00    -0.004 A 
ATOM      5  C7  UNL d   1      -0.619   6.000   0.854  0.00  0.00     0.002 A 
ATOM      6  C8  UNL d   1       0.647   5.975   0.268  0.00  0.00     0.002 A 
ENDROOT
BRANCH   1   7
ATOM      7  C2  UNL d   1       2.719   4.744  -0.491  0.00  0.00     0.056 C 
BRANCH   7   8
ATOM      8  C1  UNL d   1       3.616   5.930  -0.119  0.00  0.00     0.007 C 
ATOM      9  C   UNL d   1       5.101   5.591  -0.145  0.00  0.00     0.009 C 
ENDBRANCH   7   8
ENDBRANCH   1   7
TORSDOF 2
ENDMDL
