MODEL 1
REMARK minimizedAffinity 4.16578627
REMARK minimizedRMSD -1
REMARK  2 active torsions:
REMARK  status: ('A' for Active; 'I' for Inactive)
REMARK    1  A    between atoms: C1_2  and  C2_3 
REMARK    2  A    between atoms: C2_3  and  C3_4 
ROOT
ATOM      1  C3  UNL d   1      -2.525   0.968  -2.731  0.00  0.00    -0.075 A 
ATOM      2  C4  UNL d   1      -2.581   0.621  -4.089  0.00  0.00     0.002 A 
ATOM      3  C5  UNL d   1      -1.857  -0.469  -4.573  0.00  0.00     0.002 A 
ATOM      4  C6  UNL d   1      -1.061  -1.218  -3.709  0.00  0.00    -0.004 A 
ATOM      5  C7  UNL d   1      -0.984  -0.873  -2.362  0.00  0.00     0.002 A 
ATOM      6  C8  UNL d   1      -1.711   0.215  -1.874  0.00  0.00     0.002 A 
ENDROOT
BRANCH   1   7
ATOM      7  C2  UNL d   1      -3.329   2.128  -2.196  0.00  0.00     0.056 C 
BRANCH   7   8
ATOM      8  C1  UNL d   1      -3.335   3.358  -3.110  0.00  0.00     0.007 C 
ATOM      9  C   UNL d   1      -4.010   4.570  -2.482  0.00  0.00     0.009 C 
ENDBRANCH   7   8
ENDBRANCH   1   7
TORSDOF 2
ENDMDL
