MODEL 1
REMARK minimizedAffinity 5.67037106
REMARK minimizedRMSD -1
REMARK  2 active torsions:
REMARK  status: ('A' for Active; 'I' for Inactive)
REMARK    1  A    between atoms: C1_2  and  C2_3 
REMARK    2  A    between atoms: C2_3  and  C3_4 
ROOT
ATOM      1  C3  UNL d   1       1.734  -0.177   2.508  0.00  0.00    -0.075 A 
ATOM      2  C4  UNL d   1       1.660  -1.538   2.840  0.00  0.00     0.002 A 
ATOM      3  C5  UNL d   1       1.996  -1.974   4.122  0.00  0.00     0.002 A 
ATOM      4  C6  UNL d   1       2.421  -1.059   5.083  0.00  0.00    -0.004 A 
ATOM      5  C7  UNL d   1       2.515   0.293   4.760  0.00  0.00     0.002 A 
ATOM      6  C8  UNL d   1       2.175   0.732   3.479  0.00  0.00     0.002 A 
ENDROOT
BRANCH   1   7
ATOM      7  C2  UNL d   1       1.343   0.305   1.132  0.00  0.00     0.056 C 
BRANCH   7   8
ATOM      8  C1  UNL d   1       0.770   1.726   1.109  0.00  0.00     0.007 C 
ATOM      9  C   UNL d   1       0.366   2.188  -0.285  0.00  0.00     0.009 C 
ENDBRANCH   7   8
ENDBRANCH   1   7
TORSDOF 2
ENDMDL
