MODEL 1
REMARK minimizedAffinity -3.03978491
REMARK minimizedRMSD -1
REMARK  1 active torsions:
REMARK  status: ('A' for Active; 'I' for Inactive)
REMARK    1  A    between atoms: C3_4  and  O_7 
ROOT
ATOM      1  C   UNL d   1       5.188   1.180  -1.114  0.00  0.00    -0.033 A 
ATOM      2  C1  UNL d   1       6.000   1.108  -2.247  0.00  0.00     0.039 A 
ATOM      3  C2  UNL d   1       5.554   0.435  -3.386  0.00  0.00    -0.080 A 
ATOM      4  C3  UNL d   1       4.296  -0.160  -3.380  0.00  0.00     0.150 A 
ATOM      5  C4  UNL d   1       3.480  -0.090  -2.255  0.00  0.00    -0.007 A 
ATOM      6  C5  UNL d   1       3.927   0.582  -1.118  0.00  0.00     0.039 A 
ENDROOT
BRANCH   4   7
ATOM      7  O   UNL d   1       3.820  -0.832  -4.466  0.00  0.00    -0.526 OA
ATOM      8  H5  UNL d   1       4.503  -0.824  -5.157  0.00  0.00     0.418 HD
ENDBRANCH   4   7
TORSDOF 1
ENDMDL
