MODEL 1
REMARK minimizedAffinity -2.94779921
REMARK minimizedRMSD -1
REMARK  1 active torsions:
REMARK  status: ('A' for Active; 'I' for Inactive)
REMARK    1  A    between atoms: C3_4  and  O_7 
ROOT
ATOM      1  C   UNL d   1       1.157   0.087  -0.791  0.00  0.00    -0.033 A 
ATOM      2  C1  UNL d   1       1.664   0.778   0.312  0.00  0.00     0.039 A 
ATOM      3  C2  UNL d   1       1.167   2.042   0.635  0.00  0.00    -0.080 A 
ATOM      4  C3  UNL d   1       0.165   2.604  -0.152  0.00  0.00     0.150 A 
ATOM      5  C4  UNL d   1      -0.347   1.920  -1.250  0.00  0.00    -0.007 A 
ATOM      6  C5  UNL d   1       0.151   0.658  -1.571  0.00  0.00     0.039 A 
ENDROOT
BRANCH   4   7
ATOM      7  O   UNL d   1      -0.348   3.837   0.121  0.00  0.00    -0.526 OA
ATOM      8  H5  UNL d   1       0.121   4.202   0.889  0.00  0.00     0.418 HD
ENDBRANCH   4   7
TORSDOF 1
ENDMDL
