MODEL 1
REMARK minimizedAffinity 5.94273758
REMARK minimizedRMSD -1
REMARK  1 active torsions:
REMARK  status: ('A' for Active; 'I' for Inactive)
REMARK    1  A    between atoms: C3_4  and  O_7 
ROOT
ATOM      1  C   UNL d   1       2.125   0.252   1.008  0.00  0.00    -0.033 A 
ATOM      2  C1  UNL d   1       3.427   0.583   0.628  0.00  0.00     0.039 A 
ATOM      3  C2  UNL d   1       3.795   0.546  -0.718  0.00  0.00    -0.080 A 
ATOM      4  C3  UNL d   1       2.852   0.178  -1.674  0.00  0.00     0.150 A 
ATOM      5  C4  UNL d   1       1.552  -0.150  -1.303  0.00  0.00    -0.007 A 
ATOM      6  C5  UNL d   1       1.187  -0.113   0.042  0.00  0.00     0.039 A 
ENDROOT
BRANCH   4   7
ATOM      7  O   UNL d   1       3.165   0.122  -3.000  0.00  0.00    -0.526 OA
ATOM      8  H5  UNL d   1       4.105   0.346  -3.103  0.00  0.00     0.418 HD
ENDBRANCH   4   7
TORSDOF 1
ENDMDL
