MODEL 1
REMARK minimizedAffinity 0.576923788
REMARK minimizedRMSD -1
REMARK  1 active torsions:
REMARK  status: ('A' for Active; 'I' for Inactive)
REMARK    1  A    between atoms: C3_4  and  O_7 
ROOT
ATOM      1  C   UNL d   1       2.303   0.563   0.745  0.00  0.00    -0.033 A 
ATOM      2  C1  UNL d   1       3.602   0.821   0.302  0.00  0.00     0.039 A 
ATOM      3  C2  UNL d   1       3.897   0.780  -1.062  0.00  0.00    -0.080 A 
ATOM      4  C3  UNL d   1       2.887   0.480  -1.971  0.00  0.00     0.150 A 
ATOM      5  C4  UNL d   1       1.590   0.226  -1.538  0.00  0.00    -0.007 A 
ATOM      6  C5  UNL d   1       1.297   0.267  -0.175  0.00  0.00     0.039 A 
ENDROOT
BRANCH   4   7
ATOM      7  O   UNL d   1       3.128   0.423  -3.312  0.00  0.00    -0.526 OA
ATOM      8  H5  UNL d   1       4.074   0.592  -3.462  0.00  0.00     0.418 HD
ENDBRANCH   4   7
TORSDOF 1
ENDMDL
