MODEL 1
REMARK minimizedAffinity 1.7264421
REMARK minimizedRMSD -1
REMARK  1 active torsions:
REMARK  status: ('A' for Active; 'I' for Inactive)
REMARK    1  A    between atoms: C3_4  and  O_7 
ROOT
ATOM      1  C   UNL d   1       1.801   0.012   1.268  0.00  0.00    -0.033 A 
ATOM      2  C1  UNL d   1       1.021  -0.115   0.117  0.00  0.00     0.039 A 
ATOM      3  C2  UNL d   1       1.575   0.146  -1.137  0.00  0.00    -0.080 A 
ATOM      4  C3  UNL d   1       2.910   0.532  -1.227  0.00  0.00     0.150 A 
ATOM      5  C4  UNL d   1       3.695   0.656  -0.085  0.00  0.00    -0.007 A 
ATOM      6  C5  UNL d   1       3.138   0.396   1.167  0.00  0.00     0.039 A 
ENDROOT
BRANCH   4   7
ATOM      7  O   UNL d   1       3.495   0.802  -2.428  0.00  0.00    -0.526 OA
ATOM      8  H5  UNL d   1       2.825   0.702  -3.126  0.00  0.00     0.418 HD
ENDBRANCH   4   7
TORSDOF 1
ENDMDL
