MODEL 1
REMARK minimizedAffinity 1.92087889
REMARK minimizedRMSD -1
REMARK  1 active torsions:
REMARK  status: ('A' for Active; 'I' for Inactive)
REMARK    1  A    between atoms: C3_4  and  O_7 
ROOT
ATOM      1  C   UNL d   1       1.535  -0.293   0.375  0.00  0.00    -0.033 A 
ATOM      2  C1  UNL d   1       0.790  -0.622  -0.760  0.00  0.00     0.039 A 
ATOM      3  C2  UNL d   1       1.316  -0.393  -2.033  0.00  0.00    -0.080 A 
ATOM      4  C3  UNL d   1       2.586   0.164  -2.157  0.00  0.00     0.150 A 
ATOM      5  C4  UNL d   1       3.335   0.490  -1.031  0.00  0.00    -0.007 A 
ATOM      6  C5  UNL d   1       2.808   0.262   0.239  0.00  0.00     0.039 A 
ENDROOT
BRANCH   4   7
ATOM      7  O   UNL d   1       3.140   0.410  -3.378  0.00  0.00    -0.526 OA
ATOM      8  H5  UNL d   1       2.497   0.161  -4.063  0.00  0.00     0.418 HD
ENDBRANCH   4   7
TORSDOF 1
ENDMDL
