MODEL 1
REMARK minimizedAffinity 1.92376649
REMARK minimizedRMSD -1
REMARK  1 active torsions:
REMARK  status: ('A' for Active; 'I' for Inactive)
REMARK    1  A    between atoms: C3_4  and  O_7 
ROOT
ATOM      1  C   UNL d   1       5.013   1.895   0.531  0.00  0.00    -0.033 A 
ATOM      2  C1  UNL d   1       3.991   0.955   0.677  0.00  0.00     0.039 A 
ATOM      3  C2  UNL d   1       3.350   0.438  -0.451  0.00  0.00    -0.080 A 
ATOM      4  C3  UNL d   1       3.741   0.867  -1.716  0.00  0.00     0.150 A 
ATOM      5  C4  UNL d   1       4.761   1.800  -1.869  0.00  0.00    -0.007 A 
ATOM      6  C5  UNL d   1       5.399   2.316  -0.742  0.00  0.00     0.039 A 
ENDROOT
BRANCH   4   7
ATOM      7  O   UNL d   1       3.142   0.394  -2.846  0.00  0.00    -0.526 OA
ATOM      8  H5  UNL d   1       2.436  -0.222  -2.585  0.00  0.00     0.418 HD
ENDBRANCH   4   7
TORSDOF 1
ENDMDL
