MODEL 1
REMARK minimizedAffinity 2.85335732
REMARK minimizedRMSD -1
REMARK  1 active torsions:
REMARK  status: ('A' for Active; 'I' for Inactive)
REMARK    1  A    between atoms: C3_4  and  O_7 
ROOT
ATOM      1  C   UNL d   1       2.784   0.671  -1.104  0.00  0.00    -0.033 A 
ATOM      2  C1  UNL d   1       3.304   1.294   0.032  0.00  0.00     0.039 A 
ATOM      3  C2  UNL d   1       3.178   0.685   1.283  0.00  0.00    -0.080 A 
ATOM      4  C3  UNL d   1       2.533  -0.544   1.383  0.00  0.00     0.150 A 
ATOM      5  C4  UNL d   1       2.017  -1.172   0.254  0.00  0.00    -0.007 A 
ATOM      6  C5  UNL d   1       2.142  -0.563  -0.993  0.00  0.00     0.039 A 
ENDROOT
BRANCH   4   7
ATOM      7  O   UNL d   1       2.382  -1.174   2.583  0.00  0.00    -0.526 OA
ATOM      8  H5  UNL d   1       2.763  -0.610   3.276  0.00  0.00     0.418 HD
ENDBRANCH   4   7
TORSDOF 1
ENDMDL
