MODEL 1
REMARK minimizedAffinity 9.69727039
REMARK minimizedRMSD -1
REMARK  0 active torsions:
REMARK  status: ('A' for Active; 'I' for Inactive)
ROOT
ATOM      1  N1  IND d   1       0.855   3.230  -0.943  0.00  0.00    -0.196 N 
ATOM      2  C2  IND d   1       0.795   2.950   0.393  0.00  0.00     0.054 A 
ATOM      3  C3  IND d   1      -0.160   3.701   0.988  0.00  0.00    -0.031 A 
ATOM      4  C4  IND d   1      -1.810   5.377  -0.058  0.00  0.00     0.051 A 
ATOM      5  C5  IND d   1      -2.115   5.994  -1.238  0.00  0.00    -0.031 A 
ATOM      6  C6  IND d   1      -1.434   5.713  -2.405  0.00  0.00     0.015 A 
ATOM      7  C7  IND d   1      -0.425   4.792  -2.437  0.00  0.00    -0.016 A 
ATOM      8  C8  IND d   1      -0.108   4.170  -1.239  0.00  0.00    -0.047 A 
ATOM      9  C9  IND d   1      -0.767   4.482  -0.043  0.00  0.00    -0.096 A 
ATOM     10  HN1 IND d   1       1.403   2.878  -1.505  0.00  0.00     0.298 HD
ENDROOT
TORSDOF 0
ENDMDL
