MODEL 1
REMARK minimizedAffinity 0.934965551
REMARK minimizedRMSD -1
REMARK  0 active torsions:
REMARK  status: ('A' for Active; 'I' for Inactive)
ROOT
ATOM      1  N1  IND d   1       0.221   5.784  -2.506  0.00  0.00    -0.196 N 
ATOM      2  C2  IND d   1      -1.114   5.999  -2.707  0.00  0.00     0.054 A 
ATOM      3  C3  IND d   1      -1.841   5.359  -1.764  0.00  0.00    -0.031 A 
ATOM      4  C4  IND d   1      -1.044   3.986   0.263  0.00  0.00     0.051 A 
ATOM      5  C5  IND d   1       0.084   3.481   0.846  0.00  0.00    -0.031 A 
ATOM      6  C6  IND d   1       1.341   3.725   0.332  0.00  0.00     0.015 A 
ATOM      7  C7  IND d   1       1.519   4.496  -0.782  0.00  0.00    -0.016 A 
ATOM      8  C8  IND d   1       0.375   5.005  -1.380  0.00  0.00    -0.047 A 
ATOM      9  C9  IND d   1      -0.907   4.726  -0.888  0.00  0.00    -0.096 A 
ATOM     10  HN1 IND d   1       0.858   6.085  -2.999  0.00  0.00     0.298 HD
ENDROOT
TORSDOF 0
ENDMDL
