MODEL 1
REMARK minimizedAffinity 3.79485583
REMARK minimizedRMSD -1
REMARK  0 active torsions:
REMARK  status: ('A' for Active; 'I' for Inactive)
ROOT
ATOM      1  N1  IND d   1      -0.981   5.555  -2.435  0.00  0.00    -0.196 N 
ATOM      2  C2  IND d   1      -2.298   5.195  -2.487  0.00  0.00     0.054 A 
ATOM      3  C3  IND d   1      -2.545   4.185  -1.622  0.00  0.00    -0.031 A 
ATOM      4  C4  IND d   1      -0.957   3.040   0.050  0.00  0.00     0.051 A 
ATOM      5  C5  IND d   1       0.352   3.001   0.438  0.00  0.00    -0.031 A 
ATOM      6  C6  IND d   1       1.303   3.830  -0.120  0.00  0.00     0.015 A 
ATOM      7  C7  IND d   1       0.976   4.741  -1.085  0.00  0.00    -0.016 A 
ATOM      8  C8  IND d   1      -0.351   4.778  -1.487  0.00  0.00    -0.047 A 
ATOM      9  C9  IND d   1      -1.313   3.910  -0.954  0.00  0.00    -0.096 A 
ATOM     10  HN1 IND d   1      -0.607   6.163  -2.914  0.00  0.00     0.298 HD
ENDROOT
TORSDOF 0
ENDMDL
