MODEL 1
REMARK minimizedAffinity 5.38827801
REMARK minimizedRMSD -1
REMARK  0 active torsions:
REMARK  status: ('A' for Active; 'I' for Inactive)
ROOT
ATOM      1  N1  IND d   1       1.202   3.943   0.335  0.00  0.00    -0.196 N 
ATOM      2  C2  IND d   1       0.132   3.970  -0.515  0.00  0.00     0.054 A 
ATOM      3  C3  IND d   1      -0.865   3.189  -0.041  0.00  0.00    -0.031 A 
ATOM      4  C4  IND d   1      -0.994   1.858   2.158  0.00  0.00     0.051 A 
ATOM      5  C5  IND d   1      -0.247   1.497   3.244  0.00  0.00    -0.031 A 
ATOM      6  C6  IND d   1       1.047   1.944   3.421  0.00  0.00     0.015 A 
ATOM      7  C7  IND d   1       1.640   2.782   2.520  0.00  0.00    -0.016 A 
ATOM      8  C8  IND d   1       0.887   3.145   1.412  0.00  0.00    -0.047 A 
ATOM      9  C9  IND d   1      -0.411   2.660   1.206  0.00  0.00    -0.096 A 
ATOM     10  HN1 IND d   1       1.947   4.356   0.216  0.00  0.00     0.298 HD
ENDROOT
TORSDOF 0
ENDMDL
