MODEL 1
REMARK minimizedAffinity 8.98898602
REMARK minimizedRMSD -1
REMARK  0 active torsions:
REMARK  status: ('A' for Active; 'I' for Inactive)
ROOT
ATOM      1  N1  IND d   1       3.212  -4.731  -2.501  0.00  0.00    -0.196 N 
ATOM      2  C2  IND d   1       3.800  -5.959  -2.616  0.00  0.00     0.054 A 
ATOM      3  C3  IND d   1       4.949  -5.999  -1.904  0.00  0.00    -0.031 A 
ATOM      4  C4  IND d   1       6.000  -4.200  -0.393  0.00  0.00     0.051 A 
ATOM      5  C5  IND d   1       5.847  -2.900  -0.000  0.00  0.00    -0.031 A 
ATOM      6  C6  IND d   1       4.785  -2.129  -0.427  0.00  0.00     0.015 A 
ATOM      7  C7  IND d   1       3.826  -2.635  -1.258  0.00  0.00    -0.016 A 
ATOM      8  C8  IND d   1       3.982  -3.953  -1.665  0.00  0.00    -0.047 A 
ATOM      9  C9  IND d   1       5.080  -4.727  -1.268  0.00  0.00    -0.096 A 
ATOM     10  HN1 IND d   1       2.483  -4.485  -2.886  0.00  0.00     0.298 HD
ENDROOT
TORSDOF 0
ENDMDL
