MODEL 1
REMARK minimizedAffinity 3.33596849
REMARK minimizedRMSD -1
REMARK  3 active torsions:
REMARK  status: ('A' for Active; 'I' for Inactive)
REMARK    1  A    between atoms: C3'_2  and  C2'_3 
REMARK    2  A    between atoms: C2'_3  and  C1'_4 
REMARK    3  A    between atoms: C1'_4  and  C1_5 
ROOT
ATOM      1  C1  N4B d   1       3.046   0.590  -1.343  0.00  0.00    -0.075 A 
ATOM      2  C2  N4B d   1       2.347  -0.232  -0.432  0.00  0.00     0.002 A 
ATOM      3  C3  N4B d   1       1.880  -1.459  -0.835  0.00  0.00     0.002 A 
ATOM      4  C4  N4B d   1       2.082  -1.876  -2.142  0.00  0.00    -0.004 A 
ATOM      5  C5  N4B d   1       2.781  -1.086  -3.008  0.00  0.00     0.002 A 
ATOM      6  C6  N4B d   1       3.260   0.148  -2.616  0.00  0.00     0.002 A 
ENDROOT
BRANCH   1   7
ATOM      7  C1' N4B d   1       3.501   1.976  -0.974  0.00  0.00     0.057 C 
BRANCH   7   8
ATOM      8  C2' N4B d   1       4.705   2.352  -1.832  0.00  0.00     0.009 C 
BRANCH   8   9
ATOM      9  C3' N4B d   1       5.999   2.336  -1.035  0.00  0.00     0.004 C 
ATOM     10  C4' N4B d   1       5.899   3.101   0.250  0.00  0.00     0.003 C 
ENDBRANCH   8   9
ENDBRANCH   7   8
ENDBRANCH   1   7
TORSDOF 3
ENDMDL
