MODEL 1
REMARK minimizedAffinity 5.15221739
REMARK minimizedRMSD -1
REMARK  3 active torsions:
REMARK  status: ('A' for Active; 'I' for Inactive)
REMARK    1  A    between atoms: C3'_2  and  C2'_3 
REMARK    2  A    between atoms: C2'_3  and  C1'_4 
REMARK    3  A    between atoms: C1'_4  and  C1_5 
ROOT
ATOM      1  C1  N4B d   1       3.338   1.673  -0.619  0.00  0.00    -0.075 A 
ATOM      2  C2  N4B d   1       3.187   3.027  -0.247  0.00  0.00     0.002 A 
ATOM      3  C3  N4B d   1       4.296   3.816  -0.063  0.00  0.00     0.002 A 
ATOM      4  C4  N4B d   1       5.560   3.270  -0.226  0.00  0.00    -0.004 A 
ATOM      5  C5  N4B d   1       5.697   1.969  -0.610  0.00  0.00     0.002 A 
ATOM      6  C6  N4B d   1       4.591   1.165  -0.802  0.00  0.00     0.002 A 
ENDROOT
BRANCH   1   7
ATOM      7  C1' N4B d   1       2.158   0.748  -0.748  0.00  0.00     0.057 C 
BRANCH   7   8
ATOM      8  C2' N4B d   1       2.563  -0.648  -0.285  0.00  0.00     0.009 C 
BRANCH   8   9
ATOM      9  C3' N4B d   1       1.858  -1.736  -1.077  0.00  0.00     0.004 C 
ATOM     10  C4' N4B d   1       2.382  -1.868  -2.476  0.00  0.00     0.003 C 
ENDBRANCH   8   9
ENDBRANCH   7   8
ENDBRANCH   1   7
TORSDOF 3
ENDMDL
