MODEL 1
REMARK minimizedAffinity 0.89897722
REMARK minimizedRMSD -1
REMARK  3 active torsions:
REMARK  status: ('A' for Active; 'I' for Inactive)
REMARK    1  A    between atoms: C3'_2  and  C2'_3 
REMARK    2  A    between atoms: C2'_3  and  C1'_4 
REMARK    3  A    between atoms: C1'_4  and  C1_5 
ROOT
ATOM      1  C1  N4B d   1      -5.026   1.538  -3.965  0.00  0.00    -0.075 A 
ATOM      2  C2  N4B d   1      -5.655   2.249  -5.011  0.00  0.00     0.002 A 
ATOM      3  C3  N4B d   1      -4.921   3.094  -5.806  0.00  0.00     0.002 A 
ATOM      4  C4  N4B d   1      -3.565   3.258  -5.564  0.00  0.00    -0.004 A 
ATOM      5  C5  N4B d   1      -2.960   2.549  -4.568  0.00  0.00     0.002 A 
ATOM      6  C6  N4B d   1      -3.685   1.693  -3.763  0.00  0.00     0.002 A 
ENDROOT
BRANCH   1   7
ATOM      7  C1' N4B d   1      -5.803   0.669  -3.015  0.00  0.00     0.057 C 
BRANCH   7   8
ATOM      8  C2' N4B d   1      -4.845   0.054  -2.000  0.00  0.00     0.009 C 
BRANCH   8   9
ATOM      9  C3' N4B d   1      -5.565  -0.844  -1.009  0.00  0.00     0.004 C 
ATOM     10  C4' N4B d   1      -5.462  -0.350   0.403  0.00  0.00     0.003 C 
ENDBRANCH   8   9
ENDBRANCH   7   8
ENDBRANCH   1   7
TORSDOF 3
ENDMDL
