MODEL 1
REMARK minimizedAffinity 3.52903938
REMARK minimizedRMSD -1
REMARK  3 active torsions:
REMARK  status: ('A' for Active; 'I' for Inactive)
REMARK    1  A    between atoms: C3'_2  and  C2'_3 
REMARK    2  A    between atoms: C2'_3  and  C1'_4 
REMARK    3  A    between atoms: C1'_4  and  C1_5 
ROOT
ATOM      1  C1  N4B d   1      -5.249   1.750  -4.105  0.00  0.00    -0.075 A 
ATOM      2  C2  N4B d   1      -3.842   1.870  -4.100  0.00  0.00     0.002 A 
ATOM      3  C3  N4B d   1      -3.217   2.654  -5.038  0.00  0.00     0.002 A 
ATOM      4  C4  N4B d   1      -3.973   3.308  -6.000  0.00  0.00    -0.004 A 
ATOM      5  C5  N4B d   1      -5.333   3.206  -5.983  0.00  0.00     0.002 A 
ATOM      6  C6  N4B d   1      -5.975   2.426  -5.043  0.00  0.00     0.002 A 
ENDROOT
BRANCH   1   7
ATOM      7  C1' N4B d   1      -5.972   0.837  -3.153  0.00  0.00     0.057 C 
BRANCH   7   8
ATOM      8  C2' N4B d   1      -5.037   0.470  -2.004  0.00  0.00     0.009 C 
BRANCH   8   9
ATOM      9  C3' N4B d   1      -5.571  -0.692  -1.185  0.00  0.00     0.004 C 
ATOM     10  C4' N4B d   1      -5.249  -0.571   0.275  0.00  0.00     0.003 C 
ENDBRANCH   8   9
ENDBRANCH   7   8
ENDBRANCH   1   7
TORSDOF 3
ENDMDL
