MODEL 1
REMARK minimizedAffinity -3.54669404
REMARK minimizedRMSD -1
REMARK  0 active torsions:
REMARK  status: ('A' for Active; 'I' for Inactive)
ROOT
ATOM      1  C   UNL d   1       0.631  -2.563   1.963  0.00  0.00     0.023 A 
ATOM      2  C1  UNL d   1       1.864  -2.130   1.476  0.00  0.00     0.003 A 
ATOM      3  C2  UNL d   1       1.931  -1.027   0.622  0.00  0.00     0.048 A 
ATOM      4  C3  UNL d   1       0.760  -0.361   0.261  0.00  0.00     0.023 A 
ATOM      5  C4  UNL d   1      -0.476  -0.790   0.747  0.00  0.00     0.048 A 
ATOM      6  C5  UNL d   1      -0.537  -1.894   1.600  0.00  0.00     0.003 A 
ATOM      7  I   UNL d   1       0.856   1.281  -1.009  0.00  0.00    -0.146 I 
ENDROOT
TORSDOF 0
ENDMDL
