MODEL 1
REMARK minimizedAffinity -1.87105036
REMARK minimizedRMSD -1
REMARK  0 active torsions:
REMARK  status: ('A' for Active; 'I' for Inactive)
ROOT
ATOM      1  C   UNL d   1       0.195  -0.894   1.000  0.00  0.00     0.023 A 
ATOM      2  C1  UNL d   1       1.391  -0.259   0.667  0.00  0.00     0.003 A 
ATOM      3  C2  UNL d   1       1.445   0.601  -0.432  0.00  0.00     0.048 A 
ATOM      4  C3  UNL d   1       0.298   0.823  -1.193  0.00  0.00     0.023 A 
ATOM      5  C4  UNL d   1      -0.902   0.190  -0.863  0.00  0.00     0.048 A 
ATOM      6  C5  UNL d   1      -0.950  -0.670   0.236  0.00  0.00     0.003 A 
ATOM      7  I   UNL d   1       0.374   2.102  -2.829  0.00  0.00    -0.146 I 
ENDROOT
TORSDOF 0
ENDMDL
