MODEL 1
REMARK minimizedAffinity -4.30617714
REMARK minimizedRMSD -1
REMARK  0 active torsions:
REMARK  status: ('A' for Active; 'I' for Inactive)
ROOT
ATOM      1  C   UNL d   1      -2.960  -1.460   2.062  0.00  0.00     0.023 A 
ATOM      2  C1  UNL d   1      -1.863  -2.082   1.465  0.00  0.00     0.003 A 
ATOM      3  C2  UNL d   1      -0.965  -1.334   0.701  0.00  0.00     0.048 A 
ATOM      4  C3  UNL d   1      -1.168   0.036   0.541  0.00  0.00     0.023 A 
ATOM      5  C4  UNL d   1      -2.263   0.663   1.138  0.00  0.00     0.048 A 
ATOM      6  C5  UNL d   1      -3.159  -0.089   1.899  0.00  0.00     0.003 A 
ATOM      7  I   UNL d   1       0.169   1.152  -0.594  0.00  0.00    -0.146 I 
ENDROOT
TORSDOF 0
ENDMDL
