MODEL 1
REMARK minimizedAffinity -4.45858002
REMARK minimizedRMSD -1
REMARK  0 active torsions:
REMARK  status: ('A' for Active; 'I' for Inactive)
ROOT
ATOM      1  C   UNL d   1      -0.326  -2.380   1.460  0.00  0.00     0.023 A 
ATOM      2  C1  UNL d   1      -1.240  -1.461   0.946  0.00  0.00     0.003 A 
ATOM      3  C2  UNL d   1      -0.788  -0.273   0.367  0.00  0.00     0.048 A 
ATOM      4  C3  UNL d   1       0.581  -0.012   0.305  0.00  0.00     0.023 A 
ATOM      5  C4  UNL d   1       1.499  -0.930   0.817  0.00  0.00     0.048 A 
ATOM      6  C5  UNL d   1       1.042  -2.115   1.396  0.00  0.00     0.003 A 
ATOM      7  I   UNL d   1       1.257   1.754  -0.556  0.00  0.00    -0.146 I 
ENDROOT
TORSDOF 0
ENDMDL
