MODEL 1
REMARK minimizedAffinity -1.13008499
REMARK minimizedRMSD -1
REMARK  0 active torsions:
REMARK  status: ('A' for Active; 'I' for Inactive)
ROOT
ATOM      1  C   UNL d   1      -0.088  -2.524   2.074  0.00  0.00     0.023 A 
ATOM      2  C1  UNL d   1      -1.181  -1.928   1.444  0.00  0.00     0.003 A 
ATOM      3  C2  UNL d   1      -0.979  -0.939   0.480  0.00  0.00     0.048 A 
ATOM      4  C3  UNL d   1       0.318  -0.550   0.149  0.00  0.00     0.023 A 
ATOM      5  C4  UNL d   1       1.415  -1.145   0.775  0.00  0.00     0.048 A 
ATOM      6  C5  UNL d   1       1.209  -2.133   1.739  0.00  0.00     0.003 A 
ATOM      7  I   UNL d   1       0.621   0.922  -1.286  0.00  0.00    -0.146 I 
ENDROOT
TORSDOF 0
ENDMDL
