MODEL 1
REMARK minimizedAffinity -3.11808991
REMARK minimizedRMSD -1
REMARK  0 active torsions:
REMARK  status: ('A' for Active; 'I' for Inactive)
ROOT
ATOM      1  C   UNL d   1       0.416  -2.393   0.737  0.00  0.00     0.023 A 
ATOM      2  C1  UNL d   1       0.672  -1.241  -0.006  0.00  0.00     0.003 A 
ATOM      3  C2  UNL d   1      -0.126  -0.107   0.164  0.00  0.00     0.048 A 
ATOM      4  C3  UNL d   1      -1.177  -0.133   1.080  0.00  0.00     0.023 A 
ATOM      5  C4  UNL d   1      -1.437  -1.284   1.826  0.00  0.00     0.048 A 
ATOM      6  C5  UNL d   1      -0.637  -2.415   1.651  0.00  0.00     0.003 A 
ATOM      7  I   UNL d   1      -2.366   1.553   1.335  0.00  0.00    -0.146 I 
ENDROOT
TORSDOF 0
ENDMDL
