MODEL 1
REMARK minimizedAffinity -1.16727543
REMARK minimizedRMSD -1
REMARK  0 active torsions:
REMARK  status: ('A' for Active; 'I' for Inactive)
ROOT
ATOM      1  C   UNL d   1      -0.751   1.651  -0.515  0.00  0.00     0.023 A 
ATOM      2  C1  UNL d   1      -1.893   1.587   0.284  0.00  0.00     0.003 A 
ATOM      3  C2  UNL d   1      -2.301   0.366   0.825  0.00  0.00     0.048 A 
ATOM      4  C3  UNL d   1      -1.560  -0.787   0.565  0.00  0.00     0.023 A 
ATOM      5  C4  UNL d   1      -0.416  -0.727  -0.232  0.00  0.00     0.048 A 
ATOM      6  C5  UNL d   1      -0.014   0.495  -0.772  0.00  0.00     0.003 A 
ATOM      7  I   UNL d   1      -2.165  -2.605   1.370  0.00  0.00    -0.146 I 
ENDROOT
TORSDOF 0
ENDMDL
