MODEL 1
REMARK minimizedAffinity 2.23126626
REMARK minimizedRMSD -1
REMARK  0 active torsions:
REMARK  status: ('A' for Active; 'I' for Inactive)
ROOT
ATOM      1  C   UNL d   1      -0.643   0.038   0.949  0.00  0.00     0.023 A 
ATOM      2  C1  UNL d   1      -0.935  -0.734  -0.176  0.00  0.00     0.003 A 
ATOM      3  C2  UNL d   1      -0.640  -0.249  -1.452  0.00  0.00     0.048 A 
ATOM      4  C3  UNL d   1      -0.053   1.007  -1.596  0.00  0.00     0.023 A 
ATOM      5  C4  UNL d   1       0.242   1.782  -0.474  0.00  0.00     0.048 A 
ATOM      6  C5  UNL d   1      -0.055   1.294   0.800  0.00  0.00     0.003 A 
ATOM      7  I   UNL d   1       0.387   1.730  -3.495  0.00  0.00    -0.146 I 
ENDROOT
TORSDOF 0
ENDMDL
