MODEL 1
REMARK minimizedAffinity -3.28970933
REMARK minimizedRMSD -1
REMARK  0 active torsions:
REMARK  status: ('A' for Active; 'I' for Inactive)
ROOT
ATOM      1  C   UNL d   1      -0.137  -1.967   1.061  0.00  0.00     0.023 A 
ATOM      2  C1  UNL d   1      -0.737  -0.708   1.119  0.00  0.00     0.003 A 
ATOM      3  C2  UNL d   1      -0.320   0.306   0.255  0.00  0.00     0.048 A 
ATOM      4  C3  UNL d   1       0.696   0.055  -0.666  0.00  0.00     0.023 A 
ATOM      5  C4  UNL d   1       1.298  -1.202  -0.729  0.00  0.00     0.048 A 
ATOM      6  C5  UNL d   1       0.879  -2.213   0.138  0.00  0.00     0.003 A 
ATOM      7  I   UNL d   1       1.318   1.564  -1.954  0.00  0.00    -0.146 I 
ENDROOT
TORSDOF 0
ENDMDL
