MODEL 1
REMARK minimizedAffinity -3.40830684
REMARK minimizedRMSD -1
REMARK  0 active torsions:
REMARK  status: ('A' for Active; 'I' for Inactive)
ROOT
ATOM      1  C   UNL d   1      -0.025   1.351  -0.229  0.00  0.00     0.023 A 
ATOM      2  C1  UNL d   1       0.612   0.133  -0.468  0.00  0.00     0.003 A 
ATOM      3  C2  UNL d   1       0.128  -1.037   0.120  0.00  0.00     0.048 A 
ATOM      4  C3  UNL d   1      -0.995  -0.983   0.945  0.00  0.00     0.023 A 
ATOM      5  C4  UNL d   1      -1.637   0.233   1.186  0.00  0.00     0.048 A 
ATOM      6  C5  UNL d   1      -1.148   1.401   0.596  0.00  0.00     0.003 A 
ATOM      7  I   UNL d   1      -1.718  -2.723   1.822  0.00  0.00    -0.146 I 
ENDROOT
TORSDOF 0
ENDMDL
