MODEL 1
REMARK minimizedAffinity -3.0413537
REMARK minimizedRMSD -1
REMARK  0 active torsions:
REMARK  status: ('A' for Active; 'I' for Inactive)
ROOT
ATOM      1  C   UNL d   1       1.455   2.449  -2.846  0.00  0.00     0.023 A 
ATOM      2  C1  UNL d   1       2.117   2.241  -1.635  0.00  0.00     0.003 A 
ATOM      3  C2  UNL d   1       1.561   1.398  -0.670  0.00  0.00     0.048 A 
ATOM      4  C3  UNL d   1       0.345   0.765  -0.923  0.00  0.00     0.023 A 
ATOM      5  C4  UNL d   1      -0.321   0.970  -2.133  0.00  0.00     0.048 A 
ATOM      6  C5  UNL d   1       0.238   1.814  -3.094  0.00  0.00     0.003 A 
ATOM      7  I   UNL d   1      -0.484  -0.490   0.512  0.00  0.00    -0.146 I 
ENDROOT
TORSDOF 0
ENDMDL
