MODEL 1
REMARK minimizedAffinity -5.5200243
REMARK minimizedRMSD -1
REMARK  0 active torsions:
REMARK  status: ('A' for Active; 'I' for Inactive)
ROOT
ATOM      1  C   UNL d   1      -2.276  -1.251   1.873  0.00  0.00     0.023 A 
ATOM      2  C1  UNL d   1      -1.316  -1.960   1.151  0.00  0.00     0.003 A 
ATOM      3  C2  UNL d   1      -0.492  -1.294   0.241  0.00  0.00     0.048 A 
ATOM      4  C3  UNL d   1      -0.633   0.082   0.059  0.00  0.00     0.023 A 
ATOM      5  C4  UNL d   1      -1.592   0.795   0.780  0.00  0.00     0.048 A 
ATOM      6  C5  UNL d   1      -2.414   0.125   1.688  0.00  0.00     0.003 A 
ATOM      7  I   UNL d   1       0.592   1.075  -1.294  0.00  0.00    -0.146 I 
ENDROOT
TORSDOF 0
ENDMDL
