MODEL 1
REMARK minimizedAffinity -3.43964767
REMARK minimizedRMSD -1
REMARK  0 active torsions:
REMARK  status: ('A' for Active; 'I' for Inactive)
ROOT
ATOM      1  C   UNL d   1      -1.374  -2.619   1.217  0.00  0.00     0.023 A 
ATOM      2  C1  UNL d   1      -2.226  -1.590   0.816  0.00  0.00     0.003 A 
ATOM      3  C2  UNL d   1      -1.701  -0.429   0.244  0.00  0.00     0.048 A 
ATOM      4  C3  UNL d   1      -0.323  -0.305   0.073  0.00  0.00     0.023 A 
ATOM      5  C4  UNL d   1       0.534  -1.332   0.472  0.00  0.00     0.048 A 
ATOM      6  C5  UNL d   1       0.005  -2.490   1.045  0.00  0.00     0.003 A 
ATOM      7  I   UNL d   1       0.460   1.421  -0.779  0.00  0.00    -0.146 I 
ENDROOT
TORSDOF 0
ENDMDL
