MODEL 1
REMARK minimizedAffinity -3.55861759
REMARK minimizedRMSD -1
REMARK  0 active torsions:
REMARK  status: ('A' for Active; 'I' for Inactive)
ROOT
ATOM      1  C   UNL d   1      -0.709  -2.189   1.644  0.00  0.00     0.023 A 
ATOM      2  C1  UNL d   1      -1.399  -0.977   1.649  0.00  0.00     0.003 A 
ATOM      3  C2  UNL d   1      -0.996   0.061   0.807  0.00  0.00     0.048 A 
ATOM      4  C3  UNL d   1       0.098  -0.119  -0.039  0.00  0.00     0.023 A 
ATOM      5  C4  UNL d   1       0.791  -1.331  -0.048  0.00  0.00     0.048 A 
ATOM      6  C5  UNL d   1       0.385  -2.366   0.796  0.00  0.00     0.003 A 
ATOM      7  I   UNL d   1       0.699   1.424  -1.294  0.00  0.00    -0.146 I 
ENDROOT
TORSDOF 0
ENDMDL
