MODEL 1
REMARK minimizedAffinity -4.70484161
REMARK minimizedRMSD -1
REMARK  0 active torsions:
REMARK  status: ('A' for Active; 'I' for Inactive)
ROOT
ATOM      1  C   UNL d   1      -1.132  -2.859   1.125  0.00  0.00     0.023 A 
ATOM      2  C1  UNL d   1       0.234  -2.584   1.190  0.00  0.00     0.003 A 
ATOM      3  C2  UNL d   1       0.711  -1.319   0.841  0.00  0.00     0.048 A 
ATOM      4  C3  UNL d   1      -0.184  -0.332   0.430  0.00  0.00     0.023 A 
ATOM      5  C4  UNL d   1      -1.552  -0.602   0.364  0.00  0.00     0.048 A 
ATOM      6  C5  UNL d   1      -2.024  -1.869   0.713  0.00  0.00     0.003 A 
ATOM      7  I   UNL d   1       0.523   1.552  -0.089  0.00  0.00    -0.146 I 
ENDROOT
TORSDOF 0
ENDMDL
