MODEL 1
REMARK minimizedAffinity -4.09779215
REMARK minimizedRMSD -1
REMARK  0 active torsions:
REMARK  status: ('A' for Active; 'I' for Inactive)
ROOT
ATOM      1  C   UNL d   1      -1.590  -2.908   1.055  0.00  0.00     0.023 A 
ATOM      2  C1  UNL d   1      -0.197  -2.908   1.125  0.00  0.00     0.003 A 
ATOM      3  C2  UNL d   1       0.526  -1.793   0.695  0.00  0.00     0.048 A 
ATOM      4  C3  UNL d   1      -0.152  -0.680   0.198  0.00  0.00     0.023 A 
ATOM      5  C4  UNL d   1      -1.546  -0.675   0.127  0.00  0.00     0.048 A 
ATOM      6  C5  UNL d   1      -2.264  -1.792   0.557  0.00  0.00     0.003 A 
ATOM      7  I   UNL d   1       0.921   0.981  -0.443  0.00  0.00    -0.146 I 
ENDROOT
TORSDOF 0
ENDMDL
