MODEL 1
REMARK minimizedAffinity -3.81635499
REMARK minimizedRMSD -1
REMARK  0 active torsions:
REMARK  status: ('A' for Active; 'I' for Inactive)
ROOT
ATOM      1  C   UNL d   1       1.512   2.267  -3.442  0.00  0.00     0.023 A 
ATOM      2  C1  UNL d   1       1.652   0.885  -3.571  0.00  0.00     0.003 A 
ATOM      3  C2  UNL d   1       1.236   0.041  -2.539  0.00  0.00     0.048 A 
ATOM      4  C3  UNL d   1       0.680   0.585  -1.382  0.00  0.00     0.023 A 
ATOM      5  C4  UNL d   1       0.537   1.967  -1.249  0.00  0.00     0.048 A 
ATOM      6  C5  UNL d   1       0.955   2.807  -2.283  0.00  0.00     0.003 A 
ATOM      7  I   UNL d   1       0.060  -0.670   0.154  0.00  0.00    -0.146 I 
ENDROOT
TORSDOF 0
ENDMDL
