MODEL 1
REMARK minimizedAffinity -4.72209787
REMARK minimizedRMSD -1
REMARK  2 active torsions:
REMARK  status: ('A' for Active; 'I' for Inactive)
REMARK    1  A    between atoms: C1_2  and  C2_3 
REMARK    2  A    between atoms: C2_3  and  C3_4 
ROOT
ATOM      1  C3  UNL d   1      -0.698  -0.994  -0.569  0.00  0.00    -0.075 A 
ATOM      2  C4  UNL d   1       0.396  -1.481   0.160  0.00  0.00     0.002 A 
ATOM      3  C5  UNL d   1       0.746  -2.830   0.097  0.00  0.00     0.002 A 
ATOM      4  C6  UNL d   1       0.002  -3.709  -0.686  0.00  0.00    -0.004 A 
ATOM      5  C7  UNL d   1      -1.097  -3.240  -1.402  0.00  0.00     0.002 A 
ATOM      6  C8  UNL d   1      -1.447  -1.889  -1.344  0.00  0.00     0.002 A 
ENDROOT
BRANCH   1   7
ATOM      7  C2  UNL d   1      -1.064   0.471  -0.528  0.00  0.00     0.056 C 
BRANCH   7   8
ATOM      8  C1  UNL d   1      -1.355   1.002   0.880  0.00  0.00     0.007 C 
ATOM      9  C   UNL d   1      -0.847   2.420   1.103  0.00  0.00     0.009 C 
ENDBRANCH   7   8
ENDBRANCH   1   7
TORSDOF 2
ENDMDL
