MODEL 1
REMARK minimizedAffinity -3.71523571
REMARK minimizedRMSD -1
REMARK  2 active torsions:
REMARK  status: ('A' for Active; 'I' for Inactive)
REMARK    1  A    between atoms: C1_2  and  C2_3 
REMARK    2  A    between atoms: C2_3  and  C3_4 
ROOT
ATOM      1  C3  UNL d   1      -0.089  -0.321  -0.001  0.00  0.00    -0.075 A 
ATOM      2  C4  UNL d   1      -1.434   0.077   0.033  0.00  0.00     0.002 A 
ATOM      3  C5  UNL d   1      -1.775   1.392   0.350  0.00  0.00     0.002 A 
ATOM      4  C6  UNL d   1      -0.779   2.321   0.647  0.00  0.00    -0.004 A 
ATOM      5  C7  UNL d   1       0.558   1.932   0.632  0.00  0.00     0.002 A 
ATOM      6  C8  UNL d   1       0.903   0.618   0.311  0.00  0.00     0.002 A 
ENDROOT
BRANCH   1   7
ATOM      7  C2  UNL d   1       0.288  -1.736  -0.372  0.00  0.00     0.056 C 
BRANCH   7   8
ATOM      8  C1  UNL d   1      -0.911  -2.664  -0.591  0.00  0.00     0.007 C 
ATOM      9  C   UNL d   1      -0.850  -3.423  -1.910  0.00  0.00     0.009 C 
ENDBRANCH   7   8
ENDBRANCH   1   7
TORSDOF 2
ENDMDL
