MODEL 1
REMARK minimizedAffinity -4.04907942
REMARK minimizedRMSD -1
REMARK  2 active torsions:
REMARK  status: ('A' for Active; 'I' for Inactive)
REMARK    1  A    between atoms: C1_2  and  C2_3 
REMARK    2  A    between atoms: C2_3  and  C3_4 
ROOT
ATOM      1  C3  UNL d   1      -0.104  -0.104   0.040  0.00  0.00    -0.075 A 
ATOM      2  C4  UNL d   1       0.716   0.908   0.561  0.00  0.00     0.002 A 
ATOM      3  C5  UNL d   1       0.225   2.204   0.722  0.00  0.00     0.002 A 
ATOM      4  C6  UNL d   1      -1.084   2.507   0.356  0.00  0.00    -0.004 A 
ATOM      5  C7  UNL d   1      -1.902   1.513  -0.178  0.00  0.00     0.002 A 
ATOM      6  C8  UNL d   1      -1.416   0.214  -0.336  0.00  0.00     0.002 A 
ENDROOT
BRANCH   1   7
ATOM      7  C2  UNL d   1       0.412  -1.516  -0.109  0.00  0.00     0.056 C 
BRANCH   7   8
ATOM      8  C1  UNL d   1      -0.481  -2.418  -0.968  0.00  0.00     0.007 C 
ATOM      9  C   UNL d   1       0.263  -3.074  -2.123  0.00  0.00     0.009 C 
ENDBRANCH   7   8
ENDBRANCH   1   7
TORSDOF 2
ENDMDL
