MODEL 1
REMARK minimizedAffinity -2.81820321
REMARK minimizedRMSD -1
REMARK  2 active torsions:
REMARK  status: ('A' for Active; 'I' for Inactive)
REMARK    1  A    between atoms: C1_2  and  C2_3 
REMARK    2  A    between atoms: C2_3  and  C3_4 
ROOT
ATOM      1  C3  UNL d   1      -0.521  -1.104  -0.194  0.00  0.00    -0.075 A 
ATOM      2  C4  UNL d   1      -0.754  -0.613   1.099  0.00  0.00     0.002 A 
ATOM      3  C5  UNL d   1      -1.154   0.709   1.294  0.00  0.00     0.002 A 
ATOM      4  C6  UNL d   1      -1.315   1.559   0.202  0.00  0.00    -0.004 A 
ATOM      5  C7  UNL d   1      -1.070   1.087  -1.086  0.00  0.00     0.002 A 
ATOM      6  C8  UNL d   1      -0.674  -0.237  -1.284  0.00  0.00     0.002 A 
ENDROOT
BRANCH   1   7
ATOM      7  C2  UNL d   1      -0.117  -2.542  -0.414  0.00  0.00     0.056 C 
BRANCH   7   8
ATOM      8  C1  UNL d   1      -0.857  -3.229  -1.566  0.00  0.00     0.007 C 
ATOM      9  C   UNL d   1       0.078  -3.806  -2.621  0.00  0.00     0.009 C 
ENDBRANCH   7   8
ENDBRANCH   1   7
TORSDOF 2
ENDMDL
