MODEL 1
REMARK minimizedAffinity -5.0095067
REMARK minimizedRMSD -1
REMARK  2 active torsions:
REMARK  status: ('A' for Active; 'I' for Inactive)
REMARK    1  A    between atoms: C1_2  and  C2_3 
REMARK    2  A    between atoms: C2_3  and  C3_4 
ROOT
ATOM      1  C3  UNL d   1      -0.093  -0.072   0.496  0.00  0.00    -0.075 A 
ATOM      2  C4  UNL d   1       0.826   0.979   0.629  0.00  0.00     0.002 A 
ATOM      3  C5  UNL d   1       0.395   2.305   0.600  0.00  0.00     0.002 A 
ATOM      4  C6  UNL d   1      -0.956   2.598   0.427  0.00  0.00    -0.004 A 
ATOM      5  C7  UNL d   1      -1.876   1.562   0.277  0.00  0.00     0.002 A 
ATOM      6  C8  UNL d   1      -1.447   0.234   0.310  0.00  0.00     0.002 A 
ENDROOT
BRANCH   1   7
ATOM      7  C2  UNL d   1       0.364  -1.510   0.556  0.00  0.00     0.056 C 
BRANCH   7   8
ATOM      8  C1  UNL d   1      -0.558  -2.489  -0.179  0.00  0.00     0.007 C 
ATOM      9  C   UNL d   1      -0.104  -2.786  -1.602  0.00  0.00     0.009 C 
ENDBRANCH   7   8
ENDBRANCH   1   7
TORSDOF 2
ENDMDL
