MODEL 1
REMARK minimizedAffinity -3.73129296
REMARK minimizedRMSD -1
REMARK  2 active torsions:
REMARK  status: ('A' for Active; 'I' for Inactive)
REMARK    1  A    between atoms: C1_2  and  C2_3 
REMARK    2  A    between atoms: C2_3  and  C3_4 
ROOT
ATOM      1  C3  UNL d   1      -0.047  -1.357  -0.750  0.00  0.00    -0.075 A 
ATOM      2  C4  UNL d   1      -0.202  -1.206   0.635  0.00  0.00     0.002 A 
ATOM      3  C5  UNL d   1      -0.793  -0.057   1.161  0.00  0.00     0.002 A 
ATOM      4  C6  UNL d   1      -1.227   0.958   0.311  0.00  0.00    -0.004 A 
ATOM      5  C7  UNL d   1      -1.063   0.826  -1.066  0.00  0.00     0.002 A 
ATOM      6  C8  UNL d   1      -0.476  -0.325  -1.595  0.00  0.00     0.002 A 
ENDROOT
BRANCH   1   7
ATOM      7  C2  UNL d   1       0.565  -2.611  -1.327  0.00  0.00     0.056 C 
BRANCH   7   8
ATOM      8  C1  UNL d   1      -0.398  -3.439  -2.184  0.00  0.00     0.007 C 
ATOM      9  C   UNL d   1      -1.656  -3.860  -1.436  0.00  0.00     0.009 C 
ENDBRANCH   7   8
ENDBRANCH   1   7
TORSDOF 2
ENDMDL
