MODEL 1
REMARK minimizedAffinity -4.60167313
REMARK minimizedRMSD -1
REMARK  2 active torsions:
REMARK  status: ('A' for Active; 'I' for Inactive)
REMARK    1  A    between atoms: C1_2  and  C2_3 
REMARK    2  A    between atoms: C2_3  and  C3_4 
ROOT
ATOM      1  C3  UNL d   1      -0.399  -1.393  -0.533  0.00  0.00    -0.075 A 
ATOM      2  C4  UNL d   1      -0.941  -1.089  -1.790  0.00  0.00     0.002 A 
ATOM      3  C5  UNL d   1      -1.100  -2.086  -2.753  0.00  0.00     0.002 A 
ATOM      4  C6  UNL d   1      -0.712  -3.394  -2.476  0.00  0.00    -0.004 A 
ATOM      5  C7  UNL d   1      -0.157  -3.705  -1.236  0.00  0.00     0.002 A 
ATOM      6  C8  UNL d   1      -0.001  -2.711  -0.269  0.00  0.00     0.002 A 
ENDROOT
BRANCH   1   7
ATOM      7  C2  UNL d   1      -0.251  -0.325   0.524  0.00  0.00     0.056 C 
BRANCH   7   8
ATOM      8  C1  UNL d   1      -1.231   0.843   0.371  0.00  0.00     0.007 C 
ATOM      9  C   UNL d   1      -0.721   2.139   0.989  0.00  0.00     0.009 C 
ENDBRANCH   7   8
ENDBRANCH   1   7
TORSDOF 2
ENDMDL
