MODEL 1
REMARK minimizedAffinity -2.78617692
REMARK minimizedRMSD -1
REMARK  2 active torsions:
REMARK  status: ('A' for Active; 'I' for Inactive)
REMARK    1  A    between atoms: C1_2  and  C2_3 
REMARK    2  A    between atoms: C2_3  and  C3_4 
ROOT
ATOM      1  C3  UNL d   1      -0.721  -0.821  -0.298  0.00  0.00    -0.075 A 
ATOM      2  C4  UNL d   1      -1.124  -2.161  -0.211  0.00  0.00     0.002 A 
ATOM      3  C5  UNL d   1      -0.569  -3.124  -1.054  0.00  0.00     0.002 A 
ATOM      4  C6  UNL d   1       0.387  -2.759  -1.999  0.00  0.00    -0.004 A 
ATOM      5  C7  UNL d   1       0.783  -1.427  -2.106  0.00  0.00     0.002 A 
ATOM      6  C8  UNL d   1       0.232  -0.463  -1.260  0.00  0.00     0.002 A 
ENDROOT
BRANCH   1   7
ATOM      7  C2  UNL d   1      -1.297   0.221   0.631  0.00  0.00     0.056 C 
BRANCH   7   8
ATOM      8  C1  UNL d   1      -1.064   1.664   0.172  0.00  0.00     0.007 C 
ATOM      9  C   UNL d   1      -0.225   2.477   1.148  0.00  0.00     0.009 C 
ENDBRANCH   7   8
ENDBRANCH   1   7
TORSDOF 2
ENDMDL
