MODEL 1
REMARK minimizedAffinity -1.80631959
REMARK minimizedRMSD -1
REMARK  0 active torsions:
REMARK  status: ('A' for Active; 'I' for Inactive)
ROOT
ATOM      1  C   UNL d   1       1.828   5.082   5.999  0.00  0.00     0.078 C 
ATOM      2  C1  UNL d   1       2.953   4.090   5.991  0.00  0.00    -0.077 A 
ATOM      3  C2  UNL d   1       2.700   2.713   5.997  0.00  0.00    -0.001 A 
ATOM      4  C3  UNL d   1       3.757   1.801   6.000  0.00  0.00     0.003 A 
ATOM      5  C4  UNL d   1       5.074   2.257   5.998  0.00  0.00    -0.005 A 
ATOM      6  C5  UNL d   1       5.336   3.625   5.994  0.00  0.00     0.003 A 
ATOM      7  C6  UNL d   1       4.280   4.538   5.992  0.00  0.00    -0.001 A 
ENDROOT
TORSDOF 0
ENDMDL
