MODEL 1
REMARK minimizedAffinity -4.37995863
REMARK minimizedRMSD -1
REMARK  0 active torsions:
REMARK  status: ('A' for Active; 'I' for Inactive)
ROOT
ATOM      1  C   UNL d   1       2.456   1.493   5.002  0.00  0.00     0.078 C 
ATOM      2  C1  UNL d   1       3.468   2.596   5.103  0.00  0.00    -0.077 A 
ATOM      3  C2  UNL d   1       4.606   2.458   5.907  0.00  0.00    -0.001 A 
ATOM      4  C3  UNL d   1       5.534   3.496   6.000  0.00  0.00     0.003 A 
ATOM      5  C4  UNL d   1       5.334   4.680   5.292  0.00  0.00    -0.005 A 
ATOM      6  C5  UNL d   1       4.203   4.826   4.491  0.00  0.00     0.003 A 
ATOM      7  C6  UNL d   1       3.274   3.789   4.397  0.00  0.00    -0.001 A 
ENDROOT
TORSDOF 0
ENDMDL
