MODEL 1
REMARK minimizedAffinity 0.677975118
REMARK minimizedRMSD -1
REMARK  0 active torsions:
REMARK  status: ('A' for Active; 'I' for Inactive)
ROOT
ATOM      1  C   UNL d   1       3.278   2.334   3.638  0.00  0.00     0.078 C 
ATOM      2  C1  UNL d   1       3.900   3.604   4.136  0.00  0.00    -0.077 A 
ATOM      3  C2  UNL d   1       4.648   3.625   5.320  0.00  0.00    -0.001 A 
ATOM      4  C3  UNL d   1       5.214   4.817   5.776  0.00  0.00     0.003 A 
ATOM      5  C4  UNL d   1       5.036   5.996   5.056  0.00  0.00    -0.005 A 
ATOM      6  C5  UNL d   1       4.292   5.986   3.878  0.00  0.00     0.003 A 
ATOM      7  C6  UNL d   1       3.725   4.795   3.420  0.00  0.00    -0.001 A 
ENDROOT
TORSDOF 0
ENDMDL
