MODEL 1
REMARK minimizedAffinity -2.07396388
REMARK minimizedRMSD -1
REMARK  0 active torsions:
REMARK  status: ('A' for Active; 'I' for Inactive)
ROOT
ATOM      1  C   UNL d   1       5.508   6.000   5.983  0.00  0.00     0.078 C 
ATOM      2  C1  UNL d   1       4.860   4.717   5.557  0.00  0.00    -0.077 A 
ATOM      3  C2  UNL d   1       3.576   4.375   6.000  0.00  0.00    -0.001 A 
ATOM      4  C3  UNL d   1       2.989   3.173   5.603  0.00  0.00     0.003 A 
ATOM      5  C4  UNL d   1       3.679   2.301   4.763  0.00  0.00    -0.005 A 
ATOM      6  C5  UNL d   1       4.958   2.631   4.319  0.00  0.00     0.003 A 
ATOM      7  C6  UNL d   1       5.546   3.833   4.714  0.00  0.00    -0.001 A 
ENDROOT
TORSDOF 0
ENDMDL
