MODEL 1
REMARK minimizedAffinity -5.12343502
REMARK minimizedRMSD -1
REMARK  0 active torsions:
REMARK  status: ('A' for Active; 'I' for Inactive)
ROOT
ATOM      1  C   UNL d   1       0.964   5.023   2.654  0.00  0.00     0.078 C 
ATOM      2  C1  UNL d   1       2.220   4.629   3.372  0.00  0.00    -0.077 A 
ATOM      3  C2  UNL d   1       2.449   3.299   3.748  0.00  0.00    -0.001 A 
ATOM      4  C3  UNL d   1       3.618   2.948   4.425  0.00  0.00     0.003 A 
ATOM      5  C4  UNL d   1       4.567   3.921   4.733  0.00  0.00    -0.005 A 
ATOM      6  C5  UNL d   1       4.347   5.247   4.365  0.00  0.00     0.003 A 
ATOM      7  C6  UNL d   1       3.179   5.600   3.688  0.00  0.00    -0.001 A 
ENDROOT
TORSDOF 0
ENDMDL
