MODEL 1
REMARK minimizedAffinity 8.14011002
REMARK minimizedRMSD -1
REMARK  0 active torsions:
REMARK  status: ('A' for Active; 'I' for Inactive)
ROOT
ATOM      1  C4' PXY d   1       5.574  -2.463  -1.571  0.00  0.00     0.077 C 
ATOM      2  C1' PXY d   1       4.399  -5.993  -5.995  0.00  0.00     0.077 C 
ATOM      3  C1  PXY d   1       4.713  -5.077  -4.828  0.00  0.00    -0.082 A 
ATOM      4  C2  PXY d   1       4.013  -3.967  -4.662  0.00  0.00     0.003 A 
ATOM      5  C3  PXY d   1       4.304  -3.111  -3.631  0.00  0.00     0.003 A 
ATOM      6  C4  PXY d   1       5.286  -3.422  -2.729  0.00  0.00    -0.082 A 
ATOM      7  C5  PXY d   1       5.997  -4.558  -2.885  0.00  0.00     0.003 A 
ATOM      8  C6  PXY d   1       5.714  -5.393  -3.962  0.00  0.00     0.003 A 
ENDROOT
TORSDOF 0
ENDMDL
