MODEL 1
REMARK minimizedAffinity 4.99198866
REMARK minimizedRMSD -1
REMARK  0 active torsions:
REMARK  status: ('A' for Active; 'I' for Inactive)
ROOT
ATOM      1  C4' PXY d   1       5.344  -5.978  -5.997  0.00  0.00     0.077 C 
ATOM      2  C1' PXY d   1       5.997  -3.223  -0.957  0.00  0.00     0.077 C 
ATOM      3  C1  PXY d   1       5.833  -3.955  -2.274  0.00  0.00    -0.082 A 
ATOM      4  C2  PXY d   1       5.529  -3.275  -3.367  0.00  0.00     0.003 A 
ATOM      5  C3  PXY d   1       5.346  -3.925  -4.561  0.00  0.00     0.003 A 
ATOM      6  C4  PXY d   1       5.528  -5.279  -4.647  0.00  0.00    -0.082 A 
ATOM      7  C5  PXY d   1       5.849  -5.979  -3.538  0.00  0.00     0.003 A 
ATOM      8  C6  PXY d   1       5.990  -5.306  -2.328  0.00  0.00     0.003 A 
ENDROOT
TORSDOF 0
ENDMDL
