MODEL 1
REMARK minimizedAffinity 12.3409338
REMARK minimizedRMSD -1
REMARK  0 active torsions:
REMARK  status: ('A' for Active; 'I' for Inactive)
ROOT
ATOM      1  C4' PXY d   1      -6.000   0.323   5.417  0.00  0.00     0.077 C 
ATOM      2  C1' PXY d   1      -4.085   3.036   0.685  0.00  0.00     0.077 C 
ATOM      3  C1  PXY d   1      -4.583   2.313   1.921  0.00  0.00    -0.082 A 
ATOM      4  C2  PXY d   1      -5.559   2.843   2.639  0.00  0.00     0.003 A 
ATOM      5  C3  PXY d   1      -6.000   2.219   3.778  0.00  0.00     0.003 A 
ATOM      6  C4  PXY d   1      -5.472   1.013   4.156  0.00  0.00    -0.082 A 
ATOM      7  C5  PXY d   1      -4.483   0.461   3.422  0.00  0.00     0.003 A 
ATOM      8  C6  PXY d   1      -4.021   1.131   2.292  0.00  0.00     0.003 A 
ENDROOT
TORSDOF 0
ENDMDL
