MODEL 1
REMARK minimizedAffinity 11.1578941
REMARK minimizedRMSD -1
REMARK  0 active torsions:
REMARK  status: ('A' for Active; 'I' for Inactive)
ROOT
ATOM      1  C4' PXY d   1       3.321  -1.681  -5.992  0.00  0.00     0.077 C 
ATOM      2  C1' PXY d   1       5.981  -5.992  -3.208  0.00  0.00     0.077 C 
ATOM      3  C1  PXY d   1       5.277  -4.859  -3.927  0.00  0.00    -0.082 A 
ATOM      4  C2  PXY d   1       5.142  -4.902  -5.243  0.00  0.00     0.003 A 
ATOM      5  C3  PXY d   1       4.536  -3.870  -5.912  0.00  0.00     0.003 A 
ATOM      6  C4  PXY d   1       4.016  -2.808  -5.223  0.00  0.00    -0.082 A 
ATOM      7  C5  PXY d   1       4.141  -2.761  -3.880  0.00  0.00     0.003 A 
ATOM      8  C6  PXY d   1       4.795  -3.799  -3.223  0.00  0.00     0.003 A 
ENDROOT
TORSDOF 0
ENDMDL
