MODEL 1
REMARK minimizedAffinity 11.0656166
REMARK minimizedRMSD -1
REMARK  0 active torsions:
REMARK  status: ('A' for Active; 'I' for Inactive)
ROOT
ATOM      1  C4' PXY d   1      -3.510  -5.998  -5.619  0.00  0.00     0.077 C 
ATOM      2  C1' PXY d   1       0.073  -3.957  -1.567  0.00  0.00     0.077 C 
ATOM      3  C1  PXY d   1      -0.868  -4.503  -2.623  0.00  0.00    -0.082 A 
ATOM      4  C2  PXY d   1      -0.830  -4.011  -3.851  0.00  0.00     0.003 A 
ATOM      5  C3  PXY d   1      -1.695  -4.471  -4.810  0.00  0.00     0.003 A 
ATOM      6  C4  PXY d   1      -2.572  -5.483  -4.523  0.00  0.00    -0.082 A 
ATOM      7  C5  PXY d   1      -2.610  -5.998  -3.276  0.00  0.00     0.003 A 
ATOM      8  C6  PXY d   1      -1.751  -5.488  -2.306  0.00  0.00     0.003 A 
ENDROOT
TORSDOF 0
ENDMDL
