MODEL 1
REMARK minimizedAffinity 3.81751871
REMARK minimizedRMSD -1
REMARK  0 active torsions:
REMARK  status: ('A' for Active; 'I' for Inactive)
ROOT
ATOM      1  C4' PXY d   1       1.882  -4.531  -1.969  0.00  0.00     0.077 C 
ATOM      2  C1' PXY d   1       6.000  -4.987  -6.000  0.00  0.00     0.077 C 
ATOM      3  C1  PXY d   1       4.925  -4.878  -4.936  0.00  0.00    -0.082 A 
ATOM      4  C2  PXY d   1       3.781  -4.277  -5.222  0.00  0.00     0.003 A 
ATOM      5  C3  PXY d   1       2.810  -4.141  -4.263  0.00  0.00     0.003 A 
ATOM      6  C4  PXY d   1       2.992  -4.672  -3.014  0.00  0.00    -0.082 A 
ATOM      7  C5  PXY d   1       4.152  -5.296  -2.718  0.00  0.00     0.003 A 
ATOM      8  C6  PXY d   1       5.140  -5.387  -3.693  0.00  0.00     0.003 A 
ENDROOT
TORSDOF 0
ENDMDL
