MODEL 1
REMARK minimizedAffinity 5.54147911
REMARK minimizedRMSD -1
REMARK  0 active torsions:
REMARK  status: ('A' for Active; 'I' for Inactive)
ROOT
ATOM      1  C4' PXY d   1      -3.005  -6.000  -2.995  0.00  0.00     0.077 C 
ATOM      2  C1' PXY d   1      -1.344  -0.880  -0.888  0.00  0.00     0.077 C 
ATOM      3  C1  PXY d   1      -1.786  -2.225  -1.429  0.00  0.00    -0.082 A 
ATOM      4  C2  PXY d   1      -1.069  -2.820  -2.369  0.00  0.00     0.003 A 
ATOM      5  C3  PXY d   1      -1.471  -4.021  -2.892  0.00  0.00     0.003 A 
ATOM      6  C4  PXY d   1      -2.591  -4.646  -2.412  0.00  0.00    -0.082 A 
ATOM      7  C5  PXY d   1      -3.323  -4.051  -1.447  0.00  0.00     0.003 A 
ATOM      8  C6  PXY d   1      -2.920  -2.812  -0.957  0.00  0.00     0.003 A 
ENDROOT
TORSDOF 0
ENDMDL
