MODEL 1
REMARK minimizedAffinity 4.42375183
REMARK minimizedRMSD -1
REMARK  0 active torsions:
REMARK  status: ('A' for Active; 'I' for Inactive)
ROOT
ATOM      1  C4' PXY d   1       1.577   0.218  -1.454  0.00  0.00     0.077 C 
ATOM      2  C1' PXY d   1      -1.479  -1.056   3.285  0.00  0.00     0.077 C 
ATOM      3  C1  PXY d   1      -0.689  -0.722   2.035  0.00  0.00    -0.082 A 
ATOM      4  C2  PXY d   1       0.600  -1.015   1.979  0.00  0.00     0.003 A 
ATOM      5  C3  PXY d   1       1.337  -0.691   0.869  0.00  0.00     0.003 A 
ATOM      6  C4  PXY d   1       0.737  -0.110  -0.216  0.00  0.00    -0.082 A 
ATOM      7  C5  PXY d   1      -0.580   0.183  -0.170  0.00  0.00     0.003 A 
ATOM      8  C6  PXY d   1      -1.301  -0.117   0.982  0.00  0.00     0.003 A 
ENDROOT
TORSDOF 0
ENDMDL
