MODEL 1
REMARK minimizedAffinity 3.22788572
REMARK minimizedRMSD -1
REMARK  0 active torsions:
REMARK  status: ('A' for Active; 'I' for Inactive)
ROOT
ATOM      1  C4' PXY d   1      -5.001  -5.999  -0.971  0.00  0.00     0.077 C 
ATOM      2  C1' PXY d   1      -0.729  -2.162  -1.638  0.00  0.00     0.077 C 
ATOM      3  C1  PXY d   1      -1.844  -3.176  -1.472  0.00  0.00    -0.082 A 
ATOM      4  C2  PXY d   1      -3.027  -2.781  -1.030  0.00  0.00     0.003 A 
ATOM      5  C3  PXY d   1      -4.036  -3.690  -0.843  0.00  0.00     0.003 A 
ATOM      6  C4  PXY d   1      -3.849  -5.009  -1.163  0.00  0.00    -0.082 A 
ATOM      7  C5  PXY d   1      -2.648  -5.417  -1.624  0.00  0.00     0.003 A 
ATOM      8  C6  PXY d   1      -1.624  -4.486  -1.767  0.00  0.00     0.003 A 
ENDROOT
TORSDOF 0
ENDMDL
