MODEL 1
REMARK minimizedAffinity 4.2281003
REMARK minimizedRMSD -1
REMARK  0 active torsions:
REMARK  status: ('A' for Active; 'I' for Inactive)
ROOT
ATOM      1  C4' PXY d   1       4.363  -1.525  -2.661  0.00  0.00     0.077 C 
ATOM      2  C1' PXY d   1       5.997  -5.952  -5.998  0.00  0.00     0.077 C 
ATOM      3  C1  PXY d   1       5.567  -4.784  -5.134  0.00  0.00    -0.082 A 
ATOM      4  C2  PXY d   1       5.994  -4.702  -3.884  0.00  0.00     0.003 A 
ATOM      5  C3  PXY d   1       5.589  -3.669  -3.079  0.00  0.00     0.003 A 
ATOM      6  C4  PXY d   1       4.780  -2.681  -3.573  0.00  0.00    -0.082 A 
ATOM      7  C5  PXY d   1       4.347  -2.752  -4.850  0.00  0.00     0.003 A 
ATOM      8  C6  PXY d   1       4.737  -3.830  -5.639  0.00  0.00     0.003 A 
ENDROOT
TORSDOF 0
ENDMDL
