MODEL 1
REMARK minimizedAffinity 8.68802357
REMARK minimizedRMSD -1
REMARK  0 active torsions:
REMARK  status: ('A' for Active; 'I' for Inactive)
ROOT
ATOM      1  C4' PXY d   1       3.175  -1.022  -1.526  0.00  0.00     0.077 C 
ATOM      2  C1' PXY d   1      -1.596   2.111  -0.610  0.00  0.00     0.077 C 
ATOM      3  C1  PXY d   1      -0.346   1.284  -0.838  0.00  0.00    -0.082 A 
ATOM      4  C2  PXY d   1       0.563   1.698  -1.706  0.00  0.00     0.003 A 
ATOM      5  C3  PXY d   1       1.684   0.947  -1.948  0.00  0.00     0.003 A 
ATOM      6  C4  PXY d   1       1.902  -0.214  -1.257  0.00  0.00    -0.082 A 
ATOM      7  C5  PXY d   1       0.984  -0.639  -0.362  0.00  0.00     0.003 A 
ATOM      8  C6  PXY d   1      -0.166   0.118  -0.161  0.00  0.00     0.003 A 
ENDROOT
TORSDOF 0
ENDMDL
