MODEL 1
REMARK minimizedAffinity 7.3056488
REMARK minimizedRMSD -1
REMARK  0 active torsions:
REMARK  status: ('A' for Active; 'I' for Inactive)
ROOT
ATOM      1  C4' PXY d   1       3.253  -1.135  -5.678  0.00  0.00     0.077 C 
ATOM      2  C1' PXY d   1       6.000  -5.998  -4.188  0.00  0.00     0.077 C 
ATOM      3  C1  PXY d   1       5.269  -4.727  -4.572  0.00  0.00    -0.082 A 
ATOM      4  C2  PXY d   1       5.661  -4.043  -5.635  0.00  0.00     0.003 A 
ATOM      5  C3  PXY d   1       5.032  -2.874  -5.978  0.00  0.00     0.003 A 
ATOM      6  C4  PXY d   1       3.956  -2.429  -5.258  0.00  0.00    -0.082 A 
ATOM      7  C5  PXY d   1       3.543  -3.128  -4.179  0.00  0.00     0.003 A 
ATOM      8  C6  PXY d   1       4.221  -4.290  -3.823  0.00  0.00     0.003 A 
ENDROOT
TORSDOF 0
ENDMDL
