MODEL 1
REMARK minimizedAffinity -0.141936496
REMARK minimizedRMSD -1
REMARK  0 active torsions:
REMARK  status: ('A' for Active; 'I' for Inactive)
ROOT
ATOM      1  C4' PXY d   1       4.066  -1.581  -2.782  0.00  0.00     0.077 C 
ATOM      2  C1' PXY d   1       5.953  -5.997  -5.999  0.00  0.00     0.077 C 
ATOM      3  C1  PXY d   1       5.454  -4.833  -5.166  0.00  0.00    -0.082 A 
ATOM      4  C2  PXY d   1       5.988  -4.603  -3.978  0.00  0.00     0.003 A 
ATOM      5  C3  PXY d   1       5.527  -3.574  -3.198  0.00  0.00     0.003 A 
ATOM      6  C4  PXY d   1       4.545  -2.739  -3.661  0.00  0.00    -0.082 A 
ATOM      7  C5  PXY d   1       4.003  -2.961  -4.878  0.00  0.00     0.003 A 
ATOM      8  C6  PXY d   1       4.457  -4.036  -5.636  0.00  0.00     0.003 A 
ENDROOT
TORSDOF 0
ENDMDL
