MODEL 1
REMARK minimizedAffinity 10.4009237
REMARK minimizedRMSD -1
REMARK  0 active torsions:
REMARK  status: ('A' for Active; 'I' for Inactive)
ROOT
ATOM      1  C4' PXY d   1      -2.346  -0.058   3.756  0.00  0.00     0.077 C 
ATOM      2  C1' PXY d   1       1.345  -0.262  -0.688  0.00  0.00     0.077 C 
ATOM      3  C1  PXY d   1       0.385  -0.217   0.484  0.00  0.00    -0.082 A 
ATOM      4  C2  PXY d   1      -0.896   0.041   0.271  0.00  0.00     0.003 A 
ATOM      5  C3  PXY d   1      -1.772   0.117   1.324  0.00  0.00     0.003 A 
ATOM      6  C4  PXY d   1      -1.343  -0.124   2.601  0.00  0.00    -0.082 A 
ATOM      7  C5  PXY d   1      -0.040  -0.397   2.825  0.00  0.00     0.003 A 
ATOM      8  C6  PXY d   1       0.841  -0.430   1.748  0.00  0.00     0.003 A 
ENDROOT
TORSDOF 0
ENDMDL
