MODEL 1
REMARK minimizedAffinity 8.96870899
REMARK minimizedRMSD -1
REMARK  0 active torsions:
REMARK  status: ('A' for Active; 'I' for Inactive)
ROOT
ATOM      1  C4' PXY d   1      -0.917   5.564   3.147  0.00  0.00     0.077 C 
ATOM      2  C1' PXY d   1       3.680   3.972   0.025  0.00  0.00     0.077 C 
ATOM      3  C1  PXY d   1       2.467   4.382   0.836  0.00  0.00    -0.082 A 
ATOM      4  C2  PXY d   1       2.479   5.528   1.498  0.00  0.00     0.003 A 
ATOM      5  C3  PXY d   1       1.403   5.899   2.262  0.00  0.00     0.003 A 
ATOM      6  C4  PXY d   1       0.282   5.114   2.308  0.00  0.00    -0.082 A 
ATOM      7  C5  PXY d   1       0.258   3.949   1.627  0.00  0.00     0.003 A 
ATOM      8  C6  PXY d   1       1.376   3.570   0.890  0.00  0.00     0.003 A 
ENDROOT
TORSDOF 0
ENDMDL
