MODEL 1
REMARK minimizedAffinity 11.7330351
REMARK minimizedRMSD -1
REMARK  0 active torsions:
REMARK  status: ('A' for Active; 'I' for Inactive)
ROOT
ATOM      1  C4' PXY d   1       3.746   4.500   0.750  0.00  0.00     0.077 C 
ATOM      2  C1' PXY d   1      -1.197   5.400   3.607  0.00  0.00     0.077 C 
ATOM      3  C1  PXY d   1       0.096   5.152   2.857  0.00  0.00    -0.082 A 
ATOM      4  C2  PXY d   1       1.104   5.998   2.992  0.00  0.00     0.003 A 
ATOM      5  C3  PXY d   1       2.270   5.806   2.296  0.00  0.00     0.003 A 
ATOM      6  C4  PXY d   1       2.425   4.706   1.495  0.00  0.00    -0.082 A 
ATOM      7  C5  PXY d   1       1.405   3.832   1.360  0.00  0.00     0.003 A 
ATOM      8  C6  PXY d   1       0.215   4.068   2.043  0.00  0.00     0.003 A 
ENDROOT
TORSDOF 0
ENDMDL
