MODEL 1
REMARK minimizedAffinity 4.91022205
REMARK minimizedRMSD -1
REMARK  0 active torsions:
REMARK  status: ('A' for Active; 'I' for Inactive)
ROOT
ATOM      1  C4' PXY d   1      -2.202  -0.622   3.674  0.00  0.00     0.077 C 
ATOM      2  C1' PXY d   1       1.061   0.323  -1.003  0.00  0.00     0.077 C 
ATOM      3  C1  PXY d   1       0.215   0.070   0.229  0.00  0.00    -0.082 A 
ATOM      4  C2  PXY d   1      -1.102   0.016   0.119  0.00  0.00     0.003 A 
ATOM      5  C3  PXY d   1      -1.884  -0.181   1.228  0.00  0.00     0.003 A 
ATOM      6  C4  PXY d   1      -1.308  -0.378   2.455  0.00  0.00    -0.082 A 
ATOM      7  C5  PXY d   1       0.036  -0.335   2.574  0.00  0.00     0.003 A 
ATOM      8  C6  PXY d   1       0.809  -0.093   1.442  0.00  0.00     0.003 A 
ENDROOT
TORSDOF 0
ENDMDL
