MODEL 1
REMARK minimizedAffinity 9.3503046
REMARK minimizedRMSD -1
REMARK  0 active torsions:
REMARK  status: ('A' for Active; 'I' for Inactive)
ROOT
ATOM      1  C4' PXY d   1       5.998  -0.946   0.052  0.00  0.00     0.077 C 
ATOM      2  C1' PXY d   1       5.908  -2.096   5.716  0.00  0.00     0.077 C 
ATOM      3  C1  PXY d   1       5.937  -1.806   4.229  0.00  0.00    -0.082 A 
ATOM      4  C2  PXY d   1       5.929  -0.552   3.806  0.00  0.00     0.003 A 
ATOM      5  C3  PXY d   1       5.922  -0.272   2.464  0.00  0.00     0.003 A 
ATOM      6  C4  PXY d   1       5.979  -1.286   1.545  0.00  0.00    -0.082 A 
ATOM      7  C5  PXY d   1       5.999  -2.567   1.968  0.00  0.00     0.003 A 
ATOM      8  C6  PXY d   1       5.963  -2.831   3.334  0.00  0.00     0.003 A 
ENDROOT
TORSDOF 0
ENDMDL
