MODEL 1
REMARK minimizedAffinity 11.5370913
REMARK minimizedRMSD -1
REMARK  0 active torsions:
REMARK  status: ('A' for Active; 'I' for Inactive)
ROOT
ATOM      1  C4' PXY d   1       1.898  -2.091   2.194  0.00  0.00     0.077 C 
ATOM      2  C1' PXY d   1      -1.294   2.098  -0.189  0.00  0.00     0.077 C 
ATOM      3  C1  PXY d   1      -0.456   1.007   0.447  0.00  0.00    -0.082 A 
ATOM      4  C2  PXY d   1       0.226   0.174  -0.322  0.00  0.00     0.003 A 
ATOM      5  C3  PXY d   1       0.963  -0.839   0.235  0.00  0.00     0.003 A 
ATOM      6  C4  PXY d   1       1.046  -0.968   1.596  0.00  0.00    -0.082 A 
ATOM      7  C5  PXY d   1       0.362  -0.116   2.388  0.00  0.00     0.003 A 
ATOM      8  C6  PXY d   1      -0.414   0.880   1.801  0.00  0.00     0.003 A 
ENDROOT
TORSDOF 0
ENDMDL
