MODEL 1
REMARK minimizedAffinity 3.5491581
REMARK minimizedRMSD -1
REMARK  0 active torsions:
REMARK  status: ('A' for Active; 'I' for Inactive)
ROOT
ATOM      1  C   UNL d   1       3.013  -6.000  -0.423  0.00  0.00     0.077 C 
ATOM      2  C1  UNL d   1       2.280  -4.691  -0.438  0.00  0.00    -0.074 A 
ATOM      3  C2  UNL d   1       1.663  -4.227  -1.604  0.00  0.00    -0.005 A 
ATOM      4  C3  UNL d   1       0.976  -3.012  -1.601  0.00  0.00     0.006 A 
ATOM      5  C4  UNL d   1       0.901  -2.251  -0.434  0.00  0.00    -0.005 A 
ATOM      6  C5  UNL d   1       1.512  -2.700   0.742  0.00  0.00    -0.074 A 
ATOM      7  C6  UNL d   1       1.432  -1.899   2.008  0.00  0.00     0.077 C 
ATOM      8  C7  UNL d   1       2.193  -3.925   0.732  0.00  0.00    -0.001 A 
ENDROOT
TORSDOF 0
ENDMDL
