MODEL 1
REMARK minimizedAffinity 7.90452719
REMARK minimizedRMSD -1
REMARK  0 active torsions:
REMARK  status: ('A' for Active; 'I' for Inactive)
ROOT
ATOM      1  C   UNL d   1      -2.088   0.428   0.390  0.00  0.00     0.077 C 
ATOM      2  C1  UNL d   1      -1.889  -0.833  -0.396  0.00  0.00    -0.074 A 
ATOM      3  C2  UNL d   1      -2.900  -1.795  -0.482  0.00  0.00    -0.005 A 
ATOM      4  C3  UNL d   1      -2.703  -2.958  -1.225  0.00  0.00     0.006 A 
ATOM      5  C4  UNL d   1      -1.495  -3.172  -1.888  0.00  0.00    -0.005 A 
ATOM      6  C5  UNL d   1      -0.472  -2.221  -1.815  0.00  0.00    -0.074 A 
ATOM      7  C6  UNL d   1       0.830  -2.431  -2.530  0.00  0.00     0.077 C 
ATOM      8  C7  UNL d   1      -0.680  -1.051  -1.072  0.00  0.00    -0.001 A 
ENDROOT
TORSDOF 0
ENDMDL
