MODEL 1
REMARK minimizedAffinity -3.76814723
REMARK minimizedRMSD -1
REMARK  0 active torsions:
REMARK  status: ('A' for Active; 'I' for Inactive)
ROOT
ATOM      1  C   UNL d   1       5.313   6.000  -5.881  0.00  0.00     0.077 C 
ATOM      2  C1  UNL d   1       4.979   5.769  -4.437  0.00  0.00    -0.074 A 
ATOM      3  C2  UNL d   1       5.972   5.418  -3.517  0.00  0.00    -0.005 A 
ATOM      4  C3  UNL d   1       5.647   5.216  -2.175  0.00  0.00     0.006 A 
ATOM      5  C4  UNL d   1       4.329   5.362  -1.742  0.00  0.00    -0.005 A 
ATOM      6  C5  UNL d   1       3.323   5.713  -2.647  0.00  0.00    -0.074 A 
ATOM      7  C6  UNL d   1       1.903   5.884  -2.196  0.00  0.00     0.077 C 
ATOM      8  C7  UNL d   1       3.658   5.922  -3.992  0.00  0.00    -0.001 A 
ENDROOT
TORSDOF 0
ENDMDL
