MODEL 1
REMARK minimizedAffinity 8.89728642
REMARK minimizedRMSD -1
REMARK  0 active torsions:
REMARK  status: ('A' for Active; 'I' for Inactive)
ROOT
ATOM      1  C   UNL d   1       2.486   2.659   3.426  0.00  0.00     0.077 C 
ATOM      2  C1  UNL d   1       2.513   1.396   2.617  0.00  0.00    -0.074 A 
ATOM      3  C2  UNL d   1       2.694   1.434   1.231  0.00  0.00    -0.005 A 
ATOM      4  C3  UNL d   1       2.726   0.250   0.494  0.00  0.00     0.006 A 
ATOM      5  C4  UNL d   1       2.577  -0.981   1.134  0.00  0.00    -0.005 A 
ATOM      6  C5  UNL d   1       2.395  -1.038   2.520  0.00  0.00    -0.074 A 
ATOM      7  C6  UNL d   1       2.243  -2.353   3.225  0.00  0.00     0.077 C 
ATOM      8  C7  UNL d   1       2.371   0.155   3.254  0.00  0.00    -0.001 A 
ENDROOT
TORSDOF 0
ENDMDL
