MODEL 1
REMARK minimizedAffinity 5.31806803
REMARK minimizedRMSD -1
REMARK  0 active torsions:
REMARK  status: ('A' for Active; 'I' for Inactive)
ROOT
ATOM      1  C   UNL d   1       1.305  -3.062  -2.598  0.00  0.00     0.077 C 
ATOM      2  C1  UNL d   1       0.427  -2.484  -1.527  0.00  0.00    -0.074 A 
ATOM      3  C2  UNL d   1       0.957  -2.105  -0.290  0.00  0.00    -0.005 A 
ATOM      4  C3  UNL d   1       0.130  -1.560   0.692  0.00  0.00     0.006 A 
ATOM      5  C4  UNL d   1      -1.233  -1.390   0.448  0.00  0.00    -0.005 A 
ATOM      6  C5  UNL d   1      -1.781  -1.762  -0.784  0.00  0.00    -0.074 A 
ATOM      7  C6  UNL d   1      -3.242  -1.577  -1.066  0.00  0.00     0.077 C 
ATOM      8  C7  UNL d   1      -0.942  -2.303  -1.768  0.00  0.00    -0.001 A 
ENDROOT
TORSDOF 0
ENDMDL
