MODEL 1
REMARK minimizedAffinity 3.27296543
REMARK minimizedRMSD -1
REMARK  0 active torsions:
REMARK  status: ('A' for Active; 'I' for Inactive)
ROOT
ATOM      1  C   UNL d   1       1.026  -1.103   1.371  0.00  0.00     0.077 C 
ATOM      2  C1  UNL d   1       0.278  -1.335   0.092  0.00  0.00    -0.074 A 
ATOM      3  C2  UNL d   1       0.946  -1.730  -1.071  0.00  0.00    -0.005 A 
ATOM      4  C3  UNL d   1       0.235  -1.952  -2.250  0.00  0.00     0.006 A 
ATOM      5  C4  UNL d   1      -1.149  -1.781  -2.279  0.00  0.00    -0.005 A 
ATOM      6  C5  UNL d   1      -1.835  -1.387  -1.125  0.00  0.00    -0.074 A 
ATOM      7  C6  UNL d   1      -3.324  -1.208  -1.136  0.00  0.00     0.077 C 
ATOM      8  C7  UNL d   1      -1.115  -1.173   0.058  0.00  0.00    -0.001 A 
ENDROOT
TORSDOF 0
ENDMDL
