MODEL 1
REMARK minimizedAffinity 3.73243809
REMARK minimizedRMSD -1
REMARK  0 active torsions:
REMARK  status: ('A' for Active; 'I' for Inactive)
ROOT
ATOM      1  C   UNL d   1       2.906   1.304   1.848  0.00  0.00     0.077 C 
ATOM      2  C1  UNL d   1       2.395  -0.083   2.102  0.00  0.00    -0.074 A 
ATOM      3  C2  UNL d   1       1.336  -0.608   1.353  0.00  0.00    -0.005 A 
ATOM      4  C3  UNL d   1       0.878  -1.903   1.594  0.00  0.00     0.006 A 
ATOM      5  C4  UNL d   1       1.473  -2.685   2.585  0.00  0.00    -0.005 A 
ATOM      6  C5  UNL d   1       2.533  -2.178   3.343  0.00  0.00    -0.074 A 
ATOM      7  C6  UNL d   1       3.189  -3.010   4.405  0.00  0.00     0.077 C 
ATOM      8  C7  UNL d   1       2.992  -0.879   3.090  0.00  0.00    -0.001 A 
ENDROOT
TORSDOF 0
ENDMDL
