MODEL 1
REMARK minimizedAffinity 2.31385231
REMARK minimizedRMSD -1
REMARK  0 active torsions:
REMARK  status: ('A' for Active; 'I' for Inactive)
ROOT
ATOM      1  C   UNL d   1       2.944  -1.200  -2.333  0.00  0.00     0.077 C 
ATOM      2  C1  UNL d   1       2.687  -0.459  -1.055  0.00  0.00    -0.074 A 
ATOM      3  C2  UNL d   1       3.149   0.849  -0.877  0.00  0.00    -0.005 A 
ATOM      4  C3  UNL d   1       2.894   1.529   0.314  0.00  0.00     0.006 A 
ATOM      5  C4  UNL d   1       2.175   0.910   1.337  0.00  0.00    -0.005 A 
ATOM      6  C5  UNL d   1       1.704  -0.397   1.177  0.00  0.00    -0.074 A 
ATOM      7  C6  UNL d   1       0.921  -1.074   2.262  0.00  0.00     0.077 C 
ATOM      8  C7  UNL d   1       1.958  -1.072  -0.025  0.00  0.00    -0.001 A 
ENDROOT
TORSDOF 0
ENDMDL
