MODEL 1
REMARK minimizedAffinity 3.86486864
REMARK minimizedRMSD -1
REMARK  0 active torsions:
REMARK  status: ('A' for Active; 'I' for Inactive)
ROOT
ATOM      1  C   UNL d   1       3.293   1.567   1.531  0.00  0.00     0.077 C 
ATOM      2  C1  UNL d   1       2.493   0.325   1.788  0.00  0.00    -0.074 A 
ATOM      3  C2  UNL d   1       2.650  -0.398   2.974  0.00  0.00    -0.005 A 
ATOM      4  C3  UNL d   1       1.891  -1.546   3.203  0.00  0.00     0.006 A 
ATOM      5  C4  UNL d   1       0.970  -1.982   2.250  0.00  0.00    -0.005 A 
ATOM      6  C5  UNL d   1       0.799  -1.270   1.058  0.00  0.00    -0.074 A 
ATOM      7  C6  UNL d   1      -0.194  -1.719   0.027  0.00  0.00     0.077 C 
ATOM      8  C7  UNL d   1       1.560  -0.114   0.838  0.00  0.00    -0.001 A 
ENDROOT
TORSDOF 0
ENDMDL
