MODEL 1
REMARK minimizedAffinity -4.90554905
REMARK minimizedRMSD -1
REMARK  0 active torsions:
REMARK  status: ('A' for Active; 'I' for Inactive)
ROOT
ATOM      1  N1  IND d   1       2.013   1.353  -1.622  0.00  0.00    -0.196 N 
ATOM      2  C2  IND d   1       2.813   0.298  -1.281  0.00  0.00     0.054 A 
ATOM      3  C3  IND d   1       2.094  -0.647  -0.635  0.00  0.00    -0.031 A 
ATOM      4  C4  IND d   1      -0.427  -0.717  -0.118  0.00  0.00     0.051 A 
ATOM      5  C5  IND d   1      -1.564   0.036  -0.201  0.00  0.00    -0.031 A 
ATOM      6  C6  IND d   1      -1.568   1.290  -0.776  0.00  0.00     0.015 A 
ATOM      7  C7  IND d   1      -0.432   1.836  -1.302  0.00  0.00    -0.016 A 
ATOM      8  C8  IND d   1       0.727   1.078  -1.213  0.00  0.00    -0.047 A 
ATOM      9  C9  IND d   1       0.746  -0.178  -0.593  0.00  0.00    -0.096 A 
ATOM     10  HN1 IND d   1       2.270   2.068  -2.024  0.00  0.00     0.298 HD
ENDROOT
TORSDOF 0
ENDMDL
