MODEL 1
REMARK minimizedAffinity -5.52010393
REMARK minimizedRMSD -1
REMARK  0 active torsions:
REMARK  status: ('A' for Active; 'I' for Inactive)
ROOT
ATOM      1  N1  IND d   1      -0.079   1.671  -1.927  0.00  0.00    -0.196 N 
ATOM      2  C2  IND d   1      -1.111   1.417  -1.067  0.00  0.00     0.054 A 
ATOM      3  C3  IND d   1      -0.841   0.323  -0.319  0.00  0.00    -0.031 A 
ATOM      4  C4  IND d   1       1.275  -1.142  -0.268  0.00  0.00     0.051 A 
ATOM      5  C5  IND d   1       2.474  -1.325  -0.897  0.00  0.00    -0.031 A 
ATOM      6  C6  IND d   1       2.893  -0.500  -1.921  0.00  0.00     0.015 A 
ATOM      7  C7  IND d   1       2.130   0.550  -2.348  0.00  0.00    -0.016 A 
ATOM      8  C8  IND d   1       0.909   0.734  -1.715  0.00  0.00    -0.047 A 
ATOM      9  C9  IND d   1       0.459  -0.125  -0.705  0.00  0.00    -0.096 A 
ATOM     10  HN1 IND d   1      -0.052   2.309  -2.503  0.00  0.00     0.298 HD
ENDROOT
TORSDOF 0
ENDMDL
