MODEL 1
REMARK minimizedAffinity -1.38369191
REMARK minimizedRMSD -1
REMARK  0 active torsions:
REMARK  status: ('A' for Active; 'I' for Inactive)
ROOT
ATOM      1  N1  IND d   1       0.131   1.146   1.035  0.00  0.00    -0.196 N 
ATOM      2  C2  IND d   1      -1.178   1.031   1.414  0.00  0.00     0.054 A 
ATOM      3  C3  IND d   1      -1.696  -0.134   0.967  0.00  0.00    -0.031 A 
ATOM      4  C4  IND d   1      -0.550  -2.049  -0.317  0.00  0.00     0.051 A 
ATOM      5  C5  IND d   1       0.629  -2.387  -0.920  0.00  0.00    -0.031 A 
ATOM      6  C6  IND d   1       1.725  -1.549  -0.899  0.00  0.00     0.015 A 
ATOM      7  C7  IND d   1       1.686  -0.341  -0.262  0.00  0.00    -0.016 A 
ATOM      8  C8  IND d   1       0.489   0.009   0.345  0.00  0.00    -0.047 A 
ATOM      9  C9  IND d   1      -0.640  -0.819   0.291  0.00  0.00    -0.096 A 
ATOM     10  HN1 IND d   1       0.644   1.816   1.200  0.00  0.00     0.298 HD
ENDROOT
TORSDOF 0
ENDMDL
