MODEL 1
REMARK minimizedAffinity -5.60213518
REMARK minimizedRMSD -1
REMARK  0 active torsions:
REMARK  status: ('A' for Active; 'I' for Inactive)
ROOT
ATOM      1  N1  IND d   1       0.032   1.282   0.840  0.00  0.00    -0.196 N 
ATOM      2  C2  IND d   1      -1.206   0.781   1.134  0.00  0.00     0.054 A 
ATOM      3  C3  IND d   1      -1.369  -0.435   0.566  0.00  0.00    -0.031 A 
ATOM      4  C4  IND d   1       0.300  -1.838  -0.802  0.00  0.00     0.051 A 
ATOM      5  C5  IND d   1       1.545  -1.786  -1.363  0.00  0.00    -0.031 A 
ATOM      6  C6  IND d   1       2.367  -0.688  -1.213  0.00  0.00     0.015 A 
ATOM      7  C7  IND d   1       1.977   0.400  -0.484  0.00  0.00    -0.016 A 
ATOM      8  C8  IND d   1       0.711   0.353   0.081  0.00  0.00    -0.047 A 
ATOM      9  C9  IND d   1      -0.145  -0.741  -0.103  0.00  0.00    -0.096 A 
ATOM     10  HN1 IND d   1       0.335   2.047   1.087  0.00  0.00     0.298 HD
ENDROOT
TORSDOF 0
ENDMDL
