MODEL 1
REMARK minimizedAffinity -4.35133696
REMARK minimizedRMSD -1
REMARK  0 active torsions:
REMARK  status: ('A' for Active; 'I' for Inactive)
ROOT
ATOM      1  N1  IND d   1      -0.866  -1.058  -0.176  0.00  0.00    -0.196 N 
ATOM      2  C2  IND d   1      -1.190  -0.254   0.880  0.00  0.00     0.054 A 
ATOM      3  C3  IND d   1      -0.111   0.456   1.280  0.00  0.00    -0.031 A 
ATOM      4  C4  IND d   1       2.259   0.532   0.278  0.00  0.00     0.051 A 
ATOM      5  C5  IND d   1       3.045  -0.055  -0.674  0.00  0.00    -0.031 A 
ATOM      6  C6  IND d   1       2.558  -1.024  -1.527  0.00  0.00     0.015 A 
ATOM      7  C7  IND d   1       1.256  -1.435  -1.468  0.00  0.00    -0.016 A 
ATOM      8  C8  IND d   1       0.457  -0.847  -0.498  0.00  0.00    -0.047 A 
ATOM      9  C9  IND d   1       0.957   0.106   0.398  0.00  0.00    -0.096 A 
ATOM     10  HN1 IND d   1      -1.399  -1.604  -0.573  0.00  0.00     0.298 HD
ENDROOT
TORSDOF 0
ENDMDL
