MODEL 1
REMARK minimizedAffinity -0.685783982
REMARK minimizedRMSD -1
REMARK  0 active torsions:
REMARK  status: ('A' for Active; 'I' for Inactive)
ROOT
ATOM      1  N1  IND d   1       0.403   1.120   0.754  0.00  0.00    -0.196 N 
ATOM      2  C2  IND d   1      -0.880   0.647   0.767  0.00  0.00     0.054 A 
ATOM      3  C3  IND d   1      -0.998  -0.414  -0.062  0.00  0.00    -0.031 A 
ATOM      4  C4  IND d   1       0.806  -1.607  -1.459  0.00  0.00     0.051 A 
ATOM      5  C5  IND d   1       2.120  -1.518  -1.824  0.00  0.00    -0.031 A 
ATOM      6  C6  IND d   1       2.946  -0.526  -1.336  0.00  0.00     0.015 A 
ATOM      7  C7  IND d   1       2.490   0.411  -0.453  0.00  0.00    -0.016 A 
ATOM      8  C8  IND d   1       1.154   0.327  -0.085  0.00  0.00    -0.047 A 
ATOM      9  C9  IND d   1       0.300  -0.651  -0.610  0.00  0.00    -0.096 A 
ATOM     10  HN1 IND d   1       0.692   1.799   1.196  0.00  0.00     0.298 HD
ENDROOT
TORSDOF 0
ENDMDL
