MODEL 1
REMARK minimizedAffinity -2.38512754
REMARK minimizedRMSD -1
REMARK  0 active torsions:
REMARK  status: ('A' for Active; 'I' for Inactive)
ROOT
ATOM      1  N1  IND d   1       0.026   0.704   0.882  0.00  0.00    -0.196 N 
ATOM      2  C2  IND d   1      -1.080   0.211   0.246  0.00  0.00     0.054 A 
ATOM      3  C3  IND d   1      -0.715  -0.537  -0.819  0.00  0.00    -0.031 A 
ATOM      4  C4  IND d   1       1.640  -1.170  -1.644  0.00  0.00     0.051 A 
ATOM      5  C5  IND d   1       2.965  -0.928  -1.409  0.00  0.00    -0.031 A 
ATOM      6  C6  IND d   1       3.386  -0.116  -0.376  0.00  0.00     0.015 A 
ATOM      7  C7  IND d   1       2.494   0.479   0.471  0.00  0.00    -0.016 A 
ATOM      8  C8  IND d   1       1.148   0.241   0.232  0.00  0.00    -0.047 A 
ATOM      9  C9  IND d   1       0.714  -0.548  -0.841  0.00  0.00    -0.096 A 
ATOM     10  HN1 IND d   1       0.021   1.217   1.572  0.00  0.00     0.298 HD
ENDROOT
TORSDOF 0
ENDMDL
