MODEL 1
REMARK minimizedAffinity -4.05612946
REMARK minimizedRMSD -1
REMARK  0 active torsions:
REMARK  status: ('A' for Active; 'I' for Inactive)
ROOT
ATOM      1  N1  IND d   1       2.383   0.508  -1.699  0.00  0.00    -0.196 N 
ATOM      2  C2  IND d   1       2.879  -0.683  -1.246  0.00  0.00     0.054 A 
ATOM      3  C3  IND d   1       1.990  -1.277  -0.418  0.00  0.00    -0.031 A 
ATOM      4  C4  IND d   1      -0.379  -0.525   0.251  0.00  0.00     0.051 A 
ATOM      5  C5  IND d   1      -1.257   0.515   0.118  0.00  0.00    -0.031 A 
ATOM      6  C6  IND d   1      -0.961   1.626  -0.644  0.00  0.00     0.015 A 
ATOM      7  C7  IND d   1       0.224   1.735  -1.314  0.00  0.00    -0.016 A 
ATOM      8  C8  IND d   1       1.121   0.685  -1.177  0.00  0.00    -0.047 A 
ATOM      9  C9  IND d   1       0.843  -0.427  -0.371  0.00  0.00    -0.096 A 
ATOM     10  HN1 IND d   1       2.792   1.055  -2.222  0.00  0.00     0.298 HD
ENDROOT
TORSDOF 0
ENDMDL
