MODEL 1
REMARK minimizedAffinity -3.58043766
REMARK minimizedRMSD -1
REMARK  0 active torsions:
REMARK  status: ('A' for Active; 'I' for Inactive)
ROOT
ATOM      1  N1  IND d   1       0.044   0.808   0.894  0.00  0.00    -0.196 N 
ATOM      2  C2  IND d   1      -0.992   0.090   1.424  0.00  0.00     0.054 A 
ATOM      3  C3  IND d   1      -1.069  -1.126   0.839  0.00  0.00    -0.031 A 
ATOM      4  C4  IND d   1       0.462  -2.186  -0.938  0.00  0.00     0.051 A 
ATOM      5  C5  IND d   1       1.521  -1.904  -1.755  0.00  0.00    -0.031 A 
ATOM      6  C6  IND d   1       2.156  -0.679  -1.728  0.00  0.00     0.015 A 
ATOM      7  C7  IND d   1       1.761   0.309  -0.872  0.00  0.00    -0.016 A 
ATOM      8  C8  IND d   1       0.682   0.028  -0.046  0.00  0.00    -0.047 A 
ATOM      9  C9  IND d   1       0.006  -1.198  -0.099  0.00  0.00    -0.096 A 
ATOM     10  HN1 IND d   1       0.260   1.612   1.110  0.00  0.00     0.298 HD
ENDROOT
TORSDOF 0
ENDMDL
