MODEL 1
REMARK minimizedAffinity -5.38000631
REMARK minimizedRMSD -1
REMARK  0 active torsions:
REMARK  status: ('A' for Active; 'I' for Inactive)
ROOT
ATOM      1  N1  IND d   1      -0.630  -1.548  -0.403  0.00  0.00    -0.196 N 
ATOM      2  C2  IND d   1      -1.252  -0.601   0.363  0.00  0.00     0.054 A 
ATOM      3  C3  IND d   1      -0.486   0.510   0.451  0.00  0.00    -0.031 A 
ATOM      4  C4  IND d   1       1.775   1.030  -0.664  0.00  0.00     0.051 A 
ATOM      5  C5  IND d   1       2.757   0.461  -1.426  0.00  0.00    -0.031 A 
ATOM      6  C6  IND d   1       2.656  -0.831  -1.898  0.00  0.00     0.015 A 
ATOM      7  C7  IND d   1       1.560  -1.603  -1.634  0.00  0.00    -0.016 A 
ATOM      8  C8  IND d   1       0.565  -1.031  -0.854  0.00  0.00    -0.047 A 
ATOM      9  C9  IND d   1       0.680   0.266  -0.337  0.00  0.00    -0.096 A 
ATOM     10  HN1 IND d   1      -0.934  -2.334  -0.574  0.00  0.00     0.298 HD
ENDROOT
TORSDOF 0
ENDMDL
