MODEL 1
REMARK minimizedAffinity -3.87548089
REMARK minimizedRMSD -1
REMARK  0 active torsions:
REMARK  status: ('A' for Active; 'I' for Inactive)
ROOT
ATOM      1  N1  IND d   1       2.076  -0.005   0.817  0.00  0.00    -0.196 N 
ATOM      2  C2  IND d   1       2.325  -0.729  -0.316  0.00  0.00     0.054 A 
ATOM      3  C3  IND d   1       1.170  -1.001  -0.963  0.00  0.00    -0.031 A 
ATOM      4  C4  IND d   1      -1.233  -0.273  -0.398  0.00  0.00     0.051 A 
ATOM      5  C5  IND d   1      -1.967   0.369   0.560  0.00  0.00    -0.031 A 
ATOM      6  C6  IND d   1      -1.378   0.933   1.673  0.00  0.00     0.015 A 
ATOM      7  C7  IND d   1      -0.027   0.885   1.866  0.00  0.00    -0.016 A 
ATOM      8  C8  IND d   1       0.721   0.228   0.899  0.00  0.00    -0.047 A 
ATOM      9  C9  IND d   1       0.125  -0.383  -0.212  0.00  0.00    -0.096 A 
ATOM     10  HN1 IND d   1       2.666   0.259   1.383  0.00  0.00     0.298 HD
ENDROOT
TORSDOF 0
ENDMDL
