MODEL 1
REMARK minimizedAffinity -4.02417421
REMARK minimizedRMSD -1
REMARK  0 active torsions:
REMARK  status: ('A' for Active; 'I' for Inactive)
ROOT
ATOM      1  N1  IND d   1      -0.264   1.017  -0.051  0.00  0.00    -0.196 N 
ATOM      2  C2  IND d   1      -0.901  -0.044   0.528  0.00  0.00     0.054 A 
ATOM      3  C3  IND d   1      -0.236  -1.192   0.267  0.00  0.00    -0.031 A 
ATOM      4  C4  IND d   1       1.974  -1.548  -1.004  0.00  0.00     0.051 A 
ATOM      5  C5  IND d   1       2.910  -0.882  -1.745  0.00  0.00    -0.031 A 
ATOM      6  C6  IND d   1       2.836   0.478  -1.961  0.00  0.00     0.015 A 
ATOM      7  C7  IND d   1       1.825   1.229  -1.432  0.00  0.00    -0.016 A 
ATOM      8  C8  IND d   1       0.869   0.556  -0.685  0.00  0.00    -0.047 A 
ATOM      9  C9  IND d   1       0.916  -0.832  -0.498  0.00  0.00    -0.096 A 
ATOM     10  HN1 IND d   1      -0.526   1.836  -0.023  0.00  0.00     0.298 HD
ENDROOT
TORSDOF 0
ENDMDL
