MODEL 1
REMARK minimizedAffinity -0.639346242
REMARK minimizedRMSD -1
REMARK  0 active torsions:
REMARK  status: ('A' for Active; 'I' for Inactive)
ROOT
ATOM      1  N1  IND d   1      -1.141  -1.438  -0.182  0.00  0.00    -0.196 N 
ATOM      2  C2  IND d   1      -1.732  -0.596   0.719  0.00  0.00     0.054 A 
ATOM      3  C3  IND d   1      -0.904   0.431   1.015  0.00  0.00    -0.031 A 
ATOM      4  C4  IND d   1       1.423   0.984   0.061  0.00  0.00     0.051 A 
ATOM      5  C5  IND d   1       2.394   0.490  -0.763  0.00  0.00    -0.031 A 
ATOM      6  C6  IND d   1       2.233  -0.695  -1.452  0.00  0.00     0.015 A 
ATOM      7  C7  IND d   1       1.084  -1.427  -1.350  0.00  0.00    -0.016 A 
ATOM      8  C8  IND d   1       0.098  -0.932  -0.509  0.00  0.00    -0.047 A 
ATOM      9  C9  IND d   1       0.273   0.248   0.226  0.00  0.00    -0.096 A 
ATOM     10  HN1 IND d   1      -1.486  -2.162  -0.493  0.00  0.00     0.298 HD
ENDROOT
TORSDOF 0
ENDMDL
