MODEL 1
REMARK minimizedAffinity -3.98655367
REMARK minimizedRMSD -1
REMARK  0 active torsions:
REMARK  status: ('A' for Active; 'I' for Inactive)
ROOT
ATOM      1  N1  IND d   1      -0.011   0.569   0.314  0.00  0.00    -0.196 N 
ATOM      2  C2  IND d   1      -0.758  -0.548   0.564  0.00  0.00     0.054 A 
ATOM      3  C3  IND d   1      -0.410  -1.546  -0.279  0.00  0.00    -0.031 A 
ATOM      4  C4  IND d   1       1.430  -1.598  -2.079  0.00  0.00     0.051 A 
ATOM      5  C5  IND d   1       2.352  -0.804  -2.700  0.00  0.00    -0.031 A 
ATOM      6  C6  IND d   1       2.540   0.515  -2.340  0.00  0.00     0.015 A 
ATOM      7  C7  IND d   1       1.816   1.087  -1.332  0.00  0.00    -0.016 A 
ATOM      8  C8  IND d   1       0.874   0.285  -0.703  0.00  0.00    -0.047 A 
ATOM      9  C9  IND d   1       0.650  -1.041  -1.094  0.00  0.00    -0.096 A 
ATOM     10  HN1 IND d   1      -0.081   1.322   0.723  0.00  0.00     0.298 HD
ENDROOT
TORSDOF 0
ENDMDL
