MODEL 1
REMARK minimizedAffinity -4.47223377
REMARK minimizedRMSD -1
REMARK  0 active torsions:
REMARK  status: ('A' for Active; 'I' for Inactive)
ROOT
ATOM      1  N1  IND d   1       0.728   0.952   1.002  0.00  0.00    -0.196 N 
ATOM      2  C2  IND d   1      -0.425   0.498   1.579  0.00  0.00     0.054 A 
ATOM      3  C3  IND d   1      -0.801  -0.674   1.019  0.00  0.00    -0.031 A 
ATOM      4  C4  IND d   1       0.380  -2.076  -0.789  0.00  0.00     0.051 A 
ATOM      5  C5  IND d   1       1.444  -2.053  -1.645  0.00  0.00    -0.031 A 
ATOM      6  C6  IND d   1       2.344  -1.007  -1.662  0.00  0.00     0.015 A 
ATOM      7  C7  IND d   1       2.219   0.054  -0.810  0.00  0.00    -0.016 A 
ATOM      8  C8  IND d   1       1.135   0.037   0.056  0.00  0.00    -0.047 A 
ATOM      9  C9  IND d   1       0.194  -1.001   0.048  0.00  0.00    -0.096 A 
ATOM     10  HN1 IND d   1       1.131   1.687   1.196  0.00  0.00     0.298 HD
ENDROOT
TORSDOF 0
ENDMDL
