MODEL 1
REMARK minimizedAffinity 1.64617956
REMARK minimizedRMSD -1
REMARK  0 active torsions:
REMARK  status: ('A' for Active; 'I' for Inactive)
ROOT
ATOM      1  N1  IND d   1      -1.673  -0.349  -0.506  0.00  0.00    -0.196 N 
ATOM      2  C2  IND d   1      -1.320  -1.543   0.058  0.00  0.00     0.054 A 
ATOM      3  C3  IND d   1       0.023  -1.617   0.199  0.00  0.00    -0.031 A 
ATOM      4  C4  IND d   1       1.823   0.144  -0.332  0.00  0.00     0.051 A 
ATOM      5  C5  IND d   1       1.990   1.378  -0.896  0.00  0.00    -0.031 A 
ATOM      6  C6  IND d   1       0.922   2.116  -1.365  0.00  0.00     0.015 A 
ATOM      7  C7  IND d   1      -0.359   1.649  -1.277  0.00  0.00    -0.016 A 
ATOM      8  C8  IND d   1      -0.531   0.394  -0.712  0.00  0.00    -0.047 A 
ATOM      9  C9  IND d   1       0.553  -0.377  -0.273  0.00  0.00    -0.096 A 
ATOM     10  HN1 IND d   1      -2.474  -0.102  -0.699  0.00  0.00     0.298 HD
ENDROOT
TORSDOF 0
ENDMDL
