MODEL 1
REMARK minimizedAffinity -4.61626005
REMARK minimizedRMSD -1
REMARK  0 active torsions:
REMARK  status: ('A' for Active; 'I' for Inactive)
ROOT
ATOM      1  N1  IND d   1      -0.514  -0.380  -0.542  0.00  0.00    -0.196 N 
ATOM      2  C2  IND d   1      -0.230  -1.712  -0.418  0.00  0.00     0.054 A 
ATOM      3  C3  IND d   1       1.048  -1.957  -0.787  0.00  0.00    -0.031 A 
ATOM      4  C4  IND d   1       2.880  -0.308  -1.530  0.00  0.00     0.051 A 
ATOM      5  C5  IND d   1       3.087   1.009  -1.831  0.00  0.00    -0.031 A 
ATOM      6  C6  IND d   1       2.084   1.950  -1.714  0.00  0.00     0.015 A 
ATOM      7  C7  IND d   1       0.835   1.609  -1.277  0.00  0.00    -0.016 A 
ATOM      8  C8  IND d   1       0.620   0.271  -0.977  0.00  0.00    -0.047 A 
ATOM      9  C9  IND d   1       1.622  -0.695  -1.135  0.00  0.00    -0.096 A 
ATOM     10  HN1 IND d   1      -1.273  -0.012  -0.377  0.00  0.00     0.298 HD
ENDROOT
TORSDOF 0
ENDMDL
