MODEL 1
REMARK minimizedAffinity -2.37692094
REMARK minimizedRMSD -1
REMARK  0 active torsions:
REMARK  status: ('A' for Active; 'I' for Inactive)
ROOT
ATOM      1  N1  IND d   1       1.625  -1.963  -1.576  0.00  0.00    -0.196 N 
ATOM      2  C2  IND d   1       2.670  -1.116  -1.818  0.00  0.00     0.054 A 
ATOM      3  C3  IND d   1       2.463   0.073  -1.209  0.00  0.00    -0.031 A 
ATOM      4  C4  IND d   1       0.528   0.812   0.321  0.00  0.00     0.051 A 
ATOM      5  C5  IND d   1      -0.679   0.396   0.808  0.00  0.00    -0.031 A 
ATOM      6  C6  IND d   1      -1.190  -0.854   0.521  0.00  0.00     0.015 A 
ATOM      7  C7  IND d   1      -0.503  -1.742  -0.257  0.00  0.00    -0.016 A 
ATOM      8  C8  IND d   1       0.720  -1.321  -0.758  0.00  0.00    -0.047 A 
ATOM      9  C9  IND d   1       1.224  -0.038  -0.506  0.00  0.00    -0.096 A 
ATOM     10  HN1 IND d   1       1.545  -2.763  -1.882  0.00  0.00     0.298 HD
ENDROOT
TORSDOF 0
ENDMDL
