MODEL 1
REMARK minimizedAffinity -3.41964555
REMARK minimizedRMSD -1
REMARK  0 active torsions:
REMARK  status: ('A' for Active; 'I' for Inactive)
ROOT
ATOM      1  C   UNL d   1       1.003  -0.848   0.857  0.00  0.00     0.077 C 
ATOM      2  C1  UNL d   1      -0.275  -0.180   0.445  0.00  0.00    -0.074 A 
ATOM      3  C2  UNL d   1      -0.292   0.766  -0.586  0.00  0.00    -0.005 A 
ATOM      4  C3  UNL d   1      -1.489   1.372  -0.964  0.00  0.00     0.006 A 
ATOM      5  C4  UNL d   1      -2.680   1.040  -0.317  0.00  0.00    -0.005 A 
ATOM      6  C5  UNL d   1      -2.683   0.096   0.715  0.00  0.00    -0.074 A 
ATOM      7  C6  UNL d   1      -3.956  -0.279   1.414  0.00  0.00     0.077 C 
ATOM      8  C7  UNL d   1      -1.477  -0.514   1.085  0.00  0.00    -0.001 A 
ENDROOT
TORSDOF 0
ENDMDL
