MODEL 1
REMARK minimizedAffinity -3.80484986
REMARK minimizedRMSD -1
REMARK  0 active torsions:
REMARK  status: ('A' for Active; 'I' for Inactive)
ROOT
ATOM      1  C   UNL d   1       2.612  -2.303  -1.475  0.00  0.00     0.077 C 
ATOM      2  C1  UNL d   1       1.843  -1.555  -0.427  0.00  0.00    -0.074 A 
ATOM      3  C2  UNL d   1       2.202  -1.636   0.922  0.00  0.00    -0.005 A 
ATOM      4  C3  UNL d   1       1.483  -0.927   1.885  0.00  0.00     0.006 A 
ATOM      5  C4  UNL d   1       0.401  -0.131   1.509  0.00  0.00    -0.005 A 
ATOM      6  C5  UNL d   1       0.028  -0.036   0.164  0.00  0.00    -0.074 A 
ATOM      7  C6  UNL d   1      -1.126   0.823  -0.258  0.00  0.00     0.077 C 
ATOM      8  C7  UNL d   1       0.760  -0.746  -0.798  0.00  0.00    -0.001 A 
ENDROOT
TORSDOF 0
ENDMDL
