MODEL 1
REMARK minimizedAffinity -3.34538198
REMARK minimizedRMSD -1
REMARK  0 active torsions:
REMARK  status: ('A' for Active; 'I' for Inactive)
ROOT
ATOM      1  C   UNL d   1      -1.248   0.465   0.202  0.00  0.00     0.077 C 
ATOM      2  C1  UNL d   1       0.157  -0.025   0.011  0.00  0.00    -0.074 A 
ATOM      3  C2  UNL d   1       0.432  -1.391  -0.107  0.00  0.00    -0.005 A 
ATOM      4  C3  UNL d   1       1.742  -1.831  -0.294  0.00  0.00     0.006 A 
ATOM      5  C4  UNL d   1       2.789  -0.911  -0.364  0.00  0.00    -0.005 A 
ATOM      6  C5  UNL d   1       2.533   0.459  -0.249  0.00  0.00    -0.074 A 
ATOM      7  C6  UNL d   1       3.645   1.461  -0.332  0.00  0.00     0.077 C 
ATOM      8  C7  UNL d   1       1.213   0.893  -0.068  0.00  0.00    -0.001 A 
ENDROOT
TORSDOF 0
ENDMDL
