MODEL 1
REMARK minimizedAffinity -4.89425373
REMARK minimizedRMSD -1
REMARK  0 active torsions:
REMARK  status: ('A' for Active; 'I' for Inactive)
ROOT
ATOM      1  C   UNL d   1      -0.586   0.957  -0.316  0.00  0.00     0.077 C 
ATOM      2  C1  UNL d   1      -1.963   0.883   0.273  0.00  0.00    -0.074 A 
ATOM      3  C2  UNL d   1      -2.294   1.611   1.421  0.00  0.00    -0.005 A 
ATOM      4  C3  UNL d   1      -3.582   1.539   1.952  0.00  0.00     0.006 A 
ATOM      5  C4  UNL d   1      -4.550   0.740   1.342  0.00  0.00    -0.005 A 
ATOM      6  C5  UNL d   1      -4.238   0.005   0.194  0.00  0.00    -0.074 A 
ATOM      7  C6  UNL d   1      -5.269  -0.851  -0.479  0.00  0.00     0.077 C 
ATOM      8  C7  UNL d   1      -2.944   0.088  -0.338  0.00  0.00    -0.001 A 
ENDROOT
TORSDOF 0
ENDMDL
