MODEL 1
REMARK minimizedAffinity -4.21121597
REMARK minimizedRMSD -1
REMARK  0 active torsions:
REMARK  status: ('A' for Active; 'I' for Inactive)
ROOT
ATOM      1  C   UNL d   1      -0.421   0.748  -0.048  0.00  0.00     0.077 C 
ATOM      2  C1  UNL d   1      -1.854   0.609   0.370  0.00  0.00    -0.074 A 
ATOM      3  C2  UNL d   1      -2.385   1.405   1.391  0.00  0.00    -0.005 A 
ATOM      4  C3  UNL d   1      -3.723   1.272   1.763  0.00  0.00     0.006 A 
ATOM      5  C4  UNL d   1      -4.542   0.343   1.119  0.00  0.00    -0.005 A 
ATOM      6  C5  UNL d   1      -4.029  -0.461   0.096  0.00  0.00    -0.074 A 
ATOM      7  C6  UNL d   1      -4.898  -1.457  -0.612  0.00  0.00     0.077 C 
ATOM      8  C7  UNL d   1      -2.685  -0.316  -0.277  0.00  0.00    -0.001 A 
ENDROOT
TORSDOF 0
ENDMDL
