MODEL 1
REMARK minimizedAffinity -5.73458004
REMARK minimizedRMSD -1
REMARK  0 active torsions:
REMARK  status: ('A' for Active; 'I' for Inactive)
ROOT
ATOM      1  C   UNL d   1      -0.942   0.481  -0.626  0.00  0.00     0.077 C 
ATOM      2  C1  UNL d   1       0.421  -0.002  -0.230  0.00  0.00    -0.074 A 
ATOM      3  C2  UNL d   1       0.598  -1.262   0.349  0.00  0.00    -0.005 A 
ATOM      4  C3  UNL d   1       1.873  -1.701   0.703  0.00  0.00     0.006 A 
ATOM      5  C4  UNL d   1       2.984  -0.886   0.482  0.00  0.00    -0.005 A 
ATOM      6  C5  UNL d   1       2.827   0.378  -0.097  0.00  0.00    -0.074 A 
ATOM      7  C6  UNL d   1       4.011   1.263  -0.350  0.00  0.00     0.077 C 
ATOM      8  C7  UNL d   1       1.543   0.809  -0.456  0.00  0.00    -0.001 A 
ENDROOT
TORSDOF 0
ENDMDL
