MODEL 1
REMARK minimizedAffinity -3.79369593
REMARK minimizedRMSD -1
REMARK  0 active torsions:
REMARK  status: ('A' for Active; 'I' for Inactive)
ROOT
ATOM      1  C   UNL d   1       2.550  -0.318   2.242  0.00  0.00     0.077 C 
ATOM      2  C1  UNL d   1       1.811  -0.585   0.964  0.00  0.00    -0.074 A 
ATOM      3  C2  UNL d   1       2.239  -1.582   0.082  0.00  0.00    -0.005 A 
ATOM      4  C3  UNL d   1       1.536  -1.825  -1.098  0.00  0.00     0.006 A 
ATOM      5  C4  UNL d   1       0.401  -1.075  -1.408  0.00  0.00    -0.005 A 
ATOM      6  C5  UNL d   1      -0.042  -0.074  -0.537  0.00  0.00    -0.074 A 
ATOM      7  C6  UNL d   1      -1.265   0.735  -0.850  0.00  0.00     0.077 C 
ATOM      8  C7  UNL d   1       0.666   0.160   0.650  0.00  0.00    -0.001 A 
ENDROOT
TORSDOF 0
ENDMDL
