MODEL 1
REMARK minimizedAffinity -4.54636335
REMARK minimizedRMSD -1
REMARK  0 active torsions:
REMARK  status: ('A' for Active; 'I' for Inactive)
ROOT
ATOM      1  C   UNL d   1      -1.386  -0.165  -1.030  0.00  0.00     0.077 C 
ATOM      2  C1  UNL d   1      -0.034  -0.154  -0.380  0.00  0.00    -0.074 A 
ATOM      3  C2  UNL d   1       0.666  -1.344  -0.157  0.00  0.00    -0.005 A 
ATOM      4  C3  UNL d   1       1.926  -1.317   0.440  0.00  0.00     0.006 A 
ATOM      5  C4  UNL d   1       2.498  -0.102   0.820  0.00  0.00    -0.005 A 
ATOM      6  C5  UNL d   1       1.813   1.098   0.604  0.00  0.00    -0.074 A 
ATOM      7  C6  UNL d   1       2.418   2.413   0.997  0.00  0.00     0.077 C 
ATOM      8  C7  UNL d   1       0.550   1.063  -0.003  0.00  0.00    -0.001 A 
ENDROOT
TORSDOF 0
ENDMDL
