MODEL 1
REMARK minimizedAffinity 26.0321789
REMARK minimizedRMSD -1
REMARK  0 active torsions:
REMARK  status: ('A' for Active; 'I' for Inactive)
ROOT
ATOM      1  C   UNL d   1       3.169  -1.591  -1.425  0.00  0.00     0.124 A 
ATOM      2  C1  UNL d   1       3.311  -0.814  -0.284  0.00  0.00     0.062 A 
ATOM      3  C2  UNL d   1       4.011   0.388  -0.338  0.00  0.00     0.162 A 
ATOM      4  C3  UNL d   1       4.574   0.821  -1.538  0.00  0.00    -0.034 A 
ATOM      5  C4  UNL d   1       4.428   0.033  -2.682  0.00  0.00     0.162 A 
ATOM      6  C5  UNL d   1       3.727  -1.167  -2.623  0.00  0.00     0.062 A 
ATOM      7  F   UNL d   1       3.591  -1.917  -3.726  0.00  0.00    -0.097 F 
ATOM      8  F1  UNL d   1       4.956   0.420  -3.852  0.00  0.00    -0.096 F 
ATOM      9  I   UNL d   1       5.621   2.617  -1.624  0.00  0.00    -0.060 I 
ATOM     10  F2  UNL d   1       4.132   1.118   0.780  0.00  0.00    -0.096 F 
ATOM     11  F3  UNL d   1       2.773  -1.223   0.875  0.00  0.00    -0.097 F 
ATOM     12  F4  UNL d   1       2.496  -2.748  -1.370  0.00  0.00    -0.092 F 
ENDROOT
TORSDOF 0
ENDMDL
