MODEL 1
REMARK minimizedAffinity 22.0635643
REMARK minimizedRMSD -1
REMARK  0 active torsions:
REMARK  status: ('A' for Active; 'I' for Inactive)
ROOT
ATOM      1  C   UNL d   1       4.896   1.031  -0.654  0.00  0.00     0.124 A 
ATOM      2  C1  UNL d   1       3.765   0.395  -1.147  0.00  0.00     0.062 A 
ATOM      3  C2  UNL d   1       2.616   0.304  -0.366  0.00  0.00     0.162 A 
ATOM      4  C3  UNL d   1       2.591   0.853   0.916  0.00  0.00    -0.034 A 
ATOM      5  C4  UNL d   1       3.733   1.491   1.405  0.00  0.00     0.162 A 
ATOM      6  C5  UNL d   1       4.878   1.579   0.622  0.00  0.00     0.062 A 
ATOM      7  F   UNL d   1       5.970   2.194   1.100  0.00  0.00    -0.097 F 
ATOM      8  F1  UNL d   1       3.743   2.029   2.634  0.00  0.00    -0.096 F 
ATOM      9  I   UNL d   1       0.876   0.720   2.086  0.00  0.00    -0.060 I 
ATOM     10  F2  UNL d   1       1.538  -0.317  -0.868  0.00  0.00    -0.096 F 
ATOM     11  F3  UNL d   1       3.779  -0.136  -2.378  0.00  0.00    -0.097 F 
ATOM     12  F4  UNL d   1       6.000   1.116  -1.406  0.00  0.00    -0.092 F 
ENDROOT
TORSDOF 0
ENDMDL
