MODEL 1
REMARK minimizedAffinity 19.2373543
REMARK minimizedRMSD -1
REMARK  0 active torsions:
REMARK  status: ('A' for Active; 'I' for Inactive)
ROOT
ATOM      1  C   UNL d   1       4.501   1.871  -0.089  0.00  0.00     0.124 A 
ATOM      2  C1  UNL d   1       3.466   1.123   0.456  0.00  0.00     0.062 A 
ATOM      3  C2  UNL d   1       2.929   0.051  -0.250  0.00  0.00     0.162 A 
ATOM      4  C3  UNL d   1       3.427  -0.281  -1.510  0.00  0.00    -0.034 A 
ATOM      5  C4  UNL d   1       4.467   0.476  -2.053  0.00  0.00     0.162 A 
ATOM      6  C5  UNL d   1       5.000   1.547  -1.342  0.00  0.00     0.062 A 
ATOM      7  F   UNL d   1       6.000   2.268  -1.871  0.00  0.00    -0.097 F 
ATOM      8  F1  UNL d   1       4.970   0.184  -3.261  0.00  0.00    -0.096 F 
ATOM      9  I   UNL d   1       2.628  -1.884  -2.570  0.00  0.00    -0.060 I 
ATOM     10  F2  UNL d   1       1.930  -0.654   0.301  0.00  0.00    -0.096 F 
ATOM     11  F3  UNL d   1       2.981   1.435   1.667  0.00  0.00    -0.097 F 
ATOM     12  F4  UNL d   1       5.014   2.903   0.593  0.00  0.00    -0.092 F 
ENDROOT
TORSDOF 0
ENDMDL
