MODEL 1
REMARK minimizedAffinity 13.930439
REMARK minimizedRMSD -1
REMARK  0 active torsions:
REMARK  status: ('A' for Active; 'I' for Inactive)
ROOT
ATOM      1  C   UNL d   1       3.704   0.360  -0.150  0.00  0.00     0.124 A 
ATOM      2  C1  UNL d   1       3.076  -0.859   0.064  0.00  0.00     0.062 A 
ATOM      3  C2  UNL d   1       3.054  -1.822  -0.942  0.00  0.00     0.162 A 
ATOM      4  C3  UNL d   1       3.664  -1.569  -2.171  0.00  0.00    -0.034 A 
ATOM      5  C4  UNL d   1       4.293  -0.340  -2.379  0.00  0.00     0.162 A 
ATOM      6  C5  UNL d   1       4.311   0.618  -1.371  0.00  0.00     0.062 A 
ATOM      7  F   UNL d   1       4.918   1.796  -1.580  0.00  0.00    -0.097 F 
ATOM      8  F1  UNL d   1       4.889  -0.065  -3.548  0.00  0.00    -0.096 F 
ATOM      9  I   UNL d   1       3.634  -3.006  -3.677  0.00  0.00    -0.060 I 
ATOM     10  F2  UNL d   1       2.440  -2.991  -0.707  0.00  0.00    -0.096 F 
ATOM     11  F3  UNL d   1       2.487  -1.111   1.242  0.00  0.00    -0.097 F 
ATOM     12  F4  UNL d   1       3.722   1.284   0.818  0.00  0.00    -0.092 F 
ENDROOT
TORSDOF 0
ENDMDL
