MODEL 1
REMARK minimizedAffinity 30.9671707
REMARK minimizedRMSD -1
REMARK  0 active torsions:
REMARK  status: ('A' for Active; 'I' for Inactive)
ROOT
ATOM      1  C   UNL d   1      -1.551  -4.785  -1.462  0.00  0.00     0.124 A 
ATOM      2  C1  UNL d   1      -0.469  -4.744  -0.594  0.00  0.00     0.062 A 
ATOM      3  C2  UNL d   1       0.725  -4.149  -0.990  0.00  0.00     0.162 A 
ATOM      4  C3  UNL d   1       0.843  -3.589  -2.262  0.00  0.00    -0.034 A 
ATOM      5  C4  UNL d   1      -0.249  -3.635  -3.131  0.00  0.00     0.162 A 
ATOM      6  C5  UNL d   1      -1.440  -4.230  -2.729  0.00  0.00     0.062 A 
ATOM      7  F   UNL d   1      -2.485  -4.269  -3.570  0.00  0.00    -0.097 F 
ATOM      8  F1  UNL d   1      -0.170  -3.106  -4.361  0.00  0.00    -0.096 F 
ATOM      9  I   UNL d   1       2.627  -2.698  -2.860  0.00  0.00    -0.060 I 
ATOM     10  F2  UNL d   1       1.754  -4.124  -0.131  0.00  0.00    -0.096 F 
ATOM     11  F3  UNL d   1      -0.574  -5.280   0.631  0.00  0.00    -0.097 F 
ATOM     12  F4  UNL d   1      -2.699  -5.359  -1.078  0.00  0.00    -0.092 F 
ENDROOT
TORSDOF 0
ENDMDL
