MODEL 1
REMARK minimizedAffinity 21.1514721
REMARK minimizedRMSD -1
REMARK  0 active torsions:
REMARK  status: ('A' for Active; 'I' for Inactive)
ROOT
ATOM      1  C   UNL d   1       4.990   1.192  -0.044  0.00  0.00     0.124 A 
ATOM      2  C1  UNL d   1       4.909   1.536  -1.386  0.00  0.00     0.062 A 
ATOM      3  C2  UNL d   1       5.195   2.836  -1.793  0.00  0.00     0.162 A 
ATOM      4  C3  UNL d   1       5.566   3.801  -0.857  0.00  0.00    -0.034 A 
ATOM      5  C4  UNL d   1       5.645   3.448   0.491  0.00  0.00     0.162 A 
ATOM      6  C5  UNL d   1       5.358   2.147   0.893  0.00  0.00     0.062 A 
ATOM      7  F   UNL d   1       5.437   1.816   2.190  0.00  0.00    -0.097 F 
ATOM      8  F1  UNL d   1       5.999   4.351   1.417  0.00  0.00    -0.096 F 
ATOM      9  I   UNL d   1       5.995   5.746  -1.463  0.00  0.00    -0.060 I 
ATOM     10  F2  UNL d   1       5.108   3.141  -3.097  0.00  0.00    -0.096 F 
ATOM     11  F3  UNL d   1       4.553   0.615  -2.292  0.00  0.00    -0.097 F 
ATOM     12  F4  UNL d   1       4.713  -0.059   0.346  0.00  0.00    -0.092 F 
ENDROOT
TORSDOF 0
ENDMDL
