MODEL 1
REMARK minimizedAffinity -3.12217975
REMARK minimizedRMSD -1
REMARK  0 active torsions:
REMARK  status: ('A' for Active; 'I' for Inactive)
ROOT
ATOM      1  C   UNL d   1      -5.239   1.673  -1.495  0.00  0.00     0.023 A 
ATOM      2  C1  UNL d   1      -3.966   2.056  -1.918  0.00  0.00     0.003 A 
ATOM      3  C2  UNL d   1      -3.449   3.297  -1.543  0.00  0.00     0.048 A 
ATOM      4  C3  UNL d   1      -4.209   4.150  -0.743  0.00  0.00     0.023 A 
ATOM      5  C4  UNL d   1      -5.482   3.770  -0.316  0.00  0.00     0.048 A 
ATOM      6  C5  UNL d   1      -5.996   2.529  -0.695  0.00  0.00     0.003 A 
ATOM      7  I   UNL d   1      -3.440   5.998  -0.182  0.00  0.00    -0.146 I 
ENDROOT
TORSDOF 0
ENDMDL
