MODEL 1
REMARK minimizedAffinity -1.82654464
REMARK minimizedRMSD -1
REMARK  0 active torsions:
REMARK  status: ('A' for Active; 'I' for Inactive)
ROOT
ATOM      1  C   UNL d   1      -2.066  -1.852   4.919  0.00  0.00     0.023 A 
ATOM      2  C1  UNL d   1      -0.796  -1.287   5.031  0.00  0.00     0.003 A 
ATOM      3  C2  UNL d   1      -0.455  -0.175   4.259  0.00  0.00     0.048 A 
ATOM      4  C3  UNL d   1      -1.389   0.368   3.378  0.00  0.00     0.023 A 
ATOM      5  C4  UNL d   1      -2.662  -0.194   3.263  0.00  0.00     0.048 A 
ATOM      6  C5  UNL d   1      -2.998  -1.306   4.036  0.00  0.00     0.003 A 
ATOM      7  I   UNL d   1      -0.883   2.024   2.227  0.00  0.00    -0.146 I 
ENDROOT
TORSDOF 0
ENDMDL
