MODEL 1
REMARK minimizedAffinity 9.00943947
REMARK minimizedRMSD -1
REMARK  0 active torsions:
REMARK  status: ('A' for Active; 'I' for Inactive)
ROOT
ATOM      1  C   UNL d   1      -2.824   2.252   1.216  0.00  0.00     0.023 A 
ATOM      2  C1  UNL d   1      -3.636   1.675   0.239  0.00  0.00     0.003 A 
ATOM      3  C2  UNL d   1      -3.552   0.306  -0.021  0.00  0.00     0.048 A 
ATOM      4  C3  UNL d   1      -2.656  -0.481   0.701  0.00  0.00     0.023 A 
ATOM      5  C4  UNL d   1      -1.842   0.091   1.681  0.00  0.00     0.048 A 
ATOM      6  C5  UNL d   1      -1.929   1.461   1.936  0.00  0.00     0.003 A 
ATOM      7  I   UNL d   1      -2.530  -2.520   0.317  0.00  0.00    -0.146 I 
ENDROOT
TORSDOF 0
ENDMDL
