MODEL 1
REMARK minimizedAffinity 2.67272234
REMARK minimizedRMSD -1
REMARK  0 active torsions:
REMARK  status: ('A' for Active; 'I' for Inactive)
ROOT
ATOM      1  C   UNL d   1      -0.841  -5.045  -5.485  0.00  0.00     0.023 A 
ATOM      2  C1  UNL d   1       0.177  -4.470  -4.723  0.00  0.00     0.003 A 
ATOM      3  C2  UNL d   1      -0.136  -3.751  -3.568  0.00  0.00     0.048 A 
ATOM      4  C3  UNL d   1      -1.468  -3.610  -3.180  0.00  0.00     0.023 A 
ATOM      5  C4  UNL d   1      -2.489  -4.184  -3.939  0.00  0.00     0.048 A 
ATOM      6  C5  UNL d   1      -2.172  -4.902  -5.093  0.00  0.00     0.003 A 
ATOM      7  I   UNL d   1      -1.935  -2.539  -1.461  0.00  0.00    -0.146 I 
ENDROOT
TORSDOF 0
ENDMDL
