MODEL 1
REMARK minimizedAffinity 13.1520243
REMARK minimizedRMSD -1
REMARK  2 active torsions:
REMARK  status: ('A' for Active; 'I' for Inactive)
REMARK    1  A    between atoms: C1_2  and  C2_3 
REMARK    2  A    between atoms: C2_3  and  C3_4 
ROOT
ATOM      1  C3  UNL d   1       3.150  -5.833  -3.335  0.00  0.00    -0.075 A 
ATOM      2  C4  UNL d   1       3.695  -5.698  -2.050  0.00  0.00     0.002 A 
ATOM      3  C5  UNL d   1       5.077  -5.654  -1.868  0.00  0.00     0.002 A 
ATOM      4  C6  UNL d   1       5.931  -5.755  -2.964  0.00  0.00    -0.004 A 
ATOM      5  C7  UNL d   1       5.401  -5.907  -4.244  0.00  0.00     0.002 A 
ATOM      6  C8  UNL d   1       4.018  -5.946  -4.429  0.00  0.00     0.002 A 
ENDROOT
BRANCH   1   7
ATOM      7  C2  UNL d   1       1.654  -5.851  -3.542  0.00  0.00     0.056 C 
BRANCH   7   8
ATOM      8  C1  UNL d   1       1.229  -5.996  -5.007  0.00  0.00     0.007 C 
ATOM      9  C   UNL d   1       2.234  -5.403  -5.986  0.00  0.00     0.009 C 
ENDBRANCH   7   8
ENDBRANCH   1   7
TORSDOF 2
ENDMDL
