MODEL 1
REMARK minimizedAffinity 3.09549356
REMARK minimizedRMSD -1
REMARK  2 active torsions:
REMARK  status: ('A' for Active; 'I' for Inactive)
REMARK    1  A    between atoms: C1_2  and  C2_3 
REMARK    2  A    between atoms: C2_3  and  C3_4 
ROOT
ATOM      1  C3  UNL d   1      -1.228  -1.821  -0.337  0.00  0.00    -0.075 A 
ATOM      2  C4  UNL d   1      -2.013  -2.931   0.005  0.00  0.00     0.002 A 
ATOM      3  C5  UNL d   1      -3.017  -3.380  -0.854  0.00  0.00     0.002 A 
ATOM      4  C6  UNL d   1      -3.254  -2.721  -2.058  0.00  0.00    -0.004 A 
ATOM      5  C7  UNL d   1      -2.491  -1.607  -2.400  0.00  0.00     0.002 A 
ATOM      6  C8  UNL d   1      -1.483  -1.158  -1.545  0.00  0.00     0.002 A 
ENDROOT
BRANCH   1   7
ATOM      7  C2  UNL d   1      -0.121  -1.348   0.574  0.00  0.00     0.056 C 
BRANCH   7   8
ATOM      8  C1  UNL d   1       0.551  -2.469   1.374  0.00  0.00     0.007 C 
ATOM      9  C   UNL d   1       1.374  -1.958   2.549  0.00  0.00     0.009 C 
ENDBRANCH   7   8
ENDBRANCH   1   7
TORSDOF 2
ENDMDL
