MODEL 1
REMARK minimizedAffinity 1.67020285
REMARK minimizedRMSD -1
REMARK  2 active torsions:
REMARK  status: ('A' for Active; 'I' for Inactive)
REMARK    1  A    between atoms: C1_2  and  C2_3 
REMARK    2  A    between atoms: C2_3  and  C3_4 
ROOT
ATOM      1  C3  UNL d   1       3.682  -5.980  -3.133  0.00  0.00    -0.075 A 
ATOM      2  C4  UNL d   1       2.439  -5.976  -3.781  0.00  0.00     0.002 A 
ATOM      3  C5  UNL d   1       2.367  -5.991  -5.174  0.00  0.00     0.002 A 
ATOM      4  C6  UNL d   1       3.533  -5.999  -5.935  0.00  0.00    -0.004 A 
ATOM      5  C7  UNL d   1       4.774  -5.987  -5.302  0.00  0.00     0.002 A 
ATOM      6  C8  UNL d   1       4.849  -5.976  -3.908  0.00  0.00     0.002 A 
ENDROOT
BRANCH   1   7
ATOM      7  C2  UNL d   1       3.767  -5.995  -1.625  0.00  0.00     0.056 C 
BRANCH   7   8
ATOM      8  C1  UNL d   1       3.050  -4.821  -0.949  0.00  0.00     0.007 C 
ATOM      9  C   UNL d   1       3.078  -3.543  -1.777  0.00  0.00     0.009 C 
ENDBRANCH   7   8
ENDBRANCH   1   7
TORSDOF 2
ENDMDL
