MODEL 1
REMARK minimizedAffinity 4.00597382
REMARK minimizedRMSD -1
REMARK  2 active torsions:
REMARK  status: ('A' for Active; 'I' for Inactive)
REMARK    1  A    between atoms: C1_2  and  C2_3 
REMARK    2  A    between atoms: C2_3  and  C3_4 
ROOT
ATOM      1  C3  UNL d   1       2.070  -4.192   4.176  0.00  0.00    -0.075 A 
ATOM      2  C4  UNL d   1       2.710  -3.152   4.867  0.00  0.00     0.002 A 
ATOM      3  C5  UNL d   1       2.538  -1.826   4.469  0.00  0.00     0.002 A 
ATOM      4  C6  UNL d   1       1.734  -1.523   3.372  0.00  0.00    -0.004 A 
ATOM      5  C7  UNL d   1       1.108  -2.549   2.668  0.00  0.00     0.002 A 
ATOM      6  C8  UNL d   1       1.274  -3.877   3.067  0.00  0.00     0.002 A 
ENDROOT
BRANCH   1   7
ATOM      7  C2  UNL d   1       2.228  -5.626   4.620  0.00  0.00     0.056 C 
BRANCH   7   8
ATOM      8  C1  UNL d   1       1.631  -5.922   6.000  0.00  0.00     0.007 C 
ATOM      9  C   UNL d   1       0.109  -5.968   5.998  0.00  0.00     0.009 C 
ENDBRANCH   7   8
ENDBRANCH   1   7
TORSDOF 2
ENDMDL
