MODEL 1
REMARK minimizedAffinity 7.26323605
REMARK minimizedRMSD -1
REMARK  2 active torsions:
REMARK  status: ('A' for Active; 'I' for Inactive)
REMARK    1  A    between atoms: C1_2  and  C2_3 
REMARK    2  A    between atoms: C2_3  and  C3_4 
ROOT
ATOM      1  C3  UNL d   1       1.635  -3.465   4.028  0.00  0.00    -0.075 A 
ATOM      2  C4  UNL d   1       1.142  -2.325   4.681  0.00  0.00     0.002 A 
ATOM      3  C5  UNL d   1       1.250  -1.067   4.087  0.00  0.00     0.002 A 
ATOM      4  C6  UNL d   1       1.859  -0.931   2.842  0.00  0.00    -0.004 A 
ATOM      5  C7  UNL d   1       2.367  -2.054   2.192  0.00  0.00     0.002 A 
ATOM      6  C8  UNL d   1       2.257  -3.314   2.782  0.00  0.00     0.002 A 
ENDROOT
BRANCH   1   7
ATOM      7  C2  UNL d   1       1.496  -4.833   4.652  0.00  0.00     0.056 C 
BRANCH   7   8
ATOM      8  C1  UNL d   1       0.686  -4.846   5.953  0.00  0.00     0.007 C 
ATOM      9  C   UNL d   1      -0.358  -5.953   5.999  0.00  0.00     0.009 C 
ENDBRANCH   7   8
ENDBRANCH   1   7
TORSDOF 2
ENDMDL
