MODEL 1
REMARK minimizedAffinity 4.04913139
REMARK minimizedRMSD -1
REMARK  2 active torsions:
REMARK  status: ('A' for Active; 'I' for Inactive)
REMARK    1  A    between atoms: C1_2  and  C2_3 
REMARK    2  A    between atoms: C2_3  and  C3_4 
ROOT
ATOM      1  C3  UNL d   1      -4.759   1.700  -1.985  0.00  0.00    -0.075 A 
ATOM      2  C4  UNL d   1      -3.527   1.891  -1.343  0.00  0.00     0.002 A 
ATOM      3  C5  UNL d   1      -3.472   2.103   0.035  0.00  0.00     0.002 A 
ATOM      4  C6  UNL d   1      -4.645   2.138   0.785  0.00  0.00    -0.004 A 
ATOM      5  C7  UNL d   1      -5.876   1.966   0.155  0.00  0.00     0.002 A 
ATOM      6  C8  UNL d   1      -5.934   1.749  -1.223  0.00  0.00     0.002 A 
ENDROOT
BRANCH   1   7
ATOM      7  C2  UNL d   1      -4.824   1.440  -3.471  0.00  0.00     0.056 C 
BRANCH   7   8
ATOM      8  C1  UNL d   1      -5.678   2.450  -4.244  0.00  0.00     0.007 C 
ATOM      9  C   UNL d   1      -5.805   2.120  -5.726  0.00  0.00     0.009 C 
ENDBRANCH   7   8
ENDBRANCH   1   7
TORSDOF 2
ENDMDL
