MODEL 1
REMARK minimizedAffinity 0.0643905923
REMARK minimizedRMSD -1
REMARK  2 active torsions:
REMARK  status: ('A' for Active; 'I' for Inactive)
REMARK    1  A    between atoms: C1_2  and  C2_3 
REMARK    2  A    between atoms: C2_3  and  C3_4 
ROOT
ATOM      1  C3  UNL d   1       2.218  -1.569   3.759  0.00  0.00    -0.075 A 
ATOM      2  C4  UNL d   1       1.393  -2.375   2.961  0.00  0.00     0.002 A 
ATOM      3  C5  UNL d   1       1.373  -3.759   3.134  0.00  0.00     0.002 A 
ATOM      4  C6  UNL d   1       2.184  -4.355   4.097  0.00  0.00    -0.004 A 
ATOM      5  C7  UNL d   1       3.019  -3.566   4.884  0.00  0.00     0.002 A 
ATOM      6  C8  UNL d   1       3.038  -2.180   4.717  0.00  0.00     0.002 A 
ENDROOT
BRANCH   1   7
ATOM      7  C2  UNL d   1       2.221  -0.068   3.597  0.00  0.00     0.056 C 
BRANCH   7   8
ATOM      8  C1  UNL d   1       2.223   0.402   2.139  0.00  0.00     0.007 C 
ATOM      9  C   UNL d   1       3.395   1.316   1.803  0.00  0.00     0.009 C 
ENDBRANCH   7   8
ENDBRANCH   1   7
TORSDOF 2
ENDMDL
