MODEL 1
REMARK minimizedAffinity -3.55276966
REMARK minimizedRMSD -1
REMARK  0 active torsions:
REMARK  status: ('A' for Active; 'I' for Inactive)
ROOT
ATOM      1  C   UNL d   1      -1.121  -1.048   1.137  0.00  0.00     0.020 A 
ATOM      2  C1  UNL d   1      -0.371  -1.400   0.016  0.00  0.00     0.020 A 
ATOM      3  C2  UNL d   1       0.355  -0.427  -0.673  0.00  0.00     0.034 A 
ATOM      4  C3  UNL d   1       0.333   0.904  -0.241  0.00  0.00     0.017 A 
ATOM      5  C4  UNL d   1      -0.419   1.257   0.885  0.00  0.00     0.017 A 
ATOM      6  C5  UNL d   1      -1.145   0.278   1.571  0.00  0.00     0.034 A 
ATOM      7 Cl   UNL d   1      -0.495   2.879   1.478  0.00  0.00    -0.070 Cl
ATOM      8 Cl1  UNL d   1       1.255   2.056  -1.140  0.00  0.00    -0.070 Cl
ENDROOT
TORSDOF 0
ENDMDL
