MODEL 1
REMARK minimizedAffinity -4.53762054
REMARK minimizedRMSD -1
REMARK  0 active torsions:
REMARK  status: ('A' for Active; 'I' for Inactive)
ROOT
ATOM      1  C   UNL d   1       1.042   3.060  -0.164  0.00  0.00     0.020 A 
ATOM      2  C1  UNL d   1       2.279   2.647   0.329  0.00  0.00     0.020 A 
ATOM      3  C2  UNL d   1       2.516   1.293   0.573  0.00  0.00     0.034 A 
ATOM      4  C3  UNL d   1       1.515   0.347   0.325  0.00  0.00     0.017 A 
ATOM      5  C4  UNL d   1       0.274   0.762  -0.170  0.00  0.00     0.017 A 
ATOM      6  C5  UNL d   1       0.042   2.120  -0.413  0.00  0.00     0.034 A 
ATOM      7 Cl   UNL d   1      -1.010  -0.346  -0.501  0.00  0.00    -0.070 Cl
ATOM      8 Cl1  UNL d   1       1.878  -1.311   0.650  0.00  0.00    -0.070 Cl
ENDROOT
TORSDOF 0
ENDMDL
