MODEL 1
REMARK minimizedAffinity -2.66185045
REMARK minimizedRMSD -1
REMARK  0 active torsions:
REMARK  status: ('A' for Active; 'I' for Inactive)
ROOT
ATOM      1  C   UNL d   1       1.072  -0.541  -0.007  0.00  0.00     0.020 A 
ATOM      2  C1  UNL d   1      -0.048  -1.165   0.541  0.00  0.00     0.020 A 
ATOM      3  C2  UNL d   1      -1.236  -0.449   0.704  0.00  0.00     0.034 A 
ATOM      4  C3  UNL d   1      -1.307   0.894   0.317  0.00  0.00     0.017 A 
ATOM      5  C4  UNL d   1      -0.183   1.519  -0.233  0.00  0.00     0.017 A 
ATOM      6  C5  UNL d   1       1.005   0.798  -0.393  0.00  0.00     0.034 A 
ATOM      7 Cl   UNL d   1      -0.194   3.174  -0.733  0.00  0.00    -0.070 Cl
ATOM      8 Cl1  UNL d   1      -2.809   1.717   0.547  0.00  0.00    -0.070 Cl
ENDROOT
TORSDOF 0
ENDMDL
