MODEL 1
REMARK minimizedAffinity -3.23352003
REMARK minimizedRMSD -1
REMARK  0 active torsions:
REMARK  status: ('A' for Active; 'I' for Inactive)
ROOT
ATOM      1  C   UNL d   1       0.185   2.988   0.049  0.00  0.00     0.020 A 
ATOM      2  C1  UNL d   1       0.965   2.284  -0.867  0.00  0.00     0.020 A 
ATOM      3  C2  UNL d   1       0.804   0.904  -1.007  0.00  0.00     0.034 A 
ATOM      4  C3  UNL d   1      -0.140   0.224  -0.229  0.00  0.00     0.017 A 
ATOM      5  C4  UNL d   1      -0.923   0.931   0.691  0.00  0.00     0.017 A 
ATOM      6  C5  UNL d   1      -0.757   2.313   0.826  0.00  0.00     0.034 A 
ATOM      7 Cl   UNL d   1      -2.108   0.161   1.686  0.00  0.00    -0.070 Cl
ATOM      8 Cl1  UNL d   1      -0.287  -1.483  -0.454  0.00  0.00    -0.070 Cl
ENDROOT
TORSDOF 0
ENDMDL
