MODEL 1
REMARK minimizedAffinity -3.779392
REMARK minimizedRMSD -1
REMARK  0 active torsions:
REMARK  status: ('A' for Active; 'I' for Inactive)
ROOT
ATOM      1  C   UNL d   1       1.128   2.448  -0.756  0.00  0.00     0.020 A 
ATOM      2  C1  UNL d   1       0.200   3.205  -0.041  0.00  0.00     0.020 A 
ATOM      3  C2  UNL d   1      -0.760   2.568   0.749  0.00  0.00     0.034 A 
ATOM      4  C3  UNL d   1      -0.794   1.171   0.826  0.00  0.00     0.017 A 
ATOM      5  C4  UNL d   1       0.138   0.413   0.107  0.00  0.00     0.017 A 
ATOM      6  C5  UNL d   1       1.097   1.055  -0.682  0.00  0.00     0.034 A 
ATOM      7 Cl   UNL d   1       0.159  -1.315   0.152  0.00  0.00    -0.070 Cl
ATOM      8 Cl1  UNL d   1      -2.008   0.450   1.822  0.00  0.00    -0.070 Cl
ENDROOT
TORSDOF 0
ENDMDL
