MODEL 1
REMARK minimizedAffinity -4.66688347
REMARK minimizedRMSD -1
REMARK  0 active torsions:
REMARK  status: ('A' for Active; 'I' for Inactive)
ROOT
ATOM      1  C   UNL d   1      -1.122   2.220   0.131  0.00  0.00     0.020 A 
ATOM      2  C1  UNL d   1       0.043   2.978   0.243  0.00  0.00     0.020 A 
ATOM      3  C2  UNL d   1       1.290   2.354   0.176  0.00  0.00     0.034 A 
ATOM      4  C3  UNL d   1       1.376   0.968  -0.004  0.00  0.00     0.017 A 
ATOM      5  C4  UNL d   1       0.205   0.209  -0.117  0.00  0.00     0.017 A 
ATOM      6  C5  UNL d   1      -1.041   0.839  -0.049  0.00  0.00     0.034 A 
ATOM      7 Cl   UNL d   1       0.230  -1.505  -0.340  0.00  0.00    -0.070 Cl
ATOM      8 Cl1  UNL d   1       2.951   0.263  -0.079  0.00  0.00    -0.070 Cl
ENDROOT
TORSDOF 0
ENDMDL
