MODEL 1
REMARK minimizedAffinity -3.41193795
REMARK minimizedRMSD -1
REMARK  0 active torsions:
REMARK  status: ('A' for Active; 'I' for Inactive)
ROOT
ATOM      1  C   UNL d   1      -0.041   2.924   0.499  0.00  0.00     0.020 A 
ATOM      2  C1  UNL d   1      -1.172   2.109   0.479  0.00  0.00     0.020 A 
ATOM      3  C2  UNL d   1      -1.033   0.721   0.429  0.00  0.00     0.034 A 
ATOM      4  C3  UNL d   1       0.241   0.142   0.400  0.00  0.00     0.017 A 
ATOM      5  C4  UNL d   1       1.377   0.960   0.421  0.00  0.00     0.017 A 
ATOM      6  C5  UNL d   1       1.231   2.350   0.470  0.00  0.00     0.034 A 
ATOM      7 Cl   UNL d   1       2.982   0.320   0.387  0.00  0.00    -0.070 Cl
ATOM      8 Cl1  UNL d   1       0.340  -1.582   0.339  0.00  0.00    -0.070 Cl
ENDROOT
TORSDOF 0
ENDMDL
