MODEL 1
REMARK minimizedAffinity -3.48772311
REMARK minimizedRMSD -1
REMARK  0 active torsions:
REMARK  status: ('A' for Active; 'I' for Inactive)
ROOT
ATOM      1  C   UNL d   1       0.978   2.299  -0.699  0.00  0.00     0.020 A 
ATOM      2  C1  UNL d   1       0.160   3.047   0.147  0.00  0.00     0.020 A 
ATOM      3  C2  UNL d   1      -0.875   2.424   0.848  0.00  0.00     0.034 A 
ATOM      4  C3  UNL d   1      -1.095   1.050   0.704  0.00  0.00     0.017 A 
ATOM      5  C4  UNL d   1      -0.274   0.300  -0.146  0.00  0.00     0.017 A 
ATOM      6  C5  UNL d   1       0.761   0.928  -0.845  0.00  0.00     0.034 A 
ATOM      7 Cl   UNL d   1      -0.484  -1.400  -0.375  0.00  0.00    -0.070 Cl
ATOM      8 Cl1  UNL d   1      -2.393   0.346   1.601  0.00  0.00    -0.070 Cl
ENDROOT
TORSDOF 0
ENDMDL
