MODEL 1
REMARK minimizedAffinity -3.11926007
REMARK minimizedRMSD -1
REMARK  0 active torsions:
REMARK  status: ('A' for Active; 'I' for Inactive)
ROOT
ATOM      1  C   UNL d   1      -0.842  -0.350   0.257  0.00  0.00     0.020 A 
ATOM      2  C1  UNL d   1       0.344  -1.084   0.251  0.00  0.00     0.020 A 
ATOM      3  C2  UNL d   1       1.574  -0.425   0.292  0.00  0.00     0.034 A 
ATOM      4  C3  UNL d   1       1.621   0.974   0.339  0.00  0.00     0.017 A 
ATOM      5  C4  UNL d   1       0.431   1.709   0.345  0.00  0.00     0.017 A 
ATOM      6  C5  UNL d   1      -0.798   1.044   0.304  0.00  0.00     0.034 A 
ATOM      7 Cl   UNL d   1       0.409   3.437   0.402  0.00  0.00    -0.070 Cl
ATOM      8 Cl1  UNL d   1       3.177   1.723   0.388  0.00  0.00    -0.070 Cl
ENDROOT
TORSDOF 0
ENDMDL
