MODEL 1
REMARK minimizedAffinity -3.53010011
REMARK minimizedRMSD -1
REMARK  0 active torsions:
REMARK  status: ('A' for Active; 'I' for Inactive)
ROOT
ATOM      1  C   UNL d   1      -0.336  -1.005  -0.246  0.00  0.00     0.020 A 
ATOM      2  C1  UNL d   1      -1.187  -0.683   0.810  0.00  0.00     0.020 A 
ATOM      3  C2  UNL d   1      -1.160   0.600   1.361  0.00  0.00     0.034 A 
ATOM      4  C3  UNL d   1      -0.281   1.565   0.856  0.00  0.00     0.017 A 
ATOM      5  C4  UNL d   1       0.572   1.240  -0.205  0.00  0.00     0.017 A 
ATOM      6  C5  UNL d   1       0.541  -0.046  -0.752  0.00  0.00     0.034 A 
ATOM      7 Cl   UNL d   1       1.684   2.378  -0.882  0.00  0.00    -0.070 Cl
ATOM      8 Cl1  UNL d   1      -0.303   3.132   1.585  0.00  0.00    -0.070 Cl
ENDROOT
TORSDOF 0
ENDMDL
