MODEL 1
REMARK minimizedAffinity -3.14231038
REMARK minimizedRMSD -1
REMARK  0 active torsions:
REMARK  status: ('A' for Active; 'I' for Inactive)
ROOT
ATOM      1  C   UNL d   1      -1.311  -0.574   0.633  0.00  0.00     0.020 A 
ATOM      2  C1  UNL d   1      -0.228  -1.239   0.059  0.00  0.00     0.020 A 
ATOM      3  C2  UNL d   1       0.914  -0.524  -0.308  0.00  0.00     0.034 A 
ATOM      4  C3  UNL d   1       0.976   0.859  -0.102  0.00  0.00     0.017 A 
ATOM      5  C4  UNL d   1      -0.113   1.525   0.474  0.00  0.00     0.017 A 
ATOM      6  C5  UNL d   1      -1.254   0.804   0.839  0.00  0.00     0.034 A 
ATOM      7 Cl   UNL d   1      -0.111   3.230   0.759  0.00  0.00    -0.070 Cl
ATOM      8 Cl1  UNL d   1       2.419   1.680  -0.580  0.00  0.00    -0.070 Cl
ENDROOT
TORSDOF 0
ENDMDL
