MODEL 1
REMARK minimizedAffinity -2.17807889
REMARK minimizedRMSD -1
REMARK  0 active torsions:
REMARK  status: ('A' for Active; 'I' for Inactive)
ROOT
ATOM      1  C   UNL d   1      -1.407   1.710   0.009  0.00  0.00     0.020 A 
ATOM      2  C1  UNL d   1      -0.381   2.647   0.123  0.00  0.00     0.020 A 
ATOM      3  C2  UNL d   1       0.943   2.221   0.251  0.00  0.00     0.034 A 
ATOM      4  C3  UNL d   1       1.244   0.854   0.265  0.00  0.00     0.017 A 
ATOM      5  C4  UNL d   1       0.213  -0.086   0.150  0.00  0.00     0.017 A 
ATOM      6  C5  UNL d   1      -1.110   0.347   0.022  0.00  0.00     0.034 A 
ATOM      7 Cl   UNL d   1       0.507  -1.789   0.158  0.00  0.00    -0.070 Cl
ATOM      8 Cl1  UNL d   1       2.903   0.398   0.426  0.00  0.00    -0.070 Cl
ENDROOT
TORSDOF 0
ENDMDL
