MODEL 1
REMARK minimizedAffinity -3.43428183
REMARK minimizedRMSD -1
REMARK  0 active torsions:
REMARK  status: ('A' for Active; 'I' for Inactive)
ROOT
ATOM      1  C   UNL d   1       2.892   0.181   0.601  0.00  0.00     0.020 A 
ATOM      2  C1  UNL d   1       2.134  -0.986   0.687  0.00  0.00     0.020 A 
ATOM      3  C2  UNL d   1       0.765  -0.951   0.412  0.00  0.00     0.034 A 
ATOM      4  C3  UNL d   1       0.150   0.253   0.051  0.00  0.00     0.017 A 
ATOM      5  C4  UNL d   1       0.912   1.424  -0.035  0.00  0.00     0.017 A 
ATOM      6  C5  UNL d   1       2.282   1.383   0.241  0.00  0.00     0.034 A 
ATOM      7 Cl   UNL d   1       0.224   2.947  -0.474  0.00  0.00    -0.070 Cl
ATOM      8 Cl1  UNL d   1      -1.547   0.223  -0.274  0.00  0.00    -0.070 Cl
ENDROOT
TORSDOF 0
ENDMDL
