MODEL 1
REMARK minimizedAffinity -4.35557461
REMARK minimizedRMSD -1
REMARK  0 active torsions:
REMARK  status: ('A' for Active; 'I' for Inactive)
ROOT
ATOM      1  C   UNL d   1       0.479   3.284   0.049  0.00  0.00     0.020 A 
ATOM      2  C1  UNL d   1       1.565   2.477  -0.287  0.00  0.00     0.020 A 
ATOM      3  C2  UNL d   1       1.440   1.087  -0.252  0.00  0.00     0.034 A 
ATOM      4  C3  UNL d   1       0.225   0.499   0.120  0.00  0.00     0.017 A 
ATOM      5  C4  UNL d   1      -0.864   1.310   0.458  0.00  0.00     0.017 A 
ATOM      6  C5  UNL d   1      -0.733   2.701   0.421  0.00  0.00     0.034 A 
ATOM      7 Cl   UNL d   1      -2.395   0.658   0.927  0.00  0.00    -0.070 Cl
ATOM      8 Cl1  UNL d   1       0.141  -1.227   0.141  0.00  0.00    -0.070 Cl
ENDROOT
TORSDOF 0
ENDMDL
