MODEL 1
REMARK minimizedAffinity 3.0327611
REMARK minimizedRMSD -1
REMARK  0 active torsions:
REMARK  status: ('A' for Active; 'I' for Inactive)
ROOT
ATOM      1  C   UNL d   1       2.866  -0.306   0.303  0.00  0.00     0.020 A 
ATOM      2  C1  UNL d   1       3.299   0.810  -0.411  0.00  0.00     0.020 A 
ATOM      3  C2  UNL d   1       2.396   1.532  -1.194  0.00  0.00     0.034 A 
ATOM      4  C3  UNL d   1       1.055   1.138  -1.265  0.00  0.00     0.017 A 
ATOM      5  C4  UNL d   1       0.621   0.017  -0.548  0.00  0.00     0.017 A 
ATOM      6  C5  UNL d   1       1.530  -0.701   0.235  0.00  0.00     0.034 A 
ATOM      7 Cl   UNL d   1      -1.018  -0.530  -0.586  0.00  0.00    -0.070 Cl
ATOM      8 Cl1  UNL d   1      -0.007   2.077  -2.253  0.00  0.00    -0.070 Cl
ENDROOT
TORSDOF 0
ENDMDL
