MODEL 1
REMARK minimizedAffinity -3.7404952
REMARK minimizedRMSD -1
REMARK  0 active torsions:
REMARK  status: ('A' for Active; 'I' for Inactive)
ROOT
ATOM      1  C   UNL d   1      -0.474  -0.930   0.696  0.00  0.00     0.020 A 
ATOM      2  C1  UNL d   1      -1.496  -0.002   0.892  0.00  0.00     0.020 A 
ATOM      3  C2  UNL d   1      -1.276   1.349   0.611  0.00  0.00     0.034 A 
ATOM      4  C3  UNL d   1      -0.031   1.774   0.133  0.00  0.00     0.017 A 
ATOM      5  C4  UNL d   1       0.994   0.842  -0.063  0.00  0.00     0.017 A 
ATOM      6  C5  UNL d   1       0.769  -0.509   0.220  0.00  0.00     0.034 A 
ATOM      7 Cl   UNL d   1       2.557   1.292  -0.650  0.00  0.00    -0.070 Cl
ATOM      8 Cl1  UNL d   1       0.171   3.459  -0.194  0.00  0.00    -0.070 Cl
ENDROOT
TORSDOF 0
ENDMDL
