MODEL 1
REMARK minimizedAffinity -0.967431903
REMARK minimizedRMSD -1
REMARK  0 active torsions:
REMARK  status: ('A' for Active; 'I' for Inactive)
ROOT
ATOM      1  C   UNL d   1       0.103  -1.311   0.650  0.00  0.00     0.020 A 
ATOM      2  C1  UNL d   1      -1.003  -0.462   0.653  0.00  0.00     0.020 A 
ATOM      3  C2  UNL d   1      -0.820   0.922   0.688  0.00  0.00     0.034 A 
ATOM      4  C3  UNL d   1       0.471   1.461   0.720  0.00  0.00     0.017 A 
ATOM      5  C4  UNL d   1       1.580   0.608   0.717  0.00  0.00     0.017 A 
ATOM      6  C5  UNL d   1       1.392  -0.777   0.682  0.00  0.00     0.034 A 
ATOM      7 Cl   UNL d   1       3.204   1.199   0.755  0.00  0.00    -0.070 Cl
ATOM      8 Cl1  UNL d   1       0.622   3.182   0.762  0.00  0.00    -0.070 Cl
ENDROOT
TORSDOF 0
ENDMDL
