MODEL 1
REMARK minimizedAffinity -4.11359119
REMARK minimizedRMSD -1
REMARK  1 active torsions:
REMARK  status: ('A' for Active; 'I' for Inactive)
REMARK    1  A    between atoms: C1_2  and  C2_3 
ROOT
ATOM      1  C2  UNL d   1       0.247  -1.655  -0.861  0.00  0.00    -0.076 A 
ATOM      2  C3  UNL d   1       0.240  -0.329  -0.393  0.00  0.00     0.004 A 
ATOM      3  C4  UNL d   1      -0.123  -0.034   0.920  0.00  0.00    -0.003 A 
ATOM      4  C5  UNL d   1      -0.485  -1.060   1.787  0.00  0.00     0.000 A 
ATOM      5  C6  UNL d   1      -0.467  -2.382   1.344  0.00  0.00     0.000 A 
ATOM      6  C7  UNL d   1      -0.087  -2.698   0.028  0.00  0.00    -0.073 A 
ATOM      7  C8  UNL d   1      -0.092  -4.141  -0.397  0.00  0.00     0.078 C 
ENDROOT
BRANCH   1   8
ATOM      8  C1  UNL d   1       0.623  -1.912  -2.303  0.00  0.00     0.053 C 
ATOM      9  C   UNL d   1       0.755  -0.628  -3.108  0.00  0.00     0.018 C 
ENDBRANCH   1   8
TORSDOF 1
ENDMDL
