MODEL 1
REMARK minimizedAffinity -2.05320668
REMARK minimizedRMSD -1
REMARK  1 active torsions:
REMARK  status: ('A' for Active; 'I' for Inactive)
REMARK    1  A    between atoms: C1_2  and  C2_3 
ROOT
ATOM      1  C2  UNL d   1      -0.607  -1.134   0.302  0.00  0.00    -0.076 A 
ATOM      2  C3  UNL d   1       0.139  -1.100  -0.889  0.00  0.00     0.004 A 
ATOM      3  C4  UNL d   1       0.418   0.108  -1.526  0.00  0.00    -0.003 A 
ATOM      4  C5  UNL d   1      -0.044   1.301  -0.982  0.00  0.00     0.000 A 
ATOM      5  C6  UNL d   1      -0.771   1.287   0.208  0.00  0.00     0.000 A 
ATOM      6  C7  UNL d   1      -1.047   0.080   0.871  0.00  0.00    -0.073 A 
ATOM      7  C8  UNL d   1      -1.840   0.123   2.149  0.00  0.00     0.078 C 
ENDROOT
BRANCH   1   8
ATOM      8  C1  UNL d   1      -0.901  -2.476   0.934  0.00  0.00     0.053 C 
ATOM      9  C   UNL d   1       0.031  -3.571   0.438  0.00  0.00     0.018 C 
ENDBRANCH   1   8
TORSDOF 1
ENDMDL
