MODEL 1
REMARK minimizedAffinity -4.5726757
REMARK minimizedRMSD -1
REMARK  1 active torsions:
REMARK  status: ('A' for Active; 'I' for Inactive)
REMARK    1  A    between atoms: C1_2  and  C2_3 
ROOT
ATOM      1  C2  UNL d   1      -0.063  -0.148   0.191  0.00  0.00    -0.076 A 
ATOM      2  C3  UNL d   1       0.699  -1.010  -0.616  0.00  0.00     0.004 A 
ATOM      3  C4  UNL d   1       0.707  -2.385  -0.391  0.00  0.00    -0.003 A 
ATOM      4  C5  UNL d   1      -0.049  -2.922   0.646  0.00  0.00     0.000 A 
ATOM      5  C6  UNL d   1      -0.825  -2.084   1.446  0.00  0.00     0.000 A 
ATOM      6  C7  UNL d   1      -0.856  -0.697   1.222  0.00  0.00    -0.073 A 
ATOM      7  C8  UNL d   1      -1.706   0.160   2.119  0.00  0.00     0.078 C 
ENDROOT
BRANCH   1   8
ATOM      8  C1  UNL d   1      -0.010   1.338  -0.083  0.00  0.00     0.053 C 
ATOM      9  C   UNL d   1       1.394   1.906   0.050  0.00  0.00     0.018 C 
ENDBRANCH   1   8
TORSDOF 1
ENDMDL
