MODEL 1
REMARK minimizedAffinity -3.48938966
REMARK minimizedRMSD -1
REMARK  1 active torsions:
REMARK  status: ('A' for Active; 'I' for Inactive)
REMARK    1  A    between atoms: C1_2  and  C2_3 
ROOT
ATOM      1  C2  UNL d   1       0.031   0.006   0.012  0.00  0.00    -0.076 A 
ATOM      2  C3  UNL d   1      -0.365  -0.348   1.314  0.00  0.00     0.004 A 
ATOM      3  C4  UNL d   1      -0.429  -1.684   1.706  0.00  0.00    -0.003 A 
ATOM      4  C5  UNL d   1      -0.098  -2.688   0.803  0.00  0.00     0.000 A 
ATOM      5  C6  UNL d   1       0.313  -2.354  -0.487  0.00  0.00     0.000 A 
ATOM      6  C7  UNL d   1       0.400  -1.011  -0.893  0.00  0.00    -0.073 A 
ATOM      7  C8  UNL d   1       0.844  -0.709  -2.298  0.00  0.00     0.078 C 
ENDROOT
BRANCH   1   8
ATOM      8  C1  UNL d   1       0.056   1.470  -0.364  0.00  0.00     0.053 C 
ATOM      9  C   UNL d   1       1.221   2.215   0.269  0.00  0.00     0.018 C 
ENDBRANCH   1   8
TORSDOF 1
ENDMDL
