MODEL 1
REMARK minimizedAffinity -2.46449661
REMARK minimizedRMSD -1
REMARK  1 active torsions:
REMARK  status: ('A' for Active; 'I' for Inactive)
REMARK    1  A    between atoms: C1_2  and  C2_3 
ROOT
ATOM      1  C2  UNL d   1      -0.321  -1.296  -0.371  0.00  0.00    -0.076 A 
ATOM      2  C3  UNL d   1      -0.819  -0.021  -0.055  0.00  0.00     0.004 A 
ATOM      3  C4  UNL d   1      -1.624   0.178   1.066  0.00  0.00    -0.003 A 
ATOM      4  C5  UNL d   1      -1.943  -0.897   1.889  0.00  0.00     0.000 A 
ATOM      5  C6  UNL d   1      -1.442  -2.166   1.600  0.00  0.00     0.000 A 
ATOM      6  C7  UNL d   1      -0.616  -2.380   0.483  0.00  0.00    -0.073 A 
ATOM      7  C8  UNL d   1      -0.109  -3.771   0.216  0.00  0.00     0.078 C 
ENDROOT
BRANCH   1   8
ATOM      8  C1  UNL d   1       0.525  -1.456  -1.615  0.00  0.00     0.053 C 
ATOM      9  C   UNL d   1       0.256  -0.370  -2.645  0.00  0.00     0.018 C 
ENDBRANCH   1   8
TORSDOF 1
ENDMDL
