MODEL 1
REMARK minimizedAffinity -2.62464762
REMARK minimizedRMSD -1
REMARK  1 active torsions:
REMARK  status: ('A' for Active; 'I' for Inactive)
REMARK    1  A    between atoms: C1_2  and  C2_3 
ROOT
ATOM      1  C2  UNL d   1      -0.130   0.106  -0.037  0.00  0.00    -0.076 A 
ATOM      2  C3  UNL d   1      -0.501  -0.148   1.294  0.00  0.00     0.004 A 
ATOM      3  C4  UNL d   1      -0.529  -1.448   1.796  0.00  0.00    -0.003 A 
ATOM      4  C5  UNL d   1      -0.185  -2.516   0.974  0.00  0.00     0.000 A 
ATOM      5  C6  UNL d   1       0.204  -2.281  -0.344  0.00  0.00     0.000 A 
ATOM      6  C7  UNL d   1       0.253  -0.975  -0.861  0.00  0.00    -0.073 A 
ATOM      7  C8  UNL d   1       0.673  -0.780  -2.292  0.00  0.00     0.078 C 
ENDROOT
BRANCH   1   8
ATOM      8  C1  UNL d   1      -0.144   1.534  -0.534  0.00  0.00     0.053 C 
ATOM      9  C   UNL d   1       0.626   2.476   0.379  0.00  0.00     0.018 C 
ENDBRANCH   1   8
TORSDOF 1
ENDMDL
