MODEL 1
REMARK minimizedAffinity -4.44898605
REMARK minimizedRMSD -1
REMARK  1 active torsions:
REMARK  status: ('A' for Active; 'I' for Inactive)
REMARK    1  A    between atoms: C1_2  and  C2_3 
ROOT
ATOM      1  C2  UNL d   1      -0.062  -0.760  -0.624  0.00  0.00    -0.076 A 
ATOM      2  C3  UNL d   1      -0.514  -0.863   0.703  0.00  0.00     0.004 A 
ATOM      3  C4  UNL d   1      -1.010  -2.068   1.200  0.00  0.00    -0.003 A 
ATOM      4  C5  UNL d   1      -1.060  -3.188   0.379  0.00  0.00     0.000 A 
ATOM      5  C6  UNL d   1      -0.599  -3.109  -0.935  0.00  0.00     0.000 A 
ATOM      6  C7  UNL d   1      -0.081  -1.907  -1.447  0.00  0.00    -0.073 A 
ATOM      7  C8  UNL d   1       0.397  -1.876  -2.872  0.00  0.00     0.078 C 
ENDROOT
BRANCH   1   8
ATOM      8  C1  UNL d   1       0.440   0.579  -1.116  0.00  0.00     0.053 C 
ATOM      9  C   UNL d   1       0.097   1.715  -0.165  0.00  0.00     0.018 C 
ENDBRANCH   1   8
TORSDOF 1
ENDMDL
