MODEL 1
REMARK minimizedAffinity -5.07334995
REMARK minimizedRMSD -1
REMARK  1 active torsions:
REMARK  status: ('A' for Active; 'I' for Inactive)
REMARK    1  A    between atoms: C1_2  and  C2_3 
ROOT
ATOM      1  C2  UNL d   1      -0.185  -0.458   0.020  0.00  0.00    -0.076 A 
ATOM      2  C3  UNL d   1       0.200  -1.066  -1.187  0.00  0.00     0.004 A 
ATOM      3  C4  UNL d   1       0.457  -2.434  -1.251  0.00  0.00    -0.003 A 
ATOM      4  C5  UNL d   1       0.331  -3.217  -0.109  0.00  0.00     0.000 A 
ATOM      5  C6  UNL d   1      -0.068  -2.634   1.093  0.00  0.00     0.000 A 
ATOM      6  C7  UNL d   1      -0.346  -1.258   1.171  0.00  0.00    -0.073 A 
ATOM      7  C8  UNL d   1      -0.767  -0.680   2.495  0.00  0.00     0.078 C 
ENDROOT
BRANCH   1   8
ATOM      8  C1  UNL d   1      -0.424   1.036   0.035  0.00  0.00     0.053 C 
ATOM      9  C   UNL d   1       0.816   1.819   0.438  0.00  0.00     0.018 C 
ENDBRANCH   1   8
TORSDOF 1
ENDMDL
