MODEL 1
REMARK minimizedAffinity -4.31669474
REMARK minimizedRMSD -1
REMARK  1 active torsions:
REMARK  status: ('A' for Active; 'I' for Inactive)
REMARK    1  A    between atoms: C1_2  and  C2_3 
ROOT
ATOM      1  C2  UNL d   1      -0.063  -0.813  -0.354  0.00  0.00    -0.076 A 
ATOM      2  C3  UNL d   1       0.758  -1.736  -1.024  0.00  0.00     0.004 A 
ATOM      3  C4  UNL d   1       0.562  -3.109  -0.879  0.00  0.00    -0.003 A 
ATOM      4  C5  UNL d   1      -0.459  -3.580  -0.062  0.00  0.00     0.000 A 
ATOM      5  C6  UNL d   1      -1.295  -2.678   0.597  0.00  0.00     0.000 A 
ATOM      6  C7  UNL d   1      -1.121  -1.292   0.448  0.00  0.00    -0.073 A 
ATOM      7  C8  UNL d   1      -2.048  -0.365   1.186  0.00  0.00     0.078 C 
ENDROOT
BRANCH   1   8
ATOM      8  C1  UNL d   1       0.214   0.663  -0.529  0.00  0.00     0.053 C 
ATOM      9  C   UNL d   1      -0.460   1.241  -1.764  0.00  0.00     0.018 C 
ENDBRANCH   1   8
TORSDOF 1
ENDMDL
