MODEL 1
REMARK minimizedAffinity -3.1397748
REMARK minimizedRMSD -1
REMARK  1 active torsions:
REMARK  status: ('A' for Active; 'I' for Inactive)
REMARK    1  A    between atoms: C1_2  and  C2_3 
ROOT
ATOM      1  C2  UNL d   1      -0.045   1.004   0.180  0.00  0.00    -0.076 A 
ATOM      2  C3  UNL d   1      -0.185   0.483   1.479  0.00  0.00     0.004 A 
ATOM      3  C4  UNL d   1      -0.688  -0.800   1.686  0.00  0.00    -0.003 A 
ATOM      4  C5  UNL d   1      -1.059  -1.584   0.599  0.00  0.00     0.000 A 
ATOM      5  C6  UNL d   1      -0.911  -1.090  -0.696  0.00  0.00     0.000 A 
ATOM      6  C7  UNL d   1      -0.390   0.196  -0.924  0.00  0.00    -0.073 A 
ATOM      7  C8  UNL d   1      -0.257   0.680  -2.342  0.00  0.00     0.078 C 
ENDROOT
BRANCH   1   8
ATOM      8  C1  UNL d   1       0.481   2.412   0.018  0.00  0.00     0.053 C 
ATOM      9  C   UNL d   1       1.979   2.507   0.266  0.00  0.00     0.018 C 
ENDBRANCH   1   8
TORSDOF 1
ENDMDL
