MODEL 1
REMARK minimizedAffinity 0.28184697
REMARK minimizedRMSD -1
REMARK  1 active torsions:
REMARK  status: ('A' for Active; 'I' for Inactive)
REMARK    1  A    between atoms: C1_2  and  C2_3 
ROOT
ATOM      1  C2  UNL d   1       0.316   1.092   0.124  0.00  0.00    -0.076 A 
ATOM      2  C3  UNL d   1       0.544   0.442   1.350  0.00  0.00     0.004 A 
ATOM      3  C4  UNL d   1       0.054  -0.842   1.584  0.00  0.00    -0.003 A 
ATOM      4  C5  UNL d   1      -0.671  -1.497   0.595  0.00  0.00     0.000 A 
ATOM      5  C6  UNL d   1      -0.892  -0.875  -0.633  0.00  0.00     0.000 A 
ATOM      6  C7  UNL d   1      -0.391   0.412  -0.891  0.00  0.00    -0.073 A 
ATOM      7  C8  UNL d   1      -0.664   1.038  -2.231  0.00  0.00     0.078 C 
ENDROOT
BRANCH   1   8
ATOM      8  C1  UNL d   1       0.849   2.494  -0.062  0.00  0.00     0.053 C 
ATOM      9  C   UNL d   1       2.138   2.735   0.707  0.00  0.00     0.018 C 
ENDBRANCH   1   8
TORSDOF 1
ENDMDL
