MODEL 1
REMARK minimizedAffinity -5.97502995
REMARK minimizedRMSD -1
REMARK  1 active torsions:
REMARK  status: ('A' for Active; 'I' for Inactive)
REMARK    1  A    between atoms: C1_2  and  C2_3 
ROOT
ATOM      1  C2  UNL d   1      -0.290  -0.449  -0.290  0.00  0.00    -0.076 A 
ATOM      2  C3  UNL d   1      -0.747  -0.409   1.038  0.00  0.00     0.004 A 
ATOM      3  C4  UNL d   1      -0.997  -1.583   1.747  0.00  0.00    -0.003 A 
ATOM      4  C5  UNL d   1      -0.794  -2.816   1.139  0.00  0.00     0.000 A 
ATOM      5  C6  UNL d   1      -0.324  -2.875  -0.173  0.00  0.00     0.000 A 
ATOM      6  C7  UNL d   1      -0.052  -1.701  -0.896  0.00  0.00    -0.073 A 
ATOM      7  C8  UNL d   1       0.447  -1.824  -2.310  0.00  0.00     0.078 C 
ENDROOT
BRANCH   1   8
ATOM      8  C1  UNL d   1      -0.062   0.857  -1.018  0.00  0.00     0.053 C 
ATOM      9  C   UNL d   1       0.519   1.933  -0.114  0.00  0.00     0.018 C 
ENDBRANCH   1   8
TORSDOF 1
ENDMDL
