MODEL 1
REMARK minimizedAffinity -4.44580412
REMARK minimizedRMSD -1
REMARK  1 active torsions:
REMARK  status: ('A' for Active; 'I' for Inactive)
REMARK    1  A    between atoms: C1_2  and  C2_3 
ROOT
ATOM      1  C2  UNL d   1      -0.120  -0.435  -0.190  0.00  0.00    -0.076 A 
ATOM      2  C3  UNL d   1      -0.439  -0.936   1.084  0.00  0.00     0.004 A 
ATOM      3  C4  UNL d   1      -0.416  -2.305   1.343  0.00  0.00    -0.003 A 
ATOM      4  C5  UNL d   1      -0.074  -3.196   0.332  0.00  0.00     0.000 A 
ATOM      5  C6  UNL d   1       0.262  -2.715  -0.934  0.00  0.00     0.000 A 
ATOM      6  C7  UNL d   1       0.260  -1.337  -1.207  0.00  0.00    -0.073 A 
ATOM      7  C8  UNL d   1       0.625  -0.874  -2.591  0.00  0.00     0.078 C 
ENDROOT
BRANCH   1   8
ATOM      8  C1  UNL d   1      -0.189   1.058  -0.419  0.00  0.00     0.053 C 
ATOM      9  C   UNL d   1       0.860   1.819   0.378  0.00  0.00     0.018 C 
ENDBRANCH   1   8
TORSDOF 1
ENDMDL
