MODEL 1
REMARK minimizedAffinity -1.86154282
REMARK minimizedRMSD -1
REMARK  0 active torsions:
REMARK  status: ('A' for Active; 'I' for Inactive)
ROOT
ATOM      1  C   UNL d   1       1.942   5.963   3.318  0.00  0.00     0.020 A 
ATOM      2  C1  UNL d   1       2.026   5.999   4.709  0.00  0.00     0.020 A 
ATOM      3  C2  UNL d   1       3.276   5.999   5.333  0.00  0.00     0.034 A 
ATOM      4  C3  UNL d   1       4.446   5.962   4.566  0.00  0.00     0.017 A 
ATOM      5  C4  UNL d   1       4.360   5.925   3.169  0.00  0.00     0.017 A 
ATOM      6  C5  UNL d   1       3.107   5.926   2.550  0.00  0.00     0.034 A 
ATOM      7 Cl   UNL d   1       5.759   5.878   2.156  0.00  0.00    -0.070 Cl
ATOM      8 Cl1  UNL d   1       5.957   5.964   5.404  0.00  0.00    -0.070 Cl
ENDROOT
TORSDOF 0
ENDMDL
