MODEL 1
REMARK minimizedAffinity 0.609325588
REMARK minimizedRMSD -1
REMARK  0 active torsions:
REMARK  status: ('A' for Active; 'I' for Inactive)
ROOT
ATOM      1  C   UNL d   1      -1.395  -1.193   3.406  0.00  0.00     0.020 A 
ATOM      2  C1  UNL d   1      -1.021  -1.775   2.195  0.00  0.00     0.020 A 
ATOM      3  C2  UNL d   1      -1.094  -1.035   1.013  0.00  0.00     0.034 A 
ATOM      4  C3  UNL d   1      -1.540   0.291   1.040  0.00  0.00     0.017 A 
ATOM      5  C4  UNL d   1      -1.915   0.875   2.256  0.00  0.00     0.017 A 
ATOM      6  C5  UNL d   1      -1.840   0.129   3.436  0.00  0.00     0.034 A 
ATOM      7 Cl   UNL d   1      -2.475   2.506   2.368  0.00  0.00    -0.070 Cl
ATOM      8 Cl1  UNL d   1      -1.604   1.148  -0.460  0.00  0.00    -0.070 Cl
ENDROOT
TORSDOF 0
ENDMDL
