MODEL 1
REMARK minimizedAffinity -3.54745984
REMARK minimizedRMSD -1
REMARK  0 active torsions:
REMARK  status: ('A' for Active; 'I' for Inactive)
ROOT
ATOM      1  C   UNL d   1      -1.326  -0.932   2.285  0.00  0.00     0.020 A 
ATOM      2  C1  UNL d   1      -0.108  -1.587   2.462  0.00  0.00     0.020 A 
ATOM      3  C2  UNL d   1       0.770  -1.732   1.385  0.00  0.00     0.034 A 
ATOM      4  C3  UNL d   1       0.431  -1.221   0.127  0.00  0.00     0.017 A 
ATOM      5  C4  UNL d   1      -0.791  -0.563  -0.050  0.00  0.00     0.017 A 
ATOM      6  C5  UNL d   1      -1.667  -0.421   1.032  0.00  0.00     0.034 A 
ATOM      7 Cl   UNL d   1      -1.279   0.094  -1.572  0.00  0.00    -0.070 Cl
ATOM      8 Cl1  UNL d   1       1.565  -1.435  -1.159  0.00  0.00    -0.070 Cl
ENDROOT
TORSDOF 0
ENDMDL
