MODEL 1
REMARK minimizedAffinity -3.63858318
REMARK minimizedRMSD -1
REMARK  0 active torsions:
REMARK  status: ('A' for Active; 'I' for Inactive)
ROOT
ATOM      1  C   UNL d   1       0.497  -3.586   2.712  0.00  0.00     0.020 A 
ATOM      2  C1  UNL d   1       1.424  -3.778   1.688  0.00  0.00     0.020 A 
ATOM      3  C2  UNL d   1       1.518  -2.851   0.648  0.00  0.00     0.034 A 
ATOM      4  C3  UNL d   1       0.684  -1.727   0.629  0.00  0.00     0.017 A 
ATOM      5  C4  UNL d   1      -0.246  -1.535   1.657  0.00  0.00     0.017 A 
ATOM      6  C5  UNL d   1      -0.336  -2.466   2.696  0.00  0.00     0.034 A 
ATOM      7 Cl   UNL d   1      -1.309  -0.173   1.703  0.00  0.00    -0.070 Cl
ATOM      8 Cl1  UNL d   1       0.855  -0.621  -0.687  0.00  0.00    -0.070 Cl
ENDROOT
TORSDOF 0
ENDMDL
