MODEL 1
REMARK minimizedAffinity 3.22742867
REMARK minimizedRMSD -1
REMARK  0 active torsions:
REMARK  status: ('A' for Active; 'I' for Inactive)
ROOT
ATOM      1  C   UNL d   1       0.185  -0.608   0.172  0.00  0.00     0.020 A 
ATOM      2  C1  UNL d   1      -0.824   0.014  -0.563  0.00  0.00     0.020 A 
ATOM      3  C2  UNL d   1      -2.151  -0.071  -0.138  0.00  0.00     0.034 A 
ATOM      4  C3  UNL d   1      -2.474  -0.779   1.025  0.00  0.00     0.017 A 
ATOM      5  C4  UNL d   1      -1.461  -1.403   1.763  0.00  0.00     0.017 A 
ATOM      6  C5  UNL d   1      -0.133  -1.314   1.333  0.00  0.00     0.034 A 
ATOM      7 Cl   UNL d   1      -1.781  -2.294   3.208  0.00  0.00    -0.070 Cl
ATOM      8 Cl1  UNL d   1      -4.136  -0.843   1.492  0.00  0.00    -0.070 Cl
ENDROOT
TORSDOF 0
ENDMDL
