MODEL 1
REMARK minimizedAffinity -2.25606298
REMARK minimizedRMSD -1
REMARK  0 active torsions:
REMARK  status: ('A' for Active; 'I' for Inactive)
ROOT
ATOM      1  C   UNL d   1       2.256  -0.770  -1.958  0.00  0.00     0.020 A 
ATOM      2  C1  UNL d   1       2.182  -1.474  -0.757  0.00  0.00     0.020 A 
ATOM      3  C2  UNL d   1       1.019  -1.419   0.014  0.00  0.00     0.034 A 
ATOM      4  C3  UNL d   1      -0.075  -0.658  -0.415  0.00  0.00     0.017 A 
ATOM      5  C4  UNL d   1       0.001   0.048  -1.621  0.00  0.00     0.017 A 
ATOM      6  C5  UNL d   1       1.168  -0.010  -2.389  0.00  0.00     0.034 A 
ATOM      7 Cl   UNL d   1      -1.308   1.008  -2.216  0.00  0.00    -0.070 Cl
ATOM      8 Cl1  UNL d   1      -1.481  -0.636   0.588  0.00  0.00    -0.070 Cl
ENDROOT
TORSDOF 0
ENDMDL
