MODEL 1
REMARK minimizedAffinity -1.05236721
REMARK minimizedRMSD -1
REMARK  0 active torsions:
REMARK  status: ('A' for Active; 'I' for Inactive)
ROOT
ATOM      1  N1  IND d   1      -1.054   0.446   1.905  0.00  0.00    -0.196 N 
ATOM      2  C2  IND d   1      -2.224   0.621   1.219  0.00  0.00     0.054 A 
ATOM      3  C3  IND d   1      -2.085   0.208  -0.061  0.00  0.00    -0.031 A 
ATOM      4  C4  IND d   1      -0.059  -0.881  -1.217  0.00  0.00     0.051 A 
ATOM      5  C5  IND d   1       1.250  -1.213  -1.009  0.00  0.00    -0.031 A 
ATOM      6  C6  IND d   1       1.870  -1.008   0.207  0.00  0.00     0.015 A 
ATOM      7  C7  IND d   1       1.197  -0.471   1.268  0.00  0.00    -0.016 A 
ATOM      8  C8  IND d   1      -0.130  -0.125   1.058  0.00  0.00    -0.047 A 
ATOM      9  C9  IND d   1      -0.752  -0.292  -0.187  0.00  0.00    -0.096 A 
ATOM     10  HN1 IND d   1      -0.918   0.658   2.727  0.00  0.00     0.298 HD
ENDROOT
TORSDOF 0
ENDMDL
