MODEL 1
REMARK minimizedAffinity -2.61206079
REMARK minimizedRMSD -1
REMARK  0 active torsions:
REMARK  status: ('A' for Active; 'I' for Inactive)
ROOT
ATOM      1  N1  IND d   1       1.765  -1.030   2.075  0.00  0.00    -0.196 N 
ATOM      2  C2  IND d   1       2.342  -1.319   0.870  0.00  0.00     0.054 A 
ATOM      3  C3  IND d   1       1.457  -1.125  -0.134  0.00  0.00    -0.031 A 
ATOM      4  C4  IND d   1      -0.958  -0.238  -0.035  0.00  0.00     0.051 A 
ATOM      5  C5  IND d   1      -1.936   0.128   0.846  0.00  0.00    -0.031 A 
ATOM      6  C6  IND d   1      -1.725   0.130   2.210  0.00  0.00     0.015 A 
ATOM      7  C7  IND d   1      -0.519  -0.226   2.744  0.00  0.00    -0.016 A 
ATOM      8  C8  IND d   1       0.474  -0.605   1.853  0.00  0.00    -0.047 A 
ATOM      9  C9  IND d   1       0.253  -0.649   0.470  0.00  0.00    -0.096 A 
ATOM     10  HN1 IND d   1       2.146  -1.101   2.843  0.00  0.00     0.298 HD
ENDROOT
TORSDOF 0
ENDMDL
