MODEL 1
REMARK minimizedAffinity 0.567972064
REMARK minimizedRMSD -1
REMARK  0 active torsions:
REMARK  status: ('A' for Active; 'I' for Inactive)
ROOT
ATOM      1  N1  IND d   1       1.794  -0.565   2.120  0.00  0.00    -0.196 N 
ATOM      2  C2  IND d   1       1.374  -0.481   3.418  0.00  0.00     0.054 A 
ATOM      3  C3  IND d   1       0.061  -0.164   3.469  0.00  0.00    -0.031 A 
ATOM      4  C4  IND d   1      -1.618   0.163   1.545  0.00  0.00     0.051 A 
ATOM      5  C5  IND d   1      -1.696   0.224   0.182  0.00  0.00    -0.031 A 
ATOM      6  C6  IND d   1      -0.593   0.017  -0.621  0.00  0.00     0.015 A 
ATOM      7  C7  IND d   1       0.632  -0.269  -0.089  0.00  0.00    -0.016 A 
ATOM      8  C8  IND d   1       0.717  -0.325   1.295  0.00  0.00    -0.047 A 
ATOM      9  C9  IND d   1      -0.390  -0.074   2.116  0.00  0.00    -0.096 A 
ATOM     10  HN1 IND d   1       2.595  -0.738   1.861  0.00  0.00     0.298 HD
ENDROOT
TORSDOF 0
ENDMDL
