MODEL 1
REMARK minimizedAffinity 5.17639351
REMARK minimizedRMSD -1
REMARK  0 active torsions:
REMARK  status: ('A' for Active; 'I' for Inactive)
ROOT
ATOM      1  N1  IND d   1       0.104   1.309  -5.245  0.00  0.00    -0.196 N 
ATOM      2  C2  IND d   1       1.104   1.160  -4.324  0.00  0.00     0.054 A 
ATOM      3  C3  IND d   1       1.009  -0.045  -3.718  0.00  0.00    -0.031 A 
ATOM      4  C4  IND d   1      -0.644  -1.970  -4.153  0.00  0.00     0.051 A 
ATOM      5  C5  IND d   1      -1.761  -2.288  -4.874  0.00  0.00    -0.031 A 
ATOM      6  C6  IND d   1      -2.322  -1.407  -5.776  0.00  0.00     0.015 A 
ATOM      7  C7  IND d   1      -1.779  -0.174  -5.999  0.00  0.00    -0.016 A 
ATOM      8  C8  IND d   1      -0.650   0.156  -5.264  0.00  0.00    -0.047 A 
ATOM      9  C9  IND d   1      -0.100  -0.717  -4.316  0.00  0.00    -0.096 A 
ATOM     10  HN1 IND d   1      -0.031   2.006  -5.730  0.00  0.00     0.298 HD
ENDROOT
TORSDOF 0
ENDMDL
