MODEL 1
REMARK minimizedAffinity -3.4551971
REMARK minimizedRMSD -1
REMARK  0 active torsions:
REMARK  status: ('A' for Active; 'I' for Inactive)
ROOT
ATOM      1  N1  IND d   1       1.620  -1.055   1.925  0.00  0.00    -0.196 N 
ATOM      2  C2  IND d   1       1.608  -0.735   3.254  0.00  0.00     0.054 A 
ATOM      3  C3  IND d   1       0.472  -0.073   3.568  0.00  0.00    -0.031 A 
ATOM      4  C4  IND d   1      -1.550   0.502   2.082  0.00  0.00     0.051 A 
ATOM      5  C5  IND d   1      -1.986   0.447   0.788  0.00  0.00    -0.031 A 
ATOM      6  C6  IND d   1      -1.228  -0.125  -0.213  0.00  0.00     0.015 A 
ATOM      7  C7  IND d   1      -0.005  -0.677   0.046  0.00  0.00    -0.016 A 
ATOM      8  C8  IND d   1       0.444  -0.617   1.358  0.00  0.00    -0.047 A 
ATOM      9  C9  IND d   1      -0.302   0.001   2.370  0.00  0.00    -0.096 A 
ATOM     10  HN1 IND d   1       2.256  -1.462   1.512  0.00  0.00     0.298 HD
ENDROOT
TORSDOF 0
ENDMDL
