MODEL 1
REMARK minimizedAffinity 0.909921467
REMARK minimizedRMSD -1
REMARK  0 active torsions:
REMARK  status: ('A' for Active; 'I' for Inactive)
ROOT
ATOM      1  N1  IND d   1      -0.570  -0.153  -1.360  0.00  0.00    -0.196 N 
ATOM      2  C2  IND d   1       0.694  -0.673  -1.396  0.00  0.00     0.054 A 
ATOM      3  C3  IND d   1       1.210  -0.743  -0.148  0.00  0.00    -0.031 A 
ATOM      4  C4  IND d   1       0.119  -0.154   2.108  0.00  0.00     0.051 A 
ATOM      5  C5  IND d   1      -1.012   0.393   2.648  0.00  0.00    -0.031 A 
ATOM      6  C6  IND d   1      -2.075   0.791   1.863  0.00  0.00     0.015 A 
ATOM      7  C7  IND d   1      -2.052   0.647   0.505  0.00  0.00    -0.016 A 
ATOM      8  C8  IND d   1      -0.903   0.098  -0.047  0.00  0.00    -0.047 A 
ATOM      9  C9  IND d   1       0.196  -0.268   0.740  0.00  0.00    -0.096 A 
ATOM     10  HN1 IND d   1      -1.072  -0.007  -2.042  0.00  0.00     0.298 HD
ENDROOT
TORSDOF 0
ENDMDL
