MODEL 1
REMARK minimizedAffinity -3.30355215
REMARK minimizedRMSD -1
REMARK  0 active torsions:
REMARK  status: ('A' for Active; 'I' for Inactive)
ROOT
ATOM      1  N1  IND d   1       1.655  -1.117   0.512  0.00  0.00    -0.196 N 
ATOM      2  C2  IND d   1       1.172  -1.074  -0.766  0.00  0.00     0.054 A 
ATOM      3  C3  IND d   1      -0.072  -0.545  -0.781  0.00  0.00    -0.031 A 
ATOM      4  C4  IND d   1      -1.466   0.411   1.161  0.00  0.00     0.051 A 
ATOM      5  C5  IND d   1      -1.462   0.559   2.519  0.00  0.00    -0.031 A 
ATOM      6  C6  IND d   1      -0.396   0.150   3.294  0.00  0.00     0.015 A 
ATOM      7  C7  IND d   1       0.716  -0.415   2.735  0.00  0.00    -0.016 A 
ATOM      8  C8  IND d   1       0.712  -0.573   1.356  0.00  0.00    -0.047 A 
ATOM      9  C9  IND d   1      -0.385  -0.198   0.569  0.00  0.00    -0.096 A 
ATOM     10  HN1 IND d   1       2.419  -1.431   0.749  0.00  0.00     0.298 HD
ENDROOT
TORSDOF 0
ENDMDL
