MODEL 1
REMARK minimizedAffinity 0.253298968
REMARK minimizedRMSD -1
REMARK  0 active torsions:
REMARK  status: ('A' for Active; 'I' for Inactive)
ROOT
ATOM      1  N1  IND d   1       0.977  -1.021   1.905  0.00  0.00    -0.196 N 
ATOM      2  C2  IND d   1       0.769  -0.741   3.227  0.00  0.00     0.054 A 
ATOM      3  C3  IND d   1      -0.413  -0.105   3.393  0.00  0.00    -0.031 A 
ATOM      4  C4  IND d   1      -2.209   0.488   1.647  0.00  0.00     0.051 A 
ATOM      5  C5  IND d   1      -2.454   0.466   0.303  0.00  0.00    -0.031 A 
ATOM      6  C6  IND d   1      -1.550  -0.065  -0.594  0.00  0.00     0.015 A 
ATOM      7  C7  IND d   1      -0.367  -0.608  -0.177  0.00  0.00    -0.016 A 
ATOM      8  C8  IND d   1      -0.113  -0.581   1.187  0.00  0.00    -0.047 A 
ATOM      9  C9  IND d   1      -1.008  -0.005   2.098  0.00  0.00    -0.096 A 
ATOM     10  HN1 IND d   1       1.673  -1.406   1.578  0.00  0.00     0.298 HD
ENDROOT
TORSDOF 0
ENDMDL
