MODEL 1
REMARK minimizedAffinity 5.38981152
REMARK minimizedRMSD -1
REMARK  2 active torsions:
REMARK  status: ('A' for Active; 'I' for Inactive)
REMARK    1  A    between atoms: C2'_3  and  C1'_4 
REMARK    2  A    between atoms: C1'_4  and  C1_5 
ROOT
ATOM      1  C1  I4B d   1       1.402  -1.883  -1.245  0.00  0.00    -0.075 A 
ATOM      2  C2  I4B d   1       2.607  -1.446  -0.755  0.00  0.00     0.003 A 
ATOM      3  C3  I4B d   1       3.459  -2.337  -0.058  0.00  0.00     0.002 A 
ATOM      4  C4  I4B d   1       3.046  -3.634   0.169  0.00  0.00    -0.004 A 
ATOM      5  C5  I4B d   1       1.834  -4.082  -0.348  0.00  0.00     0.002 A 
ATOM      6  C6  I4B d   1       1.012  -3.205  -1.071  0.00  0.00     0.003 A 
ENDROOT
BRANCH   1   7
ATOM      7  C1' I4B d   1       0.513  -0.907  -1.948  0.00  0.00     0.060 C 
BRANCH   7   8
ATOM      8  C2' I4B d   1      -0.680  -1.669  -2.490  0.00  0.00    -0.013 C 
ATOM      9  C4' I4B d   1      -1.974  -1.088  -1.984  0.00  0.00     0.013 C 
ATOM     10  C3' I4B d   1      -0.615  -1.625  -3.988  0.00  0.00     0.013 C 
ENDBRANCH   7   8
ENDBRANCH   1   7
TORSDOF 2
ENDMDL
