MODEL 1
REMARK minimizedAffinity 18.1809711
REMARK minimizedRMSD -1
REMARK  2 active torsions:
REMARK  status: ('A' for Active; 'I' for Inactive)
REMARK    1  A    between atoms: C2'_3  and  C1'_4 
REMARK    2  A    between atoms: C1'_4  and  C1_5 
ROOT
ATOM      1  C1  I4B d   1      -0.428   3.612  -0.503  0.00  0.00    -0.075 A 
ATOM      2  C2  I4B d   1      -0.809   3.492  -1.816  0.00  0.00     0.003 A 
ATOM      3  C3  I4B d   1      -0.887   4.639  -2.643  0.00  0.00     0.002 A 
ATOM      4  C4  I4B d   1      -0.625   5.883  -2.106  0.00  0.00    -0.004 A 
ATOM      5  C5  I4B d   1      -0.216   6.000  -0.780  0.00  0.00     0.002 A 
ATOM      6  C6  I4B d   1      -0.105   4.856   0.023  0.00  0.00     0.003 A 
ENDROOT
BRANCH   1   7
ATOM      7  C1' I4B d   1      -0.389   2.384   0.351  0.00  0.00     0.060 C 
BRANCH   7   8
ATOM      8  C2' I4B d   1      -0.628   2.805   1.786  0.00  0.00    -0.013 C 
ATOM      9  C4' I4B d   1      -1.998   2.390   2.255  0.00  0.00     0.013 C 
ATOM     10  C3' I4B d   1       0.444   2.190   2.635  0.00  0.00     0.013 C 
ENDBRANCH   7   8
ENDBRANCH   1   7
TORSDOF 2
ENDMDL
