MODEL 1
REMARK minimizedAffinity 7.62139273
REMARK minimizedRMSD -1
REMARK  2 active torsions:
REMARK  status: ('A' for Active; 'I' for Inactive)
REMARK    1  A    between atoms: C2'_3  and  C1'_4 
REMARK    2  A    between atoms: C1'_4  and  C1_5 
ROOT
ATOM      1  C1  I4B d   1      -0.579   3.598  -0.189  0.00  0.00    -0.075 A 
ATOM      2  C2  I4B d   1      -0.660   4.822   0.429  0.00  0.00     0.003 A 
ATOM      3  C3  I4B d   1      -0.817   6.000  -0.341  0.00  0.00     0.002 A 
ATOM      4  C4  I4B d   1      -0.837   5.914  -1.718  0.00  0.00    -0.004 A 
ATOM      5  C5  I4B d   1      -0.778   4.671  -2.342  0.00  0.00     0.002 A 
ATOM      6  C6  I4B d   1      -0.661   3.504  -1.572  0.00  0.00     0.003 A 
ENDROOT
BRANCH   1   7
ATOM      7  C1' I4B d   1      -0.381   2.378   0.653  0.00  0.00     0.060 C 
BRANCH   7   8
ATOM      8  C2' I4B d   1      -0.837   2.703   2.061  0.00  0.00    -0.013 C 
ATOM      9  C4' I4B d   1      -2.271   2.297   2.277  0.00  0.00     0.013 C 
ATOM     10  C3' I4B d   1       0.076   1.996   3.018  0.00  0.00     0.013 C 
ENDBRANCH   7   8
ENDBRANCH   1   7
TORSDOF 2
ENDMDL
