MODEL 1
REMARK minimizedAffinity 6.02976084
REMARK minimizedRMSD -1
REMARK  2 active torsions:
REMARK  status: ('A' for Active; 'I' for Inactive)
REMARK    1  A    between atoms: C2'_3  and  C1'_4 
REMARK    2  A    between atoms: C1'_4  and  C1_5 
ROOT
ATOM      1  C1  I4B d   1      -0.957   0.489  -1.049  0.00  0.00    -0.075 A 
ATOM      2  C2  I4B d   1      -2.290   0.700  -0.799  0.00  0.00     0.003 A 
ATOM      3  C3  I4B d   1      -3.237  -0.317  -1.074  0.00  0.00     0.002 A 
ATOM      4  C4  I4B d   1      -2.815  -1.502  -1.642  0.00  0.00    -0.004 A 
ATOM      5  C5  I4B d   1      -1.461  -1.722  -1.874  0.00  0.00     0.002 A 
ATOM      6  C6  I4B d   1      -0.524  -0.725  -1.565  0.00  0.00     0.003 A 
ENDROOT
BRANCH   1   7
ATOM      7  C1' I4B d   1       0.011   1.597  -0.778  0.00  0.00     0.060 C 
BRANCH   7   8
ATOM      8  C2' I4B d   1      -0.753   2.739  -0.139  0.00  0.00    -0.013 C 
ATOM      9  C4' I4B d   1      -0.587   2.736   1.358  0.00  0.00     0.013 C 
ATOM     10  C3' I4B d   1      -0.256   4.020  -0.737  0.00  0.00     0.013 C 
ENDBRANCH   7   8
ENDBRANCH   1   7
TORSDOF 2
ENDMDL
