MODEL 1
REMARK minimizedAffinity 4.5045948
REMARK minimizedRMSD -1
REMARK  2 active torsions:
REMARK  status: ('A' for Active; 'I' for Inactive)
REMARK    1  A    between atoms: C2'_3  and  C1'_4 
REMARK    2  A    between atoms: C1'_4  and  C1_5 
ROOT
ATOM      1  C1  I4B d   1      -3.489   0.029  -0.772  0.00  0.00    -0.075 A 
ATOM      2  C2  I4B d   1      -3.352  -0.330   0.546  0.00  0.00     0.003 A 
ATOM      3  C3  I4B d   1      -4.361  -0.001   1.483  0.00  0.00     0.002 A 
ATOM      4  C4  I4B d   1      -5.458   0.728   1.072  0.00  0.00    -0.004 A 
ATOM      5  C5  I4B d   1      -5.606   1.072  -0.268  0.00  0.00     0.002 A 
ATOM      6  C6  I4B d   1      -4.621   0.710  -1.199  0.00  0.00     0.003 A 
ENDROOT
BRANCH   1   7
ATOM      7  C1' I4B d   1      -2.388  -0.306  -1.728  0.00  0.00     0.060 C 
BRANCH   7   8
ATOM      8  C2' I4B d   1      -1.085   0.186  -1.132  0.00  0.00    -0.013 C 
ATOM      9  C4' I4B d   1       0.099  -0.461  -1.801  0.00  0.00     0.013 C 
ATOM     10  C3' I4B d   1      -1.043   1.678  -1.281  0.00  0.00     0.013 C 
ENDBRANCH   7   8
ENDBRANCH   1   7
TORSDOF 2
ENDMDL
