MODEL 1
REMARK minimizedAffinity 7.32666159
REMARK minimizedRMSD -1
REMARK  2 active torsions:
REMARK  status: ('A' for Active; 'I' for Inactive)
REMARK    1  A    between atoms: C2'_3  and  C1'_4 
REMARK    2  A    between atoms: C1'_4  and  C1_5 
ROOT
ATOM      1  C1  I4B d   1       0.170   3.837   2.054  0.00  0.00    -0.075 A 
ATOM      2  C2  I4B d   1      -0.599   2.787   2.490  0.00  0.00     0.003 A 
ATOM      3  C3  I4B d   1      -0.067   1.844   3.402  0.00  0.00     0.002 A 
ATOM      4  C4  I4B d   1       1.247   1.959   3.810  0.00  0.00    -0.004 A 
ATOM      5  C5  I4B d   1       2.018   3.037   3.383  0.00  0.00     0.002 A 
ATOM      6  C6  I4B d   1       1.473   3.988   2.510  0.00  0.00     0.003 A 
ENDROOT
BRANCH   1   7
ATOM      7  C1' I4B d   1      -0.413   4.796   1.065  0.00  0.00     0.060 C 
BRANCH   7   8
ATOM      8  C2' I4B d   1      -0.047   4.315  -0.324  0.00  0.00    -0.013 C 
ATOM      9  C4' I4B d   1      -0.328   2.844  -0.484  0.00  0.00     0.013 C 
ATOM     10  C3' I4B d   1      -0.826   5.126  -1.316  0.00  0.00     0.013 C 
ENDBRANCH   7   8
ENDBRANCH   1   7
TORSDOF 2
ENDMDL
