MODEL 1
REMARK minimizedAffinity 3.86654234
REMARK minimizedRMSD -1
REMARK  2 active torsions:
REMARK  status: ('A' for Active; 'I' for Inactive)
REMARK    1  A    between atoms: C2'_3  and  C1'_4 
REMARK    2  A    between atoms: C1'_4  and  C1_5 
ROOT
ATOM      1  C1  I4B d   1      -1.575   0.870  -0.314  0.00  0.00    -0.075 A 
ATOM      2  C2  I4B d   1      -2.273   1.218   0.815  0.00  0.00     0.003 A 
ATOM      3  C3  I4B d   1      -3.529   0.625   1.089  0.00  0.00     0.002 A 
ATOM      4  C4  I4B d   1      -4.070  -0.269   0.187  0.00  0.00    -0.004 A 
ATOM      5  C5  I4B d   1      -3.350  -0.638  -0.946  0.00  0.00     0.002 A 
ATOM      6  C6  I4B d   1      -2.090  -0.075  -1.193  0.00  0.00     0.003 A 
ENDROOT
BRANCH   1   7
ATOM      7  C1' I4B d   1      -0.267   1.540  -0.589  0.00  0.00     0.060 C 
BRANCH   7   8
ATOM      8  C2' I4B d   1      -0.226   2.828   0.208  0.00  0.00    -0.013 C 
ATOM      9  C4' I4B d   1       0.741   2.727   1.358  0.00  0.00     0.013 C 
ATOM     10  C3' I4B d   1       0.157   3.938  -0.725  0.00  0.00     0.013 C 
ENDBRANCH   7   8
ENDBRANCH   1   7
TORSDOF 2
ENDMDL
