MODEL 1
REMARK minimizedAffinity 7.6821413
REMARK minimizedRMSD -1
REMARK  2 active torsions:
REMARK  status: ('A' for Active; 'I' for Inactive)
REMARK    1  A    between atoms: C2'_3  and  C1'_4 
REMARK    2  A    between atoms: C1'_4  and  C1_5 
ROOT
ATOM      1  C1  I4B d   1       5.108  -2.977  -2.447  0.00  0.00    -0.075 A 
ATOM      2  C2  I4B d   1       4.286  -3.831  -1.754  0.00  0.00     0.003 A 
ATOM      3  C3  I4B d   1       3.668  -3.407  -0.553  0.00  0.00     0.002 A 
ATOM      4  C4  I4B d   1       3.938  -2.148  -0.057  0.00  0.00    -0.004 A 
ATOM      5  C5  I4B d   1       4.753  -1.276  -0.773  0.00  0.00     0.002 A 
ATOM      6  C6  I4B d   1       5.332  -1.688  -1.982  0.00  0.00     0.003 A 
ENDROOT
BRANCH   1   7
ATOM      7  C1' I4B d   1       5.770  -3.468  -3.695  0.00  0.00     0.060 C 
BRANCH   7   8
ATOM      8  C2' I4B d   1       4.767  -3.369  -4.826  0.00  0.00    -0.013 C 
ATOM      9  C4' I4B d   1       5.303  -2.532  -5.958  0.00  0.00     0.013 C 
ATOM     10  C3' I4B d   1       4.447  -4.760  -5.286  0.00  0.00     0.013 C 
ENDBRANCH   7   8
ENDBRANCH   1   7
TORSDOF 2
ENDMDL
