MODEL 1
REMARK minimizedAffinity -4.91712666
REMARK minimizedRMSD -1
REMARK  0 active torsions:
REMARK  status: ('A' for Active; 'I' for Inactive)
ROOT
ATOM      1  C   UNL d   1      -1.930   2.414   1.378  0.00  0.00    -0.002 A 
ATOM      2  C1  UNL d   1      -1.590   2.892   0.120  0.00  0.00     0.010 A 
ATOM      3  C2  UNL d   1      -0.662   2.212  -0.671  0.00  0.00     0.041 A 
ATOM      4  C3  UNL d   1      -0.076   1.032  -0.172  0.00  0.00    -0.075 A 
ATOM      5  S   UNL d   1       1.085   0.033  -0.964  0.00  0.00     0.015 SA
ATOM      6  C4  UNL d   1       1.157  -1.052   0.349  0.00  0.00     0.022 A 
ATOM      7  C5  UNL d   1       0.322  -0.676   1.375  0.00  0.00     0.026 A 
ATOM      8  C6  UNL d   1      -0.402   0.531   1.092  0.00  0.00    -0.082 A 
ATOM      9  C7  UNL d   1      -1.346   1.243   1.870  0.00  0.00     0.045 A 
ENDROOT
TORSDOF 0
ENDMDL
