MODEL 1
REMARK minimizedAffinity -3.39580846
REMARK minimizedRMSD -1
REMARK  0 active torsions:
REMARK  status: ('A' for Active; 'I' for Inactive)
ROOT
ATOM      1  C   UNL d   1      -1.809   0.962   2.524  0.00  0.00    -0.002 A 
ATOM      2  C1  UNL d   1      -1.406   2.166   1.965  0.00  0.00     0.010 A 
ATOM      3  C2  UNL d   1      -0.538   2.186   0.871  0.00  0.00     0.041 A 
ATOM      4  C3  UNL d   1      -0.079   0.963   0.343  0.00  0.00    -0.075 A 
ATOM      5  S   UNL d   1       0.988   0.743  -0.994  0.00  0.00     0.015 SA
ATOM      6  C4  UNL d   1       0.933  -0.954  -0.854  0.00  0.00     0.022 A 
ATOM      7  C5  UNL d   1       0.126  -1.361   0.182  0.00  0.00     0.026 A 
ATOM      8  C6  UNL d   1      -0.472  -0.262   0.888  0.00  0.00    -0.082 A 
ATOM      9  C7  UNL d   1      -1.351  -0.249   1.997  0.00  0.00     0.045 A 
ENDROOT
TORSDOF 0
ENDMDL
