MODEL 1
REMARK minimizedAffinity -5.4017024
REMARK minimizedRMSD -1
REMARK  0 active torsions:
REMARK  status: ('A' for Active; 'I' for Inactive)
ROOT
ATOM      1  C   UNL d   1      -1.682   3.855   0.003  0.00  0.00    -0.002 A 
ATOM      2  C1  UNL d   1      -2.174   3.243   1.147  0.00  0.00     0.010 A 
ATOM      3  C2  UNL d   1      -1.688   1.998   1.551  0.00  0.00     0.041 A 
ATOM      4  C3  UNL d   1      -0.688   1.373   0.779  0.00  0.00    -0.075 A 
ATOM      5  S   UNL d   1       0.058  -0.151   1.081  0.00  0.00     0.015 SA
ATOM      6  C4  UNL d   1       1.048  -0.025  -0.301  0.00  0.00     0.022 A 
ATOM      7  C5  UNL d   1       0.827   1.145  -0.988  0.00  0.00     0.026 A 
ATOM      8  C6  UNL d   1      -0.176   1.971  -0.377  0.00  0.00    -0.082 A 
ATOM      9  C7  UNL d   1      -0.690   3.233  -0.760  0.00  0.00     0.045 A 
ENDROOT
TORSDOF 0
ENDMDL
