MODEL 1
REMARK minimizedAffinity -3.90004039
REMARK minimizedRMSD -1
REMARK  0 active torsions:
REMARK  status: ('A' for Active; 'I' for Inactive)
ROOT
ATOM      1  C   UNL d   1      -1.924   1.585   2.088  0.00  0.00    -0.002 A 
ATOM      2  C1  UNL d   1      -2.202   1.981   0.787  0.00  0.00     0.010 A 
ATOM      3  C2  UNL d   1      -1.492   1.441  -0.287  0.00  0.00     0.041 A 
ATOM      4  C3  UNL d   1      -0.489   0.486  -0.030  0.00  0.00    -0.075 A 
ATOM      5  S   UNL d   1       0.509  -0.312  -1.188  0.00  0.00     0.015 SA
ATOM      6  C4  UNL d   1       1.327  -1.198   0.017  0.00  0.00     0.022 A 
ATOM      7  C5  UNL d   1       0.863  -0.904   1.277  0.00  0.00     0.026 A 
ATOM      8  C6  UNL d   1      -0.191   0.070   1.271  0.00  0.00    -0.082 A 
ATOM      9  C7  UNL d   1      -0.928   0.637   2.339  0.00  0.00     0.045 A 
ENDROOT
TORSDOF 0
ENDMDL
