MODEL 1
REMARK minimizedAffinity -1.50197661
REMARK minimizedRMSD -1
REMARK  0 active torsions:
REMARK  status: ('A' for Active; 'I' for Inactive)
ROOT
ATOM      1  C   UNL d   1      -1.173   0.790   1.935  0.00  0.00    -0.002 A 
ATOM      2  C1  UNL d   1      -1.128   1.840   1.029  0.00  0.00     0.010 A 
ATOM      3  C2  UNL d   1      -0.381   1.734  -0.145  0.00  0.00     0.041 A 
ATOM      4  C3  UNL d   1       0.325   0.541  -0.398  0.00  0.00    -0.075 A 
ATOM      5  S   UNL d   1       1.305   0.185  -1.771  0.00  0.00     0.015 SA
ATOM      6  C4  UNL d   1       1.687  -1.371  -1.187  0.00  0.00     0.022 A 
ATOM      7  C5  UNL d   1       1.090  -1.628   0.024  0.00  0.00     0.026 A 
ATOM      8  C6  UNL d   1       0.295  -0.531   0.499  0.00  0.00    -0.082 A 
ATOM      9  C7  UNL d   1      -0.471  -0.391   1.681  0.00  0.00     0.045 A 
ENDROOT
TORSDOF 0
ENDMDL
