MODEL 1
REMARK minimizedAffinity -1.26308858
REMARK minimizedRMSD -1
REMARK  0 active torsions:
REMARK  status: ('A' for Active; 'I' for Inactive)
ROOT
ATOM      1  C   UNL d   1      -0.051  -2.588  -2.514  0.00  0.00    -0.002 A 
ATOM      2  C1  UNL d   1       0.995  -3.098  -1.759  0.00  0.00     0.010 A 
ATOM      3  C2  UNL d   1       1.357  -2.500  -0.550  0.00  0.00     0.041 A 
ATOM      4  C3  UNL d   1       0.640  -1.371  -0.107  0.00  0.00    -0.075 A 
ATOM      5  S   UNL d   1       0.905  -0.475   1.342  0.00  0.00     0.015 SA
ATOM      6  C4  UNL d   1      -0.366   0.606   0.993  0.00  0.00     0.022 A 
ATOM      7  C5  UNL d   1      -0.987   0.306  -0.196  0.00  0.00     0.026 A 
ATOM      8  C6  UNL d   1      -0.418  -0.839  -0.849  0.00  0.00    -0.082 A 
ATOM      9  C7  UNL d   1      -0.759  -1.467  -2.071  0.00  0.00     0.045 A 
ENDROOT
TORSDOF 0
ENDMDL
