MODEL 1
REMARK minimizedAffinity -4.77482128
REMARK minimizedRMSD -1
REMARK  0 active torsions:
REMARK  status: ('A' for Active; 'I' for Inactive)
ROOT
ATOM      1  C   UNL d   1      -2.040   3.222   0.528  0.00  0.00    -0.002 A 
ATOM      2  C1  UNL d   1      -1.339   3.689  -0.575  0.00  0.00     0.010 A 
ATOM      3  C2  UNL d   1      -0.412   2.871  -1.226  0.00  0.00     0.041 A 
ATOM      4  C3  UNL d   1      -0.201   1.564  -0.745  0.00  0.00    -0.075 A 
ATOM      5  S   UNL d   1       0.883   0.385  -1.383  0.00  0.00     0.015 SA
ATOM      6  C4  UNL d   1       0.441  -0.766  -0.207  0.00  0.00     0.022 A 
ATOM      7  C5  UNL d   1      -0.509  -0.280   0.659  0.00  0.00     0.026 A 
ATOM      8  C6  UNL d   1      -0.896   1.071   0.363  0.00  0.00    -0.082 A 
ATOM      9  C7  UNL d   1      -1.828   1.924   1.001  0.00  0.00     0.045 A 
ENDROOT
TORSDOF 0
ENDMDL
