MODEL 1
REMARK minimizedAffinity -1.63241673
REMARK minimizedRMSD -1
REMARK  0 active torsions:
REMARK  status: ('A' for Active; 'I' for Inactive)
ROOT
ATOM      1  C   UNL d   1      -0.477  -3.743  -2.190  0.00  0.00    -0.002 A 
ATOM      2  C1  UNL d   1       0.104  -2.921  -3.145  0.00  0.00     0.010 A 
ATOM      3  C2  UNL d   1       0.502  -1.623  -2.818  0.00  0.00     0.041 A 
ATOM      4  C3  UNL d   1       0.304  -1.161  -1.502  0.00  0.00    -0.075 A 
ATOM      5  S   UNL d   1       0.713   0.392  -0.873  0.00  0.00     0.015 SA
ATOM      6  C4  UNL d   1       0.126  -0.000   0.678  0.00  0.00     0.022 A 
ATOM      7  C5  UNL d   1      -0.374  -1.280   0.733  0.00  0.00     0.026 A 
ATOM      8  C6  UNL d   1      -0.279  -1.970  -0.523  0.00  0.00    -0.082 A 
ATOM      9  C7  UNL d   1      -0.672  -3.281  -0.886  0.00  0.00     0.045 A 
ENDROOT
TORSDOF 0
ENDMDL
