MODEL 1
REMARK minimizedAffinity -1.59995615
REMARK minimizedRMSD -1
REMARK  0 active torsions:
REMARK  status: ('A' for Active; 'I' for Inactive)
ROOT
ATOM      1  C   UNL d   1      -1.117   0.778   2.406  0.00  0.00    -0.002 A 
ATOM      2  C1  UNL d   1      -1.684   1.716   1.554  0.00  0.00     0.010 A 
ATOM      3  C2  UNL d   1      -1.441   1.665   0.180  0.00  0.00     0.041 A 
ATOM      4  C3  UNL d   1      -0.613   0.645  -0.329  0.00  0.00    -0.075 A 
ATOM      5  S   UNL d   1      -0.176   0.385  -1.976  0.00  0.00     0.015 SA
ATOM      6  C4  UNL d   1       0.772  -0.977  -1.588  0.00  0.00     0.022 A 
ATOM      7  C5  UNL d   1       0.767  -1.241  -0.239  0.00  0.00     0.026 A 
ATOM      8  C6  UNL d   1      -0.031  -0.311   0.509  0.00  0.00    -0.082 A 
ATOM      9  C7  UNL d   1      -0.296  -0.232   1.898  0.00  0.00     0.045 A 
ENDROOT
TORSDOF 0
ENDMDL
