MODEL 1
REMARK minimizedAffinity -0.633456945
REMARK minimizedRMSD -1
REMARK  0 active torsions:
REMARK  status: ('A' for Active; 'I' for Inactive)
ROOT
ATOM      1  C   UNL d   1      -1.750   1.276   2.191  0.00  0.00    -0.002 A 
ATOM      2  C1  UNL d   1      -1.627   2.207   1.170  0.00  0.00     0.010 A 
ATOM      3  C2  UNL d   1      -0.912   1.900   0.011  0.00  0.00     0.041 A 
ATOM      4  C3  UNL d   1      -0.318   0.628  -0.107  0.00  0.00    -0.075 A 
ATOM      5  S   UNL d   1       0.604   0.030  -1.435  0.00  0.00     0.015 SA
ATOM      6  C4  UNL d   1       0.855  -1.477  -0.679  0.00  0.00     0.022 A 
ATOM      7  C5  UNL d   1       0.258  -1.539   0.558  0.00  0.00     0.026 A 
ATOM      8  C6  UNL d   1      -0.429  -0.327   0.908  0.00  0.00    -0.082 A 
ATOM      9  C7  UNL d   1      -1.160   0.015   2.071  0.00  0.00     0.045 A 
ENDROOT
TORSDOF 0
ENDMDL
