MODEL 1
REMARK minimizedAffinity -3.93793344
REMARK minimizedRMSD -1
REMARK  0 active torsions:
REMARK  status: ('A' for Active; 'I' for Inactive)
ROOT
ATOM      1  C   UNL d   1      -1.822   3.035   1.072  0.00  0.00    -0.002 A 
ATOM      2  C1  UNL d   1      -1.177   3.580  -0.029  0.00  0.00     0.010 A 
ATOM      3  C2  UNL d   1      -0.248   2.829  -0.752  0.00  0.00     0.041 A 
ATOM      4  C3  UNL d   1       0.022   1.507  -0.348  0.00  0.00    -0.075 A 
ATOM      5  S   UNL d   1       1.120   0.399  -1.082  0.00  0.00     0.015 SA
ATOM      6  C4  UNL d   1       0.758  -0.824   0.048  0.00  0.00     0.022 A 
ATOM      7  C5  UNL d   1      -0.176  -0.415   0.970  0.00  0.00     0.026 A 
ATOM      8  C6  UNL d   1      -0.616   0.935   0.757  0.00  0.00    -0.082 A 
ATOM      9  C7  UNL d   1      -1.552   1.723   1.470  0.00  0.00     0.045 A 
ENDROOT
TORSDOF 0
ENDMDL
