MODEL 1
REMARK minimizedAffinity -5.39647722
REMARK minimizedRMSD -1
REMARK  0 active torsions:
REMARK  status: ('A' for Active; 'I' for Inactive)
ROOT
ATOM      1  C   UNL d   1      -1.982   2.986   1.424  0.00  0.00    -0.002 A 
ATOM      2  C1  UNL d   1      -1.429   3.504   0.261  0.00  0.00     0.010 A 
ATOM      3  C2  UNL d   1      -0.515   2.758  -0.485  0.00  0.00     0.041 A 
ATOM      4  C3  UNL d   1      -0.164   1.468  -0.040  0.00  0.00    -0.075 A 
ATOM      5  S   UNL d   1       0.934   0.371  -0.792  0.00  0.00     0.015 SA
ATOM      6  C4  UNL d   1       0.694  -0.811   0.412  0.00  0.00     0.022 A 
ATOM      7  C5  UNL d   1      -0.199  -0.396   1.372  0.00  0.00     0.026 A 
ATOM      8  C6  UNL d   1      -0.708   0.924   1.127  0.00  0.00    -0.082 A 
ATOM      9  C7  UNL d   1      -1.631   1.707   1.862  0.00  0.00     0.045 A 
ENDROOT
TORSDOF 0
ENDMDL
