MODEL 1
REMARK minimizedAffinity -4.81293154
REMARK minimizedRMSD -1
REMARK  0 active torsions:
REMARK  status: ('A' for Active; 'I' for Inactive)
ROOT
ATOM      1  C   UNL d   1      -2.055   3.078   0.907  0.00  0.00    -0.002 A 
ATOM      2  C1  UNL d   1      -1.094   3.630   0.073  0.00  0.00     0.010 A 
ATOM      3  C2  UNL d   1      -0.047   2.848  -0.421  0.00  0.00     0.041 A 
ATOM      4  C3  UNL d   1       0.016   1.488  -0.059  0.00  0.00    -0.075 A 
ATOM      5  S   UNL d   1       1.205   0.338  -0.543  0.00  0.00     0.015 SA
ATOM      6  C4  UNL d   1       0.464  -0.914   0.345  0.00  0.00     0.022 A 
ATOM      7  C5  UNL d   1      -0.664  -0.483   1.001  0.00  0.00     0.026 A 
ATOM      8  C6  UNL d   1      -0.942   0.909   0.779  0.00  0.00    -0.082 A 
ATOM      9  C7  UNL d   1      -1.990   1.728   1.263  0.00  0.00     0.045 A 
ENDROOT
TORSDOF 0
ENDMDL
