MODEL 1
REMARK minimizedAffinity -4.46504593
REMARK minimizedRMSD -1
REMARK  0 active torsions:
REMARK  status: ('A' for Active; 'I' for Inactive)
ROOT
ATOM      1  C   UNL d   1      -1.046   3.081   0.040  0.00  0.00    -0.002 A 
ATOM      2  C1  UNL d   1      -1.607   2.744   1.264  0.00  0.00     0.010 A 
ATOM      3  C2  UNL d   1      -1.491   1.446   1.765  0.00  0.00     0.041 A 
ATOM      4  C3  UNL d   1      -0.793   0.483   1.009  0.00  0.00    -0.075 A 
ATOM      5  S   UNL d   1      -0.523  -1.168   1.424  0.00  0.00     0.015 SA
ATOM      6  C4  UNL d   1       0.345  -1.465  -0.013  0.00  0.00     0.022 A 
ATOM      7  C5  UNL d   1       0.435  -0.342  -0.801  0.00  0.00     0.026 A 
ATOM      8  C6  UNL d   1      -0.218   0.799  -0.225  0.00  0.00    -0.082 A 
ATOM      9  C7  UNL d   1      -0.355   2.123  -0.707  0.00  0.00     0.045 A 
ENDROOT
TORSDOF 0
ENDMDL
