MODEL 1
REMARK minimizedAffinity -0.43348968
REMARK minimizedRMSD -1
REMARK  0 active torsions:
REMARK  status: ('A' for Active; 'I' for Inactive)
ROOT
ATOM      1  C   UNL d   1       1.403  -0.135  -2.242  0.00  0.00     0.077 C 
ATOM      2  C1  UNL d   1       0.471   0.127  -1.097  0.00  0.00    -0.074 A 
ATOM      3  C2  UNL d   1      -0.901   0.298  -1.311  0.00  0.00    -0.005 A 
ATOM      4  C3  UNL d   1      -1.757   0.532  -0.235  0.00  0.00     0.006 A 
ATOM      5  C4  UNL d   1      -1.251   0.598   1.064  0.00  0.00    -0.005 A 
ATOM      6  C5  UNL d   1       0.117   0.430   1.297  0.00  0.00    -0.074 A 
ATOM      7  C6  UNL d   1       0.676   0.488   2.688  0.00  0.00     0.077 C 
ATOM      8  C7  UNL d   1       0.970   0.188   0.212  0.00  0.00    -0.001 A 
ENDROOT
TORSDOF 0
ENDMDL
