MODEL 1
REMARK minimizedAffinity -4.02976227
REMARK minimizedRMSD -1
REMARK  0 active torsions:
REMARK  status: ('A' for Active; 'I' for Inactive)
ROOT
ATOM      1  C   UNL d   1      -2.423   0.587  -0.675  0.00  0.00     0.077 C 
ATOM      2  C1  UNL d   1      -0.983   0.174  -0.735  0.00  0.00    -0.074 A 
ATOM      3  C2  UNL d   1      -0.097   0.501   0.296  0.00  0.00    -0.005 A 
ATOM      4  C3  UNL d   1       1.238   0.102   0.230  0.00  0.00     0.006 A 
ATOM      5  C4  UNL d   1       1.700  -0.628  -0.866  0.00  0.00    -0.005 A 
ATOM      6  C5  UNL d   1       0.828  -0.965  -1.907  0.00  0.00    -0.074 A 
ATOM      7  C6  UNL d   1       1.306  -1.758  -3.087  0.00  0.00     0.077 C 
ATOM      8  C7  UNL d   1      -0.513  -0.566  -1.830  0.00  0.00    -0.001 A 
ENDROOT
TORSDOF 0
ENDMDL
