MODEL 1
REMARK minimizedAffinity -0.837475538
REMARK minimizedRMSD -1
REMARK  0 active torsions:
REMARK  status: ('A' for Active; 'I' for Inactive)
ROOT
ATOM      1  C   UNL d   1       1.116   0.167  -2.932  0.00  0.00     0.077 C 
ATOM      2  C1  UNL d   1       0.370   0.298  -1.637  0.00  0.00    -0.074 A 
ATOM      3  C2  UNL d   1      -1.001   0.576  -1.623  0.00  0.00    -0.005 A 
ATOM      4  C3  UNL d   1      -1.683   0.686  -0.411  0.00  0.00     0.006 A 
ATOM      5  C4  UNL d   1      -1.003   0.519   0.796  0.00  0.00    -0.005 A 
ATOM      6  C5  UNL d   1       0.368   0.240   0.801  0.00  0.00    -0.074 A 
ATOM      7  C6  UNL d   1       1.112   0.049   2.089  0.00  0.00     0.077 C 
ATOM      8  C7  UNL d   1       1.045   0.125  -0.421  0.00  0.00    -0.001 A 
ENDROOT
TORSDOF 0
ENDMDL
