MODEL 1
REMARK minimizedAffinity -2.94573903
REMARK minimizedRMSD -1
REMARK  0 active torsions:
REMARK  status: ('A' for Active; 'I' for Inactive)
ROOT
ATOM      1  C   UNL d   1      -0.687  -0.303   0.471  0.00  0.00     0.077 C 
ATOM      2  C1  UNL d   1      -0.128  -0.682  -0.869  0.00  0.00    -0.074 A 
ATOM      3  C2  UNL d   1      -0.495  -1.882  -1.488  0.00  0.00    -0.005 A 
ATOM      4  C3  UNL d   1       0.025  -2.216  -2.738  0.00  0.00     0.006 A 
ATOM      5  C4  UNL d   1       0.916  -1.356  -3.381  0.00  0.00    -0.005 A 
ATOM      6  C5  UNL d   1       1.293  -0.151  -2.778  0.00  0.00    -0.074 A 
ATOM      7  C6  UNL d   1       2.242   0.789  -3.460  0.00  0.00     0.077 C 
ATOM      8  C7  UNL d   1       0.761   0.181  -1.525  0.00  0.00    -0.001 A 
ENDROOT
TORSDOF 0
ENDMDL
