MODEL 1
REMARK minimizedAffinity -3.18729544
REMARK minimizedRMSD -1
REMARK  0 active torsions:
REMARK  status: ('A' for Active; 'I' for Inactive)
ROOT
ATOM      1  C   UNL d   1       1.081  -0.379  -3.059  0.00  0.00     0.077 C 
ATOM      2  C1  UNL d   1       0.875  -0.117  -1.596  0.00  0.00    -0.074 A 
ATOM      3  C2  UNL d   1      -0.391   0.200  -1.094  0.00  0.00    -0.005 A 
ATOM      4  C3  UNL d   1      -0.569   0.432   0.269  0.00  0.00     0.006 A 
ATOM      5  C4  UNL d   1       0.515   0.350   1.144  0.00  0.00    -0.005 A 
ATOM      6  C5  UNL d   1       1.789   0.033   0.660  0.00  0.00    -0.074 A 
ATOM      7  C6  UNL d   1       2.963  -0.070   1.588  0.00  0.00     0.077 C 
ATOM      8  C7  UNL d   1       1.958  -0.206  -0.710  0.00  0.00    -0.001 A 
ENDROOT
TORSDOF 0
ENDMDL
