MODEL 1
REMARK minimizedAffinity -2.1486392
REMARK minimizedRMSD -1
REMARK  0 active torsions:
REMARK  status: ('A' for Active; 'I' for Inactive)
ROOT
ATOM      1  C   UNL d   1      -1.159  -0.265   3.145  0.00  0.00     0.077 C 
ATOM      2  C1  UNL d   1      -0.417   0.065   1.883  0.00  0.00    -0.074 A 
ATOM      3  C2  UNL d   1       0.930   0.438   1.918  0.00  0.00    -0.005 A 
ATOM      4  C3  UNL d   1       1.609   0.732   0.736  0.00  0.00     0.006 A 
ATOM      5  C4  UNL d   1       0.949   0.657  -0.491  0.00  0.00    -0.005 A 
ATOM      6  C5  UNL d   1      -0.398   0.284  -0.546  0.00  0.00    -0.074 A 
ATOM      7  C6  UNL d   1      -1.119   0.188  -1.857  0.00  0.00     0.077 C 
ATOM      8  C7  UNL d   1      -1.071  -0.017   0.646  0.00  0.00    -0.001 A 
ENDROOT
TORSDOF 0
ENDMDL
