MODEL 1
REMARK minimizedAffinity -2.25493789
REMARK minimizedRMSD -1
REMARK  0 active torsions:
REMARK  status: ('A' for Active; 'I' for Inactive)
ROOT
ATOM      1  C   UNL d   1       2.011  -6.000   3.328  0.00  0.00     0.077 C 
ATOM      2  C1  UNL d   1       3.147  -5.373   4.080  0.00  0.00    -0.074 A 
ATOM      3  C2  UNL d   1       3.644  -5.956   5.250  0.00  0.00    -0.005 A 
ATOM      4  C3  UNL d   1       4.707  -5.367   5.933  0.00  0.00     0.006 A 
ATOM      5  C4  UNL d   1       5.283  -4.189   5.455  0.00  0.00    -0.005 A 
ATOM      6  C5  UNL d   1       4.800  -3.592   4.286  0.00  0.00    -0.074 A 
ATOM      7  C6  UNL d   1       5.415  -2.331   3.753  0.00  0.00     0.077 C 
ATOM      8  C7  UNL d   1       3.736  -4.194   3.602  0.00  0.00    -0.001 A 
ENDROOT
TORSDOF 0
ENDMDL
