MODEL 1
REMARK minimizedAffinity -0.242758527
REMARK minimizedRMSD -1
REMARK  0 active torsions:
REMARK  status: ('A' for Active; 'I' for Inactive)
ROOT
ATOM      1  C   UNL d   1       1.694   0.490   2.740  0.00  0.00     0.077 C 
ATOM      2  C1  UNL d   1       0.887   0.447   1.477  0.00  0.00    -0.074 A 
ATOM      3  C2  UNL d   1      -0.511   0.469   1.516  0.00  0.00    -0.005 A 
ATOM      4  C3  UNL d   1      -1.249   0.438   0.333  0.00  0.00     0.006 A 
ATOM      5  C4  UNL d   1      -0.597   0.385  -0.900  0.00  0.00    -0.005 A 
ATOM      6  C5  UNL d   1       0.800   0.363  -0.959  0.00  0.00    -0.074 A 
ATOM      7  C6  UNL d   1       1.516   0.315  -2.276  0.00  0.00     0.077 C 
ATOM      8  C7  UNL d   1       1.534   0.401   0.234  0.00  0.00    -0.001 A 
ENDROOT
TORSDOF 0
ENDMDL
