MODEL 1
REMARK minimizedAffinity -3.21380496
REMARK minimizedRMSD -1
REMARK  0 active torsions:
REMARK  status: ('A' for Active; 'I' for Inactive)
ROOT
ATOM      1  C   UNL d   1      -2.675   0.485   1.493  0.00  0.00     0.077 C 
ATOM      2  C1  UNL d   1      -1.211   0.427   1.172  0.00  0.00    -0.074 A 
ATOM      3  C2  UNL d   1      -0.253   0.381   2.190  0.00  0.00    -0.005 A 
ATOM      4  C3  UNL d   1       1.105   0.318   1.876  0.00  0.00     0.006 A 
ATOM      5  C4  UNL d   1       1.517   0.298   0.543  0.00  0.00    -0.005 A 
ATOM      6  C5  UNL d   1       0.574   0.342  -0.488  0.00  0.00    -0.074 A 
ATOM      7  C6  UNL d   1       1.000   0.312  -1.926  0.00  0.00     0.077 C 
ATOM      8  C7  UNL d   1      -0.789   0.399  -0.165  0.00  0.00    -0.001 A 
ENDROOT
TORSDOF 0
ENDMDL
