MODEL 1
REMARK minimizedAffinity -3.43421936
REMARK minimizedRMSD -1
REMARK  0 active torsions:
REMARK  status: ('A' for Active; 'I' for Inactive)
ROOT
ATOM      1  C   UNL d   1      -3.296   0.670   0.816  0.00  0.00     0.077 C 
ATOM      2  C1  UNL d   1      -1.846   0.393   1.079  0.00  0.00    -0.074 A 
ATOM      3  C2  UNL d   1      -1.381   0.169   2.378  0.00  0.00    -0.005 A 
ATOM      4  C3  UNL d   1      -0.030  -0.096   2.606  0.00  0.00     0.006 A 
ATOM      5  C4  UNL d   1       0.867  -0.140   1.538  0.00  0.00    -0.005 A 
ATOM      6  C5  UNL d   1       0.420   0.080   0.232  0.00  0.00    -0.074 A 
ATOM      7  C6  UNL d   1       1.369   0.026  -0.928  0.00  0.00     0.077 C 
ATOM      8  C7  UNL d   1      -0.940   0.339   0.010  0.00  0.00    -0.001 A 
ENDROOT
TORSDOF 0
ENDMDL
