MODEL 1
REMARK minimizedAffinity -1.48594642
REMARK minimizedRMSD -1
REMARK  0 active torsions:
REMARK  status: ('A' for Active; 'I' for Inactive)
ROOT
ATOM      1  C   UNL d   1       0.330   0.514   2.726  0.00  0.00     0.077 C 
ATOM      2  C1  UNL d   1      -0.197   0.344   1.332  0.00  0.00    -0.074 A 
ATOM      3  C2  UNL d   1      -1.548   0.563   1.043  0.00  0.00    -0.005 A 
ATOM      4  C3  UNL d   1      -2.022   0.410  -0.260  0.00  0.00     0.006 A 
ATOM      5  C4  UNL d   1      -1.152   0.037  -1.285  0.00  0.00    -0.005 A 
ATOM      6  C5  UNL d   1       0.202  -0.186  -1.015  0.00  0.00    -0.074 A 
ATOM      7  C6  UNL d   1       1.153  -0.578  -2.107  0.00  0.00     0.077 C 
ATOM      8  C7  UNL d   1       0.672  -0.023   0.295  0.00  0.00    -0.001 A 
ENDROOT
TORSDOF 0
ENDMDL
