MODEL 1
REMARK minimizedAffinity -1.10168231
REMARK minimizedRMSD -1
REMARK  0 active torsions:
REMARK  status: ('A' for Active; 'I' for Inactive)
ROOT
ATOM      1  C   UNL d   1      -1.354  -0.216   2.915  0.00  0.00     0.077 C 
ATOM      2  C1  UNL d   1      -0.307   0.020   1.867  0.00  0.00    -0.074 A 
ATOM      3  C2  UNL d   1       0.861   0.728   2.164  0.00  0.00    -0.005 A 
ATOM      4  C3  UNL d   1       1.830   0.931   1.180  0.00  0.00     0.006 A 
ATOM      5  C4  UNL d   1       1.640   0.428  -0.107  0.00  0.00    -0.005 A 
ATOM      6  C5  UNL d   1       0.478  -0.284  -0.422  0.00  0.00    -0.074 A 
ATOM      7  C6  UNL d   1       0.263  -0.840  -1.798  0.00  0.00     0.077 C 
ATOM      8  C7  UNL d   1      -0.487  -0.490   0.573  0.00  0.00    -0.001 A 
ENDROOT
TORSDOF 0
ENDMDL
