MODEL 1
REMARK minimizedAffinity -2.47590947
REMARK minimizedRMSD -1
REMARK  0 active torsions:
REMARK  status: ('A' for Active; 'I' for Inactive)
ROOT
ATOM      1  C   UNL d   1      -0.048   0.154  -1.443  0.00  0.00     0.077 C 
ATOM      2  C1  UNL d   1      -0.015   0.325   0.047  0.00  0.00    -0.074 A 
ATOM      3  C2  UNL d   1       1.199   0.435   0.731  0.00  0.00    -0.005 A 
ATOM      4  C3  UNL d   1       1.214   0.602   2.116  0.00  0.00     0.006 A 
ATOM      5  C4  UNL d   1       0.016   0.662   2.829  0.00  0.00    -0.005 A 
ATOM      6  C5  UNL d   1      -1.208   0.554   2.162  0.00  0.00    -0.074 A 
ATOM      7  C6  UNL d   1      -2.505   0.626   2.912  0.00  0.00     0.077 C 
ATOM      8  C7  UNL d   1      -1.215   0.393   0.770  0.00  0.00    -0.001 A 
ENDROOT
TORSDOF 0
ENDMDL
