MODEL 1
REMARK minimizedAffinity -4.47289324
REMARK minimizedRMSD -1
REMARK  0 active torsions:
REMARK  status: ('A' for Active; 'I' for Inactive)
ROOT
ATOM      1  C   UNL d   1      -2.333   0.886  -0.242  0.00  0.00     0.077 C 
ATOM      2  C1  UNL d   1      -0.868   0.577  -0.338  0.00  0.00    -0.074 A 
ATOM      3  C2  UNL d   1      -0.016   0.794   0.749  0.00  0.00    -0.005 A 
ATOM      4  C3  UNL d   1       1.343   0.493   0.648  0.00  0.00     0.006 A 
ATOM      5  C4  UNL d   1       1.861  -0.026  -0.539  0.00  0.00    -0.005 A 
ATOM      6  C5  UNL d   1       1.023  -0.250  -1.636  0.00  0.00    -0.074 A 
ATOM      7  C6  UNL d   1       1.562  -0.817  -2.916  0.00  0.00     0.077 C 
ATOM      8  C7  UNL d   1      -0.342   0.048  -1.525  0.00  0.00    -0.001 A 
ENDROOT
TORSDOF 0
ENDMDL
