MODEL 1
REMARK minimizedAffinity -3.35267401
REMARK minimizedRMSD -1
REMARK  0 active torsions:
REMARK  status: ('A' for Active; 'I' for Inactive)
ROOT
ATOM      1  C   UNL d   1       0.666  -0.498   1.204  0.00  0.00     0.077 C 
ATOM      2  C1  UNL d   1       0.471  -0.377  -0.279  0.00  0.00    -0.074 A 
ATOM      3  C2  UNL d   1      -0.342   0.625  -0.817  0.00  0.00    -0.005 A 
ATOM      4  C3  UNL d   1      -0.506   0.732  -2.198  0.00  0.00     0.006 A 
ATOM      5  C4  UNL d   1       0.140  -0.161  -3.053  0.00  0.00    -0.005 A 
ATOM      6  C5  UNL d   1       0.959  -1.168  -2.533  0.00  0.00    -0.074 A 
ATOM      7  C6  UNL d   1       1.669  -2.130  -3.439  0.00  0.00     0.077 C 
ATOM      8  C7  UNL d   1       1.124  -1.265  -1.145  0.00  0.00    -0.001 A 
ENDROOT
TORSDOF 0
ENDMDL
