MODEL 1
REMARK minimizedAffinity -1.99102306
REMARK minimizedRMSD -1
REMARK  0 active torsions:
REMARK  status: ('A' for Active; 'I' for Inactive)
ROOT
ATOM      1  C   UNL d   1       2.178  -2.059   0.767  0.00  0.00    -0.002 A 
ATOM      2  C1  UNL d   1       2.739  -1.094  -0.057  0.00  0.00     0.010 A 
ATOM      3  C2  UNL d   1       1.999   0.024  -0.448  0.00  0.00     0.041 A 
ATOM      4  C3  UNL d   1       0.673   0.157   0.009  0.00  0.00    -0.075 A 
ATOM      5  S   UNL d   1      -0.422   1.442  -0.340  0.00  0.00     0.015 SA
ATOM      6  C4  UNL d   1      -1.661   0.740   0.597  0.00  0.00     0.022 A 
ATOM      7  C5  UNL d   1      -1.266  -0.446   1.169  0.00  0.00     0.026 A 
ATOM      8  C6  UNL d   1       0.086  -0.801   0.840  0.00  0.00    -0.082 A 
ATOM      9  C7  UNL d   1       0.862  -1.923   1.218  0.00  0.00     0.045 A 
ENDROOT
TORSDOF 0
ENDMDL
