MODEL 1
REMARK minimizedAffinity -1.12077057
REMARK minimizedRMSD -1
REMARK  0 active torsions:
REMARK  status: ('A' for Active; 'I' for Inactive)
ROOT
ATOM      1  C   UNL d   1       0.449  -2.752   1.336  0.00  0.00    -0.002 A 
ATOM      2  C1  UNL d   1       1.616  -2.289   0.744  0.00  0.00     0.010 A 
ATOM      3  C2  UNL d   1       1.685  -0.993   0.229  0.00  0.00     0.041 A 
ATOM      4  C3  UNL d   1       0.552  -0.161   0.322  0.00  0.00    -0.075 A 
ATOM      5  S   UNL d   1       0.405   1.462  -0.239  0.00  0.00     0.015 SA
ATOM      6  C4  UNL d   1      -1.209   1.580   0.296  0.00  0.00     0.022 A 
ATOM      7  C5  UNL d   1      -1.642   0.418   0.889  0.00  0.00     0.026 A 
ATOM      8  C6  UNL d   1      -0.634  -0.605   0.915  0.00  0.00    -0.082 A 
ATOM      9  C7  UNL d   1      -0.673  -1.924   1.427  0.00  0.00     0.045 A 
ENDROOT
TORSDOF 0
ENDMDL
