MODEL 1
REMARK minimizedAffinity -1.46085966
REMARK minimizedRMSD -1
REMARK  0 active torsions:
REMARK  status: ('A' for Active; 'I' for Inactive)
ROOT
ATOM      1  C   UNL d   1       2.796   3.444   0.395  0.00  0.00    -0.002 A 
ATOM      2  C1  UNL d   1       1.590   4.126   0.471  0.00  0.00     0.010 A 
ATOM      3  C2  UNL d   1       0.379   3.430   0.480  0.00  0.00     0.041 A 
ATOM      4  C3  UNL d   1       0.402   2.023   0.413  0.00  0.00    -0.075 A 
ATOM      5  S   UNL d   1      -0.957   0.961   0.411  0.00  0.00     0.015 SA
ATOM      6  C4  UNL d   1       0.032  -0.424   0.310  0.00  0.00     0.022 A 
ATOM      7  C5  UNL d   1       1.368  -0.102   0.278  0.00  0.00     0.026 A 
ATOM      8  C6  UNL d   1       1.603   1.313   0.337  0.00  0.00    -0.082 A 
ATOM      9  C7  UNL d   1       2.814   2.048   0.329  0.00  0.00     0.045 A 
ENDROOT
TORSDOF 0
ENDMDL
