MODEL 1
REMARK minimizedAffinity -1.99588513
REMARK minimizedRMSD -1
REMARK  0 active torsions:
REMARK  status: ('A' for Active; 'I' for Inactive)
ROOT
ATOM      1  C   UNL d   1       1.807  -2.774   1.132  0.00  0.00    -0.002 A 
ATOM      2  C1  UNL d   1       2.703  -1.718   1.042  0.00  0.00     0.010 A 
ATOM      3  C2  UNL d   1       2.270  -0.451   0.644  0.00  0.00     0.041 A 
ATOM      4  C3  UNL d   1       0.908  -0.262   0.339  0.00  0.00    -0.075 A 
ATOM      5  S   UNL d   1       0.150   1.202  -0.168  0.00  0.00     0.015 SA
ATOM      6  C4  UNL d   1      -1.381   0.460  -0.275  0.00  0.00     0.022 A 
ATOM      7  C5  UNL d   1      -1.333  -0.872   0.064  0.00  0.00     0.026 A 
ATOM      8  C6  UNL d   1      -0.014  -1.309   0.424  0.00  0.00    -0.082 A 
ATOM      9  C7  UNL d   1       0.457  -2.582   0.828  0.00  0.00     0.045 A 
ENDROOT
TORSDOF 0
ENDMDL
