MODEL 1
REMARK minimizedAffinity -3.71242642
REMARK minimizedRMSD -1
REMARK  0 active torsions:
REMARK  status: ('A' for Active; 'I' for Inactive)
ROOT
ATOM      1  C   UNL d   1       1.507  -3.054   1.216  0.00  0.00    -0.002 A 
ATOM      2  C1  UNL d   1       0.239  -3.149   1.773  0.00  0.00     0.010 A 
ATOM      3  C2  UNL d   1      -0.682  -2.111   1.624  0.00  0.00     0.041 A 
ATOM      4  C3  UNL d   1      -0.305  -0.964   0.898  0.00  0.00    -0.075 A 
ATOM      5  S   UNL d   1      -1.267   0.432   0.587  0.00  0.00     0.015 SA
ATOM      6  C4  UNL d   1      -0.019   1.188  -0.293  0.00  0.00     0.022 A 
ATOM      7  C5  UNL d   1       1.112   0.409  -0.358  0.00  0.00     0.026 A 
ATOM      8  C6  UNL d   1       0.965  -0.844   0.328  0.00  0.00    -0.082 A 
ATOM      9  C7  UNL d   1       1.877  -1.914   0.496  0.00  0.00     0.045 A 
ENDROOT
TORSDOF 0
ENDMDL
