MODEL 1
REMARK minimizedAffinity 1.04862034
REMARK minimizedRMSD -1
REMARK  0 active torsions:
REMARK  status: ('A' for Active; 'I' for Inactive)
ROOT
ATOM      1  C   UNL d   1       0.043  -0.991  -0.452  0.00  0.00    -0.002 A 
ATOM      2  C1  UNL d   1      -0.332  -0.035   0.481  0.00  0.00     0.010 A 
ATOM      3  C2  UNL d   1      -1.254   0.960   0.148  0.00  0.00     0.041 A 
ATOM      4  C3  UNL d   1      -1.798   0.977  -1.151  0.00  0.00    -0.075 A 
ATOM      5  S   UNL d   1      -2.944   2.099  -1.784  0.00  0.00     0.015 SA
ATOM      6  C4  UNL d   1      -2.962   1.336  -3.308  0.00  0.00     0.022 A 
ATOM      7  C5  UNL d   1      -2.121   0.249  -3.350  0.00  0.00     0.026 A 
ATOM      8  C6  UNL d   1      -1.436   0.024  -2.108  0.00  0.00    -0.082 A 
ATOM      9  C7  UNL d   1      -0.499  -0.971  -1.740  0.00  0.00     0.045 A 
ENDROOT
TORSDOF 0
ENDMDL
