MODEL 1
REMARK minimizedAffinity -2.18921685
REMARK minimizedRMSD -1
REMARK  0 active torsions:
REMARK  status: ('A' for Active; 'I' for Inactive)
ROOT
ATOM      1  C   UNL d   1       2.062   4.012   0.241  0.00  0.00    -0.002 A 
ATOM      2  C1  UNL d   1       3.240   3.284   0.151  0.00  0.00     0.010 A 
ATOM      3  C2  UNL d   1       3.212   1.888   0.137  0.00  0.00     0.041 A 
ATOM      4  C3  UNL d   1       1.968   1.230   0.212  0.00  0.00    -0.075 A 
ATOM      5  S   UNL d   1       1.691  -0.471   0.210  0.00  0.00     0.015 SA
ATOM      6  C4  UNL d   1       0.002  -0.271   0.327  0.00  0.00     0.022 A 
ATOM      7  C5  UNL d   1      -0.358   1.055   0.368  0.00  0.00     0.026 A 
ATOM      8  C6  UNL d   1       0.769   1.942   0.302  0.00  0.00    -0.082 A 
ATOM      9  C7  UNL d   1       0.831   3.356   0.316  0.00  0.00     0.045 A 
ENDROOT
TORSDOF 0
ENDMDL
