MODEL 1
REMARK minimizedAffinity 0.0381292701
REMARK minimizedRMSD -1
REMARK  0 active torsions:
REMARK  status: ('A' for Active; 'I' for Inactive)
ROOT
ATOM      1  C   UNL d   1       1.612  -2.837   1.055  0.00  0.00    -0.002 A 
ATOM      2  C1  UNL d   1       2.445  -1.810   0.633  0.00  0.00     0.010 A 
ATOM      3  C2  UNL d   1       1.911  -0.594   0.202  0.00  0.00     0.041 A 
ATOM      4  C3  UNL d   1       0.512  -0.425   0.204  0.00  0.00    -0.075 A 
ATOM      5  S   UNL d   1      -0.366   0.977  -0.280  0.00  0.00     0.015 SA
ATOM      6  C4  UNL d   1      -1.867   0.247   0.062  0.00  0.00     0.022 A 
ATOM      7  C5  UNL d   1      -1.721  -1.036   0.535  0.00  0.00     0.026 A 
ATOM      8  C6  UNL d   1      -0.347  -1.444   0.625  0.00  0.00    -0.082 A 
ATOM      9  C7  UNL d   1       0.225  -2.666   1.055  0.00  0.00     0.045 A 
ENDROOT
TORSDOF 0
ENDMDL
