MODEL 1
REMARK minimizedAffinity -3.73556161
REMARK minimizedRMSD -1
REMARK  0 active torsions:
REMARK  status: ('A' for Active; 'I' for Inactive)
ROOT
ATOM      1  C   UNL d   1       3.041   3.235  -0.138  0.00  0.00    -0.002 A 
ATOM      2  C1  UNL d   1       1.847   3.937  -0.064  0.00  0.00     0.010 A 
ATOM      3  C2  UNL d   1       0.624   3.264  -0.106  0.00  0.00     0.041 A 
ATOM      4  C3  UNL d   1       0.622   1.860  -0.223  0.00  0.00    -0.075 A 
ATOM      5  S   UNL d   1      -0.755   0.825  -0.293  0.00  0.00     0.015 SA
ATOM      6  C4  UNL d   1       0.210  -0.574  -0.422  0.00  0.00     0.022 A 
ATOM      7  C5  UNL d   1       1.553  -0.277  -0.414  0.00  0.00     0.026 A 
ATOM      8  C6  UNL d   1       1.812   1.131  -0.298  0.00  0.00    -0.082 A 
ATOM      9  C7  UNL d   1       3.035   1.842  -0.254  0.00  0.00     0.045 A 
ENDROOT
TORSDOF 0
ENDMDL
