MODEL 1
REMARK minimizedAffinity -0.494677871
REMARK minimizedRMSD -1
REMARK  0 active torsions:
REMARK  status: ('A' for Active; 'I' for Inactive)
ROOT
ATOM      1  C   UNL d   1       0.450  -3.134   1.153  0.00  0.00    -0.002 A 
ATOM      2  C1  UNL d   1       1.792  -2.820   1.314  0.00  0.00     0.010 A 
ATOM      3  C2  UNL d   1       2.245  -1.514   1.116  0.00  0.00     0.041 A 
ATOM      4  C3  UNL d   1       1.317  -0.519   0.751  0.00  0.00    -0.075 A 
ATOM      5  S   UNL d   1       1.643   1.148   0.457  0.00  0.00     0.015 SA
ATOM      6  C4  UNL d   1       0.009   1.484   0.111  0.00  0.00     0.022 A 
ATOM      7  C5  UNL d   1      -0.781   0.362   0.212  0.00  0.00     0.026 A 
ATOM      8  C6  UNL d   1      -0.039  -0.810   0.583  0.00  0.00    -0.082 A 
ATOM      9  C7  UNL d   1      -0.467  -2.144   0.790  0.00  0.00     0.045 A 
ENDROOT
TORSDOF 0
ENDMDL
