MODEL 1
REMARK minimizedAffinity -4.17175007
REMARK minimizedRMSD -1
REMARK  0 active torsions:
REMARK  status: ('A' for Active; 'I' for Inactive)
ROOT
ATOM      1  C   UNL d   1       0.755  -1.018   0.180  0.00  0.00    -0.002 A 
ATOM      2  C1  UNL d   1      -0.542  -0.559   0.363  0.00  0.00     0.010 A 
ATOM      3  C2  UNL d   1      -0.809   0.810   0.421  0.00  0.00     0.041 A 
ATOM      4  C3  UNL d   1       0.258   1.719   0.289  0.00  0.00    -0.075 A 
ATOM      5  S   UNL d   1       0.169   3.441   0.327  0.00  0.00     0.015 SA
ATOM      6  C4  UNL d   1       1.849   3.608   0.100  0.00  0.00     0.022 A 
ATOM      7  C5  UNL d   1       2.479   2.390  -0.004  0.00  0.00     0.026 A 
ATOM      8  C6  UNL d   1       1.573   1.282   0.103  0.00  0.00    -0.082 A 
ATOM      9  C7  UNL d   1       1.812  -0.113   0.049  0.00  0.00     0.045 A 
ENDROOT
TORSDOF 0
ENDMDL
