MODEL 1
REMARK minimizedAffinity -3.80119705
REMARK minimizedRMSD -1
REMARK  1 active torsions:
REMARK  status: ('A' for Active; 'I' for Inactive)
REMARK    1  A    between atoms: C1_2  and  C2_3 
ROOT
ATOM      1  C2  UNL d   1       0.174   0.721  -1.265  0.00  0.00    -0.073 A 
ATOM      2  C3  UNL d   1       1.382   0.589  -0.570  0.00  0.00    -0.002 A 
ATOM      3  C4  UNL d   1       1.520  -0.377   0.427  0.00  0.00     0.004 A 
ATOM      4  C5  UNL d   1       0.456  -1.224   0.736  0.00  0.00    -0.004 A 
ATOM      5  C6  UNL d   1      -0.755  -1.116   0.045  0.00  0.00    -0.075 A 
ATOM      6  C7  UNL d   1      -1.910  -2.018   0.366  0.00  0.00     0.076 C 
ATOM      7  C8  UNL d   1      -0.887  -0.142  -0.954  0.00  0.00     0.001 A 
ENDROOT
BRANCH   1   8
ATOM      8  C1  UNL d   1       0.023   1.758  -2.347  0.00  0.00     0.053 C 
ATOM      9  C   UNL d   1       1.264   1.856  -3.220  0.00  0.00     0.018 C 
ENDBRANCH   1   8
TORSDOF 1
ENDMDL
