MODEL 1
REMARK minimizedAffinity -3.12655616
REMARK minimizedRMSD -1
REMARK  1 active torsions:
REMARK  status: ('A' for Active; 'I' for Inactive)
REMARK    1  A    between atoms: C1_2  and  C2_3 
ROOT
ATOM      1  C2  UNL d   1      -1.091  -0.993   0.912  0.00  0.00    -0.073 A 
ATOM      2  C3  UNL d   1      -2.038  -0.093   1.417  0.00  0.00    -0.002 A 
ATOM      3  C4  UNL d   1      -1.863   1.281   1.250  0.00  0.00     0.004 A 
ATOM      4  C5  UNL d   1      -0.746   1.770   0.572  0.00  0.00    -0.004 A 
ATOM      5  C6  UNL d   1       0.205   0.886   0.050  0.00  0.00    -0.075 A 
ATOM      6  C7  UNL d   1       1.413   1.395  -0.680  0.00  0.00     0.076 C 
ATOM      7  C8  UNL d   1       0.024  -0.493   0.224  0.00  0.00     0.001 A 
ENDROOT
BRANCH   1   8
ATOM      8  C1  UNL d   1      -1.279  -2.478   1.084  0.00  0.00     0.053 C 
ATOM      9  C   UNL d   1      -2.525  -2.805   1.893  0.00  0.00     0.018 C 
ENDBRANCH   1   8
TORSDOF 1
ENDMDL
