MODEL 1
REMARK minimizedAffinity -4.85525608
REMARK minimizedRMSD -1
REMARK  1 active torsions:
REMARK  status: ('A' for Active; 'I' for Inactive)
REMARK    1  A    between atoms: C1_2  and  C2_3 
ROOT
ATOM      1  C2  UNL d   1      -0.923  -0.756   0.692  0.00  0.00    -0.073 A 
ATOM      2  C3  UNL d   1       0.158  -1.596   0.983  0.00  0.00    -0.002 A 
ATOM      3  C4  UNL d   1       1.450  -1.241   0.595  0.00  0.00     0.004 A 
ATOM      4  C5  UNL d   1       1.676  -0.041  -0.081  0.00  0.00    -0.004 A 
ATOM      5  C6  UNL d   1       0.610   0.816  -0.370  0.00  0.00    -0.075 A 
ATOM      6  C7  UNL d   1       0.835   2.109  -1.099  0.00  0.00     0.076 C 
ATOM      7  C8  UNL d   1      -0.686   0.452   0.020  0.00  0.00     0.001 A 
ENDROOT
BRANCH   1   8
ATOM      8  C1  UNL d   1      -2.320  -1.132   1.115  0.00  0.00     0.053 C 
ATOM      9  C   UNL d   1      -2.980  -0.038   1.939  0.00  0.00     0.018 C 
ENDBRANCH   1   8
TORSDOF 1
ENDMDL
