MODEL 1
REMARK minimizedAffinity -5.1339097
REMARK minimizedRMSD -1
REMARK  1 active torsions:
REMARK  status: ('A' for Active; 'I' for Inactive)
REMARK    1  A    between atoms: C1_2  and  C2_3 
ROOT
ATOM      1  C2  UNL d   1       1.040   1.813  -1.312  0.00  0.00    -0.073 A 
ATOM      2  C3  UNL d   1       0.126   2.300  -2.254  0.00  0.00    -0.002 A 
ATOM      3  C4  UNL d   1       0.525   2.523  -3.573  0.00  0.00     0.004 A 
ATOM      4  C5  UNL d   1       1.837   2.256  -3.964  0.00  0.00    -0.004 A 
ATOM      5  C6  UNL d   1       2.761   1.757  -3.040  0.00  0.00    -0.075 A 
ATOM      6  C7  UNL d   1       4.177   1.466  -3.445  0.00  0.00     0.076 C 
ATOM      7  C8  UNL d   1       2.354   1.538  -1.717  0.00  0.00     0.001 A 
ENDROOT
BRANCH   1   8
ATOM      8  C1  UNL d   1       0.612   1.564   0.111  0.00  0.00     0.053 C 
ATOM      9  C   UNL d   1       0.400   0.085   0.392  0.00  0.00     0.018 C 
ENDBRANCH   1   8
TORSDOF 1
ENDMDL
