MODEL 1
REMARK minimizedAffinity -5.41221762
REMARK minimizedRMSD -1
REMARK  1 active torsions:
REMARK  status: ('A' for Active; 'I' for Inactive)
REMARK    1  A    between atoms: C1_2  and  C2_3 
ROOT
ATOM      1  C2  UNL d   1      -0.015  -0.509   0.375  0.00  0.00    -0.073 A 
ATOM      2  C3  UNL d   1      -0.122  -1.842   0.788  0.00  0.00    -0.002 A 
ATOM      3  C4  UNL d   1      -1.212  -2.258   1.553  0.00  0.00     0.004 A 
ATOM      4  C5  UNL d   1      -2.208  -1.348   1.907  0.00  0.00    -0.004 A 
ATOM      5  C6  UNL d   1      -2.126  -0.015   1.494  0.00  0.00    -0.075 A 
ATOM      6  C7  UNL d   1      -3.189   0.976   1.869  0.00  0.00     0.076 C 
ATOM      7  C8  UNL d   1      -1.027   0.396   0.728  0.00  0.00     0.001 A 
ENDROOT
BRANCH   1   8
ATOM      8  C1  UNL d   1       1.157  -0.057  -0.458  0.00  0.00     0.053 C 
ATOM      9  C   UNL d   1       1.052   1.411  -0.840  0.00  0.00     0.018 C 
ENDBRANCH   1   8
TORSDOF 1
ENDMDL
