MODEL 1
REMARK minimizedAffinity -2.2836616
REMARK minimizedRMSD -1
REMARK  1 active torsions:
REMARK  status: ('A' for Active; 'I' for Inactive)
REMARK    1  A    between atoms: C1_2  and  C2_3 
ROOT
ATOM      1  C2  UNL d   1       0.214   0.971   0.183  0.00  0.00    -0.073 A 
ATOM      2  C3  UNL d   1      -0.688   1.991   0.507  0.00  0.00    -0.002 A 
ATOM      3  C4  UNL d   1      -2.048   1.712   0.645  0.00  0.00     0.004 A 
ATOM      4  C5  UNL d   1      -2.519   0.411   0.468  0.00  0.00    -0.004 A 
ATOM      5  C6  UNL d   1      -1.632  -0.624   0.156  0.00  0.00    -0.075 A 
ATOM      6  C7  UNL d   1      -2.123  -2.029  -0.039  0.00  0.00     0.076 C 
ATOM      7  C8  UNL d   1      -0.268  -0.336   0.016  0.00  0.00     0.001 A 
ENDROOT
BRANCH   1   8
ATOM      8  C1  UNL d   1       1.685   1.266   0.039  0.00  0.00     0.053 C 
ATOM      9  C   UNL d   1       1.990   2.029  -1.240  0.00  0.00     0.018 C 
ENDBRANCH   1   8
TORSDOF 1
ENDMDL
