MODEL 1
REMARK minimizedAffinity -2.76966548
REMARK minimizedRMSD -1
REMARK  1 active torsions:
REMARK  status: ('A' for Active; 'I' for Inactive)
REMARK    1  A    between atoms: C1_2  and  C2_3 
ROOT
ATOM      1  C2  UNL d   1       0.358   0.110  -0.301  0.00  0.00    -0.073 A 
ATOM      2  C3  UNL d   1       1.492  -0.362   0.369  0.00  0.00    -0.002 A 
ATOM      3  C4  UNL d   1       1.435  -1.547   1.103  0.00  0.00     0.004 A 
ATOM      4  C5  UNL d   1       0.247  -2.275   1.170  0.00  0.00    -0.004 A 
ATOM      5  C6  UNL d   1      -0.894  -1.826   0.498  0.00  0.00    -0.075 A 
ATOM      6  C7  UNL d   1      -2.180  -2.596   0.562  0.00  0.00     0.076 C 
ATOM      7  C8  UNL d   1      -0.829  -0.634  -0.236  0.00  0.00     0.001 A 
ENDROOT
BRANCH   1   8
ATOM      8  C1  UNL d   1       0.416   1.385  -1.101  0.00  0.00     0.053 C 
ATOM      9  C   UNL d   1       1.614   1.417  -2.037  0.00  0.00     0.018 C 
ENDBRANCH   1   8
TORSDOF 1
ENDMDL
