MODEL 1
REMARK minimizedAffinity -3.68644357
REMARK minimizedRMSD -1
REMARK  1 active torsions:
REMARK  status: ('A' for Active; 'I' for Inactive)
REMARK    1  A    between atoms: C1_2  and  C2_3 
ROOT
ATOM      1  C2  UNL d   1      -1.207  -0.792   0.278  0.00  0.00    -0.073 A 
ATOM      2  C3  UNL d   1      -1.292   0.584   0.039  0.00  0.00    -0.002 A 
ATOM      3  C4  UNL d   1      -0.133   1.345  -0.118  0.00  0.00     0.004 A 
ATOM      4  C5  UNL d   1       1.121   0.738  -0.044  0.00  0.00    -0.004 A 
ATOM      5  C6  UNL d   1       1.226  -0.638   0.182  0.00  0.00    -0.075 A 
ATOM      6  C7  UNL d   1       2.567  -1.306   0.266  0.00  0.00     0.076 C 
ATOM      7  C8  UNL d   1       0.057  -1.395   0.341  0.00  0.00     0.001 A 
ENDROOT
BRANCH   1   8
ATOM      8  C1  UNL d   1      -2.456  -1.619   0.441  0.00  0.00     0.053 C 
ATOM      9  C   UNL d   1      -2.143  -3.096   0.619  0.00  0.00     0.018 C 
ENDBRANCH   1   8
TORSDOF 1
ENDMDL
