MODEL 1
REMARK minimizedAffinity -0.751714945
REMARK minimizedRMSD -1
REMARK  0 active torsions:
REMARK  status: ('A' for Active; 'I' for Inactive)
ROOT
ATOM      1  C   UNL d   1      -0.256   1.636   1.699  0.00  0.00    -0.002 A 
ATOM      2  C1  UNL d   1       0.880   1.062   2.251  0.00  0.00     0.010 A 
ATOM      3  C2  UNL d   1       1.609   0.106   1.542  0.00  0.00     0.041 A 
ATOM      4  C3  UNL d   1       1.174  -0.266   0.255  0.00  0.00    -0.075 A 
ATOM      5  S   UNL d   1       1.910  -1.416  -0.799  0.00  0.00     0.015 SA
ATOM      6  C4  UNL d   1       0.733  -1.171  -2.008  0.00  0.00     0.022 A 
ATOM      7  C5  UNL d   1      -0.205  -0.239  -1.633  0.00  0.00     0.026 A 
ATOM      8  C6  UNL d   1       0.034   0.298  -0.324  0.00  0.00    -0.082 A 
ATOM      9  C7  UNL d   1      -0.685   1.264   0.421  0.00  0.00     0.045 A 
ENDROOT
TORSDOF 0
ENDMDL
