MODEL 1
REMARK minimizedAffinity -3.97345567
REMARK minimizedRMSD -1
REMARK  0 active torsions:
REMARK  status: ('A' for Active; 'I' for Inactive)
ROOT
ATOM      1  C   UNL d   1       0.694   1.133  -4.407  0.00  0.00    -0.002 A 
ATOM      2  C1  UNL d   1       1.795   0.288  -4.392  0.00  0.00     0.010 A 
ATOM      3  C2  UNL d   1       2.046  -0.533  -3.291  0.00  0.00     0.041 A 
ATOM      4  C3  UNL d   1       1.162  -0.491  -2.195  0.00  0.00    -0.075 A 
ATOM      5  S   UNL d   1       1.268  -1.408  -0.738  0.00  0.00     0.015 SA
ATOM      6  C4  UNL d   1      -0.146  -0.700  -0.102  0.00  0.00     0.022 A 
ATOM      7  C5  UNL d   1      -0.698   0.215  -0.966  0.00  0.00     0.026 A 
ATOM      8  C6  UNL d   1       0.046   0.350  -2.187  0.00  0.00    -0.082 A 
ATOM      9  C7  UNL d   1      -0.180   1.171  -3.318  0.00  0.00     0.045 A 
ENDROOT
TORSDOF 0
ENDMDL
