MODEL 1
REMARK minimizedAffinity -0.124024108
REMARK minimizedRMSD -1
REMARK  0 active torsions:
REMARK  status: ('A' for Active; 'I' for Inactive)
ROOT
ATOM      1  C   UNL d   1      -2.028   0.557   2.891  0.00  0.00    -0.002 A 
ATOM      2  C1  UNL d   1      -0.867   1.255   3.195  0.00  0.00     0.010 A 
ATOM      3  C2  UNL d   1       0.145   1.398   2.244  0.00  0.00     0.041 A 
ATOM      4  C3  UNL d   1      -0.031   0.824   0.969  0.00  0.00    -0.075 A 
ATOM      5  S   UNL d   1       1.073   0.872  -0.354  0.00  0.00     0.015 SA
ATOM      6  C4  UNL d   1       0.030  -0.031  -1.354  0.00  0.00     0.022 A 
ATOM      7  C5  UNL d   1      -1.137  -0.370  -0.710  0.00  0.00     0.026 A 
ATOM      8  C6  UNL d   1      -1.191   0.118   0.639  0.00  0.00    -0.082 A 
ATOM      9  C7  UNL d   1      -2.199  -0.010   1.625  0.00  0.00     0.045 A 
ENDROOT
TORSDOF 0
ENDMDL
