MODEL 1
REMARK minimizedAffinity -3.40705609
REMARK minimizedRMSD -1
REMARK  0 active torsions:
REMARK  status: ('A' for Active; 'I' for Inactive)
ROOT
ATOM      1  C   UNL d   1      -1.132   1.558   2.699  0.00  0.00    -0.002 A 
ATOM      2  C1  UNL d   1       0.248   1.699   2.677  0.00  0.00     0.010 A 
ATOM      3  C2  UNL d   1       1.012   1.055   1.701  0.00  0.00     0.041 A 
ATOM      4  C3  UNL d   1       0.359   0.261   0.738  0.00  0.00    -0.075 A 
ATOM      5  S   UNL d   1       1.089  -0.620  -0.551  0.00  0.00     0.015 SA
ATOM      6  C4  UNL d   1      -0.414  -1.204  -1.103  0.00  0.00     0.022 A 
ATOM      7  C5  UNL d   1      -1.458  -0.748  -0.334  0.00  0.00     0.026 A 
ATOM      8  C6  UNL d   1      -1.030   0.105   0.740  0.00  0.00    -0.082 A 
ATOM      9  C7  UNL d   1      -1.776   0.770   1.742  0.00  0.00     0.045 A 
ENDROOT
TORSDOF 0
ENDMDL
