MODEL 1
REMARK minimizedAffinity -4.43603706
REMARK minimizedRMSD -1
REMARK  0 active torsions:
REMARK  status: ('A' for Active; 'I' for Inactive)
ROOT
ATOM      1  C   UNL d   1      -0.803   1.064   3.272  0.00  0.00    -0.002 A 
ATOM      2  C1  UNL d   1       0.573   0.958   3.423  0.00  0.00     0.010 A 
ATOM      3  C2  UNL d   1       1.369   0.499   2.373  0.00  0.00     0.041 A 
ATOM      4  C3  UNL d   1       0.755   0.146   1.155  0.00  0.00    -0.075 A 
ATOM      5  S   UNL d   1       1.530  -0.440  -0.269  0.00  0.00     0.015 SA
ATOM      6  C4  UNL d   1       0.054  -0.563  -1.112  0.00  0.00     0.022 A 
ATOM      7  C5  UNL d   1      -1.014  -0.170  -0.341  0.00  0.00     0.026 A 
ATOM      8  C6  UNL d   1      -0.628   0.245   0.978  0.00  0.00    -0.082 A 
ATOM      9  C7  UNL d   1      -1.409   0.713   2.062  0.00  0.00     0.045 A 
ENDROOT
TORSDOF 0
ENDMDL
