MODEL 1
REMARK minimizedAffinity -3.08330536
REMARK minimizedRMSD -1
REMARK  0 active torsions:
REMARK  status: ('A' for Active; 'I' for Inactive)
ROOT
ATOM      1  C   UNL d   1      -3.033   2.513  -3.836  0.00  0.00     0.078 C 
ATOM      2  C1  UNL d   1      -3.327   1.094  -4.223  0.00  0.00    -0.077 A 
ATOM      3  C2  UNL d   1      -2.930   0.590  -5.467  0.00  0.00    -0.001 A 
ATOM      4  C3  UNL d   1      -3.218  -0.730  -5.818  0.00  0.00     0.003 A 
ATOM      5  C4  UNL d   1      -3.906  -1.556  -4.931  0.00  0.00    -0.005 A 
ATOM      6  C5  UNL d   1      -4.307  -1.062  -3.691  0.00  0.00     0.003 A 
ATOM      7  C6  UNL d   1      -4.019   0.258  -3.339  0.00  0.00    -0.001 A 
ENDROOT
TORSDOF 0
ENDMDL
