MODEL 1
REMARK minimizedAffinity -3.35970378
REMARK minimizedRMSD -1
REMARK  0 active torsions:
REMARK  status: ('A' for Active; 'I' for Inactive)
ROOT
ATOM      1  C   UNL d   1      -2.164  -1.030  -2.989  0.00  0.00     0.078 C 
ATOM      2  C1  UNL d   1      -3.166  -0.544  -3.992  0.00  0.00    -0.077 A 
ATOM      3  C2  UNL d   1      -2.773   0.251  -5.076  0.00  0.00    -0.001 A 
ATOM      4  C3  UNL d   1      -3.719   0.704  -5.998  0.00  0.00     0.003 A 
ATOM      5  C4  UNL d   1      -5.062   0.370  -5.844  0.00  0.00    -0.005 A 
ATOM      6  C5  UNL d   1      -5.463  -0.418  -4.767  0.00  0.00     0.003 A 
ATOM      7  C6  UNL d   1      -4.519  -0.873  -3.845  0.00  0.00    -0.001 A 
ENDROOT
TORSDOF 0
ENDMDL
