MODEL 1
REMARK minimizedAffinity 7.0294261
REMARK minimizedRMSD -1
REMARK  0 active torsions:
REMARK  status: ('A' for Active; 'I' for Inactive)
ROOT
ATOM      1  C   UNL d   1       2.314  -2.548   0.435  0.00  0.00     0.078 C 
ATOM      2  C1  UNL d   1       2.536  -1.092   0.149  0.00  0.00    -0.077 A 
ATOM      3  C2  UNL d   1       3.812  -0.604  -0.157  0.00  0.00    -0.001 A 
ATOM      4  C3  UNL d   1       4.006   0.755  -0.411  0.00  0.00     0.003 A 
ATOM      5  C4  UNL d   1       2.928   1.636  -0.361  0.00  0.00    -0.005 A 
ATOM      6  C5  UNL d   1       1.655   1.160  -0.055  0.00  0.00     0.003 A 
ATOM      7  C6  UNL d   1       1.459  -0.198   0.200  0.00  0.00    -0.001 A 
ENDROOT
TORSDOF 0
ENDMDL
