MODEL 1
REMARK minimizedAffinity -1.76001704
REMARK minimizedRMSD -1
REMARK  0 active torsions:
REMARK  status: ('A' for Active; 'I' for Inactive)
ROOT
ATOM      1  C   UNL d   1      -4.869   0.742  -6.000  0.00  0.00     0.078 C 
ATOM      2  C1  UNL d   1      -4.388  -0.093  -4.850  0.00  0.00    -0.077 A 
ATOM      3  C2  UNL d   1      -3.036  -0.109  -4.487  0.00  0.00    -0.001 A 
ATOM      4  C3  UNL d   1      -2.602  -0.898  -3.421  0.00  0.00     0.003 A 
ATOM      5  C4  UNL d   1      -3.513  -1.677  -2.710  0.00  0.00    -0.005 A 
ATOM      6  C5  UNL d   1      -4.860  -1.669  -3.066  0.00  0.00     0.003 A 
ATOM      7  C6  UNL d   1      -5.296  -0.880  -4.132  0.00  0.00    -0.001 A 
ENDROOT
TORSDOF 0
ENDMDL
