MODEL 1
REMARK minimizedAffinity -0.970875144
REMARK minimizedRMSD -1
REMARK  0 active torsions:
REMARK  status: ('A' for Active; 'I' for Inactive)
ROOT
ATOM      1  C   UNL d   1       3.406   0.900  -0.369  0.00  0.00     0.078 C 
ATOM      2  C1  UNL d   1       3.409  -0.550   0.014  0.00  0.00    -0.077 A 
ATOM      3  C2  UNL d   1       2.220  -1.289   0.045  0.00  0.00    -0.001 A 
ATOM      4  C3  UNL d   1       2.236  -2.636   0.413  0.00  0.00     0.003 A 
ATOM      5  C4  UNL d   1       3.438  -3.254   0.754  0.00  0.00    -0.005 A 
ATOM      6  C5  UNL d   1       4.625  -2.526   0.727  0.00  0.00     0.003 A 
ATOM      7  C6  UNL d   1       4.611  -1.179   0.359  0.00  0.00    -0.001 A 
ENDROOT
TORSDOF 0
ENDMDL
