MODEL 1
REMARK minimizedAffinity -1.88842654
REMARK minimizedRMSD -1
REMARK  0 active torsions:
REMARK  status: ('A' for Active; 'I' for Inactive)
ROOT
ATOM      1  C   UNL d   1      -3.874  -0.808  -3.095  0.00  0.00     0.078 C 
ATOM      2  C1  UNL d   1      -3.717   0.529  -3.755  0.00  0.00    -0.077 A 
ATOM      3  C2  UNL d   1      -3.644   0.642  -5.149  0.00  0.00    -0.001 A 
ATOM      4  C3  UNL d   1      -3.487   1.892  -5.749  0.00  0.00     0.003 A 
ATOM      5  C4  UNL d   1      -3.402   3.040  -4.963  0.00  0.00    -0.005 A 
ATOM      6  C5  UNL d   1      -3.472   2.937  -3.575  0.00  0.00     0.003 A 
ATOM      7  C6  UNL d   1      -3.628   1.688  -2.973  0.00  0.00    -0.001 A 
ENDROOT
TORSDOF 0
ENDMDL
