MODEL 1
REMARK minimizedAffinity -3.19962978
REMARK minimizedRMSD -1
REMARK  0 active torsions:
REMARK  status: ('A' for Active; 'I' for Inactive)
ROOT
ATOM      1  C   UNL d   1      -1.848   0.468  -6.000  0.00  0.00     0.078 C 
ATOM      2  C1  UNL d   1      -3.018  -0.023  -5.200  0.00  0.00    -0.077 A 
ATOM      3  C2  UNL d   1      -4.325   0.360  -5.525  0.00  0.00    -0.001 A 
ATOM      4  C3  UNL d   1      -5.403  -0.097  -4.766  0.00  0.00     0.003 A 
ATOM      5  C4  UNL d   1      -5.186  -0.938  -3.676  0.00  0.00    -0.005 A 
ATOM      6  C5  UNL d   1      -3.888  -1.323  -3.344  0.00  0.00     0.003 A 
ATOM      7  C6  UNL d   1      -2.809  -0.867  -4.102  0.00  0.00    -0.001 A 
ENDROOT
TORSDOF 0
ENDMDL
