MODEL 1
REMARK minimizedAffinity -3.61984825
REMARK minimizedRMSD -1
REMARK  0 active torsions:
REMARK  status: ('A' for Active; 'I' for Inactive)
ROOT
ATOM      1  C   UNL d   1      -3.646  -1.388  -2.324  0.00  0.00     0.078 C 
ATOM      2  C1  UNL d   1      -3.785  -0.571  -3.574  0.00  0.00    -0.077 A 
ATOM      3  C2  UNL d   1      -4.992   0.064  -3.890  0.00  0.00    -0.001 A 
ATOM      4  C3  UNL d   1      -5.110   0.813  -5.062  0.00  0.00     0.003 A 
ATOM      5  C4  UNL d   1      -4.025   0.933  -5.928  0.00  0.00    -0.005 A 
ATOM      6  C5  UNL d   1      -2.820   0.302  -5.623  0.00  0.00     0.003 A 
ATOM      7  C6  UNL d   1      -2.701  -0.447  -4.452  0.00  0.00    -0.001 A 
ENDROOT
TORSDOF 0
ENDMDL
