MODEL 1
REMARK minimizedAffinity -3.51852131
REMARK minimizedRMSD -1
REMARK  0 active torsions:
REMARK  status: ('A' for Active; 'I' for Inactive)
ROOT
ATOM      1  N1  IND d   1      -1.548   0.227  -0.206  0.00  0.00    -0.196 N 
ATOM      2  C2  IND d   1      -1.272   1.342  -0.947  0.00  0.00     0.054 A 
ATOM      3  C3  IND d   1       0.063   1.542  -1.017  0.00  0.00    -0.031 A 
ATOM      4  C4  IND d   1       1.983   0.109  -0.076  0.00  0.00     0.051 A 
ATOM      5  C5  IND d   1       2.227  -0.986   0.705  0.00  0.00    -0.031 A 
ATOM      6  C6  IND d   1       1.205  -1.750   1.230  0.00  0.00     0.015 A 
ATOM      7  C7  IND d   1      -0.105  -1.452   0.984  0.00  0.00    -0.016 A 
ATOM      8  C8  IND d   1      -0.357  -0.337   0.198  0.00  0.00    -0.047 A 
ATOM      9  C9  IND d   1       0.675   0.467  -0.303  0.00  0.00    -0.096 A 
ATOM     10  HN1 IND d   1      -2.333  -0.072  -0.022  0.00  0.00     0.298 HD
ENDROOT
TORSDOF 0
ENDMDL
