MODEL 1
REMARK minimizedAffinity -1.60231137
REMARK minimizedRMSD -1
REMARK  0 active torsions:
REMARK  status: ('A' for Active; 'I' for Inactive)
ROOT
ATOM      1  N1  IND d   1       0.615   0.785  -0.619  0.00  0.00    -0.196 N 
ATOM      2  C2  IND d   1      -0.731   1.015  -0.674  0.00  0.00     0.054 A 
ATOM      3  C3  IND d   1      -1.411  -0.054  -0.201  0.00  0.00    -0.031 A 
ATOM      4  C4  IND d   1      -0.514  -2.246   0.808  0.00  0.00     0.051 A 
ATOM      5  C5  IND d   1       0.647  -2.931   1.037  0.00  0.00    -0.031 A 
ATOM      6  C6  IND d   1       1.881  -2.400   0.722  0.00  0.00     0.015 A 
ATOM      7  C7  IND d   1       2.002  -1.154   0.174  0.00  0.00    -0.016 A 
ATOM      8  C8  IND d   1       0.825  -0.459  -0.066  0.00  0.00    -0.047 A 
ATOM      9  C9  IND d   1      -0.432  -1.010   0.212  0.00  0.00    -0.096 A 
ATOM     10  HN1 IND d   1       1.228   1.327  -0.885  0.00  0.00     0.298 HD
ENDROOT
TORSDOF 0
ENDMDL
