MODEL 1
REMARK minimizedAffinity -1.51974297
REMARK minimizedRMSD -1
REMARK  0 active torsions:
REMARK  status: ('A' for Active; 'I' for Inactive)
ROOT
ATOM      1  N1  IND d   1       1.647  -0.364  -0.661  0.00  0.00    -0.196 N 
ATOM      2  C2  IND d   1       2.128  -1.466  -0.009  0.00  0.00     0.054 A 
ATOM      3  C3  IND d   1       1.304  -1.806   1.008  0.00  0.00    -0.031 A 
ATOM      4  C4  IND d   1      -0.938  -0.759   1.718  0.00  0.00     0.051 A 
ATOM      5  C5  IND d   1      -1.770   0.290   1.447  0.00  0.00    -0.031 A 
ATOM      6  C6  IND d   1      -1.503   1.191   0.437  0.00  0.00     0.015 A 
ATOM      7  C7  IND d   1      -0.393   1.070  -0.350  0.00  0.00    -0.016 A 
ATOM      8  C8  IND d   1       0.459   0.010  -0.073  0.00  0.00    -0.047 A 
ATOM      9  C9  IND d   1       0.214  -0.884   0.978  0.00  0.00    -0.096 A 
ATOM     10  HN1 IND d   1       2.024   0.028  -1.327  0.00  0.00     0.298 HD
ENDROOT
TORSDOF 0
ENDMDL
