MODEL 1
REMARK minimizedAffinity -2.75958896
REMARK minimizedRMSD -1
REMARK  0 active torsions:
REMARK  status: ('A' for Active; 'I' for Inactive)
ROOT
ATOM      1  N1  IND d   1       0.243   1.233  -0.397  0.00  0.00    -0.196 N 
ATOM      2  C2  IND d   1      -1.082   1.344  -0.081  0.00  0.00     0.054 A 
ATOM      3  C3  IND d   1      -1.527   0.200   0.487  0.00  0.00    -0.031 A 
ATOM      4  C4  IND d   1      -0.229  -1.941   1.085  0.00  0.00     0.051 A 
ATOM      5  C5  IND d   1       0.998  -2.528   0.957  0.00  0.00    -0.031 A 
ATOM      6  C6  IND d   1       2.059  -1.877   0.362  0.00  0.00     0.015 A 
ATOM      7  C7  IND d   1       1.934  -0.605  -0.120  0.00  0.00    -0.016 A 
ATOM      8  C8  IND d   1       0.687  -0.008   0.002  0.00  0.00    -0.047 A 
ATOM      9  C9  IND d   1      -0.404  -0.680   0.567  0.00  0.00    -0.096 A 
ATOM     10  HN1 IND d   1       0.720   1.838  -0.780  0.00  0.00     0.298 HD
ENDROOT
TORSDOF 0
ENDMDL
