MODEL 1
REMARK minimizedAffinity -4.50334644
REMARK minimizedRMSD -1
REMARK  0 active torsions:
REMARK  status: ('A' for Active; 'I' for Inactive)
ROOT
ATOM      1  N1  IND d   1      -0.998  -0.662   1.244  0.00  0.00    -0.196 N 
ATOM      2  C2  IND d   1      -1.436   0.495   0.662  0.00  0.00     0.054 A 
ATOM      3  C3  IND d   1      -0.489   0.994  -0.163  0.00  0.00    -0.031 A 
ATOM      4  C4  IND d   1       1.812   0.025  -0.789  0.00  0.00     0.051 A 
ATOM      5  C5  IND d   1       2.670  -0.995  -0.486  0.00  0.00    -0.031 A 
ATOM      6  C6  IND d   1       2.342  -1.977   0.426  0.00  0.00     0.015 A 
ATOM      7  C7  IND d   1       1.133  -1.983   1.062  0.00  0.00    -0.016 A 
ATOM      8  C8  IND d   1       0.262  -0.945   0.762  0.00  0.00    -0.047 A 
ATOM      9  C9  IND d   1       0.607   0.079  -0.130  0.00  0.00    -0.096 A 
ATOM     10  HN1 IND d   1      -1.435  -1.134   1.814  0.00  0.00     0.298 HD
ENDROOT
TORSDOF 0
ENDMDL
