MODEL 1
REMARK minimizedAffinity 3.49024367
REMARK minimizedRMSD -1
REMARK  0 active torsions:
REMARK  status: ('A' for Active; 'I' for Inactive)
ROOT
ATOM      1  N1  IND d   1      -0.403   0.988  -0.004  0.00  0.00    -0.196 N 
ATOM      2  C2  IND d   1      -0.055   1.032  -1.325  0.00  0.00     0.054 A 
ATOM      3  C3  IND d   1      -0.107  -0.206  -1.866  0.00  0.00    -0.031 A 
ATOM      4  C4  IND d   1      -0.833  -2.430  -0.794  0.00  0.00     0.051 A 
ATOM      5  C5  IND d   1      -1.203  -2.980   0.402  0.00  0.00    -0.031 A 
ATOM      6  C6  IND d   1      -1.331  -2.219   1.546  0.00  0.00     0.015 A 
ATOM      7  C7  IND d   1      -1.102  -0.872   1.534  0.00  0.00    -0.016 A 
ATOM      8  C8  IND d   1      -0.720  -0.312   0.323  0.00  0.00    -0.047 A 
ATOM      9  C9  IND d   1      -0.548  -1.086  -0.831  0.00  0.00    -0.096 A 
ATOM     10  HN1 IND d   1      -0.420   1.660   0.533  0.00  0.00     0.298 HD
ENDROOT
TORSDOF 0
ENDMDL
