MODEL 1
REMARK minimizedAffinity -2.7619555
REMARK minimizedRMSD -1
REMARK  0 active torsions:
REMARK  status: ('A' for Active; 'I' for Inactive)
ROOT
ATOM      1  N1  IND d   1      -1.268  -0.076  -0.438  0.00  0.00    -0.196 N 
ATOM      2  C2  IND d   1      -0.911   0.996  -1.207  0.00  0.00     0.054 A 
ATOM      3  C3  IND d   1       0.431   1.158  -1.195  0.00  0.00    -0.031 A 
ATOM      4  C4  IND d   1       2.241  -0.281  -0.063  0.00  0.00     0.051 A 
ATOM      5  C5  IND d   1       2.401  -1.345   0.779  0.00  0.00    -0.031 A 
ATOM      6  C6  IND d   1       1.324  -2.057   1.267  0.00  0.00     0.015 A 
ATOM      7  C7  IND d   1       0.042  -1.736   0.919  0.00  0.00    -0.016 A 
ATOM      8  C8  IND d   1      -0.124  -0.652   0.069  0.00  0.00    -0.047 A 
ATOM      9  C9  IND d   1       0.963   0.100  -0.395  0.00  0.00    -0.096 A 
ATOM     10  HN1 IND d   1      -2.072  -0.346  -0.295  0.00  0.00     0.298 HD
ENDROOT
TORSDOF 0
ENDMDL
