MODEL 1
REMARK minimizedAffinity -4.88485146
REMARK minimizedRMSD -1
REMARK  0 active torsions:
REMARK  status: ('A' for Active; 'I' for Inactive)
ROOT
ATOM      1  N1  IND d   1       0.075  -2.546   0.912  0.00  0.00    -0.196 N 
ATOM      2  C2  IND d   1       1.412  -2.833   0.893  0.00  0.00     0.054 A 
ATOM      3  C3  IND d   1       2.103  -1.817   0.331  0.00  0.00    -0.031 A 
ATOM      4  C4  IND d   1       1.257   0.456  -0.534  0.00  0.00     0.051 A 
ATOM      5  C5  IND d   1       0.109   1.162  -0.760  0.00  0.00    -0.031 A 
ATOM      6  C6  IND d   1      -1.133   0.660  -0.432  0.00  0.00     0.015 A 
ATOM      7  C7  IND d   1      -1.274  -0.569   0.149  0.00  0.00    -0.016 A 
ATOM      8  C8  IND d   1      -0.111  -1.292   0.374  0.00  0.00    -0.047 A 
ATOM      9  C9  IND d   1       1.149  -0.805   0.003  0.00  0.00    -0.096 A 
ATOM     10  HN1 IND d   1      -0.545  -3.062   1.210  0.00  0.00     0.298 HD
ENDROOT
TORSDOF 0
ENDMDL
