MODEL 1
REMARK minimizedAffinity -3.41034055
REMARK minimizedRMSD -1
REMARK  0 active torsions:
REMARK  status: ('A' for Active; 'I' for Inactive)
ROOT
ATOM      1  N1  IND d   1      -1.419   0.076   0.359  0.00  0.00    -0.196 N 
ATOM      2  C2  IND d   1      -1.260   1.266  -0.295  0.00  0.00     0.054 A 
ATOM      3  C3  IND d   1       0.022   1.413  -0.699  0.00  0.00    -0.031 A 
ATOM      4  C4  IND d   1       2.001  -0.219  -0.484  0.00  0.00     0.051 A 
ATOM      5  C5  IND d   1       2.354  -1.418   0.069  0.00  0.00    -0.031 A 
ATOM      6  C6  IND d   1       1.447  -2.197   0.759  0.00  0.00     0.015 A 
ATOM      7  C7  IND d   1       0.146  -1.810   0.912  0.00  0.00    -0.016 A 
ATOM      8  C8  IND d   1      -0.213  -0.590   0.358  0.00  0.00    -0.047 A 
ATOM      9  C9  IND d   1       0.712   0.225  -0.306  0.00  0.00    -0.096 A 
ATOM     10  HN1 IND d   1      -2.150  -0.208   0.712  0.00  0.00     0.298 HD
ENDROOT
TORSDOF 0
ENDMDL
