MODEL 1
REMARK minimizedAffinity -3.99806809
REMARK minimizedRMSD -1
REMARK  0 active torsions:
REMARK  status: ('A' for Active; 'I' for Inactive)
ROOT
ATOM      1  N1  IND d   1      -1.980   0.738  -0.460  0.00  0.00    -0.196 N 
ATOM      2  C2  IND d   1      -1.826   1.706  -1.413  0.00  0.00     0.054 A 
ATOM      3  C3  IND d   1      -0.527   1.807  -1.775  0.00  0.00    -0.031 A 
ATOM      4  C4  IND d   1       1.498   0.415  -1.007  0.00  0.00     0.051 A 
ATOM      5  C5  IND d   1       1.861  -0.561  -0.121  0.00  0.00    -0.031 A 
ATOM      6  C6  IND d   1       0.943  -1.168   0.711  0.00  0.00     0.015 A 
ATOM      7  C7  IND d   1      -0.380  -0.828   0.681  0.00  0.00    -0.016 A 
ATOM      8  C8  IND d   1      -0.751   0.168  -0.212  0.00  0.00    -0.047 A 
ATOM      9  C9  IND d   1       0.183   0.817  -1.029  0.00  0.00    -0.096 A 
ATOM     10  HN1 IND d   1      -2.720   0.522  -0.080  0.00  0.00     0.298 HD
ENDROOT
TORSDOF 0
ENDMDL
