MODEL 1
REMARK minimizedAffinity -6.9060173
REMARK minimizedRMSD -1
REMARK  0 active torsions:
REMARK  status: ('A' for Active; 'I' for Inactive)
ROOT
ATOM      1  N1  IND d   1      -0.189  -0.214   0.548  0.00  0.00    -0.196 N 
ATOM      2  C2  IND d   1       0.880  -0.378  -0.288  0.00  0.00     0.054 A 
ATOM      3  C3  IND d   1       1.573  -1.489   0.046  0.00  0.00    -0.031 A 
ATOM      4  C4  IND d   1       1.076  -3.242   1.865  0.00  0.00     0.051 A 
ATOM      5  C5  IND d   1       0.229  -3.504   2.905  0.00  0.00    -0.031 A 
ATOM      6  C6  IND d   1      -0.823  -2.668   3.217  0.00  0.00     0.015 A 
ATOM      7  C7  IND d   1      -1.076  -1.539   2.490  0.00  0.00    -0.016 A 
ATOM      8  C8  IND d   1      -0.214  -1.266   1.438  0.00  0.00    -0.047 A 
ATOM      9  C9  IND d   1       0.881  -2.088   1.143  0.00  0.00    -0.096 A 
ATOM     10  HN1 IND d   1      -0.751   0.436   0.523  0.00  0.00     0.298 HD
ENDROOT
TORSDOF 0
ENDMDL
