MODEL 1
REMARK minimizedAffinity -4.11545849
REMARK minimizedRMSD -1
REMARK  0 active torsions:
REMARK  status: ('A' for Active; 'I' for Inactive)
ROOT
ATOM      1  N1  IND d   1      -1.480  -0.388  -0.936  0.00  0.00    -0.196 N 
ATOM      2  C2  IND d   1      -1.439   0.978  -0.899  0.00  0.00     0.054 A 
ATOM      3  C3  IND d   1      -0.256   1.399  -0.397  0.00  0.00    -0.031 A 
ATOM      4  C4  IND d   1       1.795   0.024   0.330  0.00  0.00     0.051 A 
ATOM      5  C5  IND d   1       2.220  -1.262   0.513  0.00  0.00    -0.031 A 
ATOM      6  C6  IND d   1       1.418  -2.344   0.214  0.00  0.00     0.015 A 
ATOM      7  C7  IND d   1       0.160  -2.180  -0.292  0.00  0.00    -0.016 A 
ATOM      8  C8  IND d   1      -0.277  -0.876  -0.473  0.00  0.00    -0.047 A 
ATOM      9  C9  IND d   1       0.516   0.227  -0.131  0.00  0.00    -0.096 A 
ATOM     10  HN1 IND d   1      -2.145  -0.863  -1.203  0.00  0.00     0.298 HD
ENDROOT
TORSDOF 0
ENDMDL
