MODEL 1
REMARK minimizedAffinity -1.6689204
REMARK minimizedRMSD -1
REMARK  1 active torsions:
REMARK  status: ('A' for Active; 'I' for Inactive)
REMARK    1  A    between atoms: C1_2  and  C2_3 
ROOT
ATOM      1  C2  UNL d   1      -0.672   0.622  -0.903  0.00  0.00    -0.081 A 
ATOM      2  C3  UNL d   1       0.331  -0.353  -0.956  0.00  0.00     0.006 A 
ATOM      3  C4  UNL d   1       0.739  -1.013   0.206  0.00  0.00     0.002 A 
ATOM      4  C5  UNL d   1       0.146  -0.716   1.437  0.00  0.00    -0.080 A 
ATOM      5  C6  UNL d   1       0.553  -1.439   2.686  0.00  0.00     0.076 C 
ATOM      6  C7  UNL d   1      -0.845   0.271   1.493  0.00  0.00     0.002 A 
ATOM      7  C8  UNL d   1      -1.253   0.932   0.332  0.00  0.00     0.006 A 
ENDROOT
BRANCH   1   8
ATOM      8  C1  UNL d   1      -1.160   1.290  -2.163  0.00  0.00     0.054 C 
ATOM      9  C   UNL d   1      -0.354   2.543  -2.472  0.00  0.00     0.018 C 
ENDBRANCH   1   8
TORSDOF 1
ENDMDL
