MODEL 1
REMARK minimizedAffinity 0.23985444
REMARK minimizedRMSD -1
REMARK  1 active torsions:
REMARK  status: ('A' for Active; 'I' for Inactive)
REMARK    1  A    between atoms: C1_2  and  C2_3 
ROOT
ATOM      1  C2  UNL d   1      -0.893   0.889  -0.964  0.00  0.00    -0.081 A 
ATOM      2  C3  UNL d   1      -1.710   0.666   0.152  0.00  0.00     0.006 A 
ATOM      3  C4  UNL d   1      -1.246  -0.092   1.229  0.00  0.00     0.002 A 
ATOM      4  C5  UNL d   1       0.044  -0.634   1.212  0.00  0.00    -0.080 A 
ATOM      5  C6  UNL d   1       0.565  -1.425   2.375  0.00  0.00     0.076 C 
ATOM      6  C7  UNL d   1       0.854  -0.427   0.090  0.00  0.00     0.002 A 
ATOM      7  C8  UNL d   1       0.390   0.331  -0.987  0.00  0.00     0.006 A 
ENDROOT
BRANCH   1   8
ATOM      8  C1  UNL d   1      -1.367   1.761  -2.099  0.00  0.00     0.054 C 
ATOM      9  C   UNL d   1      -0.483   2.990  -2.258  0.00  0.00     0.018 C 
ENDBRANCH   1   8
TORSDOF 1
ENDMDL
