MODEL 1
REMARK minimizedAffinity 5.16401291
REMARK minimizedRMSD -1
REMARK  1 active torsions:
REMARK  status: ('A' for Active; 'I' for Inactive)
REMARK    1  A    between atoms: C1_2  and  C2_3 
ROOT
ATOM      1  C2  UNL d   1       4.128  -0.541  -3.757  0.00  0.00    -0.077 A 
ATOM      2  C3  UNL d   1       3.367   0.367  -4.507  0.00  0.00     0.002 A 
ATOM      3  C4  UNL d   1       3.919   1.000  -5.621  0.00  0.00     0.002 A 
ATOM      4  C5  UNL d   1       5.233   0.730  -5.998  0.00  0.00    -0.004 A 
ATOM      5  C6  UNL d   1       5.999  -0.169  -5.257  0.00  0.00     0.002 A 
ATOM      6  C7  UNL d   1       5.449  -0.802  -4.142  0.00  0.00     0.002 A 
ENDROOT
BRANCH   1   7
ATOM      7  C1  UNL d   1       3.518  -1.262  -2.583  0.00  0.00     0.055 C 
ATOM      8  C   UNL d   1       2.893  -2.582  -3.009  0.00  0.00     0.019 C 
ENDBRANCH   1   7
TORSDOF 1
ENDMDL
