MODEL 1
REMARK minimizedAffinity 1.12200284
REMARK minimizedRMSD -1
REMARK  1 active torsions:
REMARK  status: ('A' for Active; 'I' for Inactive)
REMARK    1  A    between atoms: C1_2  and  C2_3 
ROOT
ATOM      1  C2  UNL d   1      -4.891  -4.745  -3.486  0.00  0.00    -0.077 A 
ATOM      2  C3  UNL d   1      -4.905  -3.367  -3.746  0.00  0.00     0.002 A 
ATOM      3  C4  UNL d   1      -5.293  -2.889  -4.999  0.00  0.00     0.002 A 
ATOM      4  C5  UNL d   1      -5.674  -3.780  -6.000  0.00  0.00    -0.004 A 
ATOM      5  C6  UNL d   1      -5.661  -5.152  -5.752  0.00  0.00     0.002 A 
ATOM      6  C7  UNL d   1      -5.273  -5.632  -4.500  0.00  0.00     0.002 A 
ENDROOT
BRANCH   1   7
ATOM      7  C1  UNL d   1      -4.521  -5.260  -2.120  0.00  0.00     0.055 C 
ATOM      8  C   UNL d   1      -5.350  -4.593  -1.033  0.00  0.00     0.019 C 
ENDBRANCH   1   7
TORSDOF 1
ENDMDL
