MODEL 1
REMARK minimizedAffinity 2.60910869
REMARK minimizedRMSD -1
REMARK  1 active torsions:
REMARK  status: ('A' for Active; 'I' for Inactive)
REMARK    1  A    between atoms: C1_2  and  C2_3 
ROOT
ATOM      1  C2  UNL d   1      -4.876  -4.544  -3.547  0.00  0.00    -0.077 A 
ATOM      2  C3  UNL d   1      -4.883  -5.318  -4.716  0.00  0.00     0.002 A 
ATOM      3  C4  UNL d   1      -5.254  -4.750  -5.937  0.00  0.00     0.002 A 
ATOM      4  C5  UNL d   1      -5.617  -3.406  -6.000  0.00  0.00    -0.004 A 
ATOM      5  C6  UNL d   1      -5.616  -2.629  -4.842  0.00  0.00     0.002 A 
ATOM      6  C7  UNL d   1      -5.246  -3.195  -3.621  0.00  0.00     0.002 A 
ENDROOT
BRANCH   1   7
ATOM      7  C1  UNL d   1      -4.429  -5.142  -2.239  0.00  0.00     0.055 C 
ATOM      8  C   UNL d   1      -4.502  -4.123  -1.111  0.00  0.00     0.019 C 
ENDBRANCH   1   7
TORSDOF 1
ENDMDL
