MODEL 1
REMARK minimizedAffinity 1.02763009
REMARK minimizedRMSD -1
REMARK  1 active torsions:
REMARK  status: ('A' for Active; 'I' for Inactive)
REMARK    1  A    between atoms: C1_2  and  C2_3 
ROOT
ATOM      1  C2  UNL d   1       2.407   0.747   0.838  0.00  0.00    -0.077 A 
ATOM      2  C3  UNL d   1       1.296   1.371   0.253  0.00  0.00     0.002 A 
ATOM      3  C4  UNL d   1       1.450   2.558  -0.466  0.00  0.00     0.002 A 
ATOM      4  C5  UNL d   1       2.713   3.128  -0.610  0.00  0.00    -0.004 A 
ATOM      5  C6  UNL d   1       3.824   2.516  -0.031  0.00  0.00     0.002 A 
ATOM      6  C7  UNL d   1       3.672   1.330   0.689  0.00  0.00     0.002 A 
ENDROOT
BRANCH   1   7
ATOM      7  C1  UNL d   1       2.250  -0.560   1.572  0.00  0.00     0.055 C 
ATOM      8  C   UNL d   1       1.070  -1.358   1.035  0.00  0.00     0.019 C 
ENDBRANCH   1   7
TORSDOF 1
ENDMDL
