MODEL 1
REMARK minimizedAffinity -0.105293676
REMARK minimizedRMSD -1
REMARK  1 active torsions:
REMARK  status: ('A' for Active; 'I' for Inactive)
REMARK    1  A    between atoms: C1_2  and  C2_3 
ROOT
ATOM      1  C2  UNL d   1       1.853  -0.907   1.763  0.00  0.00    -0.077 A 
ATOM      2  C3  UNL d   1       2.754   0.081   1.342  0.00  0.00     0.002 A 
ATOM      3  C4  UNL d   1       2.290   1.239   0.716  0.00  0.00     0.002 A 
ATOM      4  C5  UNL d   1       0.925   1.422   0.509  0.00  0.00    -0.004 A 
ATOM      5  C6  UNL d   1       0.021   0.445   0.922  0.00  0.00     0.002 A 
ATOM      6  C7  UNL d   1       0.483  -0.714   1.547  0.00  0.00     0.002 A 
ENDROOT
BRANCH   1   7
ATOM      7  C1  UNL d   1       2.347  -2.135   2.483  0.00  0.00     0.055 C 
ATOM      8  C   UNL d   1       1.190  -2.995   2.970  0.00  0.00     0.019 C 
ENDBRANCH   1   7
TORSDOF 1
ENDMDL
