MODEL 1
REMARK minimizedAffinity 7.3289814
REMARK minimizedRMSD -1
REMARK  1 active torsions:
REMARK  status: ('A' for Active; 'I' for Inactive)
REMARK    1  A    between atoms: C1_2  and  C2_3 
ROOT
ATOM      1  C2  UNL d   1       3.060   2.065   0.399  0.00  0.00    -0.077 A 
ATOM      2  C3  UNL d   1       1.924   2.031   1.220  0.00  0.00     0.002 A 
ATOM      3  C4  UNL d   1       1.600   0.873   1.930  0.00  0.00     0.002 A 
ATOM      4  C5  UNL d   1       2.409  -0.257   1.830  0.00  0.00    -0.004 A 
ATOM      5  C6  UNL d   1       3.540  -0.234   1.015  0.00  0.00     0.002 A 
ATOM      6  C7  UNL d   1       3.864   0.922   0.303  0.00  0.00     0.002 A 
ENDROOT
BRANCH   1   7
ATOM      7  C1  UNL d   1       3.438   3.328  -0.329  0.00  0.00     0.055 C 
ATOM      8  C   UNL d   1       2.265   3.879  -1.128  0.00  0.00     0.019 C 
ENDBRANCH   1   7
TORSDOF 1
ENDMDL
