MODEL 1
REMARK minimizedAffinity -1.47973728
REMARK minimizedRMSD -1
REMARK  1 active torsions:
REMARK  status: ('A' for Active; 'I' for Inactive)
REMARK    1  A    between atoms: C1_2  and  C2_3 
ROOT
ATOM      1  C2  UNL d   1       1.603  -1.569   4.661  0.00  0.00    -0.077 A 
ATOM      2  C3  UNL d   1       1.117  -0.264   4.497  0.00  0.00     0.002 A 
ATOM      3  C4  UNL d   1       1.169   0.358   3.249  0.00  0.00     0.002 A 
ATOM      4  C5  UNL d   1       1.703  -0.318   2.153  0.00  0.00    -0.004 A 
ATOM      5  C6  UNL d   1       2.192  -1.615   2.306  0.00  0.00     0.002 A 
ATOM      6  C7  UNL d   1       2.141  -2.238   3.554  0.00  0.00     0.002 A 
ENDROOT
BRANCH   1   7
ATOM      7  C1  UNL d   1       1.502  -2.260   5.995  0.00  0.00     0.055 C 
ATOM      8  C   UNL d   1       0.387  -3.295   6.000  0.00  0.00     0.019 C 
ENDBRANCH   1   7
TORSDOF 1
ENDMDL
