MODEL 1
REMARK minimizedAffinity 2.61723137
REMARK minimizedRMSD -1
REMARK  1 active torsions:
REMARK  status: ('A' for Active; 'I' for Inactive)
REMARK    1  A    between atoms: C1_2  and  C2_3 
ROOT
ATOM      1  C2  UNL d   1       1.376   1.760   0.809  0.00  0.00    -0.077 A 
ATOM      2  C3  UNL d   1       1.393   0.478   1.375  0.00  0.00     0.002 A 
ATOM      3  C4  UNL d   1       0.197  -0.177   1.677  0.00  0.00     0.002 A 
ATOM      4  C5  UNL d   1      -1.023   0.441   1.414  0.00  0.00    -0.004 A 
ATOM      5  C6  UNL d   1      -1.051   1.717   0.854  0.00  0.00     0.002 A 
ATOM      6  C7  UNL d   1       0.143   2.374   0.552  0.00  0.00     0.002 A 
ENDROOT
BRANCH   1   7
ATOM      7  C1  UNL d   1       2.663   2.448   0.437  0.00  0.00     0.055 C 
ATOM      8  C   UNL d   1       2.401   3.782  -0.247  0.00  0.00     0.019 C 
ENDBRANCH   1   7
TORSDOF 1
ENDMDL
