MODEL 1
REMARK minimizedAffinity -2.61722898
REMARK minimizedRMSD -1
REMARK  1 active torsions:
REMARK  status: ('A' for Active; 'I' for Inactive)
REMARK    1  A    between atoms: C1_2  and  C2_3 
ROOT
ATOM      1  C2  UNL d   1       0.068  -0.412   1.446  0.00  0.00    -0.077 A 
ATOM      2  C3  UNL d   1      -0.914  -0.878   2.331  0.00  0.00     0.002 A 
ATOM      3  C4  UNL d   1      -1.391  -2.187   2.231  0.00  0.00     0.002 A 
ATOM      4  C5  UNL d   1      -0.889  -3.040   1.250  0.00  0.00    -0.004 A 
ATOM      5  C6  UNL d   1       0.086  -2.585   0.364  0.00  0.00     0.002 A 
ATOM      6  C7  UNL d   1       0.563  -1.277   0.461  0.00  0.00     0.002 A 
ENDROOT
BRANCH   1   7
ATOM      7  C1  UNL d   1       0.619   0.984   1.583  0.00  0.00     0.055 C 
ATOM      8  C   UNL d   1       2.101   0.962   1.928  0.00  0.00     0.019 C 
ENDBRANCH   1   7
TORSDOF 1
ENDMDL
