MODEL 1
REMARK minimizedAffinity -1.84454131
REMARK minimizedRMSD -1
REMARK  0 active torsions:
REMARK  status: ('A' for Active; 'I' for Inactive)
ROOT
ATOM      1  C2' OXE d   1      -0.475   0.247   0.777  0.00  0.00     0.078 C 
ATOM      2  C1' OXE d   1       1.866  -0.331  -0.660  0.00  0.00     0.078 C 
ATOM      3  C1  OXE d   1       1.734  -0.904   0.730  0.00  0.00    -0.078 A 
ATOM      4  C2  OXE d   1       0.606  -0.577   1.443  0.00  0.00    -0.078 A 
ATOM      5  C3  OXE d   1       0.409  -1.123   2.709  0.00  0.00     0.003 A 
ATOM      6  C4  OXE d   1       1.418  -1.875   3.321  0.00  0.00    -0.002 A 
ATOM      7  C5  OXE d   1       2.592  -2.187   2.627  0.00  0.00    -0.002 A 
ATOM      8  C6  OXE d   1       2.747  -1.745   1.318  0.00  0.00     0.003 A 
ENDROOT
TORSDOF 0
ENDMDL
