MODEL 1
REMARK minimizedAffinity -1.49439359
REMARK minimizedRMSD -1
REMARK  0 active torsions:
REMARK  status: ('A' for Active; 'I' for Inactive)
ROOT
ATOM      1  C2' OXE d   1       0.984  -1.641   1.190  0.00  0.00     0.078 C 
ATOM      2  C1' OXE d   1       0.593  -1.496   3.966  0.00  0.00     0.078 C 
ATOM      3  C1  OXE d   1       1.981  -1.235   3.436  0.00  0.00    -0.078 A 
ATOM      4  C2  OXE d   1       2.173  -1.354   2.081  0.00  0.00    -0.078 A 
ATOM      5  C3  OXE d   1       3.421  -1.071   1.534  0.00  0.00     0.003 A 
ATOM      6  C4  OXE d   1       4.518  -0.817   2.366  0.00  0.00    -0.002 A 
ATOM      7  C5  OXE d   1       4.353  -0.730   3.753  0.00  0.00    -0.002 A 
ATOM      8  C6  OXE d   1       3.085  -0.894   4.299  0.00  0.00     0.003 A 
ENDROOT
TORSDOF 0
ENDMDL
