MODEL 1
REMARK minimizedAffinity -1.20687222
REMARK minimizedRMSD -1
REMARK  0 active torsions:
REMARK  status: ('A' for Active; 'I' for Inactive)
ROOT
ATOM      1  C2' OXE d   1      -2.911   1.191  -3.724  0.00  0.00     0.078 C 
ATOM      2  C1' OXE d   1      -1.024   1.088  -1.648  0.00  0.00     0.078 C 
ATOM      3  C1  OXE d   1      -0.828   2.124  -2.726  0.00  0.00    -0.078 A 
ATOM      4  C2  OXE d   1      -1.730   2.136  -3.763  0.00  0.00    -0.078 A 
ATOM      5  C3  OXE d   1      -1.626   3.107  -4.755  0.00  0.00     0.003 A 
ATOM      6  C4  OXE d   1      -0.525   3.971  -4.789  0.00  0.00    -0.002 A 
ATOM      7  C5  OXE d   1       0.427   3.949  -3.764  0.00  0.00    -0.002 A 
ATOM      8  C6  OXE d   1       0.268   3.062  -2.705  0.00  0.00     0.003 A 
ENDROOT
TORSDOF 0
ENDMDL
