MODEL 1
REMARK minimizedAffinity -0.159024492
REMARK minimizedRMSD -1
REMARK  0 active torsions:
REMARK  status: ('A' for Active; 'I' for Inactive)
ROOT
ATOM      1  C2' OXE d   1      -3.323  -5.274  -3.382  0.00  0.00     0.078 C 
ATOM      2  C1' OXE d   1      -1.072  -4.120  -2.164  0.00  0.00     0.078 C 
ATOM      3  C1  OXE d   1      -0.890  -4.757  -3.519  0.00  0.00    -0.078 A 
ATOM      4  C2  OXE d   1      -1.986  -5.360  -4.087  0.00  0.00    -0.078 A 
ATOM      5  C3  OXE d   1      -1.886  -5.915  -5.359  0.00  0.00     0.003 A 
ATOM      6  C4  OXE d   1      -0.643  -5.999  -6.000  0.00  0.00    -0.002 A 
ATOM      7  C5  OXE d   1       0.494  -5.426  -5.421  0.00  0.00    -0.002 A 
ATOM      8  C6  OXE d   1       0.379  -4.765  -4.203  0.00  0.00     0.003 A 
ENDROOT
TORSDOF 0
ENDMDL
