MODEL 1
REMARK minimizedAffinity 4.59954643
REMARK minimizedRMSD -1
REMARK  0 active torsions:
REMARK  status: ('A' for Active; 'I' for Inactive)
ROOT
ATOM      1  C2' OXE d   1      -2.248  -4.513  -2.707  0.00  0.00     0.078 C 
ATOM      2  C1' OXE d   1      -3.318  -5.930  -4.882  0.00  0.00     0.078 C 
ATOM      3  C1  OXE d   1      -1.847  -5.596  -4.915  0.00  0.00    -0.078 A 
ATOM      4  C2  OXE d   1      -1.342  -4.862  -3.868  0.00  0.00    -0.078 A 
ATOM      5  C3  OXE d   1       0.019  -4.574  -3.822  0.00  0.00     0.003 A 
ATOM      6  C4  OXE d   1       0.848  -4.891  -4.905  0.00  0.00    -0.002 A 
ATOM      7  C5  OXE d   1       0.345  -5.604  -5.999  0.00  0.00    -0.002 A 
ATOM      8  C6  OXE d   1      -0.988  -6.000  -6.000  0.00  0.00     0.003 A 
ENDROOT
TORSDOF 0
ENDMDL
