MODEL 1
REMARK minimizedAffinity 5.35210133
REMARK minimizedRMSD -1
REMARK  0 active torsions:
REMARK  status: ('A' for Active; 'I' for Inactive)
ROOT
ATOM      1  C2' OXE d   1      -2.790   1.370  -2.833  0.00  0.00     0.078 C 
ATOM      2  C1' OXE d   1      -0.091   0.860  -2.252  0.00  0.00     0.078 C 
ATOM      3  C1  OXE d   1      -0.419   2.105  -3.038  0.00  0.00    -0.078 A 
ATOM      4  C2  OXE d   1      -1.737   2.322  -3.357  0.00  0.00    -0.078 A 
ATOM      5  C3  OXE d   1      -2.100   3.484  -4.034  0.00  0.00     0.003 A 
ATOM      6  C4  OXE d   1      -1.119   4.354  -4.524  0.00  0.00    -0.002 A 
ATOM      7  C5  OXE d   1       0.233   4.130  -4.244  0.00  0.00    -0.002 A 
ATOM      8  C6  OXE d   1       0.596   3.035  -3.467  0.00  0.00     0.003 A 
ENDROOT
TORSDOF 0
ENDMDL
