MODEL 1
REMARK minimizedAffinity 9.85031128
REMARK minimizedRMSD -1
REMARK  0 active torsions:
REMARK  status: ('A' for Active; 'I' for Inactive)
ROOT
ATOM      1  C2' OXE d   1      -2.875   2.094  -2.815  0.00  0.00     0.078 C 
ATOM      2  C1' OXE d   1      -0.209   1.352  -2.344  0.00  0.00     0.078 C 
ATOM      3  C1  OXE d   1      -0.460   2.594  -3.162  0.00  0.00    -0.078 A 
ATOM      4  C2  OXE d   1      -1.767   2.924  -3.427  0.00  0.00    -0.078 A 
ATOM      5  C3  OXE d   1      -2.055   4.090  -4.131  0.00  0.00     0.003 A 
ATOM      6  C4  OXE d   1      -1.024   4.846  -4.702  0.00  0.00    -0.002 A 
ATOM      7  C5  OXE d   1       0.314   4.505  -4.478  0.00  0.00    -0.002 A 
ATOM      8  C6  OXE d   1       0.613   3.409  -3.677  0.00  0.00     0.003 A 
ENDROOT
TORSDOF 0
ENDMDL
