MODEL 1
REMARK minimizedAffinity 6.11206818
REMARK minimizedRMSD -1
REMARK  0 active torsions:
REMARK  status: ('A' for Active; 'I' for Inactive)
ROOT
ATOM      1  C2' OXE d   1       5.208  -0.412   1.885  0.00  0.00     0.078 C 
ATOM      2  C1' OXE d   1       3.611  -1.438   3.953  0.00  0.00     0.078 C 
ATOM      3  C1  OXE d   1       2.943  -1.127   2.637  0.00  0.00    -0.078 A 
ATOM      4  C2  OXE d   1       3.723  -0.581   1.646  0.00  0.00    -0.078 A 
ATOM      5  C3  OXE d   1       3.169  -0.326   0.394  0.00  0.00     0.003 A 
ATOM      6  C4  OXE d   1       1.793  -0.476   0.185  0.00  0.00    -0.002 A 
ATOM      7  C5  OXE d   1       0.973  -0.992   1.193  0.00  0.00    -0.002 A 
ATOM      8  C6  OXE d   1       1.539  -1.362   2.409  0.00  0.00     0.003 A 
ENDROOT
TORSDOF 0
ENDMDL
