MODEL 1
REMARK minimizedAffinity 3.72402453
REMARK minimizedRMSD -1
REMARK  0 active torsions:
REMARK  status: ('A' for Active; 'I' for Inactive)
ROOT
ATOM      1  C2' OXE d   1      -1.863  -4.784  -1.764  0.00  0.00     0.078 C 
ATOM      2  C1' OXE d   1      -3.749  -5.327  -3.772  0.00  0.00     0.078 C 
ATOM      3  C1  OXE d   1      -2.292  -5.315  -4.160  0.00  0.00    -0.078 A 
ATOM      4  C2  OXE d   1      -1.379  -5.002  -3.182  0.00  0.00    -0.078 A 
ATOM      5  C3  OXE d   1      -0.019  -5.030  -3.474  0.00  0.00     0.003 A 
ATOM      6  C4  OXE d   1       0.420  -5.222  -4.789  0.00  0.00    -0.002 A 
ATOM      7  C5  OXE d   1      -0.495  -5.503  -5.809  0.00  0.00    -0.002 A 
ATOM      8  C6  OXE d   1      -1.849  -5.594  -5.504  0.00  0.00     0.003 A 
ENDROOT
TORSDOF 0
ENDMDL
