MODEL 1
REMARK minimizedAffinity 4.7067337
REMARK minimizedRMSD -1
REMARK  0 active torsions:
REMARK  status: ('A' for Active; 'I' for Inactive)
ROOT
ATOM      1  C2' OXE d   1      -2.349  -3.785   0.014  0.00  0.00     0.078 C 
ATOM      2  C1' OXE d   1      -3.494  -1.227   0.158  0.00  0.00     0.078 C 
ATOM      3  C1  OXE d   1      -1.994  -1.333   0.266  0.00  0.00    -0.078 A 
ATOM      4  C2  OXE d   1      -1.446  -2.593   0.242  0.00  0.00    -0.078 A 
ATOM      5  C3  OXE d   1      -0.062  -2.743   0.283  0.00  0.00     0.003 A 
ATOM      6  C4  OXE d   1       0.765  -1.636   0.504  0.00  0.00    -0.002 A 
ATOM      7  C5  OXE d   1       0.224  -0.348   0.572  0.00  0.00    -0.002 A 
ATOM      8  C6  OXE d   1      -1.146  -0.175   0.412  0.00  0.00     0.003 A 
ENDROOT
TORSDOF 0
ENDMDL
