MODEL 1
REMARK minimizedAffinity -0.657273352
REMARK minimizedRMSD -1
REMARK  0 active torsions:
REMARK  status: ('A' for Active; 'I' for Inactive)
ROOT
ATOM      1  C2' OXE d   1      -0.012  -2.501   1.115  0.00  0.00     0.078 C 
ATOM      2  C1' OXE d   1       0.100  -0.044  -0.237  0.00  0.00     0.078 C 
ATOM      3  C1  OXE d   1       1.394  -0.626   0.272  0.00  0.00    -0.078 A 
ATOM      4  C2  OXE d   1       1.324  -1.805   0.974  0.00  0.00    -0.078 A 
ATOM      5  C3  OXE d   1       2.495  -2.414   1.418  0.00  0.00     0.003 A 
ATOM      6  C4  OXE d   1       3.726  -1.759   1.292  0.00  0.00    -0.002 A 
ATOM      7  C5  OXE d   1       3.814  -0.537   0.616  0.00  0.00    -0.002 A 
ATOM      8  C6  OXE d   1       2.667   0.021   0.064  0.00  0.00     0.003 A 
ENDROOT
TORSDOF 0
ENDMDL
