MODEL 1
REMARK minimizedAffinity 4.60306787
REMARK minimizedRMSD -1
REMARK  0 active torsions:
REMARK  status: ('A' for Active; 'I' for Inactive)
ROOT
ATOM      1  C2' OXE d   1      -0.700  -3.907  -2.219  0.00  0.00     0.078 C 
ATOM      2  C1' OXE d   1      -3.041  -4.876  -3.428  0.00  0.00     0.078 C 
ATOM      3  C1  OXE d   1      -1.731  -5.127  -4.131  0.00  0.00    -0.078 A 
ATOM      4  C2  OXE d   1      -0.595  -4.609  -3.557  0.00  0.00    -0.078 A 
ATOM      5  C3  OXE d   1       0.646  -4.858  -4.136  0.00  0.00     0.003 A 
ATOM      6  C4  OXE d   1       0.732  -5.499  -5.377  0.00  0.00    -0.002 A 
ATOM      7  C5  OXE d   1      -0.416  -6.000  -6.000  0.00  0.00    -0.002 A 
ATOM      8  C6  OXE d   1      -1.648  -5.860  -5.370  0.00  0.00     0.003 A 
ENDROOT
TORSDOF 0
ENDMDL
