MODEL 1
REMARK minimizedAffinity 4.85124207
REMARK minimizedRMSD -1
REMARK  0 active torsions:
REMARK  status: ('A' for Active; 'I' for Inactive)
ROOT
ATOM      1  C2' OXE d   1       0.347   1.409   0.348  0.00  0.00     0.078 C 
ATOM      2  C1' OXE d   1       0.818  -0.136  -1.948  0.00  0.00     0.078 C 
ATOM      3  C1  OXE d   1       0.564  -0.863  -0.651  0.00  0.00    -0.078 A 
ATOM      4  C2  OXE d   1       0.381  -0.099   0.476  0.00  0.00    -0.078 A 
ATOM      5  C3  OXE d   1       0.088  -0.718   1.688  0.00  0.00     0.003 A 
ATOM      6  C4  OXE d   1       0.131  -2.113   1.800  0.00  0.00    -0.002 A 
ATOM      7  C5  OXE d   1       0.355  -2.909   0.672  0.00  0.00    -0.002 A 
ATOM      8  C6  OXE d   1       0.530  -2.302  -0.567  0.00  0.00     0.003 A 
ENDROOT
TORSDOF 0
ENDMDL
