MODEL 1
REMARK minimizedAffinity 5.3550458
REMARK minimizedRMSD -1
REMARK  0 active torsions:
REMARK  status: ('A' for Active; 'I' for Inactive)
ROOT
ATOM      1  C2' OXE d   1      -5.232  -0.429   0.692  0.00  0.00     0.078 C 
ATOM      2  C1' OXE d   1      -2.795   0.848   0.135  0.00  0.00     0.078 C 
ATOM      3  C1  OXE d   1      -3.823   0.785  -0.966  0.00  0.00    -0.078 A 
ATOM      4  C2  OXE d   1      -4.994   0.117  -0.700  0.00  0.00    -0.078 A 
ATOM      5  C3  OXE d   1      -5.999   0.076  -1.663  0.00  0.00     0.003 A 
ATOM      6  C4  OXE d   1      -5.767   0.575  -2.950  0.00  0.00    -0.002 A 
ATOM      7  C5  OXE d   1      -4.566   1.224  -3.255  0.00  0.00    -0.002 A 
ATOM      8  C6  OXE d   1      -3.602   1.375  -2.263  0.00  0.00     0.003 A 
ENDROOT
TORSDOF 0
ENDMDL
