MODEL 1
REMARK minimizedAffinity 10.2066593
REMARK minimizedRMSD -1
REMARK  0 active torsions:
REMARK  status: ('A' for Active; 'I' for Inactive)
ROOT
ATOM      1  C2' OXE d   1      -5.206   0.325   1.111  0.00  0.00     0.078 C 
ATOM      2  C1' OXE d   1      -3.426  -1.721   0.383  0.00  0.00     0.078 C 
ATOM      3  C1  OXE d   1      -4.304  -1.135  -0.695  0.00  0.00    -0.078 A 
ATOM      4  C2  OXE d   1      -5.205  -0.167  -0.320  0.00  0.00    -0.078 A 
ATOM      5  C3  OXE d   1      -6.000   0.445  -1.285  0.00  0.00     0.003 A 
ATOM      6  C4  OXE d   1      -5.999  -0.023  -2.605  0.00  0.00    -0.002 A 
ATOM      7  C5  OXE d   1      -5.118  -1.035  -2.999  0.00  0.00    -0.002 A 
ATOM      8  C6  OXE d   1      -4.236  -1.571  -2.068  0.00  0.00     0.003 A 
ENDROOT
TORSDOF 0
ENDMDL
