MODEL 1
REMARK minimizedAffinity 6.69611025
REMARK minimizedRMSD -1
REMARK  0 active torsions:
REMARK  status: ('A' for Active; 'I' for Inactive)
ROOT
ATOM      1  C2' OXE d   1      -5.997  -0.324  -1.602  0.00  0.00     0.078 C 
ATOM      2  C1' OXE d   1      -3.480  -1.212  -0.732  0.00  0.00     0.078 C 
ATOM      3  C1  OXE d   1      -3.521  -0.102  -1.751  0.00  0.00    -0.078 A 
ATOM      4  C2  OXE d   1      -4.755   0.295  -2.206  0.00  0.00    -0.078 A 
ATOM      5  C3  OXE d   1      -4.851   1.352  -3.106  0.00  0.00     0.003 A 
ATOM      6  C4  OXE d   1      -3.698   1.912  -3.667  0.00  0.00    -0.002 A 
ATOM      7  C5  OXE d   1      -2.430   1.496  -3.248  0.00  0.00    -0.002 A 
ATOM      8  C6  OXE d   1      -2.324   0.522  -2.261  0.00  0.00     0.003 A 
ENDROOT
TORSDOF 0
ENDMDL
