MODEL 1
REMARK minimizedAffinity 4.52861881
REMARK minimizedRMSD -1
REMARK  0 active torsions:
REMARK  status: ('A' for Active; 'I' for Inactive)
ROOT
ATOM      1  C2' OXE d   1      -1.434  -3.628   0.461  0.00  0.00     0.078 C 
ATOM      2  C1' OXE d   1      -2.914  -1.330  -0.178  0.00  0.00     0.078 C 
ATOM      3  C1  OXE d   1      -1.423  -1.181  -0.003  0.00  0.00    -0.078 A 
ATOM      4  C2  OXE d   1      -0.714  -2.301   0.355  0.00  0.00    -0.078 A 
ATOM      5  C3  OXE d   1       0.671  -2.231   0.475  0.00  0.00     0.003 A 
ATOM      6  C4  OXE d   1       1.329  -0.998   0.386  0.00  0.00    -0.002 A 
ATOM      7  C5  OXE d   1       0.619   0.163   0.061  0.00  0.00    -0.002 A 
ATOM      8  C6  OXE d   1      -0.748   0.081  -0.178  0.00  0.00     0.003 A 
ENDROOT
TORSDOF 0
ENDMDL
