MODEL 1
REMARK minimizedAffinity 6.93765831
REMARK minimizedRMSD -1
REMARK  0 active torsions:
REMARK  status: ('A' for Active; 'I' for Inactive)
ROOT
ATOM      1  C2' OXE d   1      -1.475   1.702  -3.132  0.00  0.00     0.078 C 
ATOM      2  C1' OXE d   1      -3.920   1.954  -4.488  0.00  0.00     0.078 C 
ATOM      3  C1  OXE d   1      -3.886   1.086  -3.255  0.00  0.00    -0.078 A 
ATOM      4  C2  OXE d   1      -2.675   0.930  -2.625  0.00  0.00    -0.078 A 
ATOM      5  C3  OXE d   1      -2.598   0.184  -1.452  0.00  0.00     0.003 A 
ATOM      6  C4  OXE d   1      -3.710  -0.534  -0.996  0.00  0.00    -0.002 A 
ATOM      7  C5  OXE d   1      -4.944  -0.421  -1.646  0.00  0.00    -0.002 A 
ATOM      8  C6  OXE d   1      -5.059   0.416  -2.750  0.00  0.00     0.003 A 
ENDROOT
TORSDOF 0
ENDMDL
