MODEL 1
REMARK minimizedAffinity 6.32518387
REMARK minimizedRMSD -1
REMARK  0 active torsions:
REMARK  status: ('A' for Active; 'I' for Inactive)
ROOT
ATOM      1  C2' OXE d   1      -2.147  -3.527   0.133  0.00  0.00     0.078 C 
ATOM      2  C1' OXE d   1      -3.260  -0.964   0.401  0.00  0.00     0.078 C 
ATOM      3  C1  OXE d   1      -1.757  -1.081   0.398  0.00  0.00    -0.078 A 
ATOM      4  C2  OXE d   1      -1.221  -2.343   0.314  0.00  0.00    -0.078 A 
ATOM      5  C3  OXE d   1       0.161  -2.503   0.252  0.00  0.00     0.003 A 
ATOM      6  C4  OXE d   1       1.010  -1.404   0.430  0.00  0.00    -0.002 A 
ATOM      7  C5  OXE d   1       0.484  -0.114   0.558  0.00  0.00    -0.002 A 
ATOM      8  C6  OXE d   1      -0.893   0.070   0.501  0.00  0.00     0.003 A 
ENDROOT
TORSDOF 0
ENDMDL
