MODEL 1
REMARK minimizedAffinity 6.81442118
REMARK minimizedRMSD -1
REMARK  0 active torsions:
REMARK  status: ('A' for Active; 'I' for Inactive)
ROOT
ATOM      1  C2' OXE d   1      -3.386  -5.861  -3.873  0.00  0.00     0.078 C 
ATOM      2  C1' OXE d   1      -1.526  -4.818  -2.047  0.00  0.00     0.078 C 
ATOM      3  C1  OXE d   1      -1.037  -5.160  -3.432  0.00  0.00    -0.078 A 
ATOM      4  C2  OXE d   1      -1.943  -5.713  -4.304  0.00  0.00    -0.078 A 
ATOM      5  C3  OXE d   1      -1.558  -5.996  -5.612  0.00  0.00     0.003 A 
ATOM      6  C4  OXE d   1      -0.219  -5.866  -6.000  0.00  0.00    -0.002 A 
ATOM      7  C5  OXE d   1       0.729  -5.342  -5.115  0.00  0.00    -0.002 A 
ATOM      8  C6  OXE d   1       0.329  -4.945  -3.844  0.00  0.00     0.003 A 
ENDROOT
TORSDOF 0
ENDMDL
