MODEL 1
REMARK minimizedAffinity 12.5887413
REMARK minimizedRMSD -1
REMARK  1 active torsions:
REMARK  status: ('A' for Active; 'I' for Inactive)
REMARK    1  A    between atoms: C1_2  and  C2_3 
ROOT
ATOM      1  C2  UNL d   1       3.740  -0.996   2.299  0.00  0.00    -0.076 A 
ATOM      2  C3  UNL d   1       2.407  -0.577   2.451  0.00  0.00     0.004 A 
ATOM      3  C4  UNL d   1       1.622  -1.048   3.502  0.00  0.00    -0.003 A 
ATOM      4  C5  UNL d   1       2.157  -1.946   4.419  0.00  0.00     0.000 A 
ATOM      5  C6  UNL d   1       3.483  -2.359   4.293  0.00  0.00     0.000 A 
ATOM      6  C7  UNL d   1       4.293  -1.881   3.249  0.00  0.00    -0.073 A 
ATOM      7  C8  UNL d   1       5.714  -2.365   3.159  0.00  0.00     0.078 C 
ENDROOT
BRANCH   1   8
ATOM      8  C1  UNL d   1       4.535  -0.473   1.124  0.00  0.00     0.053 C 
ATOM      9  C   UNL d   1       3.660   0.223   0.093  0.00  0.00     0.018 C 
ENDBRANCH   1   8
TORSDOF 1
ENDMDL
