MODEL 1
REMARK minimizedAffinity 3.28665781
REMARK minimizedRMSD -1
REMARK  1 active torsions:
REMARK  status: ('A' for Active; 'I' for Inactive)
REMARK    1  A    between atoms: C1_2  and  C2_3 
ROOT
ATOM      1  C2  UNL d   1       4.096  -2.529   4.977  0.00  0.00    -0.076 A 
ATOM      2  C3  UNL d   1       2.720  -2.631   5.245  0.00  0.00     0.004 A 
ATOM      3  C4  UNL d   1       1.776  -2.131   4.349  0.00  0.00    -0.003 A 
ATOM      4  C5  UNL d   1       2.193  -1.521   3.171  0.00  0.00     0.000 A 
ATOM      5  C6  UNL d   1       3.554  -1.427   2.881  0.00  0.00     0.000 A 
ATOM      6  C7  UNL d   1       4.518  -1.940   3.766  0.00  0.00    -0.073 A 
ATOM      7  C8  UNL d   1       5.972  -1.805   3.406  0.00  0.00     0.078 C 
ENDROOT
BRANCH   1   8
ATOM      8  C1  UNL d   1       5.074  -3.065   5.998  0.00  0.00     0.053 C 
ATOM      9  C   UNL d   1       6.000  -4.124   5.418  0.00  0.00     0.018 C 
ENDBRANCH   1   8
TORSDOF 1
ENDMDL
