MODEL 1
REMARK minimizedAffinity 3.542243
REMARK minimizedRMSD -1
REMARK  1 active torsions:
REMARK  status: ('A' for Active; 'I' for Inactive)
REMARK    1  A    between atoms: C1_2  and  C2_3 
ROOT
ATOM      1  C2  UNL d   1       3.455  -1.912   4.030  0.00  0.00    -0.076 A 
ATOM      2  C3  UNL d   1       4.719  -1.706   3.449  0.00  0.00     0.004 A 
ATOM      3  C4  UNL d   1       5.886  -2.034   4.136  0.00  0.00    -0.003 A 
ATOM      4  C5  UNL d   1       5.810  -2.574   5.415  0.00  0.00     0.000 A 
ATOM      5  C6  UNL d   1       4.565  -2.802   6.000  0.00  0.00     0.000 A 
ATOM      6  C7  UNL d   1       3.377  -2.492   5.315  0.00  0.00    -0.073 A 
ATOM      7  C8  UNL d   1       2.062  -2.753   5.996  0.00  0.00     0.078 C 
ENDROOT
BRANCH   1   8
ATOM      8  C1  UNL d   1       2.224  -1.512   3.248  0.00  0.00     0.053 C 
ATOM      9  C   UNL d   1       2.457  -0.282   2.385  0.00  0.00     0.018 C 
ENDBRANCH   1   8
TORSDOF 1
ENDMDL
