MODEL 1
REMARK minimizedAffinity 8.39353371
REMARK minimizedRMSD -1
REMARK  1 active torsions:
REMARK  status: ('A' for Active; 'I' for Inactive)
REMARK    1  A    between atoms: C1_2  and  C2_3 
ROOT
ATOM      1  C2  UNL d   1       2.782  -3.261   3.301  0.00  0.00    -0.076 A 
ATOM      2  C3  UNL d   1       2.368  -2.015   3.804  0.00  0.00     0.004 A 
ATOM      3  C4  UNL d   1       1.660  -1.118   3.007  0.00  0.00    -0.003 A 
ATOM      4  C5  UNL d   1       1.354  -1.452   1.692  0.00  0.00     0.000 A 
ATOM      5  C6  UNL d   1       1.741  -2.690   1.181  0.00  0.00     0.000 A 
ATOM      6  C7  UNL d   1       2.441  -3.613   1.977  0.00  0.00    -0.073 A 
ATOM      7  C8  UNL d   1       2.839  -4.932   1.373  0.00  0.00     0.078 C 
ENDROOT
BRANCH   1   8
ATOM      8  C1  UNL d   1       3.570  -4.182   4.204  0.00  0.00     0.053 C 
ATOM      9  C   UNL d   1       2.840  -4.489   5.503  0.00  0.00     0.018 C 
ENDBRANCH   1   8
TORSDOF 1
ENDMDL
