MODEL 1
REMARK minimizedAffinity 14.2900181
REMARK minimizedRMSD -1
REMARK  1 active torsions:
REMARK  status: ('A' for Active; 'I' for Inactive)
REMARK    1  A    between atoms: C1_2  and  C2_3 
ROOT
ATOM      1  C2  UNL d   1       2.317  -3.482   4.377  0.00  0.00    -0.076 A 
ATOM      2  C3  UNL d   1       1.906  -2.286   4.990  0.00  0.00     0.004 A 
ATOM      3  C4  UNL d   1       2.040  -1.062   4.337  0.00  0.00    -0.003 A 
ATOM      4  C5  UNL d   1       2.587  -1.014   3.060  0.00  0.00     0.000 A 
ATOM      5  C6  UNL d   1       2.985  -2.193   2.430  0.00  0.00     0.000 A 
ATOM      6  C7  UNL d   1       2.841  -3.437   3.068  0.00  0.00    -0.073 A 
ATOM      7  C8  UNL d   1       3.292  -4.676   2.343  0.00  0.00     0.078 C 
ENDROOT
BRANCH   1   8
ATOM      8  C1  UNL d   1       2.172  -4.777   5.145  0.00  0.00     0.053 C 
ATOM      9  C   UNL d   1       0.717  -5.157   5.377  0.00  0.00     0.018 C 
ENDBRANCH   1   8
TORSDOF 1
ENDMDL
