MODEL 1
REMARK minimizedAffinity 6.43525982
REMARK minimizedRMSD -1
REMARK  0 active torsions:
REMARK  status: ('A' for Active; 'I' for Inactive)
ROOT
ATOM      1  C   UNL d   1       0.833   0.075   0.718  0.00  0.00     0.124 A 
ATOM      2  C1  UNL d   1       1.167  -1.229   0.379  0.00  0.00     0.062 A 
ATOM      3  C2  UNL d   1       2.321  -1.488  -0.355  0.00  0.00     0.162 A 
ATOM      4  C3  UNL d   1       3.151  -0.440  -0.753  0.00  0.00    -0.034 A 
ATOM      5  C4  UNL d   1       2.808   0.868  -0.409  0.00  0.00     0.162 A 
ATOM      6  C5  UNL d   1       1.654   1.122   0.323  0.00  0.00     0.062 A 
ATOM      7  F   UNL d   1       1.333   2.382   0.650  0.00  0.00    -0.097 F 
ATOM      8  F1  UNL d   1       3.584   1.899  -0.777  0.00  0.00    -0.096 F 
ATOM      9  I   UNL d   1       4.878  -0.823  -1.850  0.00  0.00    -0.060 I 
ATOM     10  F2  UNL d   1       2.619  -2.758  -0.668  0.00  0.00    -0.096 F 
ATOM     11  F3  UNL d   1       0.375  -2.243   0.758  0.00  0.00    -0.097 F 
ATOM     12  F4  UNL d   1      -0.279   0.321   1.422  0.00  0.00    -0.092 F 
ENDROOT
TORSDOF 0
ENDMDL
