MODEL 1
REMARK minimizedAffinity 5.59936142
REMARK minimizedRMSD -1
REMARK  0 active torsions:
REMARK  status: ('A' for Active; 'I' for Inactive)
ROOT
ATOM      1  C   UNL d   1       0.853  -0.459   0.889  0.00  0.00     0.124 A 
ATOM      2  C1  UNL d   1       1.115   0.639   0.080  0.00  0.00     0.062 A 
ATOM      3  C2  UNL d   1       2.162   0.598  -0.836  0.00  0.00     0.162 A 
ATOM      4  C3  UNL d   1       2.954  -0.544  -0.950  0.00  0.00    -0.034 A 
ATOM      5  C4  UNL d   1       2.685  -1.643  -0.133  0.00  0.00     0.162 A 
ATOM      6  C5  UNL d   1       1.637  -1.598   0.781  0.00  0.00     0.062 A 
ATOM      7  F   UNL d   1       1.385  -2.659   1.562  0.00  0.00    -0.097 F 
ATOM      8  F1  UNL d   1       3.426  -2.758  -0.216  0.00  0.00    -0.096 F 
ATOM      9  I   UNL d   1       4.521  -0.608  -2.319  0.00  0.00    -0.060 I 
ATOM     10  F2  UNL d   1       2.393   1.673  -1.605  0.00  0.00    -0.096 F 
ATOM     11  F3  UNL d   1       0.359   1.741   0.183  0.00  0.00    -0.097 F 
ATOM     12  F4  UNL d   1      -0.155  -0.417   1.770  0.00  0.00    -0.092 F 
ENDROOT
TORSDOF 0
ENDMDL
