MODEL 1
REMARK minimizedAffinity 6.52090693
REMARK minimizedRMSD -1
REMARK  0 active torsions:
REMARK  status: ('A' for Active; 'I' for Inactive)
ROOT
ATOM      1  C   UNL d   1       1.756  -0.770  -0.034  0.00  0.00     0.124 A 
ATOM      2  C1  UNL d   1       2.235   0.522  -0.202  0.00  0.00     0.062 A 
ATOM      3  C2  UNL d   1       3.323   0.762  -1.036  0.00  0.00     0.162 A 
ATOM      4  C3  UNL d   1       3.939  -0.292  -1.710  0.00  0.00    -0.034 A 
ATOM      5  C4  UNL d   1       3.453  -1.589  -1.536  0.00  0.00     0.162 A 
ATOM      6  C5  UNL d   1       2.365  -1.824  -0.701  0.00  0.00     0.062 A 
ATOM      7  F   UNL d   1       1.904  -3.073  -0.540  0.00  0.00    -0.097 F 
ATOM      8  F1  UNL d   1       4.022  -2.625  -2.168  0.00  0.00    -0.096 F 
ATOM      9  I   UNL d   1       5.566   0.064  -2.959  0.00  0.00    -0.060 I 
ATOM     10  F2  UNL d   1       3.764   2.021  -1.180  0.00  0.00    -0.096 F 
ATOM     11  F3  UNL d   1       1.649   1.542   0.442  0.00  0.00    -0.097 F 
ATOM     12  F4  UNL d   1       0.710  -0.999   0.770  0.00  0.00    -0.092 F 
ENDROOT
TORSDOF 0
ENDMDL
