MODEL 1
REMARK minimizedAffinity 11.7077246
REMARK minimizedRMSD -1
REMARK  0 active torsions:
REMARK  status: ('A' for Active; 'I' for Inactive)
ROOT
ATOM      1  C   UNL d   1       1.405  -0.366  -0.134  0.00  0.00     0.124 A 
ATOM      2  C1  UNL d   1       2.036  -1.550  -0.488  0.00  0.00     0.062 A 
ATOM      3  C2  UNL d   1       3.132  -1.528  -1.347  0.00  0.00     0.162 A 
ATOM      4  C3  UNL d   1       3.604  -0.319  -1.856  0.00  0.00    -0.034 A 
ATOM      5  C4  UNL d   1       2.962   0.868  -1.496  0.00  0.00     0.162 A 
ATOM      6  C5  UNL d   1       1.868   0.842  -0.638  0.00  0.00     0.062 A 
ATOM      7  F   UNL d   1       1.259   1.986  -0.296  0.00  0.00    -0.097 F 
ATOM      8  F1  UNL d   1       3.390   2.049  -1.967  0.00  0.00    -0.096 F 
ATOM      9  I   UNL d   1       5.241  -0.283  -3.140  0.00  0.00    -0.060 I 
ATOM     10  F2  UNL d   1       3.723  -2.688  -1.672  0.00  0.00    -0.096 F 
ATOM     11  F3  UNL d   1       1.590  -2.717  -0.004  0.00  0.00    -0.097 F 
ATOM     12  F4  UNL d   1       0.350  -0.389   0.691  0.00  0.00    -0.092 F 
ENDROOT
TORSDOF 0
ENDMDL
