MODEL 1
REMARK minimizedAffinity 6.38959885
REMARK minimizedRMSD -1
REMARK  0 active torsions:
REMARK  status: ('A' for Active; 'I' for Inactive)
ROOT
ATOM      1  C   UNL d   1       1.023  -0.383   0.792  0.00  0.00     0.124 A 
ATOM      2  C1  UNL d   1       1.512   0.770   0.194  0.00  0.00     0.062 A 
ATOM      3  C2  UNL d   1       2.502   0.688  -0.781  0.00  0.00     0.162 A 
ATOM      4  C3  UNL d   1       3.010  -0.553  -1.164  0.00  0.00    -0.034 A 
ATOM      5  C4  UNL d   1       2.515  -1.708  -0.558  0.00  0.00     0.162 A 
ATOM      6  C5  UNL d   1       1.525  -1.621   0.416  0.00  0.00     0.062 A 
ATOM      7  F   UNL d   1       1.054  -2.736   0.993  0.00  0.00    -0.097 F 
ATOM      8  F1  UNL d   1       2.981  -2.918  -0.903  0.00  0.00    -0.096 F 
ATOM      9  I   UNL d   1       4.491  -0.680  -2.621  0.00  0.00    -0.060 I 
ATOM     10  F2  UNL d   1       2.955   1.819  -1.342  0.00  0.00    -0.096 F 
ATOM     11  F3  UNL d   1       1.029   1.968   0.557  0.00  0.00    -0.097 F 
ATOM     12  F4  UNL d   1       0.071  -0.301   1.730  0.00  0.00    -0.092 F 
ENDROOT
TORSDOF 0
ENDMDL
