MODEL 1
REMARK minimizedAffinity 8.53147316
REMARK minimizedRMSD -1
REMARK  0 active torsions:
REMARK  status: ('A' for Active; 'I' for Inactive)
ROOT
ATOM      1  C   UNL d   1      -0.351  -0.378   2.438  0.00  0.00     0.124 A 
ATOM      2  C1  UNL d   1      -0.483  -1.147   1.290  0.00  0.00     0.062 A 
ATOM      3  C2  UNL d   1       0.488  -1.093   0.295  0.00  0.00     0.162 A 
ATOM      4  C3  UNL d   1       1.602  -0.267   0.443  0.00  0.00    -0.034 A 
ATOM      5  C4  UNL d   1       1.728   0.504   1.600  0.00  0.00     0.162 A 
ATOM      6  C5  UNL d   1       0.755   0.447   2.591  0.00  0.00     0.062 A 
ATOM      7  F   UNL d   1       0.885   1.191   3.699  0.00  0.00    -0.097 F 
ATOM      8  F1  UNL d   1       2.787   1.309   1.774  0.00  0.00    -0.096 F 
ATOM      9  I   UNL d   1       3.057  -0.184  -1.043  0.00  0.00    -0.060 I 
ATOM     10  F2  UNL d   1       0.334  -1.848  -0.804  0.00  0.00    -0.096 F 
ATOM     11  F3  UNL d   1      -1.551  -1.945   1.139  0.00  0.00    -0.097 F 
ATOM     12  F4  UNL d   1      -1.287  -0.431   3.393  0.00  0.00    -0.092 F 
ENDROOT
TORSDOF 0
ENDMDL
