MODEL 1
REMARK minimizedAffinity 8.78419304
REMARK minimizedRMSD -1
REMARK  0 active torsions:
REMARK  status: ('A' for Active; 'I' for Inactive)
ROOT
ATOM      1  C   UNL d   1       0.832  -0.458  -0.157  0.00  0.00     0.124 A 
ATOM      2  C1  UNL d   1       1.093  -1.280  -1.244  0.00  0.00     0.062 A 
ATOM      3  C2  UNL d   1       2.241  -1.088  -2.007  0.00  0.00     0.162 A 
ATOM      4  C3  UNL d   1       3.139  -0.070  -1.684  0.00  0.00    -0.034 A 
ATOM      5  C4  UNL d   1       2.869   0.753  -0.589  0.00  0.00     0.162 A 
ATOM      6  C5  UNL d   1       1.720   0.557   0.170  0.00  0.00     0.062 A 
ATOM      7  F   UNL d   1       1.469   1.352   1.221  0.00  0.00    -0.097 F 
ATOM      8  F1  UNL d   1       3.710   1.741  -0.250  0.00  0.00    -0.096 F 
ATOM      9  I   UNL d   1       4.857   0.220  -2.822  0.00  0.00    -0.060 I 
ATOM     10  F2  UNL d   1       2.468  -1.897  -3.053  0.00  0.00    -0.096 F 
ATOM     11  F3  UNL d   1       0.236  -2.261  -1.563  0.00  0.00    -0.097 F 
ATOM     12  F4  UNL d   1      -0.274  -0.644   0.575  0.00  0.00    -0.092 F 
ENDROOT
TORSDOF 0
ENDMDL
