MODEL 1
REMARK minimizedAffinity 7.37692976
REMARK minimizedRMSD -1
REMARK  0 active torsions:
REMARK  status: ('A' for Active; 'I' for Inactive)
ROOT
ATOM      1  C   UNL d   1       1.973  -0.435  -0.341  0.00  0.00     0.124 A 
ATOM      2  C1  UNL d   1       2.296   0.864  -0.705  0.00  0.00     0.062 A 
ATOM      3  C2  UNL d   1       3.445   1.118  -1.448  0.00  0.00     0.162 A 
ATOM      4  C3  UNL d   1       4.280   0.069  -1.834  0.00  0.00    -0.034 A 
ATOM      5  C4  UNL d   1       3.949  -1.235  -1.463  0.00  0.00     0.162 A 
ATOM      6  C5  UNL d   1       2.800  -1.484  -0.720  0.00  0.00     0.062 A 
ATOM      7  F   UNL d   1       2.489  -2.740  -0.369  0.00  0.00    -0.097 F 
ATOM      8  F1  UNL d   1       4.730  -2.267  -1.816  0.00  0.00    -0.096 F 
ATOM      9  I   UNL d   1       5.999   0.444  -2.945  0.00  0.00    -0.060 I 
ATOM     10  F2  UNL d   1       3.733   2.384  -1.787  0.00  0.00    -0.096 F 
ATOM     11  F3  UNL d   1       1.500   1.879  -0.340  0.00  0.00    -0.097 F 
ATOM     12  F4  UNL d   1       0.868  -0.676   0.375  0.00  0.00    -0.092 F 
ENDROOT
TORSDOF 0
ENDMDL
