MODEL 1
REMARK minimizedAffinity 3.74163628
REMARK minimizedRMSD -1
REMARK  0 active torsions:
REMARK  status: ('A' for Active; 'I' for Inactive)
ROOT
ATOM      1  C   UNL d   1       1.031   0.149   0.645  0.00  0.00     0.124 A 
ATOM      2  C1  UNL d   1       1.478  -1.134   0.360  0.00  0.00     0.062 A 
ATOM      3  C2  UNL d   1       2.452  -1.336  -0.613  0.00  0.00     0.162 A 
ATOM      4  C3  UNL d   1       2.987  -0.253  -1.309  0.00  0.00    -0.034 A 
ATOM      5  C4  UNL d   1       2.532   1.035  -1.019  0.00  0.00     0.162 A 
ATOM      6  C5  UNL d   1       1.559   1.232  -0.045  0.00  0.00     0.062 A 
ATOM      7  F   UNL d   1       1.128   2.472   0.228  0.00  0.00    -0.097 F 
ATOM      8  F1  UNL d   1       3.025   2.099  -1.669  0.00  0.00    -0.096 F 
ATOM      9  I   UNL d   1       4.444  -0.551  -2.766  0.00  0.00    -0.060 I 
ATOM     10  F2  UNL d   1       2.865  -2.587  -0.867  0.00  0.00    -0.096 F 
ATOM     11  F3  UNL d   1       0.969  -2.182   1.025  0.00  0.00    -0.097 F 
ATOM     12  F4  UNL d   1       0.093   0.341   1.581  0.00  0.00    -0.092 F 
ENDROOT
TORSDOF 0
ENDMDL
