MODEL 1
REMARK minimizedAffinity 12.3787489
REMARK minimizedRMSD -1
REMARK  0 active torsions:
REMARK  status: ('A' for Active; 'I' for Inactive)
ROOT
ATOM      1  C   UNL d   1       2.572  -0.983  -0.315  0.00  0.00     0.124 A 
ATOM      2  C1  UNL d   1       2.250   0.322   0.033  0.00  0.00     0.062 A 
ATOM      3  C2  UNL d   1       1.186   0.574   0.894  0.00  0.00     0.162 A 
ATOM      4  C3  UNL d   1       0.437  -0.481   1.415  0.00  0.00    -0.034 A 
ATOM      5  C4  UNL d   1       0.767  -1.790   1.060  0.00  0.00     0.162 A 
ATOM      6  C5  UNL d   1       1.831  -2.037   0.199  0.00  0.00     0.062 A 
ATOM      7  F   UNL d   1       2.141  -3.298  -0.136  0.00  0.00    -0.097 F 
ATOM      8  F1  UNL d   1       0.068  -2.828   1.543  0.00  0.00    -0.096 F 
ATOM      9  I   UNL d   1      -1.154  -0.108   2.704  0.00  0.00    -0.060 I 
ATOM     10  F2  UNL d   1       0.898   1.845   1.213  0.00  0.00    -0.096 F 
ATOM     11  F3  UNL d   1       2.965   1.342  -0.463  0.00  0.00    -0.097 F 
ATOM     12  F4  UNL d   1       3.596  -1.223  -1.145  0.00  0.00    -0.092 F 
ENDROOT
TORSDOF 0
ENDMDL
