MODEL 1
REMARK minimizedAffinity 6.1833477
REMARK minimizedRMSD -1
REMARK  0 active torsions:
REMARK  status: ('A' for Active; 'I' for Inactive)
ROOT
ATOM      1  C   UNL d   1       1.803   0.296   0.635  0.00  0.00     0.124 A 
ATOM      2  C1  UNL d   1       2.156  -0.943   0.116  0.00  0.00     0.062 A 
ATOM      3  C2  UNL d   1       3.161  -1.040  -0.841  0.00  0.00     0.162 A 
ATOM      4  C3  UNL d   1       3.823   0.104  -1.286  0.00  0.00    -0.034 A 
ATOM      5  C4  UNL d   1       3.462   1.346  -0.761  0.00  0.00     0.162 A 
ATOM      6  C5  UNL d   1       2.457   1.439   0.196  0.00  0.00     0.062 A 
ATOM      7  F   UNL d   1       2.118   2.636   0.696  0.00  0.00    -0.097 F 
ATOM      8  F1  UNL d   1       4.078   2.467  -1.166  0.00  0.00    -0.096 F 
ATOM      9  I   UNL d   1       5.327  -0.037  -2.717  0.00  0.00    -0.060 I 
ATOM     10  F2  UNL d   1       3.481  -2.250  -1.325  0.00  0.00    -0.096 F 
ATOM     11  F3  UNL d   1       1.525  -2.048   0.537  0.00  0.00    -0.097 F 
ATOM     12  F4  UNL d   1       0.835   0.387   1.555  0.00  0.00    -0.092 F 
ENDROOT
TORSDOF 0
ENDMDL
