MODEL 1
REMARK minimizedAffinity 5.94529724
REMARK minimizedRMSD -1
REMARK  0 active torsions:
REMARK  status: ('A' for Active; 'I' for Inactive)
ROOT
ATOM      1  C   UNL d   1       1.469  -2.129   0.507  0.00  0.00     0.124 A 
ATOM      2  C1  UNL d   1       0.544  -1.368   1.210  0.00  0.00     0.062 A 
ATOM      3  C2  UNL d   1       0.663   0.018   1.249  0.00  0.00     0.162 A 
ATOM      4  C3  UNL d   1       1.711   0.653   0.582  0.00  0.00    -0.034 A 
ATOM      5  C4  UNL d   1       2.638  -0.119  -0.121  0.00  0.00     0.162 A 
ATOM      6  C5  UNL d   1       2.514  -1.504  -0.157  0.00  0.00     0.062 A 
ATOM      7  F   UNL d   1       3.409  -2.237  -0.836  0.00  0.00    -0.097 F 
ATOM      8  F1  UNL d   1       3.658   0.460  -0.773  0.00  0.00    -0.096 F 
ATOM      9  I   UNL d   1       1.893   2.726   0.638  0.00  0.00    -0.060 I 
ATOM     10  F2  UNL d   1      -0.245   0.728   1.935  0.00  0.00    -0.096 F 
ATOM     11  F3  UNL d   1      -0.467  -1.970   1.853  0.00  0.00    -0.097 F 
ATOM     12  F4  UNL d   1       1.352  -3.463   0.472  0.00  0.00    -0.092 F 
ENDROOT
TORSDOF 0
ENDMDL
