MODEL 1
REMARK minimizedAffinity 6.08791256
REMARK minimizedRMSD -1
REMARK  0 active torsions:
REMARK  status: ('A' for Active; 'I' for Inactive)
ROOT
ATOM      1  C   UNL d   1       1.337   0.317   0.200  0.00  0.00     0.124 A 
ATOM      2  C1  UNL d   1       2.047   1.356  -0.384  0.00  0.00     0.062 A 
ATOM      3  C2  UNL d   1       3.134   1.084  -1.210  0.00  0.00     0.162 A 
ATOM      4  C3  UNL d   1       3.517  -0.234  -1.458  0.00  0.00    -0.034 A 
ATOM      5  C4  UNL d   1       2.798  -1.274  -0.866  0.00  0.00     0.162 A 
ATOM      6  C5  UNL d   1       1.712  -0.997  -0.042  0.00  0.00     0.062 A 
ATOM      7  F   UNL d   1       1.027  -2.003   0.522  0.00  0.00    -0.097 F 
ATOM      8  F1  UNL d   1       3.139  -2.553  -1.083  0.00  0.00    -0.096 F 
ATOM      9  I   UNL d   1       5.142  -0.645  -2.692  0.00  0.00    -0.060 I 
ATOM     10  F2  UNL d   1       3.803   2.108  -1.761  0.00  0.00    -0.096 F 
ATOM     11  F3  UNL d   1       1.687   2.627  -0.152  0.00  0.00    -0.097 F 
ATOM     12  F4  UNL d   1       0.292   0.582   0.995  0.00  0.00    -0.092 F 
ENDROOT
TORSDOF 0
ENDMDL
