MODEL 1
REMARK minimizedAffinity 9.19346619
REMARK minimizedRMSD -1
REMARK  0 active torsions:
REMARK  status: ('A' for Active; 'I' for Inactive)
ROOT
ATOM      1  C   UNL d   1       2.775  -0.552  -0.193  0.00  0.00     0.124 A 
ATOM      2  C1  UNL d   1       2.176   0.680   0.033  0.00  0.00     0.062 A 
ATOM      3  C2  UNL d   1       1.005   0.762   0.780  0.00  0.00     0.162 A 
ATOM      4  C3  UNL d   1       0.425  -0.391   1.309  0.00  0.00    -0.034 A 
ATOM      5  C4  UNL d   1       1.033  -1.626   1.078  0.00  0.00     0.162 A 
ATOM      6  C5  UNL d   1       2.204  -1.703   0.330  0.00  0.00     0.062 A 
ATOM      7  F   UNL d   1       2.781  -2.894   0.114  0.00  0.00    -0.097 F 
ATOM      8  F1  UNL d   1       0.503  -2.754   1.572  0.00  0.00    -0.096 F 
ATOM      9  I   UNL d   1      -1.326  -0.271   2.428  0.00  0.00    -0.060 I 
ATOM     10  F2  UNL d   1       0.448   1.966   0.982  0.00  0.00    -0.096 F 
ATOM     11  F3  UNL d   1       2.726   1.794  -0.472  0.00  0.00    -0.097 F 
ATOM     12  F4  UNL d   1       3.902  -0.628  -0.913  0.00  0.00    -0.092 F 
ENDROOT
TORSDOF 0
ENDMDL
