MODEL 1
REMARK minimizedAffinity 2.76716018
REMARK minimizedRMSD -1
REMARK  0 active torsions:
REMARK  status: ('A' for Active; 'I' for Inactive)
ROOT
ATOM      1  C   UNL d   1       1.377  -0.062   0.764  0.00  0.00     0.124 A 
ATOM      2  C1  UNL d   1       1.646  -1.324   0.251  0.00  0.00     0.062 A 
ATOM      3  C2  UNL d   1       2.561  -1.478  -0.786  0.00  0.00     0.162 A 
ATOM      4  C3  UNL d   1       3.217  -0.366  -1.317  0.00  0.00    -0.034 A 
ATOM      5  C4  UNL d   1       2.941   0.899  -0.797  0.00  0.00     0.162 A 
ATOM      6  C5  UNL d   1       2.025   1.048   0.240  0.00  0.00     0.062 A 
ATOM      7  F   UNL d   1       1.767   2.267   0.734  0.00  0.00    -0.097 F 
ATOM      8  F1  UNL d   1       3.553   1.989  -1.284  0.00  0.00    -0.096 F 
ATOM      9  I   UNL d   1       4.586  -0.592  -2.868  0.00  0.00    -0.060 I 
ATOM     10  F2  UNL d   1       2.801  -2.708  -1.262  0.00  0.00    -0.096 F 
ATOM     11  F3  UNL d   1       1.021  -2.398   0.755  0.00  0.00    -0.097 F 
ATOM     12  F4  UNL d   1       0.495   0.083   1.761  0.00  0.00    -0.092 F 
ENDROOT
TORSDOF 0
ENDMDL
