MODEL 1
REMARK minimizedAffinity 16.5153713
REMARK minimizedRMSD -1
REMARK  0 active torsions:
REMARK  status: ('A' for Active; 'I' for Inactive)
ROOT
ATOM      1  C   UNL d   1       0.208   2.295  -3.991  0.00  0.00     0.124 A 
ATOM      2  C1  UNL d   1      -1.086   2.194  -3.500  0.00  0.00     0.062 A 
ATOM      3  C2  UNL d   1      -1.651   3.250  -2.791  0.00  0.00     0.162 A 
ATOM      4  C3  UNL d   1      -0.921   4.418  -2.569  0.00  0.00    -0.034 A 
ATOM      5  C4  UNL d   1       0.381   4.512  -3.065  0.00  0.00     0.162 A 
ATOM      6  C5  UNL d   1       0.940   3.454  -3.773  0.00  0.00     0.062 A 
ATOM      7  F   UNL d   1       2.191   3.554  -4.247  0.00  0.00    -0.097 F 
ATOM      8  F1  UNL d   1       1.110   5.621  -2.870  0.00  0.00    -0.096 F 
ATOM      9  I   UNL d   1      -1.761   6.000  -1.509  0.00  0.00    -0.060 I 
ATOM     10  F2  UNL d   1      -2.903   3.125  -2.329  0.00  0.00    -0.096 F 
ATOM     11  F3  UNL d   1      -1.795   1.075  -3.709  0.00  0.00    -0.097 F 
ATOM     12  F4  UNL d   1       0.749   1.277  -4.672  0.00  0.00    -0.092 F 
ENDROOT
TORSDOF 0
ENDMDL
