MODEL 1
REMARK minimizedAffinity -0.942179024
REMARK minimizedRMSD -1
REMARK  0 active torsions:
REMARK  status: ('A' for Active; 'I' for Inactive)
ROOT
ATOM      1  C   UNL d   1       1.388  -0.051   0.155  0.00  0.00     0.124 A 
ATOM      2  C1  UNL d   1       1.944   1.104  -0.377  0.00  0.00     0.062 A 
ATOM      3  C2  UNL d   1       3.016   1.023  -1.260  0.00  0.00     0.162 A 
ATOM      4  C3  UNL d   1       3.540  -0.219  -1.618  0.00  0.00    -0.034 A 
ATOM      5  C4  UNL d   1       2.976  -1.377  -1.079  0.00  0.00     0.162 A 
ATOM      6  C5  UNL d   1       1.905  -1.290  -0.196  0.00  0.00     0.062 A 
ATOM      7  F   UNL d   1       1.369  -2.408   0.316  0.00  0.00    -0.097 F 
ATOM      8  F1  UNL d   1       3.456  -2.587  -1.402  0.00  0.00    -0.096 F 
ATOM      9  I   UNL d   1       5.144  -0.345  -2.939  0.00  0.00    -0.060 I 
ATOM     10  F2  UNL d   1       3.533   2.156  -1.758  0.00  0.00    -0.096 F 
ATOM     11  F3  UNL d   1       1.447   2.303  -0.038  0.00  0.00    -0.097 F 
ATOM     12  F4  UNL d   1       0.356   0.030   1.005  0.00  0.00    -0.092 F 
ENDROOT
TORSDOF 0
ENDMDL
