MODEL 1
REMARK minimizedAffinity 12.1608276
REMARK minimizedRMSD -1
REMARK  0 active torsions:
REMARK  status: ('A' for Active; 'I' for Inactive)
ROOT
ATOM      1  C   UNL d   1       2.405  -1.922  -1.246  0.00  0.00     0.124 A 
ATOM      2  C1  UNL d   1       3.216  -1.358  -2.222  0.00  0.00     0.062 A 
ATOM      3  C2  UNL d   1       3.771  -0.097  -2.028  0.00  0.00     0.162 A 
ATOM      4  C3  UNL d   1       3.518   0.610  -0.852  0.00  0.00    -0.034 A 
ATOM      5  C4  UNL d   1       2.701   0.038   0.124  0.00  0.00     0.162 A 
ATOM      6  C5  UNL d   1       2.148  -1.224  -0.075  0.00  0.00     0.062 A 
ATOM      7  F   UNL d   1       1.366  -1.767   0.869  0.00  0.00    -0.097 F 
ATOM      8  F1  UNL d   1       2.437   0.690   1.266  0.00  0.00    -0.096 F 
ATOM      9  I   UNL d   1       4.346   2.497  -0.559  0.00  0.00    -0.060 I 
ATOM     10  F2  UNL d   1       4.550   0.424  -2.988  0.00  0.00    -0.096 F 
ATOM     11  F3  UNL d   1       3.464  -2.030  -3.355  0.00  0.00    -0.097 F 
ATOM     12  F4  UNL d   1       1.872  -3.135  -1.436  0.00  0.00    -0.092 F 
ENDROOT
TORSDOF 0
ENDMDL
