MODEL 1
REMARK minimizedAffinity 18.9322586
REMARK minimizedRMSD -1
REMARK  0 active torsions:
REMARK  status: ('A' for Active; 'I' for Inactive)
ROOT
ATOM      1  C   UNL d   1       3.569   4.533   5.645  0.00  0.00     0.124 A 
ATOM      2  C1  UNL d   1       4.722   3.763   5.703  0.00  0.00     0.062 A 
ATOM      3  C2  UNL d   1       4.634   2.377   5.796  0.00  0.00     0.162 A 
ATOM      4  C3  UNL d   1       3.388   1.751   5.831  0.00  0.00    -0.034 A 
ATOM      5  C4  UNL d   1       2.233   2.533   5.773  0.00  0.00     0.162 A 
ATOM      6  C5  UNL d   1       2.326   3.917   5.681  0.00  0.00     0.062 A 
ATOM      7  F   UNL d   1       1.211   4.660   5.625  0.00  0.00    -0.097 F 
ATOM      8  F1  UNL d   1       1.018   1.964   5.805  0.00  0.00    -0.096 F 
ATOM      9  I   UNL d   1       3.252  -0.321   5.970  0.00  0.00    -0.060 I 
ATOM     10  F2  UNL d   1       5.765   1.657   5.850  0.00  0.00    -0.096 F 
ATOM     11  F3  UNL d   1       5.925   4.355   5.670  0.00  0.00    -0.097 F 
ATOM     12  F4  UNL d   1       3.657   5.866   5.557  0.00  0.00    -0.092 F 
ENDROOT
TORSDOF 0
ENDMDL
