MODEL 1
REMARK minimizedAffinity 17.1341248
REMARK minimizedRMSD -1
REMARK  0 active torsions:
REMARK  status: ('A' for Active; 'I' for Inactive)
ROOT
ATOM      1  C   UNL d   1       2.927  -2.489  -1.558  0.00  0.00     0.124 A 
ATOM      2  C1  UNL d   1       3.194  -1.709  -0.441  0.00  0.00     0.062 A 
ATOM      3  C2  UNL d   1       3.810  -0.469  -0.584  0.00  0.00     0.162 A 
ATOM      4  C3  UNL d   1       4.163  -0.000  -1.849  0.00  0.00    -0.034 A 
ATOM      5  C4  UNL d   1       3.892  -0.790  -2.968  0.00  0.00     0.162 A 
ATOM      6  C5  UNL d   1       3.276  -2.029  -2.820  0.00  0.00     0.062 A 
ATOM      7  F   UNL d   1       3.019  -2.781  -3.900  0.00  0.00    -0.097 F 
ATOM      8  F1  UNL d   1       4.218  -0.370  -4.199  0.00  0.00    -0.096 F 
ATOM      9  I   UNL d   1       5.084   1.853  -2.067  0.00  0.00    -0.060 I 
ATOM     10  F2  UNL d   1       4.056   0.263   0.513  0.00  0.00    -0.096 F 
ATOM     11  F3  UNL d   1       2.859  -2.152   0.779  0.00  0.00    -0.097 F 
ATOM     12  F4  UNL d   1       2.335  -3.682  -1.418  0.00  0.00    -0.092 F 
ENDROOT
TORSDOF 0
ENDMDL
