MODEL 1
REMARK minimizedAffinity 15.819066
REMARK minimizedRMSD -1
REMARK  0 active torsions:
REMARK  status: ('A' for Active; 'I' for Inactive)
ROOT
ATOM      1  C   UNL d   1       1.402  -0.948  -1.930  0.00  0.00     0.124 A 
ATOM      2  C1  UNL d   1       1.023   0.374  -1.743  0.00  0.00     0.062 A 
ATOM      3  C2  UNL d   1       1.640   1.148  -0.764  0.00  0.00     0.162 A 
ATOM      4  C3  UNL d   1       2.645   0.601   0.035  0.00  0.00    -0.034 A 
ATOM      5  C4  UNL d   1       3.020  -0.730  -0.159  0.00  0.00     0.162 A 
ATOM      6  C5  UNL d   1       2.399  -1.498  -1.138  0.00  0.00     0.062 A 
ATOM      7  F   UNL d   1       2.767  -2.775  -1.318  0.00  0.00    -0.097 F 
ATOM      8  F1  UNL d   1       3.982  -1.287   0.592  0.00  0.00    -0.096 F 
ATOM      9  I   UNL d   1       3.571   1.754   1.499  0.00  0.00    -0.060 I 
ATOM     10  F2  UNL d   1       1.254   2.422  -0.605  0.00  0.00    -0.096 F 
ATOM     11  F3  UNL d   1       0.058   0.908  -2.506  0.00  0.00    -0.097 F 
ATOM     12  F4  UNL d   1       0.805  -1.690  -2.872  0.00  0.00    -0.092 F 
ENDROOT
TORSDOF 0
ENDMDL
