MODEL 1
REMARK minimizedAffinity 9.77811909
REMARK minimizedRMSD -1
REMARK  0 active torsions:
REMARK  status: ('A' for Active; 'I' for Inactive)
ROOT
ATOM      1  C   UNL d   1       2.905   2.410   5.196  0.00  0.00     0.124 A 
ATOM      2  C1  UNL d   1       2.347   3.681   5.227  0.00  0.00     0.062 A 
ATOM      3  C2  UNL d   1       2.894   4.704   4.458  0.00  0.00     0.162 A 
ATOM      4  C3  UNL d   1       4.005   4.461   3.650  0.00  0.00    -0.034 A 
ATOM      5  C4  UNL d   1       4.561   3.181   3.625  0.00  0.00     0.162 A 
ATOM      6  C5  UNL d   1       4.011   2.162   4.396  0.00  0.00     0.062 A 
ATOM      7  F   UNL d   1       4.552   0.935   4.365  0.00  0.00    -0.097 F 
ATOM      8  F1  UNL d   1       5.630   2.913   2.860  0.00  0.00    -0.096 F 
ATOM      9  I   UNL d   1       4.825   5.988   2.499  0.00  0.00    -0.060 I 
ATOM     10  F2  UNL d   1       2.334   5.922   4.507  0.00  0.00    -0.096 F 
ATOM     11  F3  UNL d   1       1.279   3.924   6.000  0.00  0.00    -0.097 F 
ATOM     12  F4  UNL d   1       2.378   1.428   5.938  0.00  0.00    -0.092 F 
ENDROOT
TORSDOF 0
ENDMDL
