MODEL 1
REMARK minimizedAffinity 16.7864513
REMARK minimizedRMSD -1
REMARK  0 active torsions:
REMARK  status: ('A' for Active; 'I' for Inactive)
ROOT
ATOM      1  C   UNL d   1      -3.772   2.119   0.053  0.00  0.00     0.124 A 
ATOM      2  C1  UNL d   1      -3.773   3.500   0.187  0.00  0.00     0.062 A 
ATOM      3  C2  UNL d   1      -4.305   4.093   1.328  0.00  0.00     0.162 A 
ATOM      4  C3  UNL d   1      -4.838   3.303   2.347  0.00  0.00    -0.034 A 
ATOM      5  C4  UNL d   1      -4.834   1.915   2.206  0.00  0.00     0.162 A 
ATOM      6  C5  UNL d   1      -4.302   1.327   1.062  0.00  0.00     0.062 A 
ATOM      7  F   UNL d   1      -4.301  -0.008   0.935  0.00  0.00    -0.097 F 
ATOM      8  F1  UNL d   1      -5.339   1.126   3.166  0.00  0.00    -0.096 F 
ATOM      9  I   UNL d   1      -5.634   4.185   4.056  0.00  0.00    -0.060 I 
ATOM     10  F2  UNL d   1      -4.293   5.430   1.431  0.00  0.00    -0.096 F 
ATOM     11  F3  UNL d   1      -3.263   4.267  -0.788  0.00  0.00    -0.097 F 
ATOM     12  F4  UNL d   1      -3.261   1.551  -1.047  0.00  0.00    -0.092 F 
ENDROOT
TORSDOF 0
ENDMDL
