MODEL 1
REMARK minimizedAffinity 15.0000353
REMARK minimizedRMSD -1
REMARK  0 active torsions:
REMARK  status: ('A' for Active; 'I' for Inactive)
ROOT
ATOM      1  C   UNL d   1      -0.186   3.529   4.779  0.00  0.00     0.124 A 
ATOM      2  C1  UNL d   1       0.357   2.259   4.633  0.00  0.00     0.062 A 
ATOM      3  C2  UNL d   1       0.499   1.701   3.366  0.00  0.00     0.162 A 
ATOM      4  C3  UNL d   1       0.098   2.412   2.234  0.00  0.00    -0.034 A 
ATOM      5  C4  UNL d   1      -0.448   3.687   2.390  0.00  0.00     0.162 A 
ATOM      6  C5  UNL d   1      -0.587   4.241   3.658  0.00  0.00     0.062 A 
ATOM      7  F   UNL d   1      -1.112   5.467   3.798  0.00  0.00    -0.097 F 
ATOM      8  F1  UNL d   1      -0.843   4.398   1.323  0.00  0.00    -0.096 F 
ATOM      9  I   UNL d   1       0.309   1.580   0.338  0.00  0.00    -0.060 I 
ATOM     10  F2  UNL d   1       1.026   0.473   3.254  0.00  0.00    -0.096 F 
ATOM     11  F3  UNL d   1       0.745   1.569   5.715  0.00  0.00    -0.097 F 
ATOM     12  F4  UNL d   1      -0.322   4.063   6.000  0.00  0.00    -0.092 F 
ENDROOT
TORSDOF 0
ENDMDL
