MODEL 1
REMARK minimizedAffinity 7.54764891
REMARK minimizedRMSD -1
REMARK  0 active torsions:
REMARK  status: ('A' for Active; 'I' for Inactive)
ROOT
ATOM      1  C   UNL d   1       5.259  -5.999   1.030  0.00  0.00     0.023 A 
ATOM      2  C1  UNL d   1       4.956  -5.371   2.238  0.00  0.00     0.003 A 
ATOM      3  C2  UNL d   1       4.037  -4.320   2.269  0.00  0.00     0.048 A 
ATOM      4  C3  UNL d   1       3.423  -3.904   1.088  0.00  0.00     0.023 A 
ATOM      5  C4  UNL d   1       3.722  -4.530  -0.123  0.00  0.00     0.048 A 
ATOM      6  C5  UNL d   1       4.642  -5.580  -0.149  0.00  0.00     0.003 A 
ATOM      7  I   UNL d   1       2.054  -2.340   1.131  0.00  0.00    -0.146 I 
ENDROOT
TORSDOF 0
ENDMDL
