MODEL 1
REMARK minimizedAffinity -0.542276919
REMARK minimizedRMSD -1
REMARK  0 active torsions:
REMARK  status: ('A' for Active; 'I' for Inactive)
ROOT
ATOM      1  C   UNL d   1       2.193   2.386  -6.000  0.00  0.00     0.023 A 
ATOM      2  C1  UNL d   1       3.541   2.026  -6.000  0.00  0.00     0.003 A 
ATOM      3  C2  UNL d   1       4.528   3.013  -6.000  0.00  0.00     0.048 A 
ATOM      4  C3  UNL d   1       4.161   4.359  -5.999  0.00  0.00     0.023 A 
ATOM      5  C4  UNL d   1       2.814   4.724  -5.999  0.00  0.00     0.048 A 
ATOM      6  C5  UNL d   1       1.830   3.733  -5.999  0.00  0.00     0.003 A 
ATOM      7  I   UNL d   1       5.630   5.830  -5.999  0.00  0.00    -0.146 I 
ENDROOT
TORSDOF 0
ENDMDL
