MODEL 1
REMARK minimizedAffinity 2.64052081
REMARK minimizedRMSD -1
REMARK  0 active torsions:
REMARK  status: ('A' for Active; 'I' for Inactive)
ROOT
ATOM      1  C   UNL d   1       1.502   5.998   5.417  0.00  0.00     0.023 A 
ATOM      2  C1  UNL d   1       2.880   6.000   5.628  0.00  0.00     0.003 A 
ATOM      3  C2  UNL d   1       3.755   6.000   4.540  0.00  0.00     0.048 A 
ATOM      4  C3  UNL d   1       3.243   5.998   3.242  0.00  0.00     0.023 A 
ATOM      5  C4  UNL d   1       1.864   5.997   3.026  0.00  0.00     0.048 A 
ATOM      6  C5  UNL d   1       0.994   5.996   4.118  0.00  0.00     0.003 A 
ATOM      7  I   UNL d   1       4.543   5.999   1.620  0.00  0.00    -0.146 I 
ENDROOT
TORSDOF 0
ENDMDL
