MODEL 1
REMARK minimizedAffinity 6.23919773
REMARK minimizedRMSD -1
REMARK  0 active torsions:
REMARK  status: ('A' for Active; 'I' for Inactive)
ROOT
ATOM      1  C   UNL d   1       0.890  -0.370  -0.003  0.00  0.00     0.023 A 
ATOM      2  C1  UNL d   1       0.017  -0.588  -1.069  0.00  0.00     0.003 A 
ATOM      3  C2  UNL d   1      -1.338  -0.822  -0.826  0.00  0.00     0.048 A 
ATOM      4  C3  UNL d   1      -1.815  -0.834   0.484  0.00  0.00     0.023 A 
ATOM      5  C4  UNL d   1      -0.945  -0.614   1.554  0.00  0.00     0.048 A 
ATOM      6  C5  UNL d   1       0.409  -0.383   1.307  0.00  0.00     0.003 A 
ATOM      7  I   UNL d   1      -3.831  -1.180   0.847  0.00  0.00    -0.146 I 
ENDROOT
TORSDOF 0
ENDMDL
