MODEL 1
REMARK minimizedAffinity 4.72063112
REMARK minimizedRMSD -1
REMARK  0 active torsions:
REMARK  status: ('A' for Active; 'I' for Inactive)
ROOT
ATOM      1  C   UNL d   1       1.269   5.996   5.676  0.00  0.00     0.023 A 
ATOM      2  C1  UNL d   1       0.861   5.992   4.343  0.00  0.00     0.003 A 
ATOM      3  C2  UNL d   1       1.812   5.993   3.320  0.00  0.00     0.048 A 
ATOM      4  C3  UNL d   1       3.170   5.997   3.638  0.00  0.00     0.023 A 
ATOM      5  C4  UNL d   1       3.583   5.999   4.971  0.00  0.00     0.048 A 
ATOM      6  C5  UNL d   1       2.629   6.000   5.990  0.00  0.00     0.003 A 
ATOM      7  I   UNL d   1       4.587   5.998   2.118  0.00  0.00    -0.146 I 
ENDROOT
TORSDOF 0
ENDMDL
