MODEL 1
REMARK minimizedAffinity 10.4623432
REMARK minimizedRMSD -1
REMARK  0 active torsions:
REMARK  status: ('A' for Active; 'I' for Inactive)
ROOT
ATOM      1  C   UNL d   1       1.297  -0.540  -0.581  0.00  0.00     0.023 A 
ATOM      2  C1  UNL d   1       1.815  -1.247   0.504  0.00  0.00     0.003 A 
ATOM      3  C2  UNL d   1       0.972  -1.653   1.541  0.00  0.00     0.048 A 
ATOM      4  C3  UNL d   1      -0.388  -1.350   1.484  0.00  0.00     0.023 A 
ATOM      5  C4  UNL d   1      -0.911  -0.644   0.400  0.00  0.00     0.048 A 
ATOM      6  C5  UNL d   1      -0.064  -0.239  -0.634  0.00  0.00     0.003 A 
ATOM      7  I   UNL d   1      -1.646  -1.953   3.026  0.00  0.00    -0.146 I 
ENDROOT
TORSDOF 0
ENDMDL
