MODEL 1
REMARK minimizedAffinity 6.50262642
REMARK minimizedRMSD -1
REMARK  0 active torsions:
REMARK  status: ('A' for Active; 'I' for Inactive)
ROOT
ATOM      1  C   UNL d   1      -2.277  -0.615   2.188  0.00  0.00     0.023 A 
ATOM      2  C1  UNL d   1      -2.545  -0.360   0.843  0.00  0.00     0.003 A 
ATOM      3  C2  UNL d   1      -1.516  -0.419  -0.099  0.00  0.00     0.048 A 
ATOM      4  C3  UNL d   1      -0.221  -0.734   0.312  0.00  0.00     0.023 A 
ATOM      5  C4  UNL d   1       0.052  -0.990   1.657  0.00  0.00     0.048 A 
ATOM      6  C5  UNL d   1      -0.981  -0.929   2.594  0.00  0.00     0.003 A 
ATOM      7  I   UNL d   1       1.313  -0.822  -1.088  0.00  0.00    -0.146 I 
ENDROOT
TORSDOF 0
ENDMDL
