MODEL 1
REMARK minimizedAffinity 5.92583084
REMARK minimizedRMSD -1
REMARK  0 active torsions:
REMARK  status: ('A' for Active; 'I' for Inactive)
ROOT
ATOM      1  C   UNL d   1      -0.665  -0.320   1.525  0.00  0.00     0.023 A 
ATOM      2  C1  UNL d   1      -0.263  -1.271   2.463  0.00  0.00     0.003 A 
ATOM      3  C2  UNL d   1       0.836  -2.092   2.201  0.00  0.00     0.048 A 
ATOM      4  C3  UNL d   1       1.529  -1.956   0.999  0.00  0.00     0.023 A 
ATOM      5  C4  UNL d   1       1.132  -1.005   0.058  0.00  0.00     0.048 A 
ATOM      6  C5  UNL d   1       0.032  -0.187   0.323  0.00  0.00     0.003 A 
ATOM      7  I   UNL d   1       3.165  -3.176   0.607  0.00  0.00    -0.146 I 
ENDROOT
TORSDOF 0
ENDMDL
