MODEL 1
REMARK minimizedAffinity 2.0430963
REMARK minimizedRMSD -1
REMARK  0 active torsions:
REMARK  status: ('A' for Active; 'I' for Inactive)
ROOT
ATOM      1  C   UNL d   1      -2.071  -2.222   3.416  0.00  0.00     0.172 C 
ATOM      2  N   UNL d   1      -1.680  -2.686   2.106  0.00  0.00    -0.070 N 
ATOM      3  C1  UNL d   1      -1.370  -3.979   1.777  0.00  0.00    -0.004 A 
ATOM      4  C2  UNL d   1      -1.050  -4.008   0.436  0.00  0.00    -0.047 A 
ATOM      5  C3  UNL d   1      -1.172  -2.687  -0.057  0.00  0.00    -0.047 A 
ATOM      6  C4  UNL d   1      -1.563  -1.889   0.998  0.00  0.00    -0.004 A 
ENDROOT
TORSDOF 0
ENDMDL
