MODEL 1
REMARK minimizedAffinity 6.45062733
REMARK minimizedRMSD -1
REMARK  0 active torsions:
REMARK  status: ('A' for Active; 'I' for Inactive)
ROOT
ATOM      1  C   UNL d   1      -1.172  -2.420  -0.376  0.00  0.00     0.172 C 
ATOM      2  N   UNL d   1      -0.951  -3.780   0.055  0.00  0.00    -0.070 N 
ATOM      3  C1  UNL d   1      -0.509  -4.163   1.294  0.00  0.00    -0.004 A 
ATOM      4  C2  UNL d   1      -0.429  -5.539   1.306  0.00  0.00    -0.047 A 
ATOM      5  C3  UNL d   1      -0.836  -5.999   0.031  0.00  0.00    -0.047 A 
ATOM      6  C4  UNL d   1      -1.154  -4.889  -0.723  0.00  0.00    -0.004 A 
ENDROOT
TORSDOF 0
ENDMDL
