MODEL 1
REMARK minimizedAffinity 5.05357838
REMARK minimizedRMSD -1
REMARK  0 active torsions:
REMARK  status: ('A' for Active; 'I' for Inactive)
ROOT
ATOM      1  C   UNL d   1       2.849  -0.088  -1.514  0.00  0.00     0.172 C 
ATOM      2  N   UNL d   1       2.909   0.839  -0.409  0.00  0.00    -0.070 N 
ATOM      3  C1  UNL d   1       4.053   1.287   0.196  0.00  0.00    -0.004 A 
ATOM      4  C2  UNL d   1       3.686   2.155   1.202  0.00  0.00    -0.047 A 
ATOM      5  C3  UNL d   1       2.273   2.230   1.202  0.00  0.00    -0.047 A 
ATOM      6  C4  UNL d   1       1.818   1.406   0.195  0.00  0.00    -0.004 A 
ENDROOT
TORSDOF 0
ENDMDL
