MODEL 1
REMARK minimizedAffinity 2.14553547
REMARK minimizedRMSD -1
REMARK  0 active torsions:
REMARK  status: ('A' for Active; 'I' for Inactive)
ROOT
ATOM      1  C   UNL d   1      -1.815  -2.450  -2.282  0.00  0.00     0.172 C 
ATOM      2  N   UNL d   1      -1.563  -2.715  -0.885  0.00  0.00    -0.070 N 
ATOM      3  C1  UNL d   1      -2.027  -1.969   0.165  0.00  0.00    -0.004 A 
ATOM      4  C2  UNL d   1      -1.569  -2.548   1.329  0.00  0.00    -0.047 A 
ATOM      5  C3  UNL d   1      -0.802  -3.681   0.965  0.00  0.00    -0.047 A 
ATOM      6  C4  UNL d   1      -0.815  -3.760  -0.412  0.00  0.00    -0.004 A 
ENDROOT
TORSDOF 0
ENDMDL
