MODEL 1
REMARK minimizedAffinity 2.16310906
REMARK minimizedRMSD -1
REMARK  0 active torsions:
REMARK  status: ('A' for Active; 'I' for Inactive)
ROOT
ATOM      1  C   UNL d   1       5.984   2.221  -1.155  0.00  0.00     0.172 C 
ATOM      2  N   UNL d   1       5.989   1.021  -1.960  0.00  0.00    -0.070 N 
ATOM      3  C1  UNL d   1       5.995   0.978  -3.329  0.00  0.00    -0.004 A 
ATOM      4  C2  UNL d   1       6.000  -0.346  -3.709  0.00  0.00    -0.047 A 
ATOM      5  C3  UNL d   1       5.996  -1.126  -2.528  0.00  0.00    -0.047 A 
ATOM      6  C4  UNL d   1       5.989  -0.254  -1.460  0.00  0.00    -0.004 A 
ENDROOT
TORSDOF 0
ENDMDL
