MODEL 1
REMARK minimizedAffinity 2.96265864
REMARK minimizedRMSD -1
REMARK  0 active torsions:
REMARK  status: ('A' for Active; 'I' for Inactive)
ROOT
ATOM      1  C   UNL d   1       2.957   0.246  -1.787  0.00  0.00     0.172 C 
ATOM      2  N   UNL d   1       2.919   1.026  -0.573  0.00  0.00    -0.070 N 
ATOM      3  C1  UNL d   1       3.829   1.984  -0.211  0.00  0.00    -0.004 A 
ATOM      4  C2  UNL d   1       3.442   2.493   1.010  0.00  0.00    -0.047 A 
ATOM      5  C3  UNL d   1       2.259   1.818   1.395  0.00  0.00    -0.047 A 
ATOM      6  C4  UNL d   1       1.958   0.916   0.397  0.00  0.00    -0.004 A 
ENDROOT
TORSDOF 0
ENDMDL
