MODEL 1
REMARK minimizedAffinity 7.10700941
REMARK minimizedRMSD -1
REMARK  0 active torsions:
REMARK  status: ('A' for Active; 'I' for Inactive)
ROOT
ATOM      1  C   UNL d   1      -1.972  -2.005   3.548  0.00  0.00     0.172 C 
ATOM      2  N   UNL d   1      -1.645  -2.121   2.146  0.00  0.00    -0.070 N 
ATOM      3  C1  UNL d   1      -2.152  -1.341   1.141  0.00  0.00    -0.004 A 
ATOM      4  C2  UNL d   1      -1.595  -1.766  -0.045  0.00  0.00    -0.047 A 
ATOM      5  C3  UNL d   1      -0.724  -2.840   0.257  0.00  0.00    -0.047 A 
ATOM      6  C4  UNL d   1      -0.775  -3.039   1.620  0.00  0.00    -0.004 A 
ENDROOT
TORSDOF 0
ENDMDL
