MODEL 1
REMARK minimizedAffinity 11.9360981
REMARK minimizedRMSD -1
REMARK  0 active torsions:
REMARK  status: ('A' for Active; 'I' for Inactive)
ROOT
ATOM      1  C   UNL d   1       2.627   5.917   5.998  0.00  0.00     0.172 C 
ATOM      2  N   UNL d   1       3.303   4.758   5.464  0.00  0.00    -0.070 N 
ATOM      3  C1  UNL d   1       4.550   4.751   4.899  0.00  0.00    -0.004 A 
ATOM      4  C2  UNL d   1       4.834   3.458   4.517  0.00  0.00    -0.047 A 
ATOM      5  C3  UNL d   1       3.718   2.659   4.863  0.00  0.00    -0.047 A 
ATOM      6  C4  UNL d   1       2.785   3.490   5.448  0.00  0.00    -0.004 A 
ENDROOT
TORSDOF 0
ENDMDL
