MODEL 1
REMARK minimizedAffinity 8.16267204
REMARK minimizedRMSD -1
REMARK  0 active torsions:
REMARK  status: ('A' for Active; 'I' for Inactive)
ROOT
ATOM      1  C   UNL d   1      -0.415  -5.151   0.794  0.00  0.00     0.172 C 
ATOM      2  N   UNL d   1      -1.011  -3.854   0.580  0.00  0.00    -0.070 N 
ATOM      3  C1  UNL d   1      -0.688  -2.983  -0.426  0.00  0.00    -0.004 A 
ATOM      4  C2  UNL d   1      -1.478  -1.862  -0.284  0.00  0.00    -0.047 A 
ATOM      5  C3  UNL d   1      -2.303  -2.066   0.848  0.00  0.00    -0.047 A 
ATOM      6  C4  UNL d   1      -1.993  -3.307   1.363  0.00  0.00    -0.004 A 
ENDROOT
TORSDOF 0
ENDMDL
