MODEL 1
REMARK minimizedAffinity 10.1938295
REMARK minimizedRMSD -1
REMARK  0 active torsions:
REMARK  status: ('A' for Active; 'I' for Inactive)
ROOT
ATOM      1  C   UNL d   1       2.906   5.835   6.000  0.00  0.00     0.172 C 
ATOM      2  N   UNL d   1       3.460   4.556   5.621  0.00  0.00    -0.070 N 
ATOM      3  C1  UNL d   1       4.567   4.366   4.836  0.00  0.00    -0.004 A 
ATOM      4  C2  UNL d   1       4.767   3.009   4.711  0.00  0.00    -0.047 A 
ATOM      5  C3  UNL d   1       3.745   2.360   5.444  0.00  0.00    -0.047 A 
ATOM      6  C4  UNL d   1       2.950   3.342   5.997  0.00  0.00    -0.004 A 
ENDROOT
TORSDOF 0
ENDMDL
