MODEL 1
REMARK minimizedAffinity 1.66446137
REMARK minimizedRMSD -1
REMARK  0 active torsions:
REMARK  status: ('A' for Active; 'I' for Inactive)
ROOT
ATOM      1  C   UNL d   1      -4.435   5.997  -1.537  0.00  0.00     0.172 C 
ATOM      2  N   UNL d   1      -4.949   5.380  -0.337  0.00  0.00    -0.070 N 
ATOM      3  C1  UNL d   1      -5.714   6.000   0.615  0.00  0.00    -0.004 A 
ATOM      4  C2  UNL d   1      -5.999   5.074   1.596  0.00  0.00    -0.047 A 
ATOM      5  C3  UNL d   1      -5.383   3.857   1.221  0.00  0.00    -0.047 A 
ATOM      6  C4  UNL d   1      -4.740   4.074   0.021  0.00  0.00    -0.004 A 
ENDROOT
TORSDOF 0
ENDMDL
