MODEL 1
REMARK minimizedAffinity 6.37196922
REMARK minimizedRMSD -1
REMARK  0 active torsions:
REMARK  status: ('A' for Active; 'I' for Inactive)
ROOT
ATOM      1  C   UNL d   1       6.000   4.923  -0.744  0.00  0.00     0.172 C 
ATOM      2  N   UNL d   1       5.124   3.899  -0.227  0.00  0.00    -0.070 N 
ATOM      3  C1  UNL d   1       5.465   2.590  -0.013  0.00  0.00    -0.004 A 
ATOM      4  C2  UNL d   1       4.356   1.941   0.485  0.00  0.00    -0.047 A 
ATOM      5  C3  UNL d   1       3.312   2.892   0.573  0.00  0.00    -0.047 A 
ATOM      6  C4  UNL d   1       3.815   4.096   0.126  0.00  0.00    -0.004 A 
ENDROOT
TORSDOF 0
ENDMDL
