MODEL 1
REMARK minimizedAffinity 9.76619244
REMARK minimizedRMSD -1
REMARK  0 active torsions:
REMARK  status: ('A' for Active; 'I' for Inactive)
ROOT
ATOM      1  C   UNL d   1       4.686   5.999   0.916  0.00  0.00     0.172 C 
ATOM      2  N   UNL d   1       5.005   4.712   0.343  0.00  0.00    -0.070 N 
ATOM      3  C1  UNL d   1       4.368   3.533   0.624  0.00  0.00    -0.004 A 
ATOM      4  C2  UNL d   1       4.966   2.542  -0.124  0.00  0.00    -0.047 A 
ATOM      5  C3  UNL d   1       5.998   3.146  -0.881  0.00  0.00    -0.047 A 
ATOM      6  C4  UNL d   1       5.999   4.490  -0.573  0.00  0.00    -0.004 A 
ENDROOT
TORSDOF 0
ENDMDL
