MODEL 1
REMARK minimizedAffinity 6.98331547
REMARK minimizedRMSD -1
REMARK  0 active torsions:
REMARK  status: ('A' for Active; 'I' for Inactive)
ROOT
ATOM      1  C   UNL d   1      -0.058   3.112  -4.508  0.00  0.00     0.172 C 
ATOM      2  N   UNL d   1      -1.431   3.386  -4.861  0.00  0.00    -0.070 N 
ATOM      3  C1  UNL d   1      -2.314   4.125  -4.121  0.00  0.00    -0.004 A 
ATOM      4  C2  UNL d   1      -3.514   4.151  -4.797  0.00  0.00    -0.047 A 
ATOM      5  C3  UNL d   1      -3.347   3.400  -5.985  0.00  0.00    -0.047 A 
ATOM      6  C4  UNL d   1      -2.048   2.938  -5.999  0.00  0.00    -0.004 A 
ENDROOT
TORSDOF 0
ENDMDL
