MODEL 1
REMARK minimizedAffinity 4.9384985
REMARK minimizedRMSD -1
REMARK  0 active torsions:
REMARK  status: ('A' for Active; 'I' for Inactive)
ROOT
ATOM      1  C   UNL d   1      -0.669  -4.739  -0.115  0.00  0.00     0.172 C 
ATOM      2  N   UNL d   1      -1.237  -3.413  -0.034  0.00  0.00    -0.070 N 
ATOM      3  C1  UNL d   1      -0.684  -2.275  -0.556  0.00  0.00    -0.004 A 
ATOM      4  C2  UNL d   1      -1.529  -1.225  -0.268  0.00  0.00    -0.047 A 
ATOM      5  C3  UNL d   1      -2.628  -1.750   0.452  0.00  0.00    -0.047 A 
ATOM      6  C4  UNL d   1      -2.421  -3.108   0.583  0.00  0.00    -0.004 A 
ENDROOT
TORSDOF 0
ENDMDL
