MODEL 1
REMARK minimizedAffinity 4.32005262
REMARK minimizedRMSD -1
REMARK  0 active torsions:
REMARK  status: ('A' for Active; 'I' for Inactive)
ROOT
ATOM      1  C   UNL d   1       5.071   3.927  -0.023  0.00  0.00     0.172 C 
ATOM      2  N   UNL d   1       4.091   2.964   0.420  0.00  0.00    -0.070 N 
ATOM      3  C1  UNL d   1       3.208   2.295  -0.385  0.00  0.00    -0.004 A 
ATOM      4  C2  UNL d   1       2.448   1.471   0.417  0.00  0.00    -0.047 A 
ATOM      5  C3  UNL d   1       2.889   1.651   1.749  0.00  0.00    -0.047 A 
ATOM      6  C4  UNL d   1       3.907   2.581   1.723  0.00  0.00    -0.004 A 
ENDROOT
TORSDOF 0
ENDMDL
