MODEL 1
REMARK minimizedAffinity 4.3275795
REMARK minimizedRMSD -1
REMARK  0 active torsions:
REMARK  status: ('A' for Active; 'I' for Inactive)
ROOT
ATOM      1  C   UNL d   1       3.196   2.462   3.213  0.00  0.00     0.172 C 
ATOM      2  N   UNL d   1       3.102   2.470   1.772  0.00  0.00    -0.070 N 
ATOM      3  C1  UNL d   1       3.959   3.113   0.919  0.00  0.00    -0.004 A 
ATOM      4  C2  UNL d   1       3.530   2.877  -0.369  0.00  0.00    -0.047 A 
ATOM      5  C3  UNL d   1       2.374   2.065  -0.288  0.00  0.00    -0.047 A 
ATOM      6  C4  UNL d   1       2.132   1.828   1.049  0.00  0.00    -0.004 A 
ENDROOT
TORSDOF 0
ENDMDL
