MODEL 1
REMARK minimizedAffinity 5.88653755
REMARK minimizedRMSD -1
REMARK  0 active torsions:
REMARK  status: ('A' for Active; 'I' for Inactive)
ROOT
ATOM      1  C   UNL d   1      -1.871  -4.137   3.769  0.00  0.00     0.172 C 
ATOM      2  N   UNL d   1      -1.343  -4.656   2.530  0.00  0.00    -0.070 N 
ATOM      3  C1  UNL d   1      -0.759  -5.884   2.364  0.00  0.00    -0.004 A 
ATOM      4  C2  UNL d   1      -0.390  -6.000   1.041  0.00  0.00    -0.047 A 
ATOM      5  C3  UNL d   1      -0.763  -4.800   0.390  0.00  0.00    -0.047 A 
ATOM      6  C4  UNL d   1      -1.351  -3.986   1.335  0.00  0.00    -0.004 A 
ENDROOT
TORSDOF 0
ENDMDL
