MODEL 1
REMARK minimizedAffinity -3.41664767
REMARK minimizedRMSD -1
REMARK  1 active torsions:
REMARK  status: ('A' for Active; 'I' for Inactive)
REMARK    1  A    between atoms: N_2  and  C1_3 
ROOT
ATOM      1  C1  UNL d   1       5.334  -2.178  -5.130  0.00  0.00     0.143 A 
ATOM      2  C2  UNL d   1       4.440  -2.735  -4.210  0.00  0.00    -0.057 A 
ATOM      3  C3  UNL d   1       4.251  -4.120  -4.128  0.00  0.00     0.033 A 
ATOM      4  C4  UNL d   1       4.935  -4.973  -4.988  0.00  0.00    -0.042 A 
ATOM      5  C5  UNL d   1       5.811  -4.440  -5.927  0.00  0.00     0.033 A 
ATOM      6  C6  UNL d   1       6.000  -3.056  -5.999  0.00  0.00    -0.057 A 
ENDROOT
BRANCH   1   7
ATOM      7  N   UNL d   1       5.492  -0.804  -5.327  0.00  0.00    -0.732 N 
ATOM      8  C   UNL d   1       4.446  -0.024  -5.953  0.00  0.00     0.284 C 
ATOM      9  H3  UNL d   1       5.933  -0.346  -4.533  0.00  0.00     0.395 HD
ENDBRANCH   1   7
TORSDOF 1
ENDMDL
