MODEL 1
REMARK minimizedAffinity -2.90354824
REMARK minimizedRMSD -1
REMARK  1 active torsions:
REMARK  status: ('A' for Active; 'I' for Inactive)
REMARK    1  A    between atoms: N_2  and  C1_3 
ROOT
ATOM      1  C1  UNL d   1       4.805  -3.492  -5.178  0.00  0.00     0.143 A 
ATOM      2  C2  UNL d   1       3.605  -4.150  -4.890  0.00  0.00    -0.057 A 
ATOM      3  C3  UNL d   1       3.595  -5.385  -4.231  0.00  0.00     0.033 A 
ATOM      4  C4  UNL d   1       4.790  -6.000  -3.873  0.00  0.00    -0.042 A 
ATOM      5  C5  UNL d   1       5.996  -5.375  -4.172  0.00  0.00     0.033 A 
ATOM      6  C6  UNL d   1       6.000  -4.139  -4.824  0.00  0.00    -0.057 A 
ENDROOT
BRANCH   1   7
ATOM      7  N   UNL d   1       4.886  -2.309  -5.918  0.00  0.00    -0.732 N 
ATOM      8  C   UNL d   1       3.754  -1.412  -5.999  0.00  0.00     0.284 C 
ATOM      9  H3  UNL d   1       5.781  -1.840  -5.804  0.00  0.00     0.395 HD
ENDBRANCH   1   7
TORSDOF 1
ENDMDL
