MODEL 1
REMARK minimizedAffinity -1.09854007
REMARK minimizedRMSD -1
REMARK  1 active torsions:
REMARK  status: ('A' for Active; 'I' for Inactive)
REMARK    1  A    between atoms: N_2  and  C1_3 
ROOT
ATOM      1  C1  UNL d   1       5.147  -3.767  -4.831  0.00  0.00     0.143 A 
ATOM      2  C2  UNL d   1       3.788  -3.775  -4.497  0.00  0.00    -0.057 A 
ATOM      3  C3  UNL d   1       2.961  -4.849  -4.846  0.00  0.00     0.033 A 
ATOM      4  C4  UNL d   1       3.474  -5.925  -5.564  0.00  0.00    -0.042 A 
ATOM      5  C5  UNL d   1       4.816  -5.927  -5.928  0.00  0.00     0.033 A 
ATOM      6  C6  UNL d   1       5.638  -4.854  -5.570  0.00  0.00    -0.057 A 
ENDROOT
BRANCH   1   7
ATOM      7  N   UNL d   1       5.999  -2.684  -4.598  0.00  0.00    -0.732 N 
ATOM      8  C   UNL d   1       5.998  -2.008  -3.319  0.00  0.00     0.284 C 
ATOM      9  H3  UNL d   1       6.926  -2.828  -4.992  0.00  0.00     0.395 HD
ENDBRANCH   1   7
TORSDOF 1
ENDMDL
