MODEL 1
REMARK minimizedAffinity -3.45444083
REMARK minimizedRMSD -1
REMARK  1 active torsions:
REMARK  status: ('A' for Active; 'I' for Inactive)
REMARK    1  A    between atoms: N_2  and  C1_3 
ROOT
ATOM      1  C1  UNL d   1       4.257  -2.660  -5.280  0.00  0.00     0.143 A 
ATOM      2  C2  UNL d   1       5.579  -2.892  -4.885  0.00  0.00    -0.057 A 
ATOM      3  C3  UNL d   1       5.998  -4.158  -4.459  0.00  0.00     0.033 A 
ATOM      4  C4  UNL d   1       5.091  -5.211  -4.392  0.00  0.00    -0.042 A 
ATOM      5  C5  UNL d   1       3.766  -4.997  -4.756  0.00  0.00     0.033 A 
ATOM      6  C6  UNL d   1       3.356  -3.732  -5.188  0.00  0.00    -0.057 A 
ENDROOT
BRANCH   1   7
ATOM      7  N   UNL d   1       3.757  -1.400  -5.620  0.00  0.00    -0.732 N 
ATOM      8  C   UNL d   1       4.647  -0.270  -5.771  0.00  0.00     0.284 C 
ATOM      9  H3  UNL d   1       3.025  -1.450  -6.324  0.00  0.00     0.395 HD
ENDBRANCH   1   7
TORSDOF 1
ENDMDL
