MODEL 1
REMARK minimizedAffinity -3.0494504
REMARK minimizedRMSD -1
REMARK  1 active torsions:
REMARK  status: ('A' for Active; 'I' for Inactive)
REMARK    1  A    between atoms: N_2  and  C1_3 
ROOT
ATOM      1  C1  UNL d   1       4.808  -1.741  -5.451  0.00  0.00     0.143 A 
ATOM      2  C2  UNL d   1       3.678  -2.348  -4.892  0.00  0.00    -0.057 A 
ATOM      3  C3  UNL d   1       3.712  -3.676  -4.450  0.00  0.00     0.033 A 
ATOM      4  C4  UNL d   1       4.872  -4.432  -4.585  0.00  0.00    -0.042 A 
ATOM      5  C5  UNL d   1       6.000  -3.856  -5.160  0.00  0.00     0.033 A 
ATOM      6  C6  UNL d   1       5.962  -2.528  -5.594  0.00  0.00    -0.057 A 
ENDROOT
BRANCH   1   7
ATOM      7  N   UNL d   1       4.809  -0.456  -5.999  0.00  0.00    -0.732 N 
ATOM      8  C   UNL d   1       5.992   0.375  -5.928  0.00  0.00     0.284 C 
ATOM      9  H3  UNL d   1       4.326  -0.415  -6.893  0.00  0.00     0.395 HD
ENDBRANCH   1   7
TORSDOF 1
ENDMDL
