MODEL 1
REMARK minimizedAffinity -3.67422795
REMARK minimizedRMSD -1
REMARK  1 active torsions:
REMARK  status: ('A' for Active; 'I' for Inactive)
REMARK    1  A    between atoms: N_2  and  C1_3 
ROOT
ATOM      1  C1  UNL d   1       4.981  -0.826  -5.592  0.00  0.00     0.143 A 
ATOM      2  C2  UNL d   1       6.000  -1.385  -4.812  0.00  0.00    -0.057 A 
ATOM      3  C3  UNL d   1       5.999  -2.746  -4.484  0.00  0.00     0.033 A 
ATOM      4  C4  UNL d   1       4.961  -3.569  -4.907  0.00  0.00    -0.042 A 
ATOM      5  C5  UNL d   1       3.925  -3.030  -5.662  0.00  0.00     0.033 A 
ATOM      6  C6  UNL d   1       3.935  -1.672  -5.992  0.00  0.00    -0.057 A 
ENDROOT
BRANCH   1   7
ATOM      7  N   UNL d   1       4.874   0.539  -5.868  0.00  0.00    -0.732 N 
ATOM      8  C   UNL d   1       5.715   1.498  -5.185  0.00  0.00     0.284 C 
ATOM      9  H3  UNL d   1       4.752   0.726  -6.861  0.00  0.00     0.395 HD
ENDBRANCH   1   7
TORSDOF 1
ENDMDL
