MODEL 1
REMARK minimizedAffinity -4.52063274
REMARK minimizedRMSD -1
REMARK  0 active torsions:
REMARK  status: ('A' for Active; 'I' for Inactive)
ROOT
ATOM      1  C1  BNZ d   1       1.176   3.173   0.491  0.00  0.00     0.000 A 
ATOM      2  C2  BNZ d   1       1.069   1.831   0.740  0.00  0.00     0.000 A 
ATOM      3  C3  BNZ d   1       1.192   0.919  -0.271  0.00  0.00     0.000 A 
ATOM      4  C4  BNZ d   1       1.381   1.352  -1.534  0.00  0.00     0.000 A 
ATOM      5  C5  BNZ d   1       1.482   2.703  -1.803  0.00  0.00     0.000 A 
ATOM      6  C6  BNZ d   1       1.397   3.616  -0.776  0.00  0.00     0.000 A 
ENDROOT
TORSDOF 0
ENDMDL
