MODEL 1
REMARK minimizedAffinity -1.97874641
REMARK minimizedRMSD -1
REMARK  0 active torsions:
REMARK  status: ('A' for Active; 'I' for Inactive)
ROOT
ATOM      1  C1  BNZ d   1       1.417   0.572  -1.169  0.00  0.00     0.000 A 
ATOM      2  C2  BNZ d   1       1.454   1.700  -1.945  0.00  0.00     0.000 A 
ATOM      3  C3  BNZ d   1       1.377   2.942  -1.379  0.00  0.00     0.000 A 
ATOM      4  C4  BNZ d   1       1.224   3.053  -0.044  0.00  0.00     0.000 A 
ATOM      5  C5  BNZ d   1       1.176   1.925   0.751  0.00  0.00     0.000 A 
ATOM      6  C6  BNZ d   1       1.293   0.678   0.182  0.00  0.00     0.000 A 
ENDROOT
TORSDOF 0
ENDMDL
