MODEL 1
REMARK minimizedAffinity -3.10233045
REMARK minimizedRMSD -1
REMARK  0 active torsions:
REMARK  status: ('A' for Active; 'I' for Inactive)
ROOT
ATOM      1  C1  BNZ d   1       1.266   3.319  -1.459  0.00  0.00     0.000 A 
ATOM      2  C2  BNZ d   1       1.019   2.270  -2.304  0.00  0.00     0.000 A 
ATOM      3  C3  BNZ d   1       0.743   1.025  -1.811  0.00  0.00     0.000 A 
ATOM      4  C4  BNZ d   1       0.754   0.822  -0.478  0.00  0.00     0.000 A 
ATOM      5  C5  BNZ d   1       1.011   1.867   0.386  0.00  0.00     0.000 A 
ATOM      6  C6  BNZ d   1       1.250   3.128  -0.112  0.00  0.00     0.000 A 
ENDROOT
TORSDOF 0
ENDMDL
