MODEL 1
REMARK minimizedAffinity -2.36572599
REMARK minimizedRMSD -1
REMARK  0 active torsions:
REMARK  status: ('A' for Active; 'I' for Inactive)
ROOT
ATOM      1  C1  BNZ d   1       1.068   0.914  -1.832  0.00  0.00     0.000 A 
ATOM      2  C2  BNZ d   1       0.431   2.038  -2.285  0.00  0.00     0.000 A 
ATOM      3  C3  BNZ d   1       0.451   3.195  -1.557  0.00  0.00     0.000 A 
ATOM      4  C4  BNZ d   1       1.072   3.214  -0.360  0.00  0.00     0.000 A 
ATOM      5  C5  BNZ d   1       1.711   2.086   0.115  0.00  0.00     0.000 A 
ATOM      6  C6  BNZ d   1       1.722   0.934  -0.639  0.00  0.00     0.000 A 
ENDROOT
TORSDOF 0
ENDMDL
