MODEL 1
REMARK minimizedAffinity -2.03917909
REMARK minimizedRMSD -1
REMARK  0 active torsions:
REMARK  status: ('A' for Active; 'I' for Inactive)
ROOT
ATOM      1  C1  BNZ d   1       1.393   3.772  -0.742  0.00  0.00     0.000 A 
ATOM      2  C2  BNZ d   1       1.470   2.886  -1.783  0.00  0.00     0.000 A 
ATOM      3  C3  BNZ d   1       1.464   1.538  -1.557  0.00  0.00     0.000 A 
ATOM      4  C4  BNZ d   1       1.423   1.079  -0.289  0.00  0.00     0.000 A 
ATOM      5  C5  BNZ d   1       1.355   1.960   0.772  0.00  0.00     0.000 A 
ATOM      6  C6  BNZ d   1       1.321   3.315   0.538  0.00  0.00     0.000 A 
ENDROOT
TORSDOF 0
ENDMDL
