MODEL 1
REMARK minimizedAffinity -3.73011994
REMARK minimizedRMSD -1
REMARK  0 active torsions:
REMARK  status: ('A' for Active; 'I' for Inactive)
ROOT
ATOM      1  C1  BNZ d   1       0.947   0.015  -0.162  0.00  0.00     0.000 A 
ATOM      2  C2  BNZ d   1       0.733   0.921   0.842  0.00  0.00     0.000 A 
ATOM      3  C3  BNZ d   1       0.613   2.255   0.568  0.00  0.00     0.000 A 
ATOM      4  C4  BNZ d   1       0.748   2.685  -0.704  0.00  0.00     0.000 A 
ATOM      5  C5  BNZ d   1       0.973   1.785  -1.726  0.00  0.00     0.000 A 
ATOM      6  C6  BNZ d   1       1.054   0.439  -1.451  0.00  0.00     0.000 A 
ENDROOT
TORSDOF 0
ENDMDL
