MODEL 1
REMARK minimizedAffinity -1.81230628
REMARK minimizedRMSD -1
REMARK  0 active torsions:
REMARK  status: ('A' for Active; 'I' for Inactive)
ROOT
ATOM      1  C1  BNZ d   1       0.584   1.454  -1.127  0.00  0.00     0.000 A 
ATOM      2  C2  BNZ d   1       0.700   2.159  -2.295  0.00  0.00     0.000 A 
ATOM      3  C3  BNZ d   1       1.133   3.456  -2.290  0.00  0.00     0.000 A 
ATOM      4  C4  BNZ d   1       1.410   4.057  -1.115  0.00  0.00     0.000 A 
ATOM      5  C5  BNZ d   1       1.289   3.362   0.072  0.00  0.00     0.000 A 
ATOM      6  C6  BNZ d   1       0.891   2.045   0.059  0.00  0.00     0.000 A 
ENDROOT
TORSDOF 0
ENDMDL
