MODEL 1
REMARK minimizedAffinity -1.51909959
REMARK minimizedRMSD -1
REMARK  0 active torsions:
REMARK  status: ('A' for Active; 'I' for Inactive)
ROOT
ATOM      1  C1  BNZ d   1       1.371   4.267  -0.778  0.00  0.00     0.000 A 
ATOM      2  C2  BNZ d   1       1.375   3.487  -1.903  0.00  0.00     0.000 A 
ATOM      3  C3  BNZ d   1       1.174   2.137  -1.820  0.00  0.00     0.000 A 
ATOM      4  C4  BNZ d   1       1.009   1.565  -0.611  0.00  0.00     0.000 A 
ATOM      5  C5  BNZ d   1       1.012   2.336   0.534  0.00  0.00     0.000 A 
ATOM      6  C6  BNZ d   1       1.176   3.700   0.444  0.00  0.00     0.000 A 
ENDROOT
TORSDOF 0
ENDMDL
