MODEL 1
REMARK minimizedAffinity 0.725738466
REMARK minimizedRMSD -1
REMARK  0 active torsions:
REMARK  status: ('A' for Active; 'I' for Inactive)
ROOT
ATOM      1  C1  BNZ d   1       1.454   2.383  -0.731  0.00  0.00     0.000 A 
ATOM      2  C2  BNZ d   1       1.708   3.070  -1.888  0.00  0.00     0.000 A 
ATOM      3  C3  BNZ d   1       2.020   4.401  -1.859  0.00  0.00     0.000 A 
ATOM      4  C4  BNZ d   1       2.038   5.051  -0.677  0.00  0.00     0.000 A 
ATOM      5  C5  BNZ d   1       1.775   4.375   0.497  0.00  0.00     0.000 A 
ATOM      6  C6  BNZ d   1       1.500   3.027   0.467  0.00  0.00     0.000 A 
ENDROOT
TORSDOF 0
ENDMDL
