MODEL 1
REMARK minimizedAffinity -4.12925673
REMARK minimizedRMSD -1
REMARK  0 active torsions:
REMARK  status: ('A' for Active; 'I' for Inactive)
ROOT
ATOM      1  C1  BNZ d   1       1.027   0.397  -0.122  0.00  0.00     0.000 A 
ATOM      2  C2  BNZ d   1       1.253   0.775  -1.418  0.00  0.00     0.000 A 
ATOM      3  C3  BNZ d   1       1.244   2.095  -1.774  0.00  0.00     0.000 A 
ATOM      4  C4  BNZ d   1       0.970   3.031  -0.843  0.00  0.00     0.000 A 
ATOM      5  C5  BNZ d   1       0.730   2.665   0.467  0.00  0.00     0.000 A 
ATOM      6  C6  BNZ d   1       0.779   1.338   0.829  0.00  0.00     0.000 A 
ENDROOT
TORSDOF 0
ENDMDL
