MODEL 1
REMARK minimizedAffinity 2.54637337
REMARK minimizedRMSD -1
REMARK  0 active torsions:
REMARK  status: ('A' for Active; 'I' for Inactive)
ROOT
ATOM      1  C1  BNZ d   1       1.411   3.257  -0.846  0.00  0.00     0.000 A 
ATOM      2  C2  BNZ d   1       2.036   2.116  -0.417  0.00  0.00     0.000 A 
ATOM      3  C3  BNZ d   1       1.950   0.958  -1.138  0.00  0.00     0.000 A 
ATOM      4  C4  BNZ d   1       1.207   0.931  -2.263  0.00  0.00     0.000 A 
ATOM      5  C5  BNZ d   1       0.563   2.071  -2.703  0.00  0.00     0.000 A 
ATOM      6  C6  BNZ d   1       0.684   3.245  -1.996  0.00  0.00     0.000 A 
ENDROOT
TORSDOF 0
ENDMDL
