MODEL 1
REMARK minimizedAffinity -1.99949217
REMARK minimizedRMSD -1
REMARK  0 active torsions:
REMARK  status: ('A' for Active; 'I' for Inactive)
ROOT
ATOM      1  C1  BNZ d   1       1.385   0.642  -2.276  0.00  0.00     0.000 A 
ATOM      2  C2  BNZ d   1       1.220  -0.705  -2.459  0.00  0.00     0.000 A 
ATOM      3  C3  BNZ d   1       1.100  -1.547  -1.389  0.00  0.00     0.000 A 
ATOM      4  C4  BNZ d   1       1.183  -1.047  -0.139  0.00  0.00     0.000 A 
ATOM      5  C5  BNZ d   1       1.358   0.308   0.062  0.00  0.00     0.000 A 
ATOM      6  C6  BNZ d   1       1.440   1.157  -1.018  0.00  0.00     0.000 A 
ENDROOT
TORSDOF 0
ENDMDL
