MODEL 1
REMARK minimizedAffinity 1.80762517
REMARK minimizedRMSD -1
REMARK  0 active torsions:
REMARK  status: ('A' for Active; 'I' for Inactive)
ROOT
ATOM      1  C1  BNZ d   1       1.294   3.487  -0.106  0.00  0.00     0.000 A 
ATOM      2  C2  BNZ d   1       1.363   3.448  -1.473  0.00  0.00     0.000 A 
ATOM      3  C3  BNZ d   1       1.491   2.259  -2.134  0.00  0.00     0.000 A 
ATOM      4  C4  BNZ d   1       1.590   1.115  -1.427  0.00  0.00     0.000 A 
ATOM      5  C5  BNZ d   1       1.531   1.138  -0.048  0.00  0.00     0.000 A 
ATOM      6  C6  BNZ d   1       1.363   2.334   0.613  0.00  0.00     0.000 A 
ENDROOT
TORSDOF 0
ENDMDL
