MODEL 1
REMARK minimizedAffinity -0.390256792
REMARK minimizedRMSD -1
REMARK  0 active torsions:
REMARK  status: ('A' for Active; 'I' for Inactive)
ROOT
ATOM      1  C1  BNZ d   1       1.480   3.689   0.375  0.00  0.00     0.000 A 
ATOM      2  C2  BNZ d   1       1.762   2.362   0.184  0.00  0.00     0.000 A 
ATOM      3  C3  BNZ d   1       1.959   1.862  -1.073  0.00  0.00     0.000 A 
ATOM      4  C4  BNZ d   1       1.836   2.680  -2.138  0.00  0.00     0.000 A 
ATOM      5  C5  BNZ d   1       1.543   4.018  -1.963  0.00  0.00     0.000 A 
ATOM      6  C6  BNZ d   1       1.383   4.525  -0.694  0.00  0.00     0.000 A 
ENDROOT
TORSDOF 0
ENDMDL
