MODEL 1
REMARK minimizedAffinity 4.04014063
REMARK minimizedRMSD -1
REMARK  0 active torsions:
REMARK  status: ('A' for Active; 'I' for Inactive)
ROOT
ATOM      1  C1  BNZ d   1       1.684   3.503  -0.531  0.00  0.00     0.000 A 
ATOM      2  C2  BNZ d   1       1.870   4.506   0.383  0.00  0.00     0.000 A 
ATOM      3  C3  BNZ d   1       2.235   5.760  -0.020  0.00  0.00     0.000 A 
ATOM      4  C4  BNZ d   1       2.452   5.999  -1.329  0.00  0.00     0.000 A 
ATOM      5  C5  BNZ d   1       2.278   4.996  -2.261  0.00  0.00     0.000 A 
ATOM      6  C6  BNZ d   1       1.873   3.745  -1.856  0.00  0.00     0.000 A 
ENDROOT
TORSDOF 0
ENDMDL
