MODEL 1
REMARK minimizedAffinity -4.04790545
REMARK minimizedRMSD -1
REMARK  0 active torsions:
REMARK  status: ('A' for Active; 'I' for Inactive)
ROOT
ATOM      1  C1  BNZ d   1       1.164   4.589   0.135  0.00  0.00     0.000 A 
ATOM      2  C2  BNZ d   1       1.381   4.030  -1.096  0.00  0.00     0.000 A 
ATOM      3  C3  BNZ d   1       1.280   2.679  -1.279  0.00  0.00     0.000 A 
ATOM      4  C4  BNZ d   1       1.002   1.886  -0.224  0.00  0.00     0.000 A 
ATOM      5  C5  BNZ d   1       0.790   2.434   1.026  0.00  0.00     0.000 A 
ATOM      6  C6  BNZ d   1       0.854   3.798   1.198  0.00  0.00     0.000 A 
ENDROOT
TORSDOF 0
ENDMDL
