MODEL 1
REMARK minimizedAffinity -1.71358705
REMARK minimizedRMSD -1
REMARK  0 active torsions:
REMARK  status: ('A' for Active; 'I' for Inactive)
ROOT
ATOM      1  C   UNL d   1      -3.144  -5.603   0.969  0.00  0.00     0.020 A 
ATOM      2  C1  UNL d   1      -2.679  -4.487   1.664  0.00  0.00     0.020 A 
ATOM      3  C2  UNL d   1      -1.656  -3.704   1.124  0.00  0.00     0.034 A 
ATOM      4  C3  UNL d   1      -1.095  -4.037  -0.115  0.00  0.00     0.017 A 
ATOM      5  C4  UNL d   1      -1.562  -5.157  -0.811  0.00  0.00     0.017 A 
ATOM      6  C5  UNL d   1      -2.587  -5.937  -0.265  0.00  0.00     0.034 A 
ATOM      7 Cl   UNL d   1      -0.919  -5.630  -2.344  0.00  0.00    -0.070 Cl
ATOM      8 Cl1  UNL d   1       0.166  -3.024  -0.723  0.00  0.00    -0.070 Cl
ENDROOT
TORSDOF 0
ENDMDL
