MODEL 1
REMARK minimizedAffinity -3.13899899
REMARK minimizedRMSD -1
REMARK  0 active torsions:
REMARK  status: ('A' for Active; 'I' for Inactive)
ROOT
ATOM      1  C   UNL d   1       2.280  -5.630  -4.082  0.00  0.00     0.020 A 
ATOM      2  C1  UNL d   1       1.913  -5.635  -2.737  0.00  0.00     0.020 A 
ATOM      3  C2  UNL d   1       0.567  -5.750  -2.381  0.00  0.00     0.034 A 
ATOM      4  C3  UNL d   1      -0.415  -5.860  -3.371  0.00  0.00     0.017 A 
ATOM      5  C4  UNL d   1      -0.045  -5.856  -4.721  0.00  0.00     0.017 A 
ATOM      6  C5  UNL d   1       1.303  -5.740  -5.071  0.00  0.00     0.034 A 
ATOM      7 Cl   UNL d   1      -1.201  -5.988  -5.999  0.00  0.00    -0.070 Cl
ATOM      8 Cl1  UNL d   1      -2.060  -6.000  -2.859  0.00  0.00    -0.070 Cl
ENDROOT
TORSDOF 0
ENDMDL
