MODEL 1
REMARK minimizedAffinity 5.49103117
REMARK minimizedRMSD -1
REMARK  0 active torsions:
REMARK  status: ('A' for Active; 'I' for Inactive)
ROOT
ATOM      1  C   UNL d   1       1.843  -0.019   1.155  0.00  0.00     0.020 A 
ATOM      2  C1  UNL d   1       1.543  -1.237   1.764  0.00  0.00     0.020 A 
ATOM      3  C2  UNL d   1       0.673  -2.134   1.141  0.00  0.00     0.034 A 
ATOM      4  C3  UNL d   1       0.100  -1.815  -0.096  0.00  0.00     0.017 A 
ATOM      5  C4  UNL d   1       0.402  -0.593  -0.707  0.00  0.00     0.017 A 
ATOM      6  C5  UNL d   1       1.274   0.302  -0.078  0.00  0.00     0.034 A 
ATOM      7 Cl   UNL d   1      -0.266  -0.129  -2.232  0.00  0.00    -0.070 Cl
ATOM      8 Cl1  UNL d   1      -0.966  -2.972  -0.809  0.00  0.00    -0.070 Cl
ENDROOT
TORSDOF 0
ENDMDL
