MODEL 1
REMARK minimizedAffinity 0.0990858376
REMARK minimizedRMSD -1
REMARK  0 active torsions:
REMARK  status: ('A' for Active; 'I' for Inactive)
ROOT
ATOM      1  C   UNL d   1       2.080  -2.521   1.976  0.00  0.00     0.020 A 
ATOM      2  C1  UNL d   1       1.351  -1.859   2.963  0.00  0.00     0.020 A 
ATOM      3  C2  UNL d   1       1.128  -2.473   4.197  0.00  0.00     0.034 A 
ATOM      4  C3  UNL d   1       1.636  -3.753   4.448  0.00  0.00     0.017 A 
ATOM      5  C4  UNL d   1       2.368  -4.417   3.458  0.00  0.00     0.017 A 
ATOM      6  C5  UNL d   1       2.588  -3.797   2.223  0.00  0.00     0.034 A 
ATOM      7 Cl   UNL d   1       3.026  -5.997   3.694  0.00  0.00    -0.070 Cl
ATOM      8 Cl1  UNL d   1       1.322  -4.452   5.997  0.00  0.00    -0.070 Cl
ENDROOT
TORSDOF 0
ENDMDL
