MODEL 1
REMARK minimizedAffinity -2.65833116
REMARK minimizedRMSD -1
REMARK  0 active torsions:
REMARK  status: ('A' for Active; 'I' for Inactive)
ROOT
ATOM      1  C   UNL d   1      -1.357  -5.973  -5.989  0.00  0.00     0.020 A 
ATOM      2  C1  UNL d   1      -0.126  -5.973  -5.335  0.00  0.00     0.020 A 
ATOM      3  C2  UNL d   1      -0.077  -5.981  -3.939  0.00  0.00     0.034 A 
ATOM      4  C3  UNL d   1      -1.261  -5.988  -3.193  0.00  0.00     0.017 A 
ATOM      5  C4  UNL d   1      -2.496  -5.988  -3.850  0.00  0.00     0.017 A 
ATOM      6  C5  UNL d   1      -2.540  -5.980  -5.248  0.00  0.00     0.034 A 
ATOM      7 Cl   UNL d   1      -4.000  -5.998  -2.998  0.00  0.00    -0.070 Cl
ATOM      8 Cl1  UNL d   1      -1.125  -5.998  -1.470  0.00  0.00    -0.070 Cl
ENDROOT
TORSDOF 0
ENDMDL
