MODEL 1
REMARK minimizedAffinity -3.48049355
REMARK minimizedRMSD -1
REMARK  0 active torsions:
REMARK  status: ('A' for Active; 'I' for Inactive)
ROOT
ATOM      1  C   UNL d   1      -0.975  -5.983  -2.664  0.00  0.00     0.020 A 
ATOM      2  C1  UNL d   1      -1.719  -5.984  -3.843  0.00  0.00     0.020 A 
ATOM      3  C2  UNL d   1      -3.114  -5.989  -3.788  0.00  0.00     0.034 A 
ATOM      4  C3  UNL d   1      -3.770  -5.993  -2.551  0.00  0.00     0.017 A 
ATOM      5  C4  UNL d   1      -3.022  -5.992  -1.368  0.00  0.00     0.017 A 
ATOM      6  C5  UNL d   1      -1.625  -5.987  -1.429  0.00  0.00     0.034 A 
ATOM      7 Cl   UNL d   1      -3.760  -5.997   0.195  0.00  0.00    -0.070 Cl
ATOM      8 Cl1  UNL d   1      -5.498  -5.999  -2.558  0.00  0.00    -0.070 Cl
ENDROOT
TORSDOF 0
ENDMDL
