MODEL 1
REMARK minimizedAffinity -2.17216897
REMARK minimizedRMSD -1
REMARK  0 active torsions:
REMARK  status: ('A' for Active; 'I' for Inactive)
ROOT
ATOM      1  C   UNL d   1       0.785  -5.737  -5.305  0.00  0.00     0.020 A 
ATOM      2  C1  UNL d   1      -0.525  -5.922  -5.744  0.00  0.00     0.020 A 
ATOM      3  C2  UNL d   1      -1.568  -6.000  -4.818  0.00  0.00     0.034 A 
ATOM      4  C3  UNL d   1      -1.301  -5.894  -3.448  0.00  0.00     0.017 A 
ATOM      5  C4  UNL d   1       0.015  -5.708  -3.008  0.00  0.00     0.017 A 
ATOM      6  C5  UNL d   1       1.054  -5.630  -3.940  0.00  0.00     0.034 A 
ATOM      7 Cl   UNL d   1       0.421  -5.568  -1.334  0.00  0.00    -0.070 Cl
ATOM      8 Cl1  UNL d   1      -2.638  -5.999  -2.359  0.00  0.00    -0.070 Cl
ENDROOT
TORSDOF 0
ENDMDL
