MODEL 1
REMARK minimizedAffinity -1.81780481
REMARK minimizedRMSD -1
REMARK  0 active torsions:
REMARK  status: ('A' for Active; 'I' for Inactive)
ROOT
ATOM      1  C   UNL d   1       1.350  -1.564   4.038  0.00  0.00     0.020 A 
ATOM      2  C1  UNL d   1       1.474  -1.926   2.697  0.00  0.00     0.020 A 
ATOM      3  C2  UNL d   1       1.885  -3.216   2.357  0.00  0.00     0.034 A 
ATOM      4  C3  UNL d   1       2.174  -4.150   3.359  0.00  0.00     0.017 A 
ATOM      5  C4  UNL d   1       2.049  -3.786   4.705  0.00  0.00     0.017 A 
ATOM      6  C5  UNL d   1       1.637  -2.492   5.039  0.00  0.00     0.034 A 
ATOM      7 Cl   UNL d   1       2.387  -4.882   5.997  0.00  0.00    -0.070 Cl
ATOM      8 Cl1  UNL d   1       2.677  -5.728   2.867  0.00  0.00    -0.070 Cl
ENDROOT
TORSDOF 0
ENDMDL
