MODEL 1
REMARK minimizedAffinity -5.43439865
REMARK minimizedRMSD -1
REMARK  0 active torsions:
REMARK  status: ('A' for Active; 'I' for Inactive)
ROOT
ATOM      1  C   UNL d   1       1.598  -3.201   4.509  0.00  0.00     0.020 A 
ATOM      2  C1  UNL d   1       0.977  -4.396   4.150  0.00  0.00     0.020 A 
ATOM      3  C2  UNL d   1       0.385  -4.525   2.891  0.00  0.00     0.034 A 
ATOM      4  C3  UNL d   1       0.414  -3.457   1.988  0.00  0.00     0.017 A 
ATOM      5  C4  UNL d   1       1.037  -2.257   2.349  0.00  0.00     0.017 A 
ATOM      6  C5  UNL d   1       1.628  -2.133   3.611  0.00  0.00     0.034 A 
ATOM      7 Cl   UNL d   1       1.112  -0.895   1.288  0.00  0.00    -0.070 Cl
ATOM      8 Cl1  UNL d   1      -0.337  -3.686   0.448  0.00  0.00    -0.070 Cl
ENDROOT
TORSDOF 0
ENDMDL
