MODEL 1
REMARK minimizedAffinity -2.59881258
REMARK minimizedRMSD -1
REMARK  0 active torsions:
REMARK  status: ('A' for Active; 'I' for Inactive)
ROOT
ATOM      1  C   UNL d   1       2.139  -1.490   2.709  0.00  0.00     0.020 A 
ATOM      2  C1  UNL d   1       0.902  -1.941   2.248  0.00  0.00     0.020 A 
ATOM      3  C2  UNL d   1       0.242  -2.975   2.916  0.00  0.00     0.034 A 
ATOM      4  C3  UNL d   1       0.818  -3.561   4.049  0.00  0.00     0.017 A 
ATOM      5  C4  UNL d   1       2.059  -3.108   4.511  0.00  0.00     0.017 A 
ATOM      6  C5  UNL d   1       2.716  -2.073   3.838  0.00  0.00     0.034 A 
ATOM      7 Cl   UNL d   1       2.833  -3.782   5.902  0.00  0.00    -0.070 Cl
ATOM      8 Cl1  UNL d   1      -0.054  -4.834   4.826  0.00  0.00    -0.070 Cl
ENDROOT
TORSDOF 0
ENDMDL
