MODEL 1
REMARK minimizedAffinity -2.31408286
REMARK minimizedRMSD -1
REMARK  0 active torsions:
REMARK  status: ('A' for Active; 'I' for Inactive)
ROOT
ATOM      1  C   UNL d   1      -4.298  -5.997  -1.553  0.00  0.00     0.020 A 
ATOM      2  C1  UNL d   1      -3.393  -5.997  -0.493  0.00  0.00     0.020 A 
ATOM      3  C2  UNL d   1      -2.020  -5.997  -0.748  0.00  0.00     0.034 A 
ATOM      4  C3  UNL d   1      -1.548  -5.998  -2.066  0.00  0.00     0.017 A 
ATOM      5  C4  UNL d   1      -2.458  -5.999  -3.129  0.00  0.00     0.017 A 
ATOM      6  C5  UNL d   1      -3.832  -5.998  -2.869  0.00  0.00     0.034 A 
ATOM      7 Cl   UNL d   1      -1.952  -6.000  -4.782  0.00  0.00    -0.070 Cl
ATOM      8 Cl1  UNL d   1       0.163  -5.998  -2.307  0.00  0.00    -0.070 Cl
ENDROOT
TORSDOF 0
ENDMDL
