MODEL 1
REMARK minimizedAffinity 1.75606298
REMARK minimizedRMSD -1
REMARK  0 active torsions:
REMARK  status: ('A' for Active; 'I' for Inactive)
ROOT
ATOM      1  C   UNL d   1      -5.067  -5.156   2.743  0.00  0.00     0.020 A 
ATOM      2  C1  UNL d   1      -5.943  -5.851   1.910  0.00  0.00     0.020 A 
ATOM      3  C2  UNL d   1      -5.673  -5.957   0.544  0.00  0.00     0.034 A 
ATOM      4  C3  UNL d   1      -4.524  -5.365   0.007  0.00  0.00     0.017 A 
ATOM      5  C4  UNL d   1      -3.645  -4.667   0.843  0.00  0.00     0.017 A 
ATOM      6  C5  UNL d   1      -3.921  -4.565   2.210  0.00  0.00     0.034 A 
ATOM      7 Cl   UNL d   1      -2.207  -3.911   0.253  0.00  0.00    -0.070 Cl
ATOM      8 Cl1  UNL d   1      -4.252  -5.535  -1.691  0.00  0.00    -0.070 Cl
ENDROOT
TORSDOF 0
ENDMDL
