MODEL 1
REMARK minimizedAffinity -3.64913821
REMARK minimizedRMSD -1
REMARK  0 active torsions:
REMARK  status: ('A' for Active; 'I' for Inactive)
ROOT
ATOM      1  C   UNL d   1      -1.103  -5.761  -4.124  0.00  0.00     0.020 A 
ATOM      2  C1  UNL d   1      -0.309  -5.215  -3.117  0.00  0.00     0.020 A 
ATOM      3  C2  UNL d   1      -0.871  -4.901  -1.878  0.00  0.00     0.034 A 
ATOM      4  C3  UNL d   1      -2.231  -5.134  -1.643  0.00  0.00     0.017 A 
ATOM      5  C4  UNL d   1      -3.027  -5.683  -2.654  0.00  0.00     0.017 A 
ATOM      6  C5  UNL d   1      -2.459  -5.995  -3.894  0.00  0.00     0.034 A 
ATOM      7 Cl   UNL d   1      -4.712  -5.999  -2.439  0.00  0.00    -0.070 Cl
ATOM      8 Cl1  UNL d   1      -2.859  -4.723  -0.086  0.00  0.00    -0.070 Cl
ENDROOT
TORSDOF 0
ENDMDL
