MODEL 1
REMARK minimizedAffinity -3.20040751
REMARK minimizedRMSD -1
REMARK  0 active torsions:
REMARK  status: ('A' for Active; 'I' for Inactive)
ROOT
ATOM      1  C   UNL d   1       0.632  -3.994   3.385  0.00  0.00     0.020 A 
ATOM      2  C1  UNL d   1       1.623  -4.017   4.366  0.00  0.00     0.020 A 
ATOM      3  C2  UNL d   1       2.610  -3.028   4.385  0.00  0.00     0.034 A 
ATOM      4  C3  UNL d   1       2.607  -2.013   3.422  0.00  0.00     0.017 A 
ATOM      5  C4  UNL d   1       1.612  -1.991   2.438  0.00  0.00     0.017 A 
ATOM      6  C5  UNL d   1       0.627  -2.983   2.423  0.00  0.00     0.034 A 
ATOM      7 Cl   UNL d   1       1.543  -0.770   1.217  0.00  0.00    -0.070 Cl
ATOM      8 Cl1  UNL d   1       3.857  -0.823   3.506  0.00  0.00    -0.070 Cl
ENDROOT
TORSDOF 0
ENDMDL
