MODEL 1
REMARK minimizedAffinity -3.37139535
REMARK minimizedRMSD -1
REMARK  0 active torsions:
REMARK  status: ('A' for Active; 'I' for Inactive)
ROOT
ATOM      1  C   UNL d   1      -2.418  -5.979  -1.494  0.00  0.00     0.020 A 
ATOM      2  C1  UNL d   1      -3.536  -5.988  -2.327  0.00  0.00     0.020 A 
ATOM      3  C2  UNL d   1      -3.373  -5.994  -3.714  0.00  0.00     0.034 A 
ATOM      4  C3  UNL d   1      -2.089  -5.991  -4.272  0.00  0.00     0.017 A 
ATOM      5  C4  UNL d   1      -0.968  -5.982  -3.434  0.00  0.00     0.017 A 
ATOM      6  C5  UNL d   1      -1.137  -5.976  -2.046  0.00  0.00     0.034 A 
ATOM      7 Cl   UNL d   1       0.648  -5.978  -4.048  0.00  0.00    -0.070 Cl
ATOM      8 Cl1  UNL d   1      -1.961  -5.999  -5.995  0.00  0.00    -0.070 Cl
ENDROOT
TORSDOF 0
ENDMDL
