MODEL 1
REMARK minimizedAffinity 8.40766716
REMARK minimizedRMSD -1
REMARK  0 active torsions:
REMARK  status: ('A' for Active; 'I' for Inactive)
ROOT
ATOM      1  C   UNL d   1       1.882  -0.191   0.183  0.00  0.00     0.020 A 
ATOM      2  C1  UNL d   1       0.968  -0.807   1.037  0.00  0.00     0.020 A 
ATOM      3  C2  UNL d   1       1.413  -1.418   2.212  0.00  0.00     0.034 A 
ATOM      4  C3  UNL d   1       2.774  -1.415   2.535  0.00  0.00     0.017 A 
ATOM      5  C4  UNL d   1       3.691  -0.796   1.677  0.00  0.00     0.017 A 
ATOM      6  C5  UNL d   1       3.241  -0.186   0.503  0.00  0.00     0.034 A 
ATOM      7 Cl   UNL d   1       5.386  -0.750   2.010  0.00  0.00    -0.070 Cl
ATOM      8 Cl1  UNL d   1       3.253  -2.189   4.004  0.00  0.00    -0.070 Cl
ENDROOT
TORSDOF 0
ENDMDL
