MODEL 1
REMARK minimizedAffinity 8.96930599
REMARK minimizedRMSD -1
REMARK  0 active torsions:
REMARK  status: ('A' for Active; 'I' for Inactive)
ROOT
ATOM      1  C   UNL d   1      -5.707   1.041  -2.266  0.00  0.00     0.020 A 
ATOM      2  C1  UNL d   1      -4.613   0.448  -2.896  0.00  0.00     0.020 A 
ATOM      3  C2  UNL d   1      -3.811  -0.458  -2.198  0.00  0.00     0.034 A 
ATOM      4  C3  UNL d   1      -4.102  -0.774  -0.866  0.00  0.00     0.017 A 
ATOM      5  C4  UNL d   1      -5.201  -0.179  -0.234  0.00  0.00     0.017 A 
ATOM      6  C5  UNL d   1      -6.000   0.727  -0.938  0.00  0.00     0.034 A 
ATOM      7 Cl   UNL d   1      -5.623  -0.519   1.407  0.00  0.00    -0.070 Cl
ATOM      8 Cl1  UNL d   1      -3.069  -1.903  -0.064  0.00  0.00    -0.070 Cl
ENDROOT
TORSDOF 0
ENDMDL
