MODEL 1
REMARK minimizedAffinity 9.00542927
REMARK minimizedRMSD -1
REMARK  0 active torsions:
REMARK  status: ('A' for Active; 'I' for Inactive)
ROOT
ATOM      1  C   UNL d   1       5.432  -0.705   2.404  0.00  0.00     0.020 A 
ATOM      2  C1  UNL d   1       5.228  -1.044   3.741  0.00  0.00     0.020 A 
ATOM      3  C2  UNL d   1       3.937  -1.302   4.207  0.00  0.00     0.034 A 
ATOM      4  C3  UNL d   1       2.845  -1.221   3.336  0.00  0.00     0.017 A 
ATOM      5  C4  UNL d   1       3.050  -0.880   1.994  0.00  0.00     0.017 A 
ATOM      6  C5  UNL d   1       4.345  -0.623   1.533  0.00  0.00     0.034 A 
ATOM      7 Cl   UNL d   1       1.752  -0.760   0.860  0.00  0.00    -0.070 Cl
ATOM      8 Cl1  UNL d   1       1.277  -1.554   3.981  0.00  0.00    -0.070 Cl
ENDROOT
TORSDOF 0
ENDMDL
