MODEL 1
REMARK minimizedAffinity -0.503783166
REMARK minimizedRMSD -1
REMARK  0 active torsions:
REMARK  status: ('A' for Active; 'I' for Inactive)
ROOT
ATOM      1  C   UNL d   1      -3.777   1.048  -3.265  0.00  0.00     0.020 A 
ATOM      2  C1  UNL d   1      -4.456   1.958  -2.457  0.00  0.00     0.020 A 
ATOM      3  C2  UNL d   1      -5.004   1.540  -1.242  0.00  0.00     0.034 A 
ATOM      4  C3  UNL d   1      -4.875   0.208  -0.833  0.00  0.00     0.017 A 
ATOM      5  C4  UNL d   1      -4.194  -0.706  -1.646  0.00  0.00     0.017 A 
ATOM      6  C5  UNL d   1      -3.647  -0.281  -2.861  0.00  0.00     0.034 A 
ATOM      7 Cl   UNL d   1      -3.993  -2.366  -1.209  0.00  0.00    -0.070 Cl
ATOM      8 Cl1  UNL d   1      -5.577  -0.240   0.681  0.00  0.00    -0.070 Cl
ENDROOT
TORSDOF 0
ENDMDL
