MODEL 1
REMARK minimizedAffinity 7.73880768
REMARK minimizedRMSD -1
REMARK  0 active torsions:
REMARK  status: ('A' for Active; 'I' for Inactive)
ROOT
ATOM      1  C   UNL d   1       2.483  -5.117   0.724  0.00  0.00     0.077 C 
ATOM      2  C1  UNL d   1       2.098  -3.688   0.968  0.00  0.00    -0.074 A 
ATOM      3  C2  UNL d   1       2.863  -2.639   0.448  0.00  0.00    -0.005 A 
ATOM      4  C3  UNL d   1       2.487  -1.315   0.675  0.00  0.00     0.006 A 
ATOM      5  C4  UNL d   1       1.344  -1.028   1.423  0.00  0.00    -0.005 A 
ATOM      6  C5  UNL d   1       0.566  -2.064   1.949  0.00  0.00    -0.074 A 
ATOM      7  C6  UNL d   1      -0.670  -1.772   2.747  0.00  0.00     0.077 C 
ATOM      8  C7  UNL d   1       0.947  -3.391   1.711  0.00  0.00    -0.001 A 
ENDROOT
TORSDOF 0
ENDMDL
