MODEL 1
REMARK minimizedAffinity -1.15299129
REMARK minimizedRMSD -1
REMARK  0 active torsions:
REMARK  status: ('A' for Active; 'I' for Inactive)
ROOT
ATOM      1  C   UNL d   1       1.968  -3.410   1.121  0.00  0.00     0.077 C 
ATOM      2  C1  UNL d   1       1.191  -2.247   1.664  0.00  0.00    -0.074 A 
ATOM      3  C2  UNL d   1       0.106  -2.446   2.524  0.00  0.00    -0.005 A 
ATOM      4  C3  UNL d   1      -0.601  -1.355   3.029  0.00  0.00     0.006 A 
ATOM      5  C4  UNL d   1      -0.231  -0.056   2.679  0.00  0.00    -0.005 A 
ATOM      6  C5  UNL d   1       0.851   0.163   1.820  0.00  0.00    -0.074 A 
ATOM      7  C6  UNL d   1       1.267   1.553   1.441  0.00  0.00     0.077 C 
ATOM      8  C7  UNL d   1       1.561  -0.939   1.323  0.00  0.00    -0.001 A 
ENDROOT
TORSDOF 0
ENDMDL
