MODEL 1
REMARK minimizedAffinity 4.61368084
REMARK minimizedRMSD -1
REMARK  0 active torsions:
REMARK  status: ('A' for Active; 'I' for Inactive)
ROOT
ATOM      1  C   UNL d   1      -0.403  -1.147   3.033  0.00  0.00     0.077 C 
ATOM      2  C1  UNL d   1       0.634  -1.679   2.090  0.00  0.00    -0.074 A 
ATOM      3  C2  UNL d   1       1.022  -0.948   0.962  0.00  0.00    -0.005 A 
ATOM      4  C3  UNL d   1       1.996  -1.450   0.099  0.00  0.00     0.006 A 
ATOM      5  C4  UNL d   1       2.589  -2.687   0.353  0.00  0.00    -0.005 A 
ATOM      6  C5  UNL d   1       2.215  -3.432   1.476  0.00  0.00    -0.074 A 
ATOM      7  C6  UNL d   1       2.850  -4.759   1.770  0.00  0.00     0.077 C 
ATOM      8  C7  UNL d   1       1.241  -2.917   2.343  0.00  0.00    -0.001 A 
ENDROOT
TORSDOF 0
ENDMDL
