MODEL 1
REMARK minimizedAffinity 0.663173079
REMARK minimizedRMSD -1
REMARK  0 active torsions:
REMARK  status: ('A' for Active; 'I' for Inactive)
ROOT
ATOM      1  C   UNL d   1       3.113  -3.020   1.450  0.00  0.00     0.077 C 
ATOM      2  C1  UNL d   1       1.758  -3.443   1.934  0.00  0.00    -0.074 A 
ATOM      3  C2  UNL d   1       1.325  -4.765   1.794  0.00  0.00    -0.005 A 
ATOM      4  C3  UNL d   1       0.066  -5.146   2.257  0.00  0.00     0.006 A 
ATOM      5  C4  UNL d   1      -0.772  -4.210   2.864  0.00  0.00    -0.005 A 
ATOM      6  C5  UNL d   1      -0.356  -2.883   3.013  0.00  0.00    -0.074 A 
ATOM      7  C6  UNL d   1      -1.240  -1.866   3.672  0.00  0.00     0.077 C 
ATOM      8  C7  UNL d   1       0.914  -2.510   2.551  0.00  0.00    -0.001 A 
ENDROOT
TORSDOF 0
ENDMDL
