MODEL 1
REMARK minimizedAffinity 8.20529938
REMARK minimizedRMSD -1
REMARK  0 active torsions:
REMARK  status: ('A' for Active; 'I' for Inactive)
ROOT
ATOM      1  C   UNL d   1       1.214  -1.861  -0.796  0.00  0.00     0.077 C 
ATOM      2  C1  UNL d   1       1.197  -2.000   0.698  0.00  0.00    -0.074 A 
ATOM      3  C2  UNL d   1       2.230  -2.662   1.370  0.00  0.00    -0.005 A 
ATOM      4  C3  UNL d   1       2.206  -2.774   2.760  0.00  0.00     0.006 A 
ATOM      5  C4  UNL d   1       1.151  -2.227   3.491  0.00  0.00    -0.005 A 
ATOM      6  C5  UNL d   1       0.110  -1.561   2.836  0.00  0.00    -0.074 A 
ATOM      7  C6  UNL d   1      -1.026  -0.958   3.608  0.00  0.00     0.077 C 
ATOM      8  C7  UNL d   1       0.145  -1.446   1.440  0.00  0.00    -0.001 A 
ENDROOT
TORSDOF 0
ENDMDL
