MODEL 1
REMARK minimizedAffinity 5.04667091
REMARK minimizedRMSD -1
REMARK  0 active torsions:
REMARK  status: ('A' for Active; 'I' for Inactive)
ROOT
ATOM      1  C   UNL d   1       0.970  -1.841  -1.279  0.00  0.00     0.077 C 
ATOM      2  C1  UNL d   1       1.167  -2.107   0.184  0.00  0.00    -0.074 A 
ATOM      3  C2  UNL d   1       2.217  -2.915   0.632  0.00  0.00    -0.005 A 
ATOM      4  C3  UNL d   1       2.394  -3.146   1.996  0.00  0.00     0.006 A 
ATOM      5  C4  UNL d   1       1.524  -2.572   2.925  0.00  0.00    -0.005 A 
ATOM      6  C5  UNL d   1       0.470  -1.761   2.495  0.00  0.00    -0.074 A 
ATOM      7  C6  UNL d   1      -0.468  -1.128   3.480  0.00  0.00     0.077 C 
ATOM      8  C7  UNL d   1       0.303  -1.528   1.123  0.00  0.00    -0.001 A 
ENDROOT
TORSDOF 0
ENDMDL
