MODEL 1
REMARK minimizedAffinity 3.28310108
REMARK minimizedRMSD -1
REMARK  1 active torsions:
REMARK  status: ('A' for Active; 'I' for Inactive)
REMARK    1  A    between atoms: C1_2  and  C2_3 
ROOT
ATOM      1  C2  UNL d   1       4.257  -3.434   2.809  0.00  0.00    -0.077 A 
ATOM      2  C3  UNL d   1       5.287  -4.117   2.146  0.00  0.00     0.002 A 
ATOM      3  C4  UNL d   1       5.203  -4.364   0.775  0.00  0.00     0.002 A 
ATOM      4  C5  UNL d   1       4.093  -3.929   0.054  0.00  0.00    -0.004 A 
ATOM      5  C6  UNL d   1       3.062  -3.252   0.704  0.00  0.00     0.002 A 
ATOM      6  C7  UNL d   1       3.144  -3.005   2.075  0.00  0.00     0.002 A 
ENDROOT
BRANCH   1   7
ATOM      7  C1  UNL d   1       4.369  -3.123   4.278  0.00  0.00     0.055 C 
ATOM      8  C   UNL d   1       5.446  -2.081   4.543  0.00  0.00     0.019 C 
ENDBRANCH   1   7
TORSDOF 1
ENDMDL
