MODEL 1
REMARK minimizedAffinity -2.33477855
REMARK minimizedRMSD -1
REMARK  1 active torsions:
REMARK  status: ('A' for Active; 'I' for Inactive)
REMARK    1  A    between atoms: C1_2  and  C2_3 
ROOT
ATOM      1  C2  UNL d   1       4.590  -4.463   2.866  0.00  0.00    -0.077 A 
ATOM      2  C3  UNL d   1       3.442  -3.795   2.416  0.00  0.00     0.002 A 
ATOM      3  C4  UNL d   1       3.174  -3.695   1.049  0.00  0.00     0.002 A 
ATOM      4  C5  UNL d   1       4.046  -4.262   0.122  0.00  0.00    -0.004 A 
ATOM      5  C6  UNL d   1       5.191  -4.926   0.560  0.00  0.00     0.002 A 
ATOM      6  C7  UNL d   1       5.462  -5.027   1.925  0.00  0.00     0.002 A 
ENDROOT
BRANCH   1   7
ATOM      7  C1  UNL d   1       4.856  -4.615   4.341  0.00  0.00     0.055 C 
ATOM      8  C   UNL d   1       5.130  -3.269   4.996  0.00  0.00     0.019 C 
ENDBRANCH   1   7
TORSDOF 1
ENDMDL
