MODEL 1
REMARK minimizedAffinity 5.99006653
REMARK minimizedRMSD -1
REMARK  1 active torsions:
REMARK  status: ('A' for Active; 'I' for Inactive)
REMARK    1  A    between atoms: C1_2  and  C2_3 
ROOT
ATOM      1  C2  UNL d   1      -4.119   1.534  -5.119  0.00  0.00    -0.077 A 
ATOM      2  C3  UNL d   1      -5.055   0.540  -4.804  0.00  0.00     0.002 A 
ATOM      3  C4  UNL d   1      -4.683  -0.806  -4.804  0.00  0.00     0.002 A 
ATOM      4  C5  UNL d   1      -3.375  -1.169  -5.114  0.00  0.00    -0.004 A 
ATOM      5  C6  UNL d   1      -2.436  -0.188  -5.431  0.00  0.00     0.002 A 
ATOM      6  C7  UNL d   1      -2.806   1.158  -5.433  0.00  0.00     0.002 A 
ENDROOT
BRANCH   1   7
ATOM      7  C1  UNL d   1      -4.505   2.989  -5.072  0.00  0.00     0.055 C 
ATOM      8  C   UNL d   1      -3.723   3.735  -4.000  0.00  0.00     0.019 C 
ENDBRANCH   1   7
TORSDOF 1
ENDMDL
