MODEL 1
REMARK minimizedAffinity 2.05569458
REMARK minimizedRMSD -1
REMARK  1 active torsions:
REMARK  status: ('A' for Active; 'I' for Inactive)
REMARK    1  A    between atoms: C1_2  and  C2_3 
ROOT
ATOM      1  C2  UNL d   1      -3.516  -0.823  -3.138  0.00  0.00    -0.077 A 
ATOM      2  C3  UNL d   1      -2.434  -1.089  -3.988  0.00  0.00     0.002 A 
ATOM      3  C4  UNL d   1      -2.653  -1.538  -5.292  0.00  0.00     0.002 A 
ATOM      4  C5  UNL d   1      -3.954  -1.720  -5.758  0.00  0.00    -0.004 A 
ATOM      5  C6  UNL d   1      -5.037  -1.460  -4.919  0.00  0.00     0.002 A 
ATOM      6  C7  UNL d   1      -4.819  -1.012  -3.616  0.00  0.00     0.002 A 
ENDROOT
BRANCH   1   7
ATOM      7  C1  UNL d   1      -3.282  -0.292  -1.748  0.00  0.00     0.055 C 
ATOM      8  C   UNL d   1      -3.642   1.184  -1.651  0.00  0.00     0.019 C 
ENDBRANCH   1   7
TORSDOF 1
ENDMDL
