MODEL 1
REMARK minimizedAffinity 0.781055033
REMARK minimizedRMSD -1
REMARK  1 active torsions:
REMARK  status: ('A' for Active; 'I' for Inactive)
REMARK    1  A    between atoms: C1_2  and  C2_3 
ROOT
ATOM      1  C2  UNL d   1      -4.092  -0.189  -3.360  0.00  0.00    -0.077 A 
ATOM      2  C3  UNL d   1      -3.633   0.511  -4.485  0.00  0.00     0.002 A 
ATOM      3  C4  UNL d   1      -3.687  -0.073  -5.752  0.00  0.00     0.002 A 
ATOM      4  C5  UNL d   1      -4.204  -1.358  -5.907  0.00  0.00    -0.004 A 
ATOM      5  C6  UNL d   1      -4.660  -2.063  -4.794  0.00  0.00     0.002 A 
ATOM      6  C7  UNL d   1      -4.606  -1.481  -3.527  0.00  0.00     0.002 A 
ENDROOT
BRANCH   1   7
ATOM      7  C1  UNL d   1      -4.079   0.458  -2.000  0.00  0.00     0.055 C 
ATOM      8  C   UNL d   1      -2.947  -0.083  -1.140  0.00  0.00     0.019 C 
ENDBRANCH   1   7
TORSDOF 1
ENDMDL
