MODEL 1
REMARK minimizedAffinity 2.63825893
REMARK minimizedRMSD -1
REMARK  1 active torsions:
REMARK  status: ('A' for Active; 'I' for Inactive)
REMARK    1  A    between atoms: C1_2  and  C2_3 
ROOT
ATOM      1  C2  UNL d   1      -4.212   0.215  -4.342  0.00  0.00    -0.077 A 
ATOM      2  C3  UNL d   1      -3.302   0.194  -3.275  0.00  0.00     0.002 A 
ATOM      3  C4  UNL d   1      -3.407  -0.776  -2.277  0.00  0.00     0.002 A 
ATOM      4  C5  UNL d   1      -4.417  -1.734  -2.337  0.00  0.00    -0.004 A 
ATOM      5  C6  UNL d   1      -5.328  -1.720  -3.392  0.00  0.00     0.002 A 
ATOM      6  C7  UNL d   1      -5.226  -0.751  -4.391  0.00  0.00     0.002 A 
ENDROOT
BRANCH   1   7
ATOM      7  C1  UNL d   1      -4.071   1.230  -5.446  0.00  0.00     0.055 C 
ATOM      8  C   UNL d   1      -2.652   1.257  -5.995  0.00  0.00     0.019 C 
ENDBRANCH   1   7
TORSDOF 1
ENDMDL
