MODEL 1
REMARK minimizedAffinity 10.0068359
REMARK minimizedRMSD -1
REMARK  1 active torsions:
REMARK  status: ('A' for Active; 'I' for Inactive)
REMARK    1  A    between atoms: C1_2  and  C2_3 
ROOT
ATOM      1  C2  UNL d   1       5.468  -4.382   3.371  0.00  0.00    -0.077 A 
ATOM      2  C3  UNL d   1       4.902  -5.149   4.399  0.00  0.00     0.002 A 
ATOM      3  C4  UNL d   1       4.872  -4.664   5.708  0.00  0.00     0.002 A 
ATOM      4  C5  UNL d   1       5.402  -3.408   6.000  0.00  0.00    -0.004 A 
ATOM      5  C6  UNL d   1       5.968  -2.638   4.984  0.00  0.00     0.002 A 
ATOM      6  C7  UNL d   1       6.000  -3.123   3.676  0.00  0.00     0.002 A 
ENDROOT
BRANCH   1   7
ATOM      7  C1  UNL d   1       5.457  -4.883   1.951  0.00  0.00     0.055 C 
ATOM      8  C   UNL d   1       5.628  -3.741   0.960  0.00  0.00     0.019 C 
ENDBRANCH   1   7
TORSDOF 1
ENDMDL
