MODEL 1
REMARK minimizedAffinity 0.485538602
REMARK minimizedRMSD -1
REMARK  1 active torsions:
REMARK  status: ('A' for Active; 'I' for Inactive)
REMARK    1  A    between atoms: C1_2  and  C2_3 
ROOT
ATOM      1  C2  UNL d   1      -3.747  -0.281  -3.794  0.00  0.00    -0.077 A 
ATOM      2  C3  UNL d   1      -5.142  -0.171  -3.695  0.00  0.00     0.002 A 
ATOM      3  C4  UNL d   1      -5.882   0.384  -4.740  0.00  0.00     0.002 A 
ATOM      4  C5  UNL d   1      -5.239   0.830  -5.892  0.00  0.00    -0.004 A 
ATOM      5  C6  UNL d   1      -3.852   0.727  -5.999  0.00  0.00     0.002 A 
ATOM      6  C7  UNL d   1      -3.110   0.174  -4.955  0.00  0.00     0.002 A 
ENDROOT
BRANCH   1   7
ATOM      7  C1  UNL d   1      -2.952  -0.924  -2.688  0.00  0.00     0.055 C 
ATOM      8  C   UNL d   1      -2.853  -0.012  -1.474  0.00  0.00     0.019 C 
ENDBRANCH   1   7
TORSDOF 1
ENDMDL
