MODEL 1
REMARK minimizedAffinity -0.720331132
REMARK minimizedRMSD -1
REMARK  1 active torsions:
REMARK  status: ('A' for Active; 'I' for Inactive)
REMARK    1  A    between atoms: C1_2  and  C2_3 
ROOT
ATOM      1  C2  UNL d   1      -2.184   4.055  -5.577  0.00  0.00    -0.077 A 
ATOM      2  C3  UNL d   1      -2.940   3.166  -4.800  0.00  0.00     0.002 A 
ATOM      3  C4  UNL d   1      -4.254   3.478  -4.448  0.00  0.00     0.002 A 
ATOM      4  C5  UNL d   1      -4.825   4.676  -4.871  0.00  0.00    -0.004 A 
ATOM      5  C6  UNL d   1      -4.081   5.568  -5.642  0.00  0.00     0.002 A 
ATOM      6  C7  UNL d   1      -2.766   5.259  -5.994  0.00  0.00     0.002 A 
ENDROOT
BRANCH   1   7
ATOM      7  C1  UNL d   1      -0.782   3.699  -6.000  0.00  0.00     0.055 C 
ATOM      8  C   UNL d   1       0.125   4.920  -5.994  0.00  0.00     0.019 C 
ENDBRANCH   1   7
TORSDOF 1
ENDMDL
