MODEL 1
REMARK minimizedAffinity -3.13349032
REMARK minimizedRMSD -1
REMARK  1 active torsions:
REMARK  status: ('A' for Active; 'I' for Inactive)
REMARK    1  A    between atoms: C1_2  and  C2_3 
ROOT
ATOM      1  C2  UNL d   1       4.694  -3.668   3.308  0.00  0.00    -0.077 A 
ATOM      2  C3  UNL d   1       5.143  -2.472   3.886  0.00  0.00     0.002 A 
ATOM      3  C4  UNL d   1       5.603  -2.454   5.204  0.00  0.00     0.002 A 
ATOM      4  C5  UNL d   1       5.621  -3.628   5.954  0.00  0.00    -0.004 A 
ATOM      5  C6  UNL d   1       5.175  -4.822   5.388  0.00  0.00     0.002 A 
ATOM      6  C7  UNL d   1       4.714  -4.842   4.071  0.00  0.00     0.002 A 
ENDROOT
BRANCH   1   7
ATOM      7  C1  UNL d   1       4.245  -3.699   1.870  0.00  0.00     0.055 C 
ATOM      8  C   UNL d   1       2.986  -2.869   1.666  0.00  0.00     0.019 C 
ENDBRANCH   1   7
TORSDOF 1
ENDMDL
