MODEL 1
REMARK minimizedAffinity 1.26646304
REMARK minimizedRMSD -1
REMARK  1 active torsions:
REMARK  status: ('A' for Active; 'I' for Inactive)
REMARK    1  A    between atoms: C3_4  and  O_7 
ROOT
ATOM      1  C   UNL d   1       4.420   0.008  -0.465  0.00  0.00    -0.033 A 
ATOM      2  C1  UNL d   1       3.989   1.242  -0.957  0.00  0.00     0.039 A 
ATOM      3  C2  UNL d   1       4.037   2.375  -0.142  0.00  0.00    -0.080 A 
ATOM      4  C3  UNL d   1       4.517   2.260   1.160  0.00  0.00     0.150 A 
ATOM      5  C4  UNL d   1       4.951   1.035   1.655  0.00  0.00    -0.007 A 
ATOM      6  C5  UNL d   1       4.902  -0.096   0.840  0.00  0.00     0.039 A 
ENDROOT
BRANCH   4   7
ATOM      7  O   UNL d   1       4.578   3.337   1.994  0.00  0.00    -0.526 OA
ATOM      8  H5  UNL d   1       4.218   4.109   1.527  0.00  0.00     0.418 HD
ENDBRANCH   4   7
TORSDOF 1
ENDMDL
