MODEL 1
REMARK minimizedAffinity 0.8737095
REMARK minimizedRMSD -1
REMARK  1 active torsions:
REMARK  status: ('A' for Active; 'I' for Inactive)
REMARK    1  A    between atoms: C3_4  and  O_7 
ROOT
ATOM      1  C   UNL d   1       1.995   5.869   5.989  0.00  0.00    -0.033 A 
ATOM      2  C1  UNL d   1       1.375   4.618   5.999  0.00  0.00     0.039 A 
ATOM      3  C2  UNL d   1       2.146   3.454   5.998  0.00  0.00    -0.080 A 
ATOM      4  C3  UNL d   1       3.534   3.554   5.986  0.00  0.00     0.150 A 
ATOM      5  C4  UNL d   1       4.159   4.797   5.980  0.00  0.00    -0.007 A 
ATOM      6  C5  UNL d   1       3.388   5.958   5.981  0.00  0.00     0.039 A 
ENDROOT
BRANCH   4   7
ATOM      7  O   UNL d   1       4.328   2.446   5.980  0.00  0.00    -0.526 OA
ATOM      8  H5  UNL d   1       3.759   1.659   5.956  0.00  0.00     0.418 HD
ENDBRANCH   4   7
TORSDOF 1
ENDMDL
