MODEL 1
REMARK minimizedAffinity -4.07696533
REMARK minimizedRMSD -1
REMARK  1 active torsions:
REMARK  status: ('A' for Active; 'I' for Inactive)
REMARK    1  A    between atoms: C3_4  and  O_7 
ROOT
ATOM      1  C   UNL d   1       3.859   2.179   4.857  0.00  0.00    -0.033 A 
ATOM      2  C1  UNL d   1       3.034   3.019   5.607  0.00  0.00     0.039 A 
ATOM      3  C2  UNL d   1       3.489   4.279   5.999  0.00  0.00    -0.080 A 
ATOM      4  C3  UNL d   1       4.769   4.688   5.635  0.00  0.00     0.150 A 
ATOM      5  C4  UNL d   1       5.595   3.858   4.884  0.00  0.00    -0.007 A 
ATOM      6  C5  UNL d   1       5.139   2.599   4.494  0.00  0.00     0.039 A 
ENDROOT
BRANCH   4   7
ATOM      7  O   UNL d   1       5.259   5.907   5.999  0.00  0.00    -0.526 OA
ATOM      8  H5  UNL d   1       4.589   6.359   6.538  0.00  0.00     0.418 HD
ENDBRANCH   4   7
TORSDOF 1
ENDMDL
