MODEL 1
REMARK minimizedAffinity -1.27553034
REMARK minimizedRMSD -1
REMARK  1 active torsions:
REMARK  status: ('A' for Active; 'I' for Inactive)
REMARK    1  A    between atoms: C3_4  and  O_7 
ROOT
ATOM      1  C   UNL d   1       3.720   5.137   5.219  0.00  0.00    -0.033 A 
ATOM      2  C1  UNL d   1       4.876   4.405   4.944  0.00  0.00     0.039 A 
ATOM      3  C2  UNL d   1       4.914   3.033   5.199  0.00  0.00    -0.080 A 
ATOM      4  C3  UNL d   1       3.789   2.406   5.727  0.00  0.00     0.150 A 
ATOM      5  C4  UNL d   1       2.632   3.128   6.000  0.00  0.00    -0.007 A 
ATOM      6  C5  UNL d   1       2.597   4.498   5.745  0.00  0.00     0.039 A 
ENDROOT
BRANCH   4   7
ATOM      7  O   UNL d   1       3.779   1.069   5.998  0.00  0.00    -0.526 OA
ATOM      8  H5  UNL d   1       4.655   0.706   5.786  0.00  0.00     0.418 HD
ENDBRANCH   4   7
TORSDOF 1
ENDMDL
