MODEL 1
REMARK minimizedAffinity -0.696845233
REMARK minimizedRMSD -1
REMARK  1 active torsions:
REMARK  status: ('A' for Active; 'I' for Inactive)
REMARK    1  A    between atoms: C3_4  and  O_7 
ROOT
ATOM      1  C   UNL d   1      -0.020  -4.649   5.689  0.00  0.00    -0.033 A 
ATOM      2  C1  UNL d   1      -0.985  -4.131   4.823  0.00  0.00     0.039 A 
ATOM      3  C2  UNL d   1      -0.816  -2.861   4.267  0.00  0.00    -0.080 A 
ATOM      4  C3  UNL d   1       0.320  -2.122   4.584  0.00  0.00     0.150 A 
ATOM      5  C4  UNL d   1       1.287  -2.633   5.443  0.00  0.00    -0.007 A 
ATOM      6  C5  UNL d   1       1.117  -3.901   5.998  0.00  0.00     0.039 A 
ENDROOT
BRANCH   4   7
ATOM      7  O   UNL d   1       0.526  -0.876   4.069  0.00  0.00    -0.526 OA
ATOM      8  H5  UNL d   1      -0.238  -0.642   3.516  0.00  0.00     0.418 HD
ENDBRANCH   4   7
TORSDOF 1
ENDMDL
