MODEL 1
REMARK minimizedAffinity -2.14666915
REMARK minimizedRMSD -1
REMARK  1 active torsions:
REMARK  status: ('A' for Active; 'I' for Inactive)
REMARK    1  A    between atoms: C3_4  and  O_7 
ROOT
ATOM      1  C   UNL d   1       5.126   1.498   5.915  0.00  0.00    -0.033 A 
ATOM      2  C1  UNL d   1       3.749   1.278   5.972  0.00  0.00     0.039 A 
ATOM      3  C2  UNL d   1       2.867   2.360   6.000  0.00  0.00    -0.080 A 
ATOM      4  C3  UNL d   1       3.375   3.656   5.969  0.00  0.00     0.150 A 
ATOM      5  C4  UNL d   1       4.746   3.883   5.909  0.00  0.00    -0.007 A 
ATOM      6  C5  UNL d   1       5.625   2.801   5.882  0.00  0.00     0.039 A 
ENDROOT
BRANCH   4   7
ATOM      7  O   UNL d   1       2.554   4.744   6.000  0.00  0.00    -0.526 OA
ATOM      8  H5  UNL d   1       1.636   4.434   6.070  0.00  0.00     0.418 HD
ENDBRANCH   4   7
TORSDOF 1
ENDMDL
