MODEL 1
REMARK minimizedAffinity -3.39040089
REMARK minimizedRMSD -1
REMARK  1 active torsions:
REMARK  status: ('A' for Active; 'I' for Inactive)
REMARK    1  A    between atoms: C3_4  and  O_7 
ROOT
ATOM      1  C   UNL d   1       4.190   4.854   5.628  0.00  0.00    -0.033 A 
ATOM      2  C1  UNL d   1       5.243   4.019   5.252  0.00  0.00     0.039 A 
ATOM      3  C2  UNL d   1       5.072   2.633   5.252  0.00  0.00    -0.080 A 
ATOM      4  C3  UNL d   1       3.844   2.097   5.628  0.00  0.00     0.150 A 
ATOM      5  C4  UNL d   1       2.789   2.923   5.999  0.00  0.00    -0.007 A 
ATOM      6  C5  UNL d   1       2.962   4.307   6.000  0.00  0.00     0.039 A 
ENDROOT
BRANCH   4   7
ATOM      7  O   UNL d   1       3.631   0.750   5.648  0.00  0.00    -0.526 OA
ATOM      8  H5  UNL d   1       4.456   0.304   5.395  0.00  0.00     0.418 HD
ENDBRANCH   4   7
TORSDOF 1
ENDMDL
