MODEL 1
REMARK minimizedAffinity 1.57691491
REMARK minimizedRMSD -1
REMARK  1 active torsions:
REMARK  status: ('A' for Active; 'I' for Inactive)
REMARK    1  A    between atoms: C3_4  and  O_7 
ROOT
ATOM      1  C   UNL d   1       2.606   2.279   6.000  0.00  0.00    -0.033 A 
ATOM      2  C1  UNL d   1       3.386   1.394   5.253  0.00  0.00     0.039 A 
ATOM      3  C2  UNL d   1       4.354   1.885   4.374  0.00  0.00    -0.080 A 
ATOM      4  C3  UNL d   1       4.533   3.261   4.254  0.00  0.00     0.150 A 
ATOM      5  C4  UNL d   1       3.762   4.147   4.998  0.00  0.00    -0.007 A 
ATOM      6  C5  UNL d   1       2.795   3.655   5.874  0.00  0.00     0.039 A 
ENDROOT
BRANCH   4   7
ATOM      7  O   UNL d   1       5.462   3.787   3.406  0.00  0.00    -0.526 OA
ATOM      8  H5  UNL d   1       5.899   3.057   2.937  0.00  0.00     0.418 HD
ENDBRANCH   4   7
TORSDOF 1
ENDMDL
