MODEL 1
REMARK minimizedAffinity 7.32303238
REMARK minimizedRMSD -1
REMARK  1 active torsions:
REMARK  status: ('A' for Active; 'I' for Inactive)
REMARK    1  A    between atoms: C1_2  and  C2_3 
ROOT
ATOM      1  C2  UNL d   1      -1.872   0.374   2.346  0.00  0.00    -0.077 A 
ATOM      2  C3  UNL d   1      -1.371   1.680   2.262  0.00  0.00     0.002 A 
ATOM      3  C4  UNL d   1      -0.206   2.035   2.946  0.00  0.00     0.002 A 
ATOM      4  C5  UNL d   1       0.469   1.088   3.713  0.00  0.00    -0.004 A 
ATOM      5  C6  UNL d   1      -0.022  -0.213   3.804  0.00  0.00     0.002 A 
ATOM      6  C7  UNL d   1      -1.187  -0.569   3.122  0.00  0.00     0.002 A 
ENDROOT
BRANCH   1   7
ATOM      7  C1  UNL d   1      -3.101  -0.024   1.570  0.00  0.00     0.055 C 
ATOM      8  C   UNL d   1      -3.524   1.073   0.603  0.00  0.00     0.019 C 
ENDBRANCH   1   7
TORSDOF 1
ENDMDL
