MODEL 1
REMARK minimizedAffinity 2.93583202
REMARK minimizedRMSD -1
REMARK  1 active torsions:
REMARK  status: ('A' for Active; 'I' for Inactive)
REMARK    1  A    between atoms: C1_2  and  C2_3 
ROOT
ATOM      1  C2  UNL d   1       1.072  -0.343  -1.666  0.00  0.00    -0.077 A 
ATOM      2  C3  UNL d   1       0.165  -0.721  -2.666  0.00  0.00     0.002 A 
ATOM      3  C4  UNL d   1       0.173  -0.081  -3.906  0.00  0.00     0.002 A 
ATOM      4  C5  UNL d   1       1.089   0.939  -4.159  0.00  0.00    -0.004 A 
ATOM      5  C6  UNL d   1       1.994   1.323  -3.171  0.00  0.00     0.002 A 
ATOM      6  C7  UNL d   1       1.986   0.685  -1.930  0.00  0.00     0.002 A 
ENDROOT
BRANCH   1   7
ATOM      7  C1  UNL d   1       1.097  -1.066  -0.345  0.00  0.00     0.055 C 
ATOM      8  C   UNL d   1       1.913  -0.303   0.689  0.00  0.00     0.019 C 
ENDBRANCH   1   7
TORSDOF 1
ENDMDL
