MODEL 1
REMARK minimizedAffinity 4.87391329
REMARK minimizedRMSD -1
REMARK  1 active torsions:
REMARK  status: ('A' for Active; 'I' for Inactive)
REMARK    1  A    between atoms: C1_2  and  C2_3 
ROOT
ATOM      1  C2  UNL d   1       0.176  -2.738  -4.790  0.00  0.00    -0.077 A 
ATOM      2  C3  UNL d   1      -0.650  -3.862  -4.651  0.00  0.00     0.002 A 
ATOM      3  C4  UNL d   1      -0.207  -5.119  -5.067  0.00  0.00     0.002 A 
ATOM      4  C5  UNL d   1       1.064  -5.264  -5.619  0.00  0.00    -0.004 A 
ATOM      5  C6  UNL d   1       1.892  -4.152  -5.763  0.00  0.00     0.002 A 
ATOM      6  C7  UNL d   1       1.450  -2.894  -5.350  0.00  0.00     0.002 A 
ENDROOT
BRANCH   1   7
ATOM      7  C1  UNL d   1      -0.282  -1.390  -4.297  0.00  0.00     0.055 C 
ATOM      8  C   UNL d   1       0.797  -0.334  -4.492  0.00  0.00     0.019 C 
ENDBRANCH   1   7
TORSDOF 1
ENDMDL
