MODEL 1
REMARK minimizedAffinity 1.50889838
REMARK minimizedRMSD -1
REMARK  1 active torsions:
REMARK  status: ('A' for Active; 'I' for Inactive)
REMARK    1  A    between atoms: C1_2  and  C2_3 
ROOT
ATOM      1  C2  UNL d   1       1.943   0.977  -0.777  0.00  0.00    -0.077 A 
ATOM      2  C3  UNL d   1       2.182   1.591   0.460  0.00  0.00     0.002 A 
ATOM      3  C4  UNL d   1       2.114   0.849   1.641  0.00  0.00     0.002 A 
ATOM      4  C5  UNL d   1       1.811  -0.510   1.596  0.00  0.00    -0.004 A 
ATOM      5  C6  UNL d   1       1.569  -1.129   0.371  0.00  0.00     0.002 A 
ATOM      6  C7  UNL d   1       1.635  -0.389  -0.811  0.00  0.00     0.002 A 
ENDROOT
BRANCH   1   7
ATOM      7  C1  UNL d   1       2.064   1.763  -2.056  0.00  0.00     0.055 C 
ATOM      8  C   UNL d   1       1.719   0.908  -3.267  0.00  0.00     0.019 C 
ENDBRANCH   1   7
TORSDOF 1
ENDMDL
