MODEL 1
REMARK minimizedAffinity 2.17298055
REMARK minimizedRMSD -1
REMARK  1 active torsions:
REMARK  status: ('A' for Active; 'I' for Inactive)
REMARK    1  A    between atoms: C1_2  and  C2_3 
ROOT
ATOM      1  C2  UNL d   1       0.602   0.161   1.870  0.00  0.00    -0.077 A 
ATOM      2  C3  UNL d   1      -0.487  -0.512   1.296  0.00  0.00     0.002 A 
ATOM      3  C4  UNL d   1      -1.794  -0.120   1.591  0.00  0.00     0.002 A 
ATOM      4  C5  UNL d   1      -2.025   0.948   2.455  0.00  0.00    -0.004 A 
ATOM      5  C6  UNL d   1      -0.949   1.622   3.032  0.00  0.00     0.002 A 
ATOM      6  C7  UNL d   1       0.358   1.231   2.740  0.00  0.00     0.002 A 
ENDROOT
BRANCH   1   7
ATOM      7  C1  UNL d   1       2.013  -0.230   1.515  0.00  0.00     0.055 C 
ATOM      8  C   UNL d   1       2.062  -0.994   0.200  0.00  0.00     0.019 C 
ENDBRANCH   1   7
TORSDOF 1
ENDMDL
