MODEL 1
REMARK minimizedAffinity 4.58978367
REMARK minimizedRMSD -1
REMARK  1 active torsions:
REMARK  status: ('A' for Active; 'I' for Inactive)
REMARK    1  A    between atoms: C1_2  and  C2_3 
ROOT
ATOM      1  C2  UNL d   1       0.639   0.138  -4.581  0.00  0.00    -0.077 A 
ATOM      2  C3  UNL d   1       0.511  -0.224  -3.233  0.00  0.00     0.002 A 
ATOM      3  C4  UNL d   1       1.422   0.249  -2.286  0.00  0.00     0.002 A 
ATOM      4  C5  UNL d   1       2.464   1.087  -2.676  0.00  0.00    -0.004 A 
ATOM      5  C6  UNL d   1       2.601   1.450  -4.015  0.00  0.00     0.002 A 
ATOM      6  C7  UNL d   1       1.692   0.979  -4.964  0.00  0.00     0.002 A 
ENDROOT
BRANCH   1   7
ATOM      7  C1  UNL d   1      -0.371  -0.331  -5.596  0.00  0.00     0.055 C 
ATOM      8  C   UNL d   1      -0.408  -1.850  -5.680  0.00  0.00     0.019 C 
ENDBRANCH   1   7
TORSDOF 1
ENDMDL
