MODEL 1
REMARK minimizedAffinity -4.73839426
REMARK minimizedRMSD -1
REMARK  1 active torsions:
REMARK  status: ('A' for Active; 'I' for Inactive)
REMARK    1  A    between atoms: C1_2  and  C2_3 
ROOT
ATOM      1  C2  UNL d   1       0.156   0.681   0.257  0.00  0.00    -0.073 A 
ATOM      2  C3  UNL d   1       0.189   1.058  -1.091  0.00  0.00    -0.002 A 
ATOM      3  C4  UNL d   1      -0.459   2.220  -1.513  0.00  0.00     0.004 A 
ATOM      4  C5  UNL d   1      -1.139   3.018  -0.594  0.00  0.00    -0.004 A 
ATOM      5  C6  UNL d   1      -1.174   2.664   0.758  0.00  0.00    -0.075 A 
ATOM      6  C7  UNL d   1      -1.904   3.510   1.759  0.00  0.00     0.076 C 
ATOM      7  C8  UNL d   1      -0.523   1.494   1.175  0.00  0.00     0.001 A 
ENDROOT
BRANCH   1   8
ATOM      8  C1  UNL d   1       0.860  -0.569   0.719  0.00  0.00     0.053 C 
ATOM      9  C   UNL d   1       1.687  -0.327   1.972  0.00  0.00     0.018 C 
ENDBRANCH   1   8
TORSDOF 1
ENDMDL
