MODEL 1
REMARK minimizedAffinity -2.89531231
REMARK minimizedRMSD -1
REMARK  1 active torsions:
REMARK  status: ('A' for Active; 'I' for Inactive)
REMARK    1  A    between atoms: C1_2  and  C2_3 
ROOT
ATOM      1  C2  UNL d   1       0.183  -0.038  -0.240  0.00  0.00    -0.073 A 
ATOM      2  C3  UNL d   1       1.191  -0.267   0.703  0.00  0.00    -0.002 A 
ATOM      3  C4  UNL d   1       1.207   0.441   1.905  0.00  0.00     0.004 A 
ATOM      4  C5  UNL d   1       0.212   1.379   2.180  0.00  0.00    -0.004 A 
ATOM      5  C6  UNL d   1      -0.811   1.614   1.256  0.00  0.00    -0.075 A 
ATOM      6  C7  UNL d   1      -1.887   2.621   1.536  0.00  0.00     0.076 C 
ATOM      7  C8  UNL d   1      -0.818   0.901   0.050  0.00  0.00     0.001 A 
ENDROOT
BRANCH   1   8
ATOM      8  C1  UNL d   1       0.158  -0.805  -1.537  0.00  0.00     0.053 C 
ATOM      9  C   UNL d   1      -0.246  -2.256  -1.333  0.00  0.00     0.018 C 
ENDBRANCH   1   8
TORSDOF 1
ENDMDL
