MODEL 1
REMARK minimizedAffinity -4.44052649
REMARK minimizedRMSD -1
REMARK  1 active torsions:
REMARK  status: ('A' for Active; 'I' for Inactive)
REMARK    1  A    between atoms: C1_2  and  C2_3 
ROOT
ATOM      1  C2  UNL d   1      -0.279  -0.567  -0.398  0.00  0.00    -0.073 A 
ATOM      2  C3  UNL d   1       0.273  -0.950   0.830  0.00  0.00    -0.002 A 
ATOM      3  C4  UNL d   1       0.345  -0.040   1.885  0.00  0.00     0.004 A 
ATOM      4  C5  UNL d   1      -0.140   1.258   1.727  0.00  0.00    -0.004 A 
ATOM      5  C6  UNL d   1      -0.706   1.656   0.511  0.00  0.00    -0.075 A 
ATOM      6  C7  UNL d   1      -1.230   3.050   0.324  0.00  0.00     0.076 C 
ATOM      7  C8  UNL d   1      -0.772   0.737  -0.545  0.00  0.00     0.001 A 
ENDROOT
BRANCH   1   8
ATOM      8  C1  UNL d   1      -0.364  -1.549  -1.538  0.00  0.00     0.053 C 
ATOM      9  C   UNL d   1      -0.074  -2.972  -1.089  0.00  0.00     0.018 C 
ENDBRANCH   1   8
TORSDOF 1
ENDMDL
