MODEL 1
REMARK minimizedAffinity -4.63352966
REMARK minimizedRMSD -1
REMARK  1 active torsions:
REMARK  status: ('A' for Active; 'I' for Inactive)
REMARK    1  A    between atoms: C1_2  and  C2_3 
ROOT
ATOM      1  C2  UNL d   1      -0.086  -0.235  -0.223  0.00  0.00    -0.073 A 
ATOM      2  C3  UNL d   1       0.307  -0.746   1.020  0.00  0.00    -0.002 A 
ATOM      3  C4  UNL d   1       0.348   0.084   2.141  0.00  0.00     0.004 A 
ATOM      4  C5  UNL d   1      -0.010   1.428   2.034  0.00  0.00    -0.004 A 
ATOM      5  C6  UNL d   1      -0.417   1.953   0.804  0.00  0.00    -0.075 A 
ATOM      6  C7  UNL d   1      -0.802   3.397   0.671  0.00  0.00     0.076 C 
ATOM      7  C8  UNL d   1      -0.453   1.115  -0.319  0.00  0.00     0.001 A 
ENDROOT
BRANCH   1   8
ATOM      8  C1  UNL d   1      -0.138  -1.129  -1.435  0.00  0.00     0.053 C 
ATOM      9  C   UNL d   1      -0.185  -2.601  -1.057  0.00  0.00     0.018 C 
ENDBRANCH   1   8
TORSDOF 1
ENDMDL
