MODEL 1
REMARK minimizedAffinity -5.65788937
REMARK minimizedRMSD -1
REMARK  1 active torsions:
REMARK  status: ('A' for Active; 'I' for Inactive)
REMARK    1  A    between atoms: C1_2  and  C2_3 
ROOT
ATOM      1  C2  UNL d   1       0.220   0.309  -0.205  0.00  0.00    -0.073 A 
ATOM      2  C3  UNL d   1       0.260   0.397   1.191  0.00  0.00    -0.002 A 
ATOM      3  C4  UNL d   1      -0.361   1.460   1.848  0.00  0.00     0.004 A 
ATOM      4  C5  UNL d   1      -1.034   2.440   1.117  0.00  0.00    -0.004 A 
ATOM      5  C6  UNL d   1      -1.095   2.362  -0.278  0.00  0.00    -0.075 A 
ATOM      6  C7  UNL d   1      -1.813   3.409  -1.078  0.00  0.00     0.076 C 
ATOM      7  C8  UNL d   1      -0.467   1.293  -0.930  0.00  0.00     0.001 A 
ENDROOT
BRANCH   1   8
ATOM      8  C1  UNL d   1       0.884  -0.841  -0.919  0.00  0.00     0.053 C 
ATOM      9  C   UNL d   1      -0.106  -1.938  -1.276  0.00  0.00     0.018 C 
ENDBRANCH   1   8
TORSDOF 1
ENDMDL
