MODEL 1
REMARK minimizedAffinity -5.26004124
REMARK minimizedRMSD -1
REMARK  1 active torsions:
REMARK  status: ('A' for Active; 'I' for Inactive)
REMARK    1  A    between atoms: C1_2  and  C2_3 
ROOT
ATOM      1  C2  UNL d   1       0.028   0.490   0.590  0.00  0.00    -0.073 A 
ATOM      2  C3  UNL d   1       0.121   1.045   1.871  0.00  0.00    -0.002 A 
ATOM      3  C4  UNL d   1      -0.284   2.360   2.100  0.00  0.00     0.004 A 
ATOM      4  C5  UNL d   1      -0.794   3.131   1.055  0.00  0.00    -0.004 A 
ATOM      5  C6  UNL d   1      -0.906   2.590  -0.230  0.00  0.00    -0.075 A 
ATOM      6  C7  UNL d   1      -1.450   3.405  -1.366  0.00  0.00     0.076 C 
ATOM      7  C8  UNL d   1      -0.494   1.269  -0.453  0.00  0.00     0.001 A 
ENDROOT
BRANCH   1   8
ATOM      8  C1  UNL d   1       0.459  -0.932   0.338  0.00  0.00     0.053 C 
ATOM      9  C   UNL d   1       0.312  -1.322  -1.124  0.00  0.00     0.018 C 
ENDBRANCH   1   8
TORSDOF 1
ENDMDL
