MODEL 1
REMARK minimizedAffinity -4.66075659
REMARK minimizedRMSD -1
REMARK  1 active torsions:
REMARK  status: ('A' for Active; 'I' for Inactive)
REMARK    1  A    between atoms: C1_2  and  C2_3 
ROOT
ATOM      1  C2  UNL d   1       0.434   0.789  -0.951  0.00  0.00    -0.073 A 
ATOM      2  C3  UNL d   1       0.220   1.907  -1.766  0.00  0.00    -0.002 A 
ATOM      3  C4  UNL d   1      -0.350   3.066  -1.238  0.00  0.00     0.004 A 
ATOM      4  C5  UNL d   1      -0.704   3.123   0.110  0.00  0.00    -0.004 A 
ATOM      5  C6  UNL d   1      -0.488   2.021   0.943  0.00  0.00    -0.075 A 
ATOM      6  C7  UNL d   1      -0.866   2.065   2.394  0.00  0.00     0.076 C 
ATOM      7  C8  UNL d   1       0.082   0.859   0.404  0.00  0.00     0.001 A 
ENDROOT
BRANCH   1   8
ATOM      8  C1  UNL d   1       1.054  -0.462  -1.516  0.00  0.00     0.053 C 
ATOM      9  C   UNL d   1       0.490  -1.719  -0.871  0.00  0.00     0.018 C 
ENDBRANCH   1   8
TORSDOF 1
ENDMDL
