MODEL 1
REMARK minimizedAffinity 8.42923164
REMARK minimizedRMSD -1
REMARK  2 active torsions:
REMARK  status: ('A' for Active; 'I' for Inactive)
REMARK    1  A    between atoms: C2'_3  and  C1'_4 
REMARK    2  A    between atoms: C1'_4  and  C1_5 
ROOT
ATOM      1  C1  I4B d   1       4.768  -4.279   0.895  0.00  0.00    -0.075 A 
ATOM      2  C2  I4B d   1       5.508  -5.435   0.915  0.00  0.00     0.003 A 
ATOM      3  C3  I4B d   1       5.982  -5.999  -0.294  0.00  0.00     0.002 A 
ATOM      4  C4  I4B d   1       5.653  -5.406  -1.495  0.00  0.00    -0.004 A 
ATOM      5  C5  I4B d   1       4.923  -4.222  -1.513  0.00  0.00     0.002 A 
ATOM      6  C6  I4B d   1       4.488  -3.647  -0.309  0.00  0.00     0.003 A 
ENDROOT
BRANCH   1   7
ATOM      7  C1' I4B d   1       4.256  -3.729   2.188  0.00  0.00     0.060 C 
BRANCH   7   8
ATOM      8  C2' I4B d   1       5.052  -4.360   3.312  0.00  0.00    -0.013 C 
ATOM      9  C4' I4B d   1       5.175  -3.423   4.485  0.00  0.00     0.013 C 
ATOM     10  C3' I4B d   1       4.367  -5.634   3.707  0.00  0.00     0.013 C 
ENDBRANCH   7   8
ENDBRANCH   1   7
TORSDOF 2
ENDMDL
