MODEL 1
REMARK minimizedAffinity 16.754776
REMARK minimizedRMSD -1
REMARK  2 active torsions:
REMARK  status: ('A' for Active; 'I' for Inactive)
REMARK    1  A    between atoms: C2'_3  and  C1'_4 
REMARK    2  A    between atoms: C1'_4  and  C1_5 
ROOT
ATOM      1  C1  I4B d   1       4.750  -4.174   3.523  0.00  0.00    -0.075 A 
ATOM      2  C2  I4B d   1       5.424  -2.988   3.676  0.00  0.00     0.003 A 
ATOM      3  C3  I4B d   1       6.000  -2.651   4.924  0.00  0.00     0.002 A 
ATOM      4  C4  I4B d   1       5.835  -3.500   6.000  0.00  0.00    -0.004 A 
ATOM      5  C5  I4B d   1       5.171  -4.712   5.838  0.00  0.00     0.002 A 
ATOM      6  C6  I4B d   1       4.636  -5.058   4.589  0.00  0.00     0.003 A 
ENDROOT
BRANCH   1   7
ATOM      7  C1' I4B d   1       4.126  -4.484   2.199  0.00  0.00     0.060 C 
BRANCH   7   8
ATOM      8  C2' I4B d   1       3.709  -3.174   1.562  0.00  0.00    -0.013 C 
ATOM      9  C4' I4B d   1       4.557  -2.859   0.358  0.00  0.00     0.013 C 
ATOM     10  C3' I4B d   1       2.260  -3.280   1.191  0.00  0.00     0.013 C 
ENDBRANCH   7   8
ENDBRANCH   1   7
TORSDOF 2
ENDMDL
