MODEL 1
REMARK minimizedAffinity 1.25869894
REMARK minimizedRMSD -1
REMARK  2 active torsions:
REMARK  status: ('A' for Active; 'I' for Inactive)
REMARK    1  A    between atoms: C2'_3  and  C1'_4 
REMARK    2  A    between atoms: C1'_4  and  C1_5 
ROOT
ATOM      1  C1  I4B d   1       3.975  -4.102   2.306  0.00  0.00    -0.075 A 
ATOM      2  C2  I4B d   1       4.623  -4.396   1.132  0.00  0.00     0.003 A 
ATOM      3  C3  I4B d   1       4.044  -4.041  -0.110  0.00  0.00     0.002 A 
ATOM      4  C4  I4B d   1       2.801  -3.442  -0.134  0.00  0.00    -0.004 A 
ATOM      5  C5  I4B d   1       2.156  -3.123   1.057  0.00  0.00     0.002 A 
ATOM      6  C6  I4B d   1       2.752  -3.444   2.286  0.00  0.00     0.003 A 
ENDROOT
BRANCH   1   7
ATOM      7  C1' I4B d   1       4.600  -4.521   3.598  0.00  0.00     0.060 C 
BRANCH   7   8
ATOM      8  C2' I4B d   1       4.670  -3.304   4.499  0.00  0.00    -0.013 C 
ATOM      9  C4' I4B d   1       4.660  -3.700   5.952  0.00  0.00     0.013 C 
ATOM     10  C3' I4B d   1       5.915  -2.543   4.154  0.00  0.00     0.013 C 
ENDBRANCH   7   8
ENDBRANCH   1   7
TORSDOF 2
ENDMDL
