MODEL 1
REMARK minimizedAffinity 6.40177536
REMARK minimizedRMSD -1
REMARK  2 active torsions:
REMARK  status: ('A' for Active; 'I' for Inactive)
REMARK    1  A    between atoms: C2'_3  and  C1'_4 
REMARK    2  A    between atoms: C1'_4  and  C1_5 
ROOT
ATOM      1  C1  I4B d   1       3.788  -2.720   1.525  0.00  0.00    -0.075 A 
ATOM      2  C2  I4B d   1       2.570  -2.608   2.147  0.00  0.00     0.003 A 
ATOM      3  C3  I4B d   1       1.409  -2.312   1.393  0.00  0.00     0.002 A 
ATOM      4  C4  I4B d   1       1.519  -2.088   0.036  0.00  0.00    -0.004 A 
ATOM      5  C5  I4B d   1       2.751  -2.224  -0.597  0.00  0.00     0.002 A 
ATOM      6  C6  I4B d   1       3.891  -2.554   0.150  0.00  0.00     0.003 A 
ENDROOT
BRANCH   1   7
ATOM      7  C1' I4B d   1       5.000  -3.000   2.356  0.00  0.00     0.060 C 
BRANCH   7   8
ATOM      8  C2' I4B d   1       4.540  -3.645   3.648  0.00  0.00    -0.013 C 
ATOM      9  C4' I4B d   1       4.629  -5.146   3.571  0.00  0.00     0.013 C 
ATOM     10  C3' I4B d   1       5.390  -3.109   4.761  0.00  0.00     0.013 C 
ENDBRANCH   7   8
ENDBRANCH   1   7
TORSDOF 2
ENDMDL
