MODEL 1
REMARK minimizedAffinity 2.65572619
REMARK minimizedRMSD -1
REMARK  2 active torsions:
REMARK  status: ('A' for Active; 'I' for Inactive)
REMARK    1  A    between atoms: C2'_3  and  C1'_4 
REMARK    2  A    between atoms: C1'_4  and  C1_5 
ROOT
ATOM      1  C1  I4B d   1       3.897  -3.795   2.354  0.00  0.00    -0.075 A 
ATOM      2  C2  I4B d   1       2.722  -3.086   2.392  0.00  0.00     0.003 A 
ATOM      3  C3  I4B d   1       2.119  -2.641   1.190  0.00  0.00     0.002 A 
ATOM      4  C4  I4B d   1       2.747  -2.881  -0.015  0.00  0.00    -0.004 A 
ATOM      5  C5  I4B d   1       3.926  -3.620  -0.053  0.00  0.00     0.002 A 
ATOM      6  C6  I4B d   1       4.499  -4.091   1.138  0.00  0.00     0.003 A 
ENDROOT
BRANCH   1   7
ATOM      7  C1' I4B d   1       4.523  -4.222   3.644  0.00  0.00     0.060 C 
BRANCH   7   8
ATOM      8  C2' I4B d   1       4.682  -2.993   4.514  0.00  0.00    -0.013 C 
ATOM      9  C4' I4B d   1       4.614  -3.347   5.976  0.00  0.00     0.013 C 
ATOM     10  C3' I4B d   1       5.994  -2.351   4.173  0.00  0.00     0.013 C 
ENDBRANCH   7   8
ENDBRANCH   1   7
TORSDOF 2
ENDMDL
