MODEL 1
REMARK minimizedAffinity 3.72252274
REMARK minimizedRMSD -1
REMARK  0 active torsions:
REMARK  status: ('A' for Active; 'I' for Inactive)
ROOT
ATOM      1  C   UNL d   1      -1.865  -4.187   5.998  0.00  0.00    -0.002 A 
ATOM      2  C1  UNL d   1      -0.956  -5.236   5.998  0.00  0.00     0.010 A 
ATOM      3  C2  UNL d   1       0.417  -4.985   5.997  0.00  0.00     0.041 A 
ATOM      4  C3  UNL d   1       0.866  -3.649   5.998  0.00  0.00    -0.075 A 
ATOM      5  S   UNL d   1       2.501  -3.102   5.998  0.00  0.00     0.015 SA
ATOM      6  C4  UNL d   1       2.031  -1.464   5.999  0.00  0.00     0.022 A 
ATOM      7  C5  UNL d   1       0.664  -1.319   5.998  0.00  0.00     0.026 A 
ATOM      8  C6  UNL d   1      -0.030  -2.576   5.999  0.00  0.00    -0.082 A 
ATOM      9  C7  UNL d   1      -1.416  -2.864   5.998  0.00  0.00     0.045 A 
ENDROOT
TORSDOF 0
ENDMDL
