MODEL 1
REMARK minimizedAffinity 0.651395202
REMARK minimizedRMSD -1
REMARK  0 active torsions:
REMARK  status: ('A' for Active; 'I' for Inactive)
ROOT
ATOM      1  C   UNL d   1       0.630  -1.111   5.999  0.00  0.00    -0.002 A 
ATOM      2  C1  UNL d   1       1.945  -1.555   5.998  0.00  0.00     0.010 A 
ATOM      3  C2  UNL d   1       2.234  -2.921   5.999  0.00  0.00     0.041 A 
ATOM      4  C3  UNL d   1       1.168  -3.842   5.999  0.00  0.00    -0.075 A 
ATOM      5  S   UNL d   1       1.283  -5.563   6.000  0.00  0.00     0.015 SA
ATOM      6  C4  UNL d   1      -0.412  -5.750   5.999  0.00  0.00     0.022 A 
ATOM      7  C5  UNL d   1      -1.064  -4.539   5.999  0.00  0.00     0.026 A 
ATOM      8  C6  UNL d   1      -0.164  -3.420   5.999  0.00  0.00    -0.082 A 
ATOM      9  C7  UNL d   1      -0.424  -2.029   5.998  0.00  0.00     0.045 A 
ENDROOT
TORSDOF 0
ENDMDL
