MODEL 1
REMARK minimizedAffinity 1.3823508
REMARK minimizedRMSD -1
REMARK  0 active torsions:
REMARK  status: ('A' for Active; 'I' for Inactive)
ROOT
ATOM      1  C   UNL d   1       2.728  -5.145   5.988  0.00  0.00    -0.002 A 
ATOM      2  C1  UNL d   1       1.627  -5.991   5.993  0.00  0.00     0.010 A 
ATOM      3  C2  UNL d   1       0.332  -5.470   5.997  0.00  0.00     0.041 A 
ATOM      4  C3  UNL d   1       0.159  -4.072   5.996  0.00  0.00    -0.075 A 
ATOM      5  S   UNL d   1      -1.334  -3.210   6.000  0.00  0.00     0.015 SA
ATOM      6  C4  UNL d   1      -0.547  -1.698   5.995  0.00  0.00     0.022 A 
ATOM      7  C5  UNL d   1       0.822  -1.830   5.991  0.00  0.00     0.026 A 
ATOM      8  C6  UNL d   1       1.251  -3.200   5.991  0.00  0.00    -0.082 A 
ATOM      9  C7  UNL d   1       2.552  -3.758   5.987  0.00  0.00     0.045 A 
ENDROOT
TORSDOF 0
ENDMDL
