MODEL 1
REMARK minimizedAffinity 8.63819504
REMARK minimizedRMSD -1
REMARK  0 active torsions:
REMARK  status: ('A' for Active; 'I' for Inactive)
ROOT
ATOM      1  C   UNL d   1       2.604  -1.228   1.376  0.00  0.00    -0.002 A 
ATOM      2  C1  UNL d   1       2.673  -0.350   0.304  0.00  0.00     0.010 A 
ATOM      3  C2  UNL d   1       1.877  -0.546  -0.827  0.00  0.00     0.041 A 
ATOM      4  C3  UNL d   1       1.001  -1.648  -0.860  0.00  0.00    -0.075 A 
ATOM      5  S   UNL d   1      -0.070  -2.087  -2.139  0.00  0.00     0.015 SA
ATOM      6  C4  UNL d   1      -0.645  -3.449  -1.291  0.00  0.00     0.022 A 
ATOM      7  C5  UNL d   1      -0.045  -3.581  -0.061  0.00  0.00     0.026 A 
ATOM      8  C6  UNL d   1       0.912  -2.545   0.208  0.00  0.00    -0.082 A 
ATOM      9  C7  UNL d   1       1.733  -2.320   1.339  0.00  0.00     0.045 A 
ENDROOT
TORSDOF 0
ENDMDL
