MODEL 1
REMARK minimizedAffinity -1.97430623
REMARK minimizedRMSD -1
REMARK  0 active torsions:
REMARK  status: ('A' for Active; 'I' for Inactive)
ROOT
ATOM      1  C   UNL d   1      -1.501  -4.257   0.602  0.00  0.00    -0.002 A 
ATOM      2  C1  UNL d   1      -0.754  -5.397   0.343  0.00  0.00     0.010 A 
ATOM      3  C2  UNL d   1      -0.004  -6.000   1.355  0.00  0.00     0.041 A 
ATOM      4  C3  UNL d   1      -0.018  -5.433   2.644  0.00  0.00    -0.075 A 
ATOM      5  S   UNL d   1       0.823  -6.000   4.038  0.00  0.00     0.015 SA
ATOM      6  C4  UNL d   1       0.210  -4.742   5.011  0.00  0.00     0.022 A 
ATOM      7  C5  UNL d   1      -0.618  -3.901   4.306  0.00  0.00     0.026 A 
ATOM      8  C6  UNL d   1      -0.763  -4.285   2.930  0.00  0.00    -0.082 A 
ATOM      9  C7  UNL d   1      -1.513  -3.697   1.883  0.00  0.00     0.045 A 
ENDROOT
TORSDOF 0
ENDMDL
