MODEL 1
REMARK minimizedAffinity 7.00984764
REMARK minimizedRMSD -1
REMARK  0 active torsions:
REMARK  status: ('A' for Active; 'I' for Inactive)
ROOT
ATOM      1  C   UNL d   1       2.181  -0.079   0.771  0.00  0.00    -0.002 A 
ATOM      2  C1  UNL d   1       1.160   0.834   0.991  0.00  0.00     0.010 A 
ATOM      3  C2  UNL d   1      -0.064   0.703   0.331  0.00  0.00     0.041 A 
ATOM      4  C3  UNL d   1      -0.246  -0.373  -0.560  0.00  0.00    -0.075 A 
ATOM      5  S   UNL d   1      -1.659  -0.735  -1.479  0.00  0.00     0.015 SA
ATOM      6  C4  UNL d   1      -0.940  -2.110  -2.184  0.00  0.00     0.022 A 
ATOM      7  C5  UNL d   1       0.347  -2.303  -1.740  0.00  0.00     0.026 A 
ATOM      8  C6  UNL d   1       0.768  -1.306  -0.797  0.00  0.00    -0.082 A 
ATOM      9  C7  UNL d   1       1.998  -1.145  -0.114  0.00  0.00     0.045 A 
ENDROOT
TORSDOF 0
ENDMDL
