MODEL 1
REMARK minimizedAffinity 4.45667315
REMARK minimizedRMSD -1
REMARK  0 active torsions:
REMARK  status: ('A' for Active; 'I' for Inactive)
ROOT
ATOM      1  C   UNL d   1       0.272  -0.679  -1.750  0.00  0.00    -0.002 A 
ATOM      2  C1  UNL d   1      -0.266   0.478  -1.202  0.00  0.00     0.010 A 
ATOM      3  C2  UNL d   1       0.279   1.036  -0.045  0.00  0.00     0.041 A 
ATOM      4  C3  UNL d   1       1.387   0.408   0.558  0.00  0.00    -0.075 A 
ATOM      5  S   UNL d   1       2.222   0.913   1.980  0.00  0.00     0.015 SA
ATOM      6  C4  UNL d   1       3.312  -0.394   1.893  0.00  0.00     0.022 A 
ATOM      7  C5  UNL d   1       3.060  -1.206   0.812  0.00  0.00     0.026 A 
ATOM      8  C6  UNL d   1       1.947  -0.756   0.025  0.00  0.00    -0.082 A 
ATOM      9  C7  UNL d   1       1.370  -1.299  -1.149  0.00  0.00     0.045 A 
ENDROOT
TORSDOF 0
ENDMDL
