MODEL 1
REMARK minimizedAffinity 15.0742607
REMARK minimizedRMSD -1
REMARK  0 active torsions:
REMARK  status: ('A' for Active; 'I' for Inactive)
ROOT
ATOM      1  N1  IND d   1       2.760   4.351  -1.973  0.00  0.00    -0.196 N 
ATOM      2  C2  IND d   1       2.947   2.998  -1.913  0.00  0.00     0.054 A 
ATOM      3  C3  IND d   1       2.922   2.464  -3.155  0.00  0.00    -0.031 A 
ATOM      4  C4  IND d   1       2.689   3.636  -5.435  0.00  0.00     0.051 A 
ATOM      5  C5  IND d   1       2.458   4.859  -5.999  0.00  0.00    -0.031 A 
ATOM      6  C6  IND d   1       2.316   5.999  -5.234  0.00  0.00     0.015 A 
ATOM      7  C7  IND d   1       2.411   5.960  -3.872  0.00  0.00    -0.016 A 
ATOM      8  C8  IND d   1       2.639   4.718  -3.296  0.00  0.00    -0.047 A 
ATOM      9  C9  IND d   1       2.742   3.551  -4.064  0.00  0.00    -0.096 A 
ATOM     10  HN1 IND d   1       2.725   4.883  -1.299  0.00  0.00     0.298 HD
ENDROOT
TORSDOF 0
ENDMDL
