MODEL 1
REMARK minimizedAffinity 12.3655615
REMARK minimizedRMSD -1
REMARK  0 active torsions:
REMARK  status: ('A' for Active; 'I' for Inactive)
ROOT
ATOM      1  N1  IND d   1      -3.012  -1.772  -2.008  0.00  0.00    -0.196 N 
ATOM      2  C2  IND d   1      -2.243  -2.366  -2.969  0.00  0.00     0.054 A 
ATOM      3  C3  IND d   1      -1.132  -2.903  -2.418  0.00  0.00    -0.031 A 
ATOM      4  C4  IND d   1      -0.423  -3.013   0.055  0.00  0.00     0.051 A 
ATOM      5  C5  IND d   1      -0.783  -2.577   1.299  0.00  0.00    -0.031 A 
ATOM      6  C6  IND d   1      -1.930  -1.838   1.509  0.00  0.00     0.015 A 
ATOM      7  C7  IND d   1      -2.768  -1.516   0.480  0.00  0.00    -0.016 A 
ATOM      8  C8  IND d   1      -2.402  -1.950  -0.786  0.00  0.00    -0.047 A 
ATOM      9  C9  IND d   1      -1.217  -2.664  -1.012  0.00  0.00    -0.096 A 
ATOM     10  HN1 IND d   1      -3.753  -1.357  -2.143  0.00  0.00     0.298 HD
ENDROOT
TORSDOF 0
ENDMDL
