MODEL 1
REMARK minimizedAffinity 4.74911308
REMARK minimizedRMSD -1
REMARK  0 active torsions:
REMARK  status: ('A' for Active; 'I' for Inactive)
ROOT
ATOM      1  N1  IND d   1      -4.343  -3.926  -3.403  0.00  0.00    -0.196 N 
ATOM      2  C2  IND d   1      -3.399  -3.684  -4.362  0.00  0.00     0.054 A 
ATOM      3  C3  IND d   1      -2.494  -2.785  -3.915  0.00  0.00    -0.031 A 
ATOM      4  C4  IND d   1      -2.311  -1.656  -1.609  0.00  0.00     0.051 A 
ATOM      5  C5  IND d   1      -2.964  -1.534  -0.415  0.00  0.00    -0.031 A 
ATOM      6  C6  IND d   1      -4.132  -2.218  -0.149  0.00  0.00     0.015 A 
ATOM      7  C7  IND d   1      -4.687  -3.063  -1.068  0.00  0.00    -0.016 A 
ATOM      8  C8  IND d   1      -4.031  -3.185  -2.285  0.00  0.00    -0.047 A 
ATOM      9  C9  IND d   1      -2.868  -2.460  -2.575  0.00  0.00    -0.096 A 
ATOM     10  HN1 IND d   1      -5.018  -4.451  -3.485  0.00  0.00     0.298 HD
ENDROOT
TORSDOF 0
ENDMDL
