MODEL 1
REMARK minimizedAffinity 9.53234386
REMARK minimizedRMSD -1
REMARK  0 active torsions:
REMARK  status: ('A' for Active; 'I' for Inactive)
ROOT
ATOM      1  N1  IND d   1       2.185   5.982  -4.196  0.00  0.00    -0.196 N 
ATOM      2  C2  IND d   1       2.647   6.000  -5.483  0.00  0.00     0.054 A 
ATOM      3  C3  IND d   1       2.646   4.751  -6.000  0.00  0.00    -0.031 A 
ATOM      4  C4  IND d   1       1.833   2.546  -4.948  0.00  0.00     0.051 A 
ATOM      5  C5  IND d   1       1.361   2.020  -3.778  0.00  0.00    -0.031 A 
ATOM      6  C6  IND d   1       1.132   2.804  -2.666  0.00  0.00     0.015 A 
ATOM      7  C7  IND d   1       1.357   4.152  -2.686  0.00  0.00    -0.016 A 
ATOM      8  C8  IND d   1       1.844   4.688  -3.870  0.00  0.00    -0.047 A 
ATOM      9  C9  IND d   1       2.118   3.890  -4.989  0.00  0.00    -0.096 A 
ATOM     10  HN1 IND d   1       2.119   6.665  -3.677  0.00  0.00     0.298 HD
ENDROOT
TORSDOF 0
ENDMDL
