MODEL 1
REMARK minimizedAffinity 13.4099817
REMARK minimizedRMSD -1
REMARK  0 active torsions:
REMARK  status: ('A' for Active; 'I' for Inactive)
ROOT
ATOM      1  N1  IND d   1      -0.718  -0.507   4.896  0.00  0.00    -0.196 N 
ATOM      2  C2  IND d   1      -0.233   0.754   4.688  0.00  0.00     0.054 A 
ATOM      3  C3  IND d   1      -0.219   1.041   3.367  0.00  0.00    -0.031 A 
ATOM      4  C4  IND d   1      -1.043  -0.371   1.378  0.00  0.00     0.051 A 
ATOM      5  C5  IND d   1      -1.535  -1.608   1.065  0.00  0.00    -0.031 A 
ATOM      6  C6  IND d   1      -1.787  -2.558   2.033  0.00  0.00     0.015 A 
ATOM      7  C7  IND d   1      -1.567  -2.303   3.357  0.00  0.00    -0.016 A 
ATOM      8  C8  IND d   1      -1.061  -1.051   3.678  0.00  0.00    -0.047 A 
ATOM      9  C9  IND d   1      -0.763  -0.097   2.696  0.00  0.00    -0.096 A 
ATOM     10  HN1 IND d   1      -0.797  -0.895   5.659  0.00  0.00     0.298 HD
ENDROOT
TORSDOF 0
ENDMDL
