MODEL 1
REMARK minimizedAffinity 8.32253075
REMARK minimizedRMSD -1
REMARK  0 active torsions:
REMARK  status: ('A' for Active; 'I' for Inactive)
ROOT
ATOM      1  N1  IND d   1      -2.545  -1.514  -5.223  0.00  0.00    -0.196 N 
ATOM      2  C2  IND d   1      -2.358  -2.624  -6.000  0.00  0.00     0.054 A 
ATOM      3  C3  IND d   1      -1.894  -3.649  -5.251  0.00  0.00    -0.031 A 
ATOM      4  C4  IND d   1      -1.466  -3.759  -2.715  0.00  0.00     0.051 A 
ATOM      5  C5  IND d   1      -1.458  -2.984  -1.589  0.00  0.00    -0.031 A 
ATOM      6  C6  IND d   1      -1.822  -1.654  -1.617  0.00  0.00     0.015 A 
ATOM      7  C7  IND d   1      -2.220  -1.049  -2.776  0.00  0.00    -0.016 A 
ATOM      8  C8  IND d   1      -2.223  -1.831  -3.922  0.00  0.00    -0.047 A 
ATOM      9  C9  IND d   1      -1.814  -3.170  -3.907  0.00  0.00    -0.096 A 
ATOM     10  HN1 IND d   1      -2.819  -0.748  -5.501  0.00  0.00     0.298 HD
ENDROOT
TORSDOF 0
ENDMDL
