MODEL 1
REMARK minimizedAffinity 5.78071642
REMARK minimizedRMSD -1
REMARK  0 active torsions:
REMARK  status: ('A' for Active; 'I' for Inactive)
ROOT
ATOM      1  N1  IND d   1       1.911   1.957  -5.997  0.00  0.00    -0.196 N 
ATOM      2  C2  IND d   1       3.221   1.564  -5.992  0.00  0.00     0.054 A 
ATOM      3  C3  IND d   1       4.035   2.644  -6.000  0.00  0.00    -0.031 A 
ATOM      4  C4  IND d   1       3.435   5.146  -5.918  0.00  0.00     0.051 A 
ATOM      5  C5  IND d   1       2.368   5.999  -5.948  0.00  0.00    -0.031 A 
ATOM      6  C6  IND d   1       1.067   5.539  -5.994  0.00  0.00     0.015 A 
ATOM      7  C7  IND d   1       0.784   4.203  -6.000  0.00  0.00    -0.016 A 
ATOM      8  C8  IND d   1       1.866   3.333  -5.977  0.00  0.00    -0.047 A 
ATOM      9  C9  IND d   1       3.188   3.794  -5.973  0.00  0.00    -0.096 A 
ATOM     10  HN1 IND d   1       1.230   1.432  -6.010  0.00  0.00     0.298 HD
ENDROOT
TORSDOF 0
ENDMDL
