MODEL 1
REMARK minimizedAffinity 11.5801582
REMARK minimizedRMSD -1
REMARK  0 active torsions:
REMARK  status: ('A' for Active; 'I' for Inactive)
ROOT
ATOM      1  N1  IND d   1      -3.427  -2.975  -2.213  0.00  0.00    -0.196 N 
ATOM      2  C2  IND d   1      -2.423  -2.238  -1.649  0.00  0.00     0.054 A 
ATOM      3  C3  IND d   1      -1.442  -2.012  -2.551  0.00  0.00    -0.031 A 
ATOM      4  C4  IND d   1      -1.321  -2.670  -5.036  0.00  0.00     0.051 A 
ATOM      5  C5  IND d   1      -1.984  -3.384  -5.995  0.00  0.00    -0.031 A 
ATOM      6  C6  IND d   1      -3.188  -4.007  -5.738  0.00  0.00     0.015 A 
ATOM      7  C7  IND d   1      -3.781  -3.931  -4.510  0.00  0.00    -0.016 A 
ATOM      8  C8  IND d   1      -3.107  -3.214  -3.532  0.00  0.00    -0.047 A 
ATOM      9  C9  IND d   1      -1.865  -2.615  -3.775  0.00  0.00    -0.096 A 
ATOM     10  HN1 IND d   1      -4.138  -3.245  -1.812  0.00  0.00     0.298 HD
ENDROOT
TORSDOF 0
ENDMDL
