MODEL 1
REMARK minimizedAffinity 15.2154799
REMARK minimizedRMSD -1
REMARK  0 active torsions:
REMARK  status: ('A' for Active; 'I' for Inactive)
ROOT
ATOM      1  N1  IND d   1      -1.049   4.694   1.599  0.00  0.00    -0.196 N 
ATOM      2  C2  IND d   1      -2.066   4.200   2.368  0.00  0.00     0.054 A 
ATOM      3  C3  IND d   1      -1.718   3.006   2.898  0.00  0.00    -0.031 A 
ATOM      4  C4  IND d   1       0.508   1.724   2.721  0.00  0.00     0.051 A 
ATOM      5  C5  IND d   1       1.724   1.759   2.098  0.00  0.00    -0.031 A 
ATOM      6  C6  IND d   1       2.086   2.795   1.263  0.00  0.00     0.015 A 
ATOM      7  C7  IND d   1       1.246   3.847   1.027  0.00  0.00    -0.016 A 
ATOM      8  C8  IND d   1       0.008   3.812   1.652  0.00  0.00    -0.047 A 
ATOM      9  C9  IND d   1      -0.382   2.742   2.467  0.00  0.00    -0.096 A 
ATOM     10  HN1 IND d   1      -1.067   5.431   1.157  0.00  0.00     0.298 HD
ENDROOT
TORSDOF 0
ENDMDL
