MODEL 1
REMARK minimizedAffinity 4.593256
REMARK minimizedRMSD -1
REMARK  0 active torsions:
REMARK  status: ('A' for Active; 'I' for Inactive)
ROOT
ATOM      1  N1  IND d   1       1.186   3.912   0.658  0.00  0.00    -0.196 N 
ATOM      2  C2  IND d   1       0.529   3.957   1.857  0.00  0.00     0.054 A 
ATOM      3  C3  IND d   1       0.910   2.923   2.640  0.00  0.00    -0.031 A 
ATOM      4  C4  IND d   1       2.671   1.098   2.199  0.00  0.00     0.051 A 
ATOM      5  C5  IND d   1       3.508   0.621   1.230  0.00  0.00    -0.031 A 
ATOM      6  C6  IND d   1       3.618   1.230  -0.003  0.00  0.00     0.015 A 
ATOM      7  C7  IND d   1       2.901   2.351  -0.311  0.00  0.00    -0.016 A 
ATOM      8  C8  IND d   1       2.044   2.835   0.669  0.00  0.00    -0.047 A 
ATOM      9  C9  IND d   1       1.897   2.196   1.906  0.00  0.00    -0.096 A 
ATOM     10  HN1 IND d   1       1.080   4.464   0.008  0.00  0.00     0.298 HD
ENDROOT
TORSDOF 0
ENDMDL
