MODEL 1
REMARK minimizedAffinity 11.3916569
REMARK minimizedRMSD -1
REMARK  0 active torsions:
REMARK  status: ('A' for Active; 'I' for Inactive)
ROOT
ATOM      1  N1  IND d   1       4.494  -2.916  -4.034  0.00  0.00    -0.196 N 
ATOM      2  C2  IND d   1       3.523  -3.641  -4.665  0.00  0.00     0.054 A 
ATOM      3  C3  IND d   1       2.687  -2.820  -5.340  0.00  0.00    -0.031 A 
ATOM      4  C4  IND d   1       2.785  -0.264  -5.629  0.00  0.00     0.051 A 
ATOM      5  C5  IND d   1       3.471   0.842  -5.211  0.00  0.00    -0.031 A 
ATOM      6  C6  IND d   1       4.556   0.750  -4.364  0.00  0.00     0.015 A 
ATOM      7  C7  IND d   1       5.005  -0.458  -3.911  0.00  0.00    -0.016 A 
ATOM      8  C8  IND d   1       4.307  -1.583  -4.328  0.00  0.00    -0.047 A 
ATOM      9  C9  IND d   1       3.179  -1.492  -5.153  0.00  0.00    -0.096 A 
ATOM     10  HN1 IND d   1       5.118  -3.238  -3.537  0.00  0.00     0.298 HD
ENDROOT
TORSDOF 0
ENDMDL
