MODEL 1
REMARK minimizedAffinity 9.91032887
REMARK minimizedRMSD -1
REMARK  0 active torsions:
REMARK  status: ('A' for Active; 'I' for Inactive)
ROOT
ATOM      1  N1  IND d   1       1.857   5.203  -5.879  0.00  0.00    -0.196 N 
ATOM      2  C2  IND d   1       2.961   6.000  -5.999  0.00  0.00     0.054 A 
ATOM      3  C3  IND d   1       3.669   5.999  -4.847  0.00  0.00    -0.031 A 
ATOM      4  C4  IND d   1       3.255   4.681  -2.675  0.00  0.00     0.051 A 
ATOM      5  C5  IND d   1       2.352   3.848  -2.075  0.00  0.00    -0.031 A 
ATOM      6  C6  IND d   1       1.217   3.413  -2.727  0.00  0.00     0.015 A 
ATOM      7  C7  IND d   1       0.946   3.788  -4.013  0.00  0.00    -0.016 A 
ATOM      8  C8  IND d   1       1.857   4.639  -4.622  0.00  0.00    -0.047 A 
ATOM      9  C9  IND d   1       2.989   5.118  -3.951  0.00  0.00    -0.096 A 
ATOM     10  HN1 IND d   1       1.262   5.075  -6.487  0.00  0.00     0.298 HD
ENDROOT
TORSDOF 0
ENDMDL
