MODEL 1
REMARK minimizedAffinity -2.90765333
REMARK minimizedRMSD -1
REMARK  1 active torsions:
REMARK  status: ('A' for Active; 'I' for Inactive)
REMARK    1  A    between atoms: N_2  and  C1_3 
ROOT
ATOM      1  C1  UNL d   1       0.959  -0.558  -3.609  0.00  0.00     0.143 A 
ATOM      2  C2  UNL d   1       0.215  -1.445  -4.393  0.00  0.00    -0.057 A 
ATOM      3  C3  UNL d   1      -0.392  -1.028  -5.584  0.00  0.00     0.033 A 
ATOM      4  C4  UNL d   1      -0.289   0.296  -5.998  0.00  0.00    -0.042 A 
ATOM      5  C5  UNL d   1       0.425   1.201  -5.221  0.00  0.00     0.033 A 
ATOM      6  C6  UNL d   1       1.034   0.777  -4.036  0.00  0.00    -0.057 A 
ENDROOT
BRANCH   1   7
ATOM      7  N   UNL d   1       1.503  -0.888  -2.365  0.00  0.00    -0.732 N 
ATOM      8  C   UNL d   1       0.703  -0.798  -1.163  0.00  0.00     0.284 C 
ATOM      9  H3  UNL d   1       2.098  -1.713  -2.408  0.00  0.00     0.395 HD
ENDBRANCH   1   7
TORSDOF 1
ENDMDL
