MODEL 1
REMARK minimizedAffinity -2.94119453
REMARK minimizedRMSD -1
REMARK  1 active torsions:
REMARK  status: ('A' for Active; 'I' for Inactive)
REMARK    1  A    between atoms: N_2  and  C1_3 
ROOT
ATOM      1  C1  UNL d   1      -0.185   0.012  -4.417  0.00  0.00     0.143 A 
ATOM      2  C2  UNL d   1      -0.378  -0.592  -3.170  0.00  0.00    -0.057 A 
ATOM      3  C3  UNL d   1       0.628  -0.586  -2.196  0.00  0.00     0.033 A 
ATOM      4  C4  UNL d   1       1.860   0.001  -2.464  0.00  0.00    -0.042 A 
ATOM      5  C5  UNL d   1       2.084   0.585  -3.705  0.00  0.00     0.033 A 
ATOM      6  C6  UNL d   1       1.073   0.582  -4.671  0.00  0.00    -0.057 A 
ENDROOT
BRANCH   1   7
ATOM      7  N   UNL d   1      -1.110  -0.046  -5.461  0.00  0.00    -0.732 N 
ATOM      8  C   UNL d   1      -1.539  -1.321  -5.996  0.00  0.00     0.284 C 
ATOM      9  H3  UNL d   1      -1.860   0.633  -5.354  0.00  0.00     0.395 HD
ENDBRANCH   1   7
TORSDOF 1
ENDMDL
