MODEL 1
REMARK minimizedAffinity -4.69769239
REMARK minimizedRMSD -1
REMARK  1 active torsions:
REMARK  status: ('A' for Active; 'I' for Inactive)
REMARK    1  A    between atoms: N_2  and  C1_3 
ROOT
ATOM      1  C1  UNL d   1      -0.074  -0.404  -0.517  0.00  0.00     0.143 A 
ATOM      2  C2  UNL d   1      -1.472  -0.450  -0.553  0.00  0.00    -0.057 A 
ATOM      3  C3  UNL d   1      -2.245   0.190   0.423  0.00  0.00     0.033 A 
ATOM      4  C4  UNL d   1      -1.631   0.866   1.473  0.00  0.00    -0.042 A 
ATOM      5  C5  UNL d   1      -0.243   0.903   1.543  0.00  0.00     0.033 A 
ATOM      6  C6  UNL d   1       0.523   0.268   0.561  0.00  0.00    -0.057 A 
ENDROOT
BRANCH   1   7
ATOM      7  N   UNL d   1       0.750  -1.103  -1.402  0.00  0.00    -0.732 N 
ATOM      8  C   UNL d   1       0.716  -0.819  -2.821  0.00  0.00     0.284 C 
ATOM      9  H3  UNL d   1       1.685  -1.249  -1.029  0.00  0.00     0.395 HD
ENDBRANCH   1   7
TORSDOF 1
ENDMDL
