MODEL 1
REMARK minimizedAffinity -2.80124307
REMARK minimizedRMSD -1
REMARK  1 active torsions:
REMARK  status: ('A' for Active; 'I' for Inactive)
REMARK    1  A    between atoms: N_2  and  C1_3 
ROOT
ATOM      1  C1  UNL d   1       0.009  -0.046   2.154  0.00  0.00     0.143 A 
ATOM      2  C2  UNL d   1       0.889  -0.517   1.173  0.00  0.00    -0.057 A 
ATOM      3  C3  UNL d   1       0.480  -0.664  -0.158  0.00  0.00     0.033 A 
ATOM      4  C4  UNL d   1      -0.829  -0.370  -0.527  0.00  0.00    -0.042 A 
ATOM      5  C5  UNL d   1      -1.727   0.076   0.436  0.00  0.00     0.033 A 
ATOM      6  C6  UNL d   1      -1.311   0.228   1.762  0.00  0.00    -0.057 A 
ENDROOT
BRANCH   1   7
ATOM      7  N   UNL d   1       0.327   0.029   3.512  0.00  0.00    -0.732 N 
ATOM      8  C   UNL d   1       1.252  -0.913   4.106  0.00  0.00     0.284 C 
ATOM      9  H3  UNL d   1       0.449   0.988   3.830  0.00  0.00     0.395 HD
ENDBRANCH   1   7
TORSDOF 1
ENDMDL
