MODEL 1
REMARK minimizedAffinity -4.30489492
REMARK minimizedRMSD -1
REMARK  1 active torsions:
REMARK  status: ('A' for Active; 'I' for Inactive)
REMARK    1  A    between atoms: N_2  and  C1_3 
ROOT
ATOM      1  C1  UNL d   1       0.717  -0.761  -1.153  0.00  0.00     0.143 A 
ATOM      2  C2  UNL d   1       1.793  -0.864  -0.265  0.00  0.00    -0.057 A 
ATOM      3  C3  UNL d   1       1.627  -0.636   1.106  0.00  0.00     0.033 A 
ATOM      4  C4  UNL d   1       0.383  -0.271   1.611  0.00  0.00    -0.042 A 
ATOM      5  C5  UNL d   1      -0.695  -0.138   0.743  0.00  0.00     0.033 A 
ATOM      6  C6  UNL d   1      -0.525  -0.374  -0.624  0.00  0.00    -0.057 A 
ENDROOT
BRANCH   1   7
ATOM      7  N   UNL d   1       0.838  -0.879  -2.540  0.00  0.00    -0.732 N 
ATOM      8  C   UNL d   1       1.582   0.102  -3.301  0.00  0.00     0.284 C 
ATOM      9  H3  UNL d   1       0.995  -1.840  -2.836  0.00  0.00     0.395 HD
ENDBRANCH   1   7
TORSDOF 1
ENDMDL
