MODEL 1
REMARK minimizedAffinity -2.59058094
REMARK minimizedRMSD -1
REMARK  1 active torsions:
REMARK  status: ('A' for Active; 'I' for Inactive)
REMARK    1  A    between atoms: N_2  and  C1_3 
ROOT
ATOM      1  C1  UNL d   1       0.687   0.172  -2.507  0.00  0.00     0.143 A 
ATOM      2  C2  UNL d   1       0.674   1.007  -1.385  0.00  0.00    -0.057 A 
ATOM      3  C3  UNL d   1       0.450   0.495  -0.101  0.00  0.00     0.033 A 
ATOM      4  C4  UNL d   1       0.205  -0.862   0.080  0.00  0.00    -0.042 A 
ATOM      5  C5  UNL d   1       0.188  -1.707  -1.024  0.00  0.00     0.033 A 
ATOM      6  C6  UNL d   1       0.420  -1.191  -2.303  0.00  0.00    -0.057 A 
ENDROOT
BRANCH   1   7
ATOM      7  N   UNL d   1       0.806   0.635  -3.820  0.00  0.00    -0.732 N 
ATOM      8  C   UNL d   1       2.037   1.241  -4.279  0.00  0.00     0.284 C 
ATOM      9  H3  UNL d   1       0.376   0.005  -4.494  0.00  0.00     0.395 HD
ENDBRANCH   1   7
TORSDOF 1
ENDMDL
