MODEL 1
REMARK minimizedAffinity -2.21982884
REMARK minimizedRMSD -1
REMARK  1 active torsions:
REMARK  status: ('A' for Active; 'I' for Inactive)
REMARK    1  A    between atoms: N_2  and  C1_3 
ROOT
ATOM      1  C1  UNL d   1      -0.669  -0.095  -0.826  0.00  0.00     0.143 A 
ATOM      2  C2  UNL d   1      -1.893   0.581  -0.795  0.00  0.00    -0.057 A 
ATOM      3  C3  UNL d   1      -2.501   0.927   0.418  0.00  0.00     0.033 A 
ATOM      4  C4  UNL d   1      -1.907   0.576   1.625  0.00  0.00    -0.042 A 
ATOM      5  C5  UNL d   1      -0.703  -0.119   1.619  0.00  0.00     0.033 A 
ATOM      6  C6  UNL d   1      -0.097  -0.456   0.404  0.00  0.00    -0.057 A 
ENDROOT
BRANCH   1   7
ATOM      7  N   UNL d   1      -0.063  -0.554  -1.998  0.00  0.00    -0.732 N 
ATOM      8  C   UNL d   1       0.535   0.377  -2.932  0.00  0.00     0.284 C 
ATOM      9  H3  UNL d   1       0.482  -1.400  -1.849  0.00  0.00     0.395 HD
ENDBRANCH   1   7
TORSDOF 1
ENDMDL
