MODEL 1
REMARK minimizedAffinity -2.03416681
REMARK minimizedRMSD -1
REMARK  1 active torsions:
REMARK  status: ('A' for Active; 'I' for Inactive)
REMARK    1  A    between atoms: N_2  and  C1_3 
ROOT
ATOM      1  C1  UNL d   1       0.095  -0.371  -1.626  0.00  0.00     0.143 A 
ATOM      2  C2  UNL d   1       0.790  -0.839  -0.505  0.00  0.00    -0.057 A 
ATOM      3  C3  UNL d   1       0.290  -0.651   0.789  0.00  0.00     0.033 A 
ATOM      4  C4  UNL d   1      -0.903   0.037   0.988  0.00  0.00    -0.042 A 
ATOM      5  C5  UNL d   1      -1.597   0.533  -0.110  0.00  0.00     0.033 A 
ATOM      6  C6  UNL d   1      -1.096   0.336  -1.400  0.00  0.00    -0.057 A 
ENDROOT
BRANCH   1   7
ATOM      7  N   UNL d   1       0.588  -0.440  -2.931  0.00  0.00    -0.732 N 
ATOM      8  C   UNL d   1       1.118   0.738  -3.583  0.00  0.00     0.284 C 
ATOM      9  H3  UNL d   1       1.129  -1.286  -3.098  0.00  0.00     0.395 HD
ENDBRANCH   1   7
TORSDOF 1
ENDMDL
