MODEL 1
REMARK minimizedAffinity -1.78755176
REMARK minimizedRMSD -1
REMARK  0 active torsions:
REMARK  status: ('A' for Active; 'I' for Inactive)
ROOT
ATOM      1  C   UNL d   1       5.998   3.376  -5.856  0.00  0.00     0.078 C 
ATOM      2  C1  UNL d   1       5.522   4.192  -4.691  0.00  0.00    -0.077 A 
ATOM      3  C2  UNL d   1       4.613   5.242  -4.870  0.00  0.00    -0.001 A 
ATOM      4  C3  UNL d   1       4.186   5.999  -3.778  0.00  0.00     0.003 A 
ATOM      5  C4  UNL d   1       4.662   5.715  -2.500  0.00  0.00    -0.005 A 
ATOM      6  C5  UNL d   1       5.568   4.673  -2.312  0.00  0.00     0.003 A 
ATOM      7  C6  UNL d   1       5.997   3.915  -3.403  0.00  0.00    -0.001 A 
ENDROOT
TORSDOF 0
ENDMDL
