MODEL 1
REMARK minimizedAffinity -3.17800188
REMARK minimizedRMSD -1
REMARK  0 active torsions:
REMARK  status: ('A' for Active; 'I' for Inactive)
ROOT
ATOM      1  C   UNL d   1       5.653   5.058  -1.491  0.00  0.00     0.078 C 
ATOM      2  C1  UNL d   1       5.373   5.054  -2.965  0.00  0.00    -0.077 A 
ATOM      3  C2  UNL d   1       6.000   4.134  -3.815  0.00  0.00    -0.001 A 
ATOM      4  C3  UNL d   1       5.737   4.148  -5.186  0.00  0.00     0.003 A 
ATOM      5  C4  UNL d   1       4.849   5.079  -5.719  0.00  0.00    -0.005 A 
ATOM      6  C5  UNL d   1       4.222   6.000  -4.881  0.00  0.00     0.003 A 
ATOM      7  C6  UNL d   1       4.484   5.988  -3.510  0.00  0.00    -0.001 A 
ENDROOT
TORSDOF 0
ENDMDL
