MODEL 1
REMARK minimizedAffinity 3.00431728
REMARK minimizedRMSD -1
REMARK  0 active torsions:
REMARK  status: ('A' for Active; 'I' for Inactive)
ROOT
ATOM      1  C   UNL d   1       5.968   4.163  -0.885  0.00  0.00     0.078 C 
ATOM      2  C1  UNL d   1       5.279   4.746  -2.083  0.00  0.00    -0.077 A 
ATOM      3  C2  UNL d   1       5.998   5.454  -3.054  0.00  0.00    -0.001 A 
ATOM      4  C3  UNL d   1       5.342   6.000  -4.159  0.00  0.00     0.003 A 
ATOM      5  C4  UNL d   1       3.965   5.845  -4.302  0.00  0.00    -0.005 A 
ATOM      6  C5  UNL d   1       3.241   5.145  -3.339  0.00  0.00     0.003 A 
ATOM      7  C6  UNL d   1       3.895   4.598  -2.234  0.00  0.00    -0.001 A 
ENDROOT
TORSDOF 0
ENDMDL
