MODEL 1
REMARK minimizedAffinity 1.35320747
REMARK minimizedRMSD -1
REMARK  0 active torsions:
REMARK  status: ('A' for Active; 'I' for Inactive)
ROOT
ATOM      1  C   UNL d   1       3.196  -2.787   3.775  0.00  0.00     0.078 C 
ATOM      2  C1  UNL d   1       4.061  -3.744   4.541  0.00  0.00    -0.077 A 
ATOM      3  C2  UNL d   1       3.788  -5.117   4.546  0.00  0.00    -0.001 A 
ATOM      4  C3  UNL d   1       4.596  -5.994   5.271  0.00  0.00     0.003 A 
ATOM      5  C4  UNL d   1       5.681  -5.508   5.997  0.00  0.00    -0.005 A 
ATOM      6  C5  UNL d   1       5.959  -4.143   6.000  0.00  0.00     0.003 A 
ATOM      7  C6  UNL d   1       5.153  -3.264   5.275  0.00  0.00    -0.001 A 
ENDROOT
TORSDOF 0
ENDMDL
