MODEL 1
REMARK minimizedAffinity 0.264367998
REMARK minimizedRMSD -1
REMARK  0 active torsions:
REMARK  status: ('A' for Active; 'I' for Inactive)
ROOT
ATOM      1  C   UNL d   1       5.998   2.540  -4.736  0.00  0.00     0.078 C 
ATOM      2  C1  UNL d   1       5.666   3.744  -3.906  0.00  0.00    -0.077 A 
ATOM      3  C2  UNL d   1       5.999   3.798  -2.547  0.00  0.00    -0.001 A 
ATOM      4  C3  UNL d   1       5.674   4.921  -1.785  0.00  0.00     0.003 A 
ATOM      5  C4  UNL d   1       5.014   5.999  -2.372  0.00  0.00    -0.005 A 
ATOM      6  C5  UNL d   1       4.676   5.953  -3.723  0.00  0.00     0.003 A 
ATOM      7  C6  UNL d   1       5.000   4.831  -4.487  0.00  0.00    -0.001 A 
ENDROOT
TORSDOF 0
ENDMDL
