MODEL 1
REMARK minimizedAffinity -4.61595631
REMARK minimizedRMSD -1
REMARK  0 active torsions:
REMARK  status: ('A' for Active; 'I' for Inactive)
ROOT
ATOM      1  C   UNL d   1       5.051   2.935  -5.828  0.00  0.00     0.078 C 
ATOM      2  C1  UNL d   1       4.888   3.755  -4.583  0.00  0.00    -0.077 A 
ATOM      3  C2  UNL d   1       5.998   4.140  -3.822  0.00  0.00    -0.001 A 
ATOM      4  C3  UNL d   1       5.831   4.896  -2.661  0.00  0.00     0.003 A 
ATOM      5  C4  UNL d   1       4.554   5.272  -2.249  0.00  0.00    -0.005 A 
ATOM      6  C5  UNL d   1       3.442   4.891  -2.998  0.00  0.00     0.003 A 
ATOM      7  C6  UNL d   1       3.608   4.136  -4.160  0.00  0.00    -0.001 A 
ENDROOT
TORSDOF 0
ENDMDL
