MODEL 1
REMARK minimizedAffinity -3.99019313
REMARK minimizedRMSD -1
REMARK  0 active torsions:
REMARK  status: ('A' for Active; 'I' for Inactive)
ROOT
ATOM      1  C   UNL d   1       5.628   2.070  -5.153  0.00  0.00     0.078 C 
ATOM      2  C1  UNL d   1       5.019   3.440  -5.115  0.00  0.00    -0.077 A 
ATOM      3  C2  UNL d   1       5.440   4.441  -6.000  0.00  0.00    -0.001 A 
ATOM      4  C3  UNL d   1       4.872   5.714  -5.947  0.00  0.00     0.003 A 
ATOM      5  C4  UNL d   1       3.880   6.000  -5.011  0.00  0.00    -0.005 A 
ATOM      6  C5  UNL d   1       3.456   5.011  -4.126  0.00  0.00     0.003 A 
ATOM      7  C6  UNL d   1       4.023   3.737  -4.177  0.00  0.00    -0.001 A 
ENDROOT
TORSDOF 0
ENDMDL
