MODEL 1
REMARK minimizedAffinity -3.51119971
REMARK minimizedRMSD -1
REMARK  0 active torsions:
REMARK  status: ('A' for Active; 'I' for Inactive)
ROOT
ATOM      1  C   UNL d   1       5.750   5.947  -5.972  0.00  0.00     0.078 C 
ATOM      2  C1  UNL d   1       5.171   5.958  -4.589  0.00  0.00    -0.077 A 
ATOM      3  C2  UNL d   1       5.999   5.940  -3.460  0.00  0.00    -0.001 A 
ATOM      4  C3  UNL d   1       5.446   5.941  -2.179  0.00  0.00     0.003 A 
ATOM      5  C4  UNL d   1       4.063   5.959  -2.014  0.00  0.00    -0.005 A 
ATOM      6  C5  UNL d   1       3.230   5.975  -3.131  0.00  0.00     0.003 A 
ATOM      7  C6  UNL d   1       3.782   5.974  -4.414  0.00  0.00    -0.001 A 
ENDROOT
TORSDOF 0
ENDMDL
