MODEL 1
REMARK minimizedAffinity -2.4178319
REMARK minimizedRMSD -1
REMARK  0 active torsions:
REMARK  status: ('A' for Active; 'I' for Inactive)
ROOT
ATOM      1  C   UNL d   1       2.325   4.125  -1.788  0.00  0.00     0.078 C 
ATOM      2  C1  UNL d   1       3.609   4.481  -2.475  0.00  0.00    -0.077 A 
ATOM      3  C2  UNL d   1       4.393   5.552  -2.029  0.00  0.00    -0.001 A 
ATOM      4  C3  UNL d   1       5.582   5.879  -2.685  0.00  0.00     0.003 A 
ATOM      5  C4  UNL d   1       5.996   5.140  -3.791  0.00  0.00    -0.005 A 
ATOM      6  C5  UNL d   1       5.221   4.073  -4.244  0.00  0.00     0.003 A 
ATOM      7  C6  UNL d   1       4.033   3.746  -3.589  0.00  0.00    -0.001 A 
ENDROOT
TORSDOF 0
ENDMDL
