MODEL 1
REMARK minimizedAffinity 3.17994523
REMARK minimizedRMSD -1
REMARK  0 active torsions:
REMARK  status: ('A' for Active; 'I' for Inactive)
ROOT
ATOM      1  C   UNL d   1       6.000   4.848  -1.433  0.00  0.00     0.078 C 
ATOM      2  C1  UNL d   1       5.077   4.829  -2.615  0.00  0.00    -0.077 A 
ATOM      3  C2  UNL d   1       4.429   3.651  -3.005  0.00  0.00    -0.001 A 
ATOM      4  C3  UNL d   1       3.580   3.646  -4.113  0.00  0.00     0.003 A 
ATOM      5  C4  UNL d   1       3.372   4.816  -4.840  0.00  0.00    -0.005 A 
ATOM      6  C5  UNL d   1       4.014   5.993  -4.461  0.00  0.00     0.003 A 
ATOM      7  C6  UNL d   1       4.863   6.000  -3.353  0.00  0.00    -0.001 A 
ENDROOT
TORSDOF 0
ENDMDL
