MODEL 1
REMARK minimizedAffinity 3.71865606
REMARK minimizedRMSD -1
REMARK  0 active torsions:
REMARK  status: ('A' for Active; 'I' for Inactive)
ROOT
ATOM      1  C   UNL d   1       5.973   5.793  -1.276  0.00  0.00     0.078 C 
ATOM      2  C1  UNL d   1       5.352   5.304  -2.551  0.00  0.00    -0.077 A 
ATOM      3  C2  UNL d   1       4.120   5.803  -2.990  0.00  0.00    -0.001 A 
ATOM      4  C3  UNL d   1       3.549   5.331  -4.174  0.00  0.00     0.003 A 
ATOM      5  C4  UNL d   1       4.202   4.357  -4.926  0.00  0.00    -0.005 A 
ATOM      6  C5  UNL d   1       5.427   3.853  -4.495  0.00  0.00     0.003 A 
ATOM      7  C6  UNL d   1       6.000   4.323  -3.312  0.00  0.00    -0.001 A 
ENDROOT
TORSDOF 0
ENDMDL
