MODEL 1
REMARK minimizedAffinity -3.30224562
REMARK minimizedRMSD -1
REMARK  0 active torsions:
REMARK  status: ('A' for Active; 'I' for Inactive)
ROOT
ATOM      1  C   UNL d   1       5.999   4.946  -1.878  0.00  0.00     0.078 C 
ATOM      2  C1  UNL d   1       5.537   4.875  -3.302  0.00  0.00    -0.077 A 
ATOM      3  C2  UNL d   1       5.999   3.870  -4.161  0.00  0.00    -0.001 A 
ATOM      4  C3  UNL d   1       5.568   3.822  -5.488  0.00  0.00     0.003 A 
ATOM      5  C4  UNL d   1       4.673   4.777  -5.968  0.00  0.00    -0.005 A 
ATOM      6  C5  UNL d   1       4.209   5.782  -5.121  0.00  0.00     0.003 A 
ATOM      7  C6  UNL d   1       4.640   5.832  -3.794  0.00  0.00    -0.001 A 
ENDROOT
TORSDOF 0
ENDMDL
