MODEL 1
REMARK minimizedAffinity -3.10643268
REMARK minimizedRMSD -1
REMARK  0 active torsions:
REMARK  status: ('A' for Active; 'I' for Inactive)
ROOT
ATOM      1  C   UNL d   1       5.250   3.493  -5.999  0.00  0.00     0.078 C 
ATOM      2  C1  UNL d   1       4.990   4.349  -4.795  0.00  0.00    -0.077 A 
ATOM      3  C2  UNL d   1       3.743   4.337  -4.157  0.00  0.00    -0.001 A 
ATOM      4  C3  UNL d   1       3.512   5.145  -3.043  0.00  0.00     0.003 A 
ATOM      5  C4  UNL d   1       4.523   5.973  -2.558  0.00  0.00    -0.005 A 
ATOM      6  C5  UNL d   1       5.766   5.994  -3.188  0.00  0.00     0.003 A 
ATOM      7  C6  UNL d   1       5.999   5.185  -4.302  0.00  0.00    -0.001 A 
ENDROOT
TORSDOF 0
ENDMDL
