MODEL 1
REMARK minimizedAffinity -3.23079491
REMARK minimizedRMSD -1
REMARK  0 active torsions:
REMARK  status: ('A' for Active; 'I' for Inactive)
ROOT
ATOM      1  C   UNL d   1       5.999   4.994  -1.826  0.00  0.00     0.078 C 
ATOM      2  C1  UNL d   1       5.616   4.923  -3.274  0.00  0.00    -0.077 A 
ATOM      3  C2  UNL d   1       5.971   3.820  -4.061  0.00  0.00    -0.001 A 
ATOM      4  C3  UNL d   1       5.617   3.772  -5.410  0.00  0.00     0.003 A 
ATOM      5  C4  UNL d   1       4.906   4.824  -5.984  0.00  0.00    -0.005 A 
ATOM      6  C5  UNL d   1       4.550   5.926  -5.210  0.00  0.00     0.003 A 
ATOM      7  C6  UNL d   1       4.903   5.976  -3.861  0.00  0.00    -0.001 A 
ENDROOT
TORSDOF 0
ENDMDL
