MODEL 1
REMARK minimizedAffinity -1.9469142
REMARK minimizedRMSD -1
REMARK  0 active torsions:
REMARK  status: ('A' for Active; 'I' for Inactive)
ROOT
ATOM      1  C   UNL d   1       5.010   5.635  -1.861  0.00  0.00     0.078 C 
ATOM      2  C1  UNL d   1       4.994   5.235  -3.306  0.00  0.00    -0.077 A 
ATOM      3  C2  UNL d   1       3.977   5.672  -4.163  0.00  0.00    -0.001 A 
ATOM      4  C3  UNL d   1       3.969   5.285  -5.504  0.00  0.00     0.003 A 
ATOM      5  C4  UNL d   1       4.975   4.458  -6.000  0.00  0.00    -0.005 A 
ATOM      6  C5  UNL d   1       5.990   4.017  -5.154  0.00  0.00     0.003 A 
ATOM      7  C6  UNL d   1       6.000   4.403  -3.813  0.00  0.00    -0.001 A 
ENDROOT
TORSDOF 0
ENDMDL
