MODEL 1
REMARK minimizedAffinity 0.15288046
REMARK minimizedRMSD -1
REMARK  0 active torsions:
REMARK  status: ('A' for Active; 'I' for Inactive)
ROOT
ATOM      1  C   UNL d   1       5.982   2.113  -4.813  0.00  0.00     0.078 C 
ATOM      2  C1  UNL d   1       5.994   3.415  -4.068  0.00  0.00    -0.077 A 
ATOM      3  C2  UNL d   1       5.990   3.445  -2.668  0.00  0.00    -0.001 A 
ATOM      4  C3  UNL d   1       5.992   4.664  -1.988  0.00  0.00     0.003 A 
ATOM      5  C4  UNL d   1       5.997   5.862  -2.700  0.00  0.00    -0.005 A 
ATOM      6  C5  UNL d   1       5.999   5.842  -4.093  0.00  0.00     0.003 A 
ATOM      7  C6  UNL d   1       5.997   4.624  -4.775  0.00  0.00    -0.001 A 
ENDROOT
TORSDOF 0
ENDMDL
