MODEL 1
REMARK minimizedAffinity -3.21103907
REMARK minimizedRMSD -1
REMARK  0 active torsions:
REMARK  status: ('A' for Active; 'I' for Inactive)
ROOT
ATOM      1  C   UNL d   1       5.612   4.553  -1.760  0.00  0.00     0.078 C 
ATOM      2  C1  UNL d   1       5.372   4.633  -3.238  0.00  0.00    -0.077 A 
ATOM      3  C2  UNL d   1       6.000   3.744  -4.120  0.00  0.00    -0.001 A 
ATOM      4  C3  UNL d   1       5.775   3.835  -5.494  0.00  0.00     0.003 A 
ATOM      5  C4  UNL d   1       4.923   4.816  -6.000  0.00  0.00    -0.005 A 
ATOM      6  C5  UNL d   1       4.296   5.706  -5.131  0.00  0.00     0.003 A 
ATOM      7  C6  UNL d   1       4.520   5.616  -3.756  0.00  0.00    -0.001 A 
ENDROOT
TORSDOF 0
ENDMDL
