MODEL 1
REMARK minimizedAffinity 5.18124342
REMARK minimizedRMSD -1
REMARK  1 active torsions:
REMARK  status: ('A' for Active; 'I' for Inactive)
REMARK    1  A    between atoms: C1_2  and  C2_3 
ROOT
ATOM      1  C2  UNL d   1       2.418  -0.348   2.494  0.00  0.00    -0.077 A 
ATOM      2  C3  UNL d   1       2.538   0.736   3.375  0.00  0.00     0.002 A 
ATOM      3  C4  UNL d   1       2.847   2.008   2.891  0.00  0.00     0.002 A 
ATOM      4  C5  UNL d   1       3.034   2.210   1.525  0.00  0.00    -0.004 A 
ATOM      5  C6  UNL d   1       2.918   1.138   0.641  0.00  0.00     0.002 A 
ATOM      6  C7  UNL d   1       2.611  -0.135   1.123  0.00  0.00     0.002 A 
ENDROOT
BRANCH   1   7
ATOM      7  C1  UNL d   1       2.036  -1.711   3.009  0.00  0.00     0.055 C 
ATOM      8  C   UNL d   1       1.191  -2.469   1.995  0.00  0.00     0.019 C 
ENDBRANCH   1   7
TORSDOF 1
ENDMDL
