MODEL 1
REMARK minimizedAffinity 3.06559014
REMARK minimizedRMSD -1
REMARK  1 active torsions:
REMARK  status: ('A' for Active; 'I' for Inactive)
REMARK    1  A    between atoms: C1_2  and  C2_3 
ROOT
ATOM      1  C2  UNL d   1      -4.977  -3.876  -4.036  0.00  0.00    -0.077 A 
ATOM      2  C3  UNL d   1      -3.989  -4.871  -4.010  0.00  0.00     0.002 A 
ATOM      3  C4  UNL d   1      -3.982  -5.884  -4.971  0.00  0.00     0.002 A 
ATOM      4  C5  UNL d   1      -4.958  -5.911  -5.965  0.00  0.00    -0.004 A 
ATOM      5  C6  UNL d   1      -5.946  -4.928  -5.997  0.00  0.00     0.002 A 
ATOM      6  C7  UNL d   1      -5.955  -3.915  -5.037  0.00  0.00     0.002 A 
ENDROOT
BRANCH   1   7
ATOM      7  C1  UNL d   1      -4.957  -2.755  -3.030  0.00  0.00     0.055 C 
ATOM      8  C   UNL d   1      -5.909  -3.029  -1.875  0.00  0.00     0.019 C 
ENDBRANCH   1   7
TORSDOF 1
ENDMDL
