MODEL 1
REMARK minimizedAffinity 10.0314131
REMARK minimizedRMSD -1
REMARK  1 active torsions:
REMARK  status: ('A' for Active; 'I' for Inactive)
REMARK    1  A    between atoms: C1_2  and  C2_3 
ROOT
ATOM      1  C2  UNL d   1       1.907  -1.457   2.847  0.00  0.00    -0.077 A 
ATOM      2  C3  UNL d   1       2.604  -0.309   2.445  0.00  0.00     0.002 A 
ATOM      3  C4  UNL d   1       2.070   0.534   1.468  0.00  0.00     0.002 A 
ATOM      4  C5  UNL d   1       0.837   0.241   0.890  0.00  0.00    -0.004 A 
ATOM      5  C6  UNL d   1       0.137  -0.899   1.283  0.00  0.00     0.002 A 
ATOM      6  C7  UNL d   1       0.670  -1.744   2.257  0.00  0.00     0.002 A 
ENDROOT
BRANCH   1   7
ATOM      7  C1  UNL d   1       2.458  -2.342   3.935  0.00  0.00     0.055 C 
ATOM      8  C   UNL d   1       1.616  -2.253   5.200  0.00  0.00     0.019 C 
ENDBRANCH   1   7
TORSDOF 1
ENDMDL
