MODEL 1
REMARK minimizedAffinity 7.44064379
REMARK minimizedRMSD -1
REMARK  1 active torsions:
REMARK  status: ('A' for Active; 'I' for Inactive)
REMARK    1  A    between atoms: C1_2  and  C2_3 
ROOT
ATOM      1  C2  UNL d   1      -5.159   3.431  -0.998  0.00  0.00    -0.077 A 
ATOM      2  C3  UNL d   1      -3.807   3.063  -0.947  0.00  0.00     0.002 A 
ATOM      3  C4  UNL d   1      -3.308   2.083  -1.807  0.00  0.00     0.002 A 
ATOM      4  C5  UNL d   1      -4.153   1.466  -2.727  0.00  0.00    -0.004 A 
ATOM      5  C6  UNL d   1      -5.499   1.823  -2.785  0.00  0.00     0.002 A 
ATOM      6  C7  UNL d   1      -6.000   2.802  -1.925  0.00  0.00     0.002 A 
ENDROOT
BRANCH   1   7
ATOM      7  C1  UNL d   1      -5.688   4.523  -0.105  0.00  0.00     0.055 C 
ATOM      8  C   UNL d   1      -5.742   5.857  -0.835  0.00  0.00     0.019 C 
ENDBRANCH   1   7
TORSDOF 1
ENDMDL
