MODEL 1
REMARK minimizedAffinity -3.77945948
REMARK minimizedRMSD -1
REMARK  0 active torsions:
REMARK  status: ('A' for Active; 'I' for Inactive)
ROOT
ATOM      1  N1  IND d   1      -0.577   0.645  -0.153  0.00  0.00    -0.196 N 
ATOM      2  C2  IND d   1      -1.121  -0.190  -1.090  0.00  0.00     0.054 A 
ATOM      3  C3  IND d   1      -0.360  -1.298  -1.231  0.00  0.00    -0.031 A 
ATOM      4  C4  IND d   1       1.764  -1.997   0.045  0.00  0.00     0.051 A 
ATOM      5  C5  IND d   1       2.663  -1.545   0.970  0.00  0.00    -0.031 A 
ATOM      6  C6  IND d   1       2.523  -0.317   1.583  0.00  0.00     0.015 A 
ATOM      7  C7  IND d   1       1.468   0.505   1.300  0.00  0.00    -0.016 A 
ATOM      8  C8  IND d   1       0.558   0.052   0.356  0.00  0.00    -0.047 A 
ATOM      9  C9  IND d   1       0.717  -1.175  -0.301  0.00  0.00    -0.096 A 
ATOM     10  HN1 IND d   1      -0.891   1.411   0.079  0.00  0.00     0.298 HD
ENDROOT
TORSDOF 0
ENDMDL
