MODEL 1
REMARK minimizedAffinity -2.1675663
REMARK minimizedRMSD -1
REMARK  0 active torsions:
REMARK  status: ('A' for Active; 'I' for Inactive)
ROOT
ATOM      1  N1  IND d   1      -1.971   2.062   1.772  0.00  0.00    -0.196 N 
ATOM      2  C2  IND d   1      -3.323   1.892   1.669  0.00  0.00     0.054 A 
ATOM      3  C3  IND d   1      -3.609   0.918   0.776  0.00  0.00    -0.031 A 
ATOM      4  C4  IND d   1      -2.011  -0.597  -0.557  0.00  0.00     0.051 A 
ATOM      5  C5  IND d   1      -0.686  -0.794  -0.825  0.00  0.00    -0.031 A 
ATOM      6  C6  IND d   1       0.300  -0.036  -0.226  0.00  0.00     0.015 A 
ATOM      7  C7  IND d   1      -0.005   0.945   0.675  0.00  0.00    -0.016 A 
ATOM      8  C8  IND d   1      -1.351   1.153   0.943  0.00  0.00    -0.047 A 
ATOM      9  C9  IND d   1      -2.357   0.414   0.307  0.00  0.00    -0.096 A 
ATOM     10  HN1 IND d   1      -1.574   2.640   2.270  0.00  0.00     0.298 HD
ENDROOT
TORSDOF 0
ENDMDL
