MODEL 1
REMARK minimizedAffinity -3.80101109
REMARK minimizedRMSD -1
REMARK  0 active torsions:
REMARK  status: ('A' for Active; 'I' for Inactive)
ROOT
ATOM      1  N1  IND d   1      -1.022   1.046   0.689  0.00  0.00    -0.196 N 
ATOM      2  C2  IND d   1      -1.929   0.483  -0.165  0.00  0.00     0.054 A 
ATOM      3  C3  IND d   1      -1.350  -0.509  -0.879  0.00  0.00    -0.031 A 
ATOM      4  C4  IND d   1       1.043  -1.446  -0.734  0.00  0.00     0.051 A 
ATOM      5  C5  IND d   1       2.249  -1.232  -0.127  0.00  0.00    -0.031 A 
ATOM      6  C6  IND d   1       2.429  -0.229   0.803  0.00  0.00     0.015 A 
ATOM      7  C7  IND d   1       1.402   0.593   1.172  0.00  0.00    -0.016 A 
ATOM      8  C8  IND d   1       0.178   0.383   0.553  0.00  0.00    -0.047 A 
ATOM      9  C9  IND d   1       0.001  -0.605  -0.424  0.00  0.00    -0.096 A 
ATOM     10  HN1 IND d   1      -1.175   1.703   1.221  0.00  0.00     0.298 HD
ENDROOT
TORSDOF 0
ENDMDL
