MODEL 1
REMARK minimizedAffinity -4.18517494
REMARK minimizedRMSD -1
REMARK  0 active torsions:
REMARK  status: ('A' for Active; 'I' for Inactive)
ROOT
ATOM      1  N1  IND d   1      -1.299   0.304   1.018  0.00  0.00    -0.196 N 
ATOM      2  C2  IND d   1      -1.593   1.031  -0.101  0.00  0.00     0.054 A 
ATOM      3  C3  IND d   1      -0.552   1.009  -0.964  0.00  0.00    -0.031 A 
ATOM      4  C4  IND d   1       1.692  -0.239  -0.787  0.00  0.00     0.051 A 
ATOM      5  C5  IND d   1       2.434  -1.005   0.068  0.00  0.00    -0.031 A 
ATOM      6  C6  IND d   1       1.959  -1.384   1.307  0.00  0.00     0.015 A 
ATOM      7  C7  IND d   1       0.714  -1.019   1.735  0.00  0.00    -0.016 A 
ATOM      8  C8  IND d   1      -0.039  -0.235   0.872  0.00  0.00    -0.047 A 
ATOM      9  C9  IND d   1       0.454   0.188  -0.369  0.00  0.00    -0.096 A 
ATOM     10  HN1 IND d   1      -1.814   0.200   1.699  0.00  0.00     0.298 HD
ENDROOT
TORSDOF 0
ENDMDL
