MODEL 1
REMARK minimizedAffinity -5.11979342
REMARK minimizedRMSD -1
REMARK  0 active torsions:
REMARK  status: ('A' for Active; 'I' for Inactive)
ROOT
ATOM      1  N1  IND d   1       0.019   1.288   0.489  0.00  0.00    -0.196 N 
ATOM      2  C2  IND d   1      -1.260   1.110   0.043  0.00  0.00     0.054 A 
ATOM      3  C3  IND d   1      -1.426  -0.150  -0.421  0.00  0.00    -0.031 A 
ATOM      4  C4  IND d   1       0.238  -2.114  -0.449  0.00  0.00     0.051 A 
ATOM      5  C5  IND d   1       1.542  -2.425  -0.180  0.00  0.00    -0.031 A 
ATOM      6  C6  IND d   1       2.421  -1.497   0.338  0.00  0.00     0.015 A 
ATOM      7  C7  IND d   1       2.025  -0.220   0.619  0.00  0.00    -0.016 A 
ATOM      8  C8  IND d   1       0.705   0.102   0.341  0.00  0.00    -0.047 A 
ATOM      9  C9  IND d   1      -0.182  -0.824  -0.225  0.00  0.00    -0.096 A 
ATOM     10  HN1 IND d   1       0.342   2.018   0.808  0.00  0.00     0.298 HD
ENDROOT
TORSDOF 0
ENDMDL
