MODEL 1
REMARK minimizedAffinity -4.77186728
REMARK minimizedRMSD -1
REMARK  0 active torsions:
REMARK  status: ('A' for Active; 'I' for Inactive)
ROOT
ATOM      1  N1  IND d   1      -0.430   1.045  -0.507  0.00  0.00    -0.196 N 
ATOM      2  C2  IND d   1       0.300   2.082   0.002  0.00  0.00     0.054 A 
ATOM      3  C3  IND d   1       1.444   1.624   0.558  0.00  0.00    -0.031 A 
ATOM      4  C4  IND d   1       2.367  -0.778   0.654  0.00  0.00     0.051 A 
ATOM      5  C5  IND d   1       2.040  -2.070   0.355  0.00  0.00    -0.031 A 
ATOM      6  C6  IND d   1       0.850  -2.397  -0.262  0.00  0.00     0.015 A 
ATOM      7  C7  IND d   1      -0.057  -1.437  -0.615  0.00  0.00    -0.016 A 
ATOM      8  C8  IND d   1       0.269  -0.124  -0.306  0.00  0.00    -0.047 A 
ATOM      9  C9  IND d   1       1.457   0.209   0.358  0.00  0.00    -0.096 A 
ATOM     10  HN1 IND d   1      -1.198   1.112  -0.889  0.00  0.00     0.298 HD
ENDROOT
TORSDOF 0
ENDMDL
