MODEL 1
REMARK minimizedAffinity -3.94656825
REMARK minimizedRMSD -1
REMARK  0 active torsions:
REMARK  status: ('A' for Active; 'I' for Inactive)
ROOT
ATOM      1  N1  IND d   1       0.117  -0.661  -1.287  0.00  0.00    -0.196 N 
ATOM      2  C2  IND d   1      -0.945   0.037  -0.783  0.00  0.00     0.054 A 
ATOM      3  C3  IND d   1      -0.722   0.365   0.509  0.00  0.00    -0.031 A 
ATOM      4  C4  IND d   1       1.359  -0.051   1.966  0.00  0.00     0.051 A 
ATOM      5  C5  IND d   1       2.572  -0.681   1.957  0.00  0.00    -0.031 A 
ATOM      6  C6  IND d   1       3.039  -1.347   0.843  0.00  0.00     0.015 A 
ATOM      7  C7  IND d   1       2.312  -1.399  -0.313  0.00  0.00    -0.016 A 
ATOM      8  C8  IND d   1       1.077  -0.767  -0.305  0.00  0.00    -0.047 A 
ATOM      9  C9  IND d   1       0.579  -0.125   0.836  0.00  0.00    -0.096 A 
ATOM     10  HN1 IND d   1       0.175  -0.980  -2.083  0.00  0.00     0.298 HD
ENDROOT
TORSDOF 0
ENDMDL
