MODEL 1
REMARK minimizedAffinity -2.7999537
REMARK minimizedRMSD -1
REMARK  0 active torsions:
REMARK  status: ('A' for Active; 'I' for Inactive)
ROOT
ATOM      1  N1  IND d   1       2.265   2.249  -0.264  0.00  0.00    -0.196 N 
ATOM      2  C2  IND d   1       3.574   1.855  -0.269  0.00  0.00     0.054 A 
ATOM      3  C3  IND d   1       3.660   0.510  -0.384  0.00  0.00    -0.031 A 
ATOM      4  C4  IND d   1       1.785  -1.228  -0.682  0.00  0.00     0.051 A 
ATOM      5  C5  IND d   1       0.424  -1.352  -0.702  0.00  0.00    -0.031 A 
ATOM      6  C6  IND d   1      -0.409  -0.259  -0.578  0.00  0.00     0.015 A 
ATOM      7  C7  IND d   1       0.089   1.005  -0.439  0.00  0.00    -0.016 A 
ATOM      8  C8  IND d   1       1.471   1.134  -0.411  0.00  0.00    -0.047 A 
ATOM      9  C9  IND d   1       2.321   0.024  -0.494  0.00  0.00    -0.096 A 
ATOM     10  HN1 IND d   1       1.986   3.058  -0.184  0.00  0.00     0.298 HD
ENDROOT
TORSDOF 0
ENDMDL
