MODEL 1
REMARK minimizedAffinity -3.19179749
REMARK minimizedRMSD -1
REMARK  0 active torsions:
REMARK  status: ('A' for Active; 'I' for Inactive)
ROOT
ATOM      1  N1  IND d   1      -0.458  -1.131   1.001  0.00  0.00    -0.196 N 
ATOM      2  C2  IND d   1       0.372  -0.707   0.001  0.00  0.00     0.054 A 
ATOM      3  C3  IND d   1      -0.225   0.263  -0.727  0.00  0.00    -0.031 A 
ATOM      4  C4  IND d   1      -2.522   1.377  -0.395  0.00  0.00     0.051 A 
ATOM      5  C5  IND d   1      -3.657   1.301   0.362  0.00  0.00    -0.031 A 
ATOM      6  C6  IND d   1      -3.785   0.394   1.394  0.00  0.00     0.015 A 
ATOM      7  C7  IND d   1      -2.774  -0.467   1.715  0.00  0.00    -0.016 A 
ATOM      8  C8  IND d   1      -1.623  -0.397   0.944  0.00  0.00    -0.047 A 
ATOM      9  C9  IND d   1      -1.504   0.492  -0.132  0.00  0.00    -0.096 A 
ATOM     10  HN1 IND d   1      -0.283  -1.751   1.570  0.00  0.00     0.298 HD
ENDROOT
TORSDOF 0
ENDMDL
