MODEL 1
REMARK minimizedAffinity -5.82298756
REMARK minimizedRMSD -1
REMARK  0 active torsions:
REMARK  status: ('A' for Active; 'I' for Inactive)
ROOT
ATOM      1  N1  IND d   1       0.209   1.432  -0.414  0.00  0.00    -0.196 N 
ATOM      2  C2  IND d   1      -0.640   0.370  -0.552  0.00  0.00     0.054 A 
ATOM      3  C3  IND d   1       0.020  -0.790  -0.337  0.00  0.00    -0.031 A 
ATOM      4  C4  IND d   1       2.470  -1.175   0.352  0.00  0.00     0.051 A 
ATOM      5  C5  IND d   1       3.646  -0.512   0.563  0.00  0.00    -0.031 A 
ATOM      6  C6  IND d   1       3.738   0.861   0.460  0.00  0.00     0.015 A 
ATOM      7  C7  IND d   1       2.650   1.626   0.151  0.00  0.00    -0.016 A 
ATOM      8  C8  IND d   1       1.455   0.956  -0.071  0.00  0.00    -0.047 A 
ATOM      9  C9  IND d   1       1.365  -0.441  -0.009  0.00  0.00    -0.096 A 
ATOM     10  HN1 IND d   1       0.000   2.259  -0.524  0.00  0.00     0.298 HD
ENDROOT
TORSDOF 0
ENDMDL
