MODEL 1
REMARK minimizedAffinity -4.59638166
REMARK minimizedRMSD -1
REMARK  0 active torsions:
REMARK  status: ('A' for Active; 'I' for Inactive)
ROOT
ATOM      1  N1  IND d   1      -0.117   1.264  -0.158  0.00  0.00    -0.196 N 
ATOM      2  C2  IND d   1      -0.808   0.095  -0.315  0.00  0.00     0.054 A 
ATOM      3  C3  IND d   1       0.022  -0.963  -0.174  0.00  0.00    -0.031 A 
ATOM      4  C4  IND d   1       2.527  -1.011   0.417  0.00  0.00     0.051 A 
ATOM      5  C5  IND d   1       3.602  -0.191   0.619  0.00  0.00    -0.031 A 
ATOM      6  C6  IND d   1       3.489   1.184   0.575  0.00  0.00     0.015 A 
ATOM      7  C7  IND d   1       2.289   1.793   0.336  0.00  0.00    -0.016 A 
ATOM      8  C8  IND d   1       1.197   0.963   0.123  0.00  0.00    -0.047 A 
ATOM      9  C9  IND d   1       1.314  -0.433   0.125  0.00  0.00    -0.096 A 
ATOM     10  HN1 IND d   1      -0.449   2.055  -0.224  0.00  0.00     0.298 HD
ENDROOT
TORSDOF 0
ENDMDL
