MODEL 1
REMARK minimizedAffinity -6.11099243
REMARK minimizedRMSD -1
REMARK  0 active torsions:
REMARK  status: ('A' for Active; 'I' for Inactive)
ROOT
ATOM      1  N1  IND d   1       0.829   2.513  -0.871  0.00  0.00    -0.196 N 
ATOM      2  C2  IND d   1      -0.524   2.334  -0.938  0.00  0.00     0.054 A 
ATOM      3  C3  IND d   1      -0.826   1.016  -0.919  0.00  0.00    -0.031 A 
ATOM      4  C4  IND d   1       0.735  -1.016  -0.681  0.00  0.00     0.051 A 
ATOM      5  C5  IND d   1       2.057  -1.358  -0.624  0.00  0.00    -0.031 A 
ATOM      6  C6  IND d   1       3.058  -0.408  -0.645  0.00  0.00     0.015 A 
ATOM      7  C7  IND d   1       2.772   0.926  -0.711  0.00  0.00    -0.016 A 
ATOM      8  C8  IND d   1       1.431   1.277  -0.776  0.00  0.00    -0.047 A 
ATOM      9  C9  IND d   1       0.412   0.315  -0.799  0.00  0.00    -0.096 A 
ATOM     10  HN1 IND d   1       1.237   3.270  -0.886  0.00  0.00     0.298 HD
ENDROOT
TORSDOF 0
ENDMDL
