MODEL 1
REMARK minimizedAffinity -4.12880754
REMARK minimizedRMSD -1
REMARK  0 active torsions:
REMARK  status: ('A' for Active; 'I' for Inactive)
ROOT
ATOM      1  N1  IND d   1       0.367   0.644   0.025  0.00  0.00    -0.196 N 
ATOM      2  C2  IND d   1      -0.400  -0.472   0.211  0.00  0.00     0.054 A 
ATOM      3  C3  IND d   1       0.383  -1.571   0.301  0.00  0.00    -0.031 A 
ATOM      4  C4  IND d   1       2.951  -1.756   0.271  0.00  0.00     0.051 A 
ATOM      5  C5  IND d   1       4.082  -1.013   0.087  0.00  0.00    -0.031 A 
ATOM      6  C6  IND d   1       4.033   0.349  -0.129  0.00  0.00     0.015 A 
ATOM      7  C7  IND d   1       2.845   1.023  -0.157  0.00  0.00    -0.016 A 
ATOM      8  C8  IND d   1       1.693   0.270   0.022  0.00  0.00    -0.047 A 
ATOM      9  C9  IND d   1       1.735  -1.119   0.199  0.00  0.00    -0.096 A 
ATOM     10  HN1 IND d   1       0.071   1.445  -0.074  0.00  0.00     0.298 HD
ENDROOT
TORSDOF 0
ENDMDL
