MODEL 1
REMARK minimizedAffinity 0.135232762
REMARK minimizedRMSD -1
REMARK  1 active torsions:
REMARK  status: ('A' for Active; 'I' for Inactive)
REMARK    1  A    between atoms: C1_2  and  C2_3 
ROOT
ATOM      1  C2  UNL d   1       0.154  -0.022  -0.355  0.00  0.00    -0.076 A 
ATOM      2  C3  UNL d   1      -0.631   0.536  -1.380  0.00  0.00     0.004 A 
ATOM      3  C4  UNL d   1      -1.851  -0.034  -1.740  0.00  0.00    -0.003 A 
ATOM      4  C5  UNL d   1      -2.306  -1.170  -1.082  0.00  0.00     0.000 A 
ATOM      5  C6  UNL d   1      -1.550  -1.727  -0.051  0.00  0.00     0.000 A 
ATOM      6  C7  UNL d   1      -0.325  -1.156   0.335  0.00  0.00    -0.073 A 
ATOM      7  C8  UNL d   1       0.453  -1.801   1.449  0.00  0.00     0.078 C 
ENDROOT
BRANCH   1   8
ATOM      8  C1  UNL d   1       1.481   0.623  -0.026  0.00  0.00     0.053 C 
ATOM      9  C   UNL d   1       1.319   1.964   0.674  0.00  0.00     0.018 C 
ENDBRANCH   1   8
TORSDOF 1
ENDMDL
