MODEL 1
REMARK minimizedAffinity -4.16737032
REMARK minimizedRMSD -1
REMARK  1 active torsions:
REMARK  status: ('A' for Active; 'I' for Inactive)
REMARK    1  A    between atoms: C1_2  and  C2_3 
ROOT
ATOM      1  C2  UNL d   1       1.095   0.550   0.592  0.00  0.00    -0.076 A 
ATOM      2  C3  UNL d   1       1.791   1.760   0.426  0.00  0.00     0.004 A 
ATOM      3  C4  UNL d   1       2.227   2.493   1.528  0.00  0.00    -0.003 A 
ATOM      4  C5  UNL d   1       1.976   2.028   2.814  0.00  0.00     0.000 A 
ATOM      5  C6  UNL d   1       1.302   0.821   2.997  0.00  0.00     0.000 A 
ATOM      6  C7  UNL d   1       0.870   0.061   1.897  0.00  0.00    -0.073 A 
ATOM      7  C8  UNL d   1       0.143  -1.231   2.153  0.00  0.00     0.078 C 
ENDROOT
BRANCH   1   8
ATOM      8  C1  UNL d   1       0.622  -0.189  -0.640  0.00  0.00     0.053 C 
ATOM      9  C   UNL d   1      -0.834   0.101  -0.969  0.00  0.00     0.018 C 
ENDBRANCH   1   8
TORSDOF 1
ENDMDL
