MODEL 1
REMARK minimizedAffinity -2.08566022
REMARK minimizedRMSD -1
REMARK  1 active torsions:
REMARK  status: ('A' for Active; 'I' for Inactive)
REMARK    1  A    between atoms: C1_2  and  C2_3 
ROOT
ATOM      1  C2  UNL d   1      -0.458  -0.397   0.507  0.00  0.00    -0.076 A 
ATOM      2  C3  UNL d   1      -1.564  -1.077  -0.031  0.00  0.00     0.004 A 
ATOM      3  C4  UNL d   1      -1.997  -0.825  -1.332  0.00  0.00    -0.003 A 
ATOM      4  C5  UNL d   1      -1.329   0.109  -2.116  0.00  0.00     0.000 A 
ATOM      5  C6  UNL d   1      -0.218   0.779  -1.605  0.00  0.00     0.000 A 
ATOM      6  C7  UNL d   1       0.241   0.525  -0.301  0.00  0.00    -0.073 A 
ATOM      7  C8  UNL d   1       1.440   1.281   0.202  0.00  0.00     0.078 C 
ENDROOT
BRANCH   1   8
ATOM      8  C1  UNL d   1      -0.051  -0.691   1.934  0.00  0.00     0.053 C 
ATOM      9  C   UNL d   1      -0.074  -2.179   2.251  0.00  0.00     0.018 C 
ENDBRANCH   1   8
TORSDOF 1
ENDMDL
