MODEL 1
REMARK minimizedAffinity -2.98528004
REMARK minimizedRMSD -1
REMARK  1 active torsions:
REMARK  status: ('A' for Active; 'I' for Inactive)
REMARK    1  A    between atoms: C1_2  and  C2_3 
ROOT
ATOM      1  C2  UNL d   1      -0.814  -0.619  -0.877  0.00  0.00    -0.076 A 
ATOM      2  C3  UNL d   1      -0.709   0.460  -1.771  0.00  0.00     0.004 A 
ATOM      3  C4  UNL d   1       0.306   1.406  -1.637  0.00  0.00    -0.003 A 
ATOM      4  C5  UNL d   1       1.233   1.287  -0.607  0.00  0.00     0.000 A 
ATOM      5  C6  UNL d   1       1.154   0.213   0.278  0.00  0.00     0.000 A 
ATOM      6  C7  UNL d   1       0.147  -0.758   0.147  0.00  0.00    -0.073 A 
ATOM      7  C8  UNL d   1       0.106  -1.893   1.134  0.00  0.00     0.078 C 
ENDROOT
BRANCH   1   8
ATOM      8  C1  UNL d   1      -1.952  -1.599  -1.055  0.00  0.00     0.053 C 
ATOM      9  C   UNL d   1      -3.224  -1.149  -0.354  0.00  0.00     0.018 C 
ENDBRANCH   1   8
TORSDOF 1
ENDMDL
