MODEL 1
REMARK minimizedAffinity -3.89398217
REMARK minimizedRMSD -1
REMARK  1 active torsions:
REMARK  status: ('A' for Active; 'I' for Inactive)
REMARK    1  A    between atoms: C1_2  and  C2_3 
ROOT
ATOM      1  C2  UNL d   1       0.890   0.216   0.441  0.00  0.00    -0.076 A 
ATOM      2  C3  UNL d   1       1.599   1.403   0.186  0.00  0.00     0.004 A 
ATOM      3  C4  UNL d   1       2.105   2.175   1.231  0.00  0.00    -0.003 A 
ATOM      4  C5  UNL d   1       1.911   1.772   2.547  0.00  0.00     0.000 A 
ATOM      5  C6  UNL d   1       1.225   0.588   2.818  0.00  0.00     0.000 A 
ATOM      6  C7  UNL d   1       0.723  -0.210   1.775  0.00  0.00    -0.073 A 
ATOM      7  C8  UNL d   1      -0.014  -1.474   2.125  0.00  0.00     0.078 C 
ENDROOT
BRANCH   1   8
ATOM      8  C1  UNL d   1       0.342  -0.565  -0.732  0.00  0.00     0.053 C 
ATOM      9  C   UNL d   1      -1.066  -0.133  -1.112  0.00  0.00     0.018 C 
ENDBRANCH   1   8
TORSDOF 1
ENDMDL
