MODEL 1
REMARK minimizedAffinity -3.98852801
REMARK minimizedRMSD -1
REMARK  1 active torsions:
REMARK  status: ('A' for Active; 'I' for Inactive)
REMARK    1  A    between atoms: C1_2  and  C2_3 
ROOT
ATOM      1  C2  UNL d   1      -0.173  -0.585   0.231  0.00  0.00    -0.076 A 
ATOM      2  C3  UNL d   1      -0.548  -1.578   1.153  0.00  0.00     0.004 A 
ATOM      3  C4  UNL d   1      -1.721  -2.310   0.982  0.00  0.00    -0.003 A 
ATOM      4  C5  UNL d   1      -2.539  -2.062  -0.115  0.00  0.00     0.000 A 
ATOM      5  C6  UNL d   1      -2.174  -1.094  -1.050  0.00  0.00     0.000 A 
ATOM      6  C7  UNL d   1      -0.986  -0.358  -0.900  0.00  0.00    -0.073 A 
ATOM      7  C8  UNL d   1      -0.644   0.679  -1.935  0.00  0.00     0.078 C 
ENDROOT
BRANCH   1   8
ATOM      8  C1  UNL d   1       1.097   0.196   0.483  0.00  0.00     0.053 C 
ATOM      9  C   UNL d   1       0.877   1.383   1.408  0.00  0.00     0.018 C 
ENDBRANCH   1   8
TORSDOF 1
ENDMDL
