MODEL 1
REMARK minimizedAffinity -5.93879318
REMARK minimizedRMSD -1
REMARK  1 active torsions:
REMARK  status: ('A' for Active; 'I' for Inactive)
REMARK    1  A    between atoms: C1_2  and  C2_3 
ROOT
ATOM      1  C2  UNL d   1      -0.645  -0.996   1.092  0.00  0.00    -0.076 A 
ATOM      2  C3  UNL d   1      -1.092  -2.190   1.686  0.00  0.00     0.004 A 
ATOM      3  C4  UNL d   1      -2.203  -2.867   1.186  0.00  0.00    -0.003 A 
ATOM      4  C5  UNL d   1      -2.885  -2.363   0.084  0.00  0.00     0.000 A 
ATOM      5  C6  UNL d   1      -2.444  -1.190  -0.529  0.00  0.00     0.000 A 
ATOM      6  C7  UNL d   1      -1.317  -0.503  -0.047  0.00  0.00    -0.073 A 
ATOM      7  C8  UNL d   1      -0.890   0.760  -0.743  0.00  0.00     0.078 C 
ENDROOT
BRANCH   1   8
ATOM      8  C1  UNL d   1       0.549  -0.291   1.694  0.00  0.00     0.053 C 
ATOM      9  C   UNL d   1       1.861  -0.987   1.371  0.00  0.00     0.018 C 
ENDBRANCH   1   8
TORSDOF 1
ENDMDL
