MODEL 1
REMARK minimizedAffinity -6.02078152
REMARK minimizedRMSD -1
REMARK  1 active torsions:
REMARK  status: ('A' for Active; 'I' for Inactive)
REMARK    1  A    between atoms: C1_2  and  C2_3 
ROOT
ATOM      1  C2  UNL d   1      -1.112  -0.019  -0.157  0.00  0.00    -0.076 A 
ATOM      2  C3  UNL d   1      -0.727  -0.565   1.081  0.00  0.00     0.004 A 
ATOM      3  C4  UNL d   1       0.589  -0.467   1.529  0.00  0.00    -0.003 A 
ATOM      4  C5  UNL d   1       1.542   0.178   0.748  0.00  0.00     0.000 A 
ATOM      5  C6  UNL d   1       1.174   0.740  -0.474  0.00  0.00     0.000 A 
ATOM      6  C7  UNL d   1      -0.153   0.665  -0.933  0.00  0.00    -0.073 A 
ATOM      7  C8  UNL d   1      -0.493   1.284  -2.261  0.00  0.00     0.078 C 
ENDROOT
BRANCH   1   8
ATOM      8  C1  UNL d   1      -2.548  -0.180  -0.603  0.00  0.00     0.053 C 
ATOM      9  C   UNL d   1      -3.173  -1.471  -0.101  0.00  0.00     0.018 C 
ENDBRANCH   1   8
TORSDOF 1
ENDMDL
