MODEL 1
REMARK minimizedAffinity -4.96495724
REMARK minimizedRMSD -1
REMARK  1 active torsions:
REMARK  status: ('A' for Active; 'I' for Inactive)
REMARK    1  A    between atoms: C1_2  and  C2_3 
ROOT
ATOM      1  C2  UNL d   1       0.048  -0.329   0.650  0.00  0.00    -0.076 A 
ATOM      2  C3  UNL d   1       0.144   0.393  -0.552  0.00  0.00     0.004 A 
ATOM      3  C4  UNL d   1      -0.915   0.425  -1.457  0.00  0.00    -0.003 A 
ATOM      4  C5  UNL d   1      -2.089  -0.264  -1.174  0.00  0.00     0.000 A 
ATOM      5  C6  UNL d   1      -2.209  -0.971   0.022  0.00  0.00     0.000 A 
ATOM      6  C7  UNL d   1      -1.156  -1.001   0.952  0.00  0.00    -0.073 A 
ATOM      7  C8  UNL d   1      -1.338  -1.784   2.223  0.00  0.00     0.078 C 
ENDROOT
BRANCH   1   8
ATOM      8  C1  UNL d   1       1.240  -0.350   1.580  0.00  0.00     0.053 C 
ATOM      9  C   UNL d   1       1.615   1.037   2.078  0.00  0.00     0.018 C 
ENDBRANCH   1   8
TORSDOF 1
ENDMDL
