MODEL 1
REMARK minimizedAffinity -5.59201145
REMARK minimizedRMSD -1
REMARK  1 active torsions:
REMARK  status: ('A' for Active; 'I' for Inactive)
REMARK    1  A    between atoms: C1_2  and  C2_3 
ROOT
ATOM      1  C2  UNL d   1      -1.333  -0.898  -0.174  0.00  0.00    -0.076 A 
ATOM      2  C3  UNL d   1      -0.943   0.261  -0.866  0.00  0.00     0.004 A 
ATOM      3  C4  UNL d   1       0.211   0.956  -0.508  0.00  0.00    -0.003 A 
ATOM      4  C5  UNL d   1       0.994   0.503   0.547  0.00  0.00     0.000 A 
ATOM      5  C6  UNL d   1       0.632  -0.655   1.234  0.00  0.00     0.000 A 
ATOM      6  C7  UNL d   1      -0.520  -1.377   0.876  0.00  0.00    -0.073 A 
ATOM      7  C8  UNL d   1      -0.866  -2.617   1.654  0.00  0.00     0.078 C 
ENDROOT
BRANCH   1   8
ATOM      8  C1  UNL d   1      -2.609  -1.595  -0.589  0.00  0.00     0.053 C 
ATOM      9  C   UNL d   1      -3.799  -1.191   0.267  0.00  0.00     0.018 C 
ENDBRANCH   1   8
TORSDOF 1
ENDMDL
