MODEL 1
REMARK minimizedAffinity 0.39483425
REMARK minimizedRMSD -1
REMARK  1 active torsions:
REMARK  status: ('A' for Active; 'I' for Inactive)
REMARK    1  A    between atoms: C1_2  and  C2_3 
ROOT
ATOM      1  C2  UNL d   1      -0.560  -1.546   0.082  0.00  0.00    -0.076 A 
ATOM      2  C3  UNL d   1       0.467  -0.595  -0.054  0.00  0.00     0.004 A 
ATOM      3  C4  UNL d   1       0.399   0.399  -1.029  0.00  0.00    -0.003 A 
ATOM      4  C5  UNL d   1      -0.696   0.458  -1.883  0.00  0.00     0.000 A 
ATOM      5  C6  UNL d   1      -1.732  -0.466  -1.751  0.00  0.00     0.000 A 
ATOM      6  C7  UNL d   1      -1.687  -1.464  -0.763  0.00  0.00    -0.073 A 
ATOM      7  C8  UNL d   1      -2.829  -2.439  -0.669  0.00  0.00     0.078 C 
ENDROOT
BRANCH   1   8
ATOM      8  C1  UNL d   1      -0.419  -2.617   1.140  0.00  0.00     0.053 C 
ATOM      9  C   UNL d   1       0.618  -2.262   2.195  0.00  0.00     0.018 C 
ENDBRANCH   1   8
TORSDOF 1
ENDMDL
