MODEL 1
REMARK minimizedAffinity -5.78545284
REMARK minimizedRMSD -1
REMARK  1 active torsions:
REMARK  status: ('A' for Active; 'I' for Inactive)
REMARK    1  A    between atoms: C1_2  and  C2_3 
ROOT
ATOM      1  C2  UNL d   1       0.112  -0.516   0.298  0.00  0.00    -0.076 A 
ATOM      2  C3  UNL d   1       0.037  -1.600   1.189  0.00  0.00     0.004 A 
ATOM      3  C4  UNL d   1      -1.049  -2.473   1.169  0.00  0.00    -0.003 A 
ATOM      4  C5  UNL d   1      -2.079  -2.275   0.256  0.00  0.00     0.000 A 
ATOM      5  C6  UNL d   1      -2.014  -1.215  -0.648  0.00  0.00     0.000 A 
ATOM      6  C7  UNL d   1      -0.917  -0.336  -0.651  0.00  0.00    -0.073 A 
ATOM      7  C8  UNL d   1      -0.901   0.795  -1.643  0.00  0.00     0.078 C 
ENDROOT
BRANCH   1   8
ATOM      8  C1  UNL d   1       1.301   0.413   0.385  0.00  0.00     0.053 C 
ATOM      9  C   UNL d   1       1.364   1.157   1.710  0.00  0.00     0.018 C 
ENDBRANCH   1   8
TORSDOF 1
ENDMDL
