MODEL 1
REMARK minimizedAffinity -5.51263142
REMARK minimizedRMSD -1
REMARK  1 active torsions:
REMARK  status: ('A' for Active; 'I' for Inactive)
REMARK    1  A    between atoms: C1_2  and  C2_3 
ROOT
ATOM      1  C2  UNL d   1      -1.205  -0.277   0.396  0.00  0.00    -0.076 A 
ATOM      2  C3  UNL d   1      -0.904  -0.715   1.697  0.00  0.00     0.004 A 
ATOM      3  C4  UNL d   1       0.417  -0.837   2.125  0.00  0.00    -0.003 A 
ATOM      4  C5  UNL d   1       1.458  -0.524   1.258  0.00  0.00     0.000 A 
ATOM      5  C6  UNL d   1       1.177  -0.072  -0.031  0.00  0.00     0.000 A 
ATOM      6  C7  UNL d   1      -0.149   0.073  -0.472  0.00  0.00    -0.073 A 
ATOM      7  C8  UNL d   1      -0.394   0.559  -1.875  0.00  0.00     0.078 C 
ENDROOT
BRANCH   1   8
ATOM      8  C1  UNL d   1      -2.656  -0.190  -0.021  0.00  0.00     0.053 C 
ATOM      9  C   UNL d   1      -3.010  -1.187  -1.113  0.00  0.00     0.018 C 
ENDBRANCH   1   8
TORSDOF 1
ENDMDL
