MODEL 1
REMARK minimizedAffinity 12.0233049
REMARK minimizedRMSD -1
REMARK  0 active torsions:
REMARK  status: ('A' for Active; 'I' for Inactive)
ROOT
ATOM      1  C2' OXE d   1       0.358   4.499  -0.057  0.00  0.00     0.078 C 
ATOM      2  C1' OXE d   1       0.160   1.869   0.904  0.00  0.00     0.078 C 
ATOM      3  C1  OXE d   1       0.979   2.850   1.704  0.00  0.00    -0.078 A 
ATOM      4  C2  OXE d   1       1.109   4.123   1.202  0.00  0.00    -0.078 A 
ATOM      5  C3  OXE d   1       1.809   5.082   1.929  0.00  0.00     0.003 A 
ATOM      6  C4  OXE d   1       2.509   4.724   3.087  0.00  0.00    -0.002 A 
ATOM      7  C5  OXE d   1       2.422   3.423   3.594  0.00  0.00    -0.002 A 
ATOM      8  C6  OXE d   1       1.629   2.487   2.939  0.00  0.00     0.003 A 
ENDROOT
TORSDOF 0
ENDMDL
