MODEL 1
REMARK minimizedAffinity 11.8789721
REMARK minimizedRMSD -1
REMARK  0 active torsions:
REMARK  status: ('A' for Active; 'I' for Inactive)
ROOT
ATOM      1  C2' OXE d   1       0.205   4.418  -0.100  0.00  0.00     0.078 C 
ATOM      2  C1' OXE d   1      -0.049   1.765   0.780  0.00  0.00     0.078 C 
ATOM      3  C1  OXE d   1       0.786   2.705   1.613  0.00  0.00    -0.078 A 
ATOM      4  C2  OXE d   1       0.943   3.990   1.150  0.00  0.00    -0.078 A 
ATOM      5  C3  OXE d   1       1.658   4.913   1.908  0.00  0.00     0.003 A 
ATOM      6  C4  OXE d   1       2.345   4.505   3.057  0.00  0.00    -0.002 A 
ATOM      7  C5  OXE d   1       2.231   3.192   3.525  0.00  0.00    -0.002 A 
ATOM      8  C6  OXE d   1       1.422   2.292   2.839  0.00  0.00     0.003 A 
ENDROOT
TORSDOF 0
ENDMDL
