MODEL 1
REMARK minimizedAffinity 12.7441921
REMARK minimizedRMSD -1
REMARK  0 active torsions:
REMARK  status: ('A' for Active; 'I' for Inactive)
ROOT
ATOM      1  C2' OXE d   1      -1.716  -0.289  -2.504  0.00  0.00     0.078 C 
ATOM      2  C1' OXE d   1      -3.106   1.471  -0.816  0.00  0.00     0.078 C 
ATOM      3  C1  OXE d   1      -1.808   0.891  -0.312  0.00  0.00    -0.078 A 
ATOM      4  C2  OXE d   1      -1.159  -0.006  -1.126  0.00  0.00    -0.078 A 
ATOM      5  C3  OXE d   1       0.070  -0.529  -0.733  0.00  0.00     0.003 A 
ATOM      6  C4  OXE d   1       0.574  -0.269   0.547  0.00  0.00    -0.002 A 
ATOM      7  C5  OXE d   1      -0.092   0.610   1.407  0.00  0.00    -0.002 A 
ATOM      8  C6  OXE d   1      -1.260   1.230   0.978  0.00  0.00     0.003 A 
ENDROOT
TORSDOF 0
ENDMDL
