MODEL 1
REMARK minimizedAffinity 9.21129608
REMARK minimizedRMSD -1
REMARK  0 active torsions:
REMARK  status: ('A' for Active; 'I' for Inactive)
ROOT
ATOM      1  C2' OXE d   1      -0.080   1.792   1.437  0.00  0.00     0.078 C 
ATOM      2  C1' OXE d   1       0.560   4.516   1.216  0.00  0.00     0.078 C 
ATOM      3  C1  OXE d   1       1.272   3.710   2.272  0.00  0.00    -0.078 A 
ATOM      4  C2  OXE d   1       0.919   2.388   2.404  0.00  0.00    -0.078 A 
ATOM      5  C3  OXE d   1       1.585   1.586   3.327  0.00  0.00     0.003 A 
ATOM      6  C4  OXE d   1       2.500   2.148   4.225  0.00  0.00    -0.002 A 
ATOM      7  C5  OXE d   1       2.845   3.500   4.134  0.00  0.00    -0.002 A 
ATOM      8  C6  OXE d   1       2.273   4.284   3.138  0.00  0.00     0.003 A 
ENDROOT
TORSDOF 0
ENDMDL
