MODEL 1
REMARK minimizedAffinity -2.4842751
REMARK minimizedRMSD -1
REMARK  0 active torsions:
REMARK  status: ('A' for Active; 'I' for Inactive)
ROOT
ATOM      1  C2' OXE d   1       1.525   0.261   1.742  0.00  0.00     0.078 C 
ATOM      2  C1' OXE d   1      -0.074  -0.564  -0.413  0.00  0.00     0.078 C 
ATOM      3  C1  OXE d   1      -0.285   0.829   0.127  0.00  0.00    -0.078 A 
ATOM      4  C2  OXE d   1       0.469   1.207   1.211  0.00  0.00    -0.078 A 
ATOM      5  C3  OXE d   1       0.354   2.500   1.714  0.00  0.00     0.003 A 
ATOM      6  C4  OXE d   1      -0.632   3.365   1.225  0.00  0.00    -0.002 A 
ATOM      7  C5  OXE d   1      -1.438   2.986   0.146  0.00  0.00    -0.002 A 
ATOM      8  C6  OXE d   1      -1.249   1.739  -0.440  0.00  0.00     0.003 A 
ENDROOT
TORSDOF 0
ENDMDL
