MODEL 1
REMARK minimizedAffinity 2.16141534
REMARK minimizedRMSD -1
REMARK  0 active torsions:
REMARK  status: ('A' for Active; 'I' for Inactive)
ROOT
ATOM      1  C2' OXE d   1      -1.527   0.386  -1.178  0.00  0.00     0.078 C 
ATOM      2  C1' OXE d   1       0.898  -0.083   0.156  0.00  0.00     0.078 C 
ATOM      3  C1  OXE d   1       0.141  -1.277  -0.368  0.00  0.00    -0.078 A 
ATOM      4  C2  OXE d   1      -1.067  -1.042  -0.979  0.00  0.00    -0.078 A 
ATOM      5  C3  OXE d   1      -1.780  -2.103  -1.529  0.00  0.00     0.003 A 
ATOM      6  C4  OXE d   1      -1.353  -3.422  -1.332  0.00  0.00    -0.002 A 
ATOM      7  C5  OXE d   1      -0.145  -3.687  -0.678  0.00  0.00    -0.002 A 
ATOM      8  C6  OXE d   1       0.634  -2.626  -0.229  0.00  0.00     0.003 A 
ENDROOT
TORSDOF 0
ENDMDL
