MODEL 1
REMARK minimizedAffinity -1.6717521
REMARK minimizedRMSD -1
REMARK  0 active torsions:
REMARK  status: ('A' for Active; 'I' for Inactive)
ROOT
ATOM      1  C2' OXE d   1      -0.117   0.852  -0.525  0.00  0.00     0.078 C 
ATOM      2  C1' OXE d   1       0.106   2.727   1.552  0.00  0.00     0.078 C 
ATOM      3  C1  OXE d   1       0.565   1.317   1.825  0.00  0.00    -0.078 A 
ATOM      4  C2  OXE d   1       0.409   0.395   0.818  0.00  0.00    -0.078 A 
ATOM      5  C3  OXE d   1       0.866  -0.908   0.999  0.00  0.00     0.003 A 
ATOM      6  C4  OXE d   1       1.342  -1.325   2.248  0.00  0.00    -0.002 A 
ATOM      7  C5  OXE d   1       1.472  -0.411   3.299  0.00  0.00    -0.002 A 
ATOM      8  C6  OXE d   1       1.129   0.920   3.092  0.00  0.00     0.003 A 
ENDROOT
TORSDOF 0
ENDMDL
