MODEL 1
REMARK minimizedAffinity 11.4757099
REMARK minimizedRMSD -1
REMARK  0 active torsions:
REMARK  status: ('A' for Active; 'I' for Inactive)
ROOT
ATOM      1  C   UNL d   1      -3.314   0.762   2.423  0.00  0.00    -0.002 A 
ATOM      2  C1  UNL d   1      -3.263   0.344   1.101  0.00  0.00     0.010 A 
ATOM      3  C2  UNL d   1      -2.157  -0.359   0.621  0.00  0.00     0.041 A 
ATOM      4  C3  UNL d   1      -1.093  -0.640   1.501  0.00  0.00    -0.075 A 
ATOM      5  S   UNL d   1       0.363  -1.488   1.134  0.00  0.00     0.015 SA
ATOM      6  C4  UNL d   1       0.952  -1.315   2.725  0.00  0.00     0.022 A 
ATOM      7  C5  UNL d   1       0.072  -0.630   3.528  0.00  0.00     0.026 A 
ATOM      8  C6  UNL d   1      -1.121  -0.230   2.836  0.00  0.00    -0.082 A 
ATOM      9  C7  UNL d   1      -2.256   0.483   3.293  0.00  0.00     0.045 A 
ENDROOT
TORSDOF 0
ENDMDL
