MODEL 1
REMARK minimizedAffinity 13.2375069
REMARK minimizedRMSD -1
REMARK  0 active torsions:
REMARK  status: ('A' for Active; 'I' for Inactive)
ROOT
ATOM      1  C   UNL d   1      -5.591   3.386  -5.255  0.00  0.00    -0.002 A 
ATOM      2  C1  UNL d   1      -4.435   3.677  -4.545  0.00  0.00     0.010 A 
ATOM      3  C2  UNL d   1      -3.665   2.652  -3.990  0.00  0.00     0.041 A 
ATOM      4  C3  UNL d   1      -4.080   1.317  -4.164  0.00  0.00    -0.075 A 
ATOM      5  S   UNL d   1      -3.295  -0.100  -3.575  0.00  0.00     0.015 SA
ATOM      6  C4  UNL d   1      -4.476  -1.126  -4.253  0.00  0.00     0.022 A 
ATOM      7  C5  UNL d   1      -5.452  -0.421  -4.916  0.00  0.00     0.026 A 
ATOM      8  C6  UNL d   1      -5.240   0.999  -4.876  0.00  0.00    -0.082 A 
ATOM      9  C7  UNL d   1      -5.999   2.060  -5.426  0.00  0.00     0.045 A 
ENDROOT
TORSDOF 0
ENDMDL
