MODEL 1
REMARK minimizedAffinity 12.4460316
REMARK minimizedRMSD -1
REMARK  0 active torsions:
REMARK  status: ('A' for Active; 'I' for Inactive)
ROOT
ATOM      1  C   UNL d   1       0.387  -1.464   1.657  0.00  0.00    -0.002 A 
ATOM      2  C1  UNL d   1       0.793  -1.239   2.965  0.00  0.00     0.010 A 
ATOM      3  C2  UNL d   1      -0.004  -0.498   3.839  0.00  0.00     0.041 A 
ATOM      4  C3  UNL d   1      -1.230   0.018   3.373  0.00  0.00    -0.075 A 
ATOM      5  S   UNL d   1      -2.370   0.954   4.264  0.00  0.00     0.015 SA
ATOM      6  C4  UNL d   1      -3.424   1.078   2.931  0.00  0.00     0.022 A 
ATOM      7  C5  UNL d   1      -2.933   0.427   1.824  0.00  0.00     0.026 A 
ATOM      8  C6  UNL d   1      -1.661  -0.195   2.060  0.00  0.00    -0.082 A 
ATOM      9  C7  UNL d   1      -0.829  -0.950   1.198  0.00  0.00     0.045 A 
ENDROOT
TORSDOF 0
ENDMDL
