MODEL 1
REMARK minimizedAffinity 6.39276218
REMARK minimizedRMSD -1
REMARK  0 active torsions:
REMARK  status: ('A' for Active; 'I' for Inactive)
ROOT
ATOM      1  C   UNL d   1       3.501   2.254  -0.238  0.00  0.00    -0.002 A 
ATOM      2  C1  UNL d   1       3.183   0.940   0.077  0.00  0.00     0.010 A 
ATOM      3  C2  UNL d   1       2.080   0.317  -0.511  0.00  0.00     0.041 A 
ATOM      4  C3  UNL d   1       1.296   1.042  -1.430  0.00  0.00    -0.075 A 
ATOM      5  S   UNL d   1      -0.100   0.484  -2.273  0.00  0.00     0.015 SA
ATOM      6  C4  UNL d   1      -0.305   1.975  -3.072  0.00  0.00     0.022 A 
ATOM      7  C5  UNL d   1       0.659   2.888  -2.715  0.00  0.00     0.026 A 
ATOM      8  C6  UNL d   1       1.598   2.365  -1.763  0.00  0.00    -0.082 A 
ATOM      9  C7  UNL d   1       2.722   2.970  -1.150  0.00  0.00     0.045 A 
ENDROOT
TORSDOF 0
ENDMDL
