MODEL 1
REMARK minimizedAffinity 11.5065203
REMARK minimizedRMSD -1
REMARK  0 active torsions:
REMARK  status: ('A' for Active; 'I' for Inactive)
ROOT
ATOM      1  C   UNL d   1      -2.739  -1.198   1.253  0.00  0.00    -0.002 A 
ATOM      2  C1  UNL d   1      -1.768  -0.939   2.210  0.00  0.00     0.010 A 
ATOM      3  C2  UNL d   1      -2.031  -0.073   3.273  0.00  0.00     0.041 A 
ATOM      4  C3  UNL d   1      -3.300   0.534   3.360  0.00  0.00    -0.075 A 
ATOM      5  S   UNL d   1      -3.847   1.629   4.574  0.00  0.00     0.015 SA
ATOM      6  C4  UNL d   1      -5.384   1.779   3.851  0.00  0.00     0.022 A 
ATOM      7  C5  UNL d   1      -5.493   1.019   2.710  0.00  0.00     0.026 A 
ATOM      8  C6  UNL d   1      -4.294   0.289   2.408  0.00  0.00    -0.082 A 
ATOM      9  C7  UNL d   1      -3.996  -0.594   1.342  0.00  0.00     0.045 A 
ENDROOT
TORSDOF 0
ENDMDL
