MODEL 1
REMARK minimizedAffinity -5.91476059
REMARK minimizedRMSD -1
REMARK  0 active torsions:
REMARK  status: ('A' for Active; 'I' for Inactive)
ROOT
ATOM      1  C1  DEN d   1       0.170  -3.057  -2.169  0.00  0.00     0.130 A 
ATOM      2  C2  DEN d   1       0.405  -1.953  -3.096  0.00  0.00    -0.031 A 
ATOM      3  C3  DEN d   1       0.394  -0.696  -2.320  0.00  0.00     0.027 A 
ATOM      4  C4  DEN d   1       0.042  -0.355   0.212  0.00  0.00     0.027 A 
ATOM      5  C5  DEN d   1      -0.205  -0.994   1.407  0.00  0.00    -0.003 A 
ATOM      6  C6  DEN d   1      -0.378  -2.350   1.488  0.00  0.00     0.001 A 
ATOM      7  C7  DEN d   1      -0.260  -3.118   0.359  0.00  0.00     0.017 A 
ATOM      8  C8  DEN d   1      -0.018  -2.481  -0.850  0.00  0.00    -0.094 A 
ATOM      9  C9  DEN d   1       0.166  -1.110  -0.909  0.00  0.00    -0.072 A 
ENDROOT
TORSDOF 0
ENDMDL
