MODEL 1
REMARK minimizedAffinity -5.02247047
REMARK minimizedRMSD -1
REMARK  0 active torsions:
REMARK  status: ('A' for Active; 'I' for Inactive)
ROOT
ATOM      1  C1  DEN d   1       0.216  -0.620   1.110  0.00  0.00     0.130 A 
ATOM      2  C2  DEN d   1       0.249   0.541   0.224  0.00  0.00    -0.031 A 
ATOM      3  C3  DEN d   1       0.186   0.054  -1.168  0.00  0.00     0.027 A 
ATOM      4  C4  DEN d   1       0.036  -2.370  -2.035  0.00  0.00     0.027 A 
ATOM      5  C5  DEN d   1      -0.009  -3.695  -1.661  0.00  0.00    -0.003 A 
ATOM      6  C6  DEN d   1       0.051  -4.086  -0.350  0.00  0.00     0.001 A 
ATOM      7  C7  DEN d   1       0.115  -3.140   0.638  0.00  0.00     0.017 A 
ATOM      8  C8  DEN d   1       0.168  -1.802   0.269  0.00  0.00    -0.094 A 
ATOM      9  C9  DEN d   1       0.093  -1.427  -1.061  0.00  0.00    -0.072 A 
ENDROOT
TORSDOF 0
ENDMDL
