MODEL 1
REMARK minimizedAffinity -3.47593212
REMARK minimizedRMSD -1
REMARK  0 active torsions:
REMARK  status: ('A' for Active; 'I' for Inactive)
ROOT
ATOM      1  C1  DEN d   1      -0.203   0.697   0.585  0.00  0.00     0.130 A 
ATOM      2  C2  DEN d   1       1.010   1.003  -0.168  0.00  0.00    -0.031 A 
ATOM      3  C3  DEN d   1       1.535  -0.261  -0.721  0.00  0.00     0.027 A 
ATOM      4  C4  DEN d   1       0.589  -2.650  -0.490  0.00  0.00     0.027 A 
ATOM      5  C5  DEN d   1      -0.416  -3.410   0.065  0.00  0.00    -0.003 A 
ATOM      6  C6  DEN d   1      -1.394  -2.864   0.854  0.00  0.00     0.001 A 
ATOM      7  C7  DEN d   1      -1.413  -1.512   1.072  0.00  0.00     0.017 A 
ATOM      8  C8  DEN d   1      -0.398  -0.740   0.523  0.00  0.00    -0.094 A 
ATOM      9  C9  DEN d   1       0.574  -1.309  -0.282  0.00  0.00    -0.072 A 
ENDROOT
TORSDOF 0
ENDMDL
