MODEL 1
REMARK minimizedAffinity -5.97882986
REMARK minimizedRMSD -1
REMARK  0 active torsions:
REMARK  status: ('A' for Active; 'I' for Inactive)
ROOT
ATOM      1  C1  DEN d   1       0.094   0.420   0.068  0.00  0.00     0.130 A 
ATOM      2  C2  DEN d   1       0.439   0.812  -1.296  0.00  0.00    -0.031 A 
ATOM      3  C3  DEN d   1       0.428  -0.401  -2.137  0.00  0.00     0.027 A 
ATOM      4  C4  DEN d   1      -0.089  -2.837  -1.464  0.00  0.00     0.027 A 
ATOM      5  C5  DEN d   1      -0.423  -3.665  -0.415  0.00  0.00    -0.003 A 
ATOM      6  C6  DEN d   1      -0.573  -3.199   0.864  0.00  0.00     0.001 A 
ATOM      7  C7  DEN d   1      -0.434  -1.860   1.119  0.00  0.00     0.017 A 
ATOM      8  C8  DEN d   1      -0.090  -1.020   0.068  0.00  0.00    -0.094 A 
ATOM      9  C9  DEN d   1       0.046  -1.509  -1.220  0.00  0.00    -0.072 A 
ENDROOT
TORSDOF 0
ENDMDL
