MODEL 1
REMARK minimizedAffinity -3.42725945
REMARK minimizedRMSD -1
REMARK  0 active torsions:
REMARK  status: ('A' for Active; 'I' for Inactive)
ROOT
ATOM      1  C1  DEN d   1      -0.009   1.270   1.408  0.00  0.00     0.130 A 
ATOM      2  C2  DEN d   1       0.921   1.955   0.514  0.00  0.00    -0.031 A 
ATOM      3  C3  DEN d   1       1.351   0.993  -0.521  0.00  0.00     0.027 A 
ATOM      4  C4  DEN d   1       0.669  -1.476  -0.825  0.00  0.00     0.027 A 
ATOM      5  C5  DEN d   1      -0.088  -2.503  -0.306  0.00  0.00    -0.003 A 
ATOM      6  C6  DEN d   1      -0.838  -2.356   0.830  0.00  0.00     0.001 A 
ATOM      7  C7  DEN d   1      -0.884  -1.141   1.460  0.00  0.00     0.017 A 
ATOM      8  C8  DEN d   1      -0.118  -0.102   0.948  0.00  0.00    -0.094 A 
ATOM      9  C9  DEN d   1       0.624  -0.267  -0.209  0.00  0.00    -0.072 A 
ENDROOT
TORSDOF 0
ENDMDL
