MODEL 1
REMARK minimizedAffinity -4.13982582
REMARK minimizedRMSD -1
REMARK  0 active torsions:
REMARK  status: ('A' for Active; 'I' for Inactive)
ROOT
ATOM      1  C1  DEN d   1       0.232  -0.879  -2.231  0.00  0.00     0.130 A 
ATOM      2  C2  DEN d   1       0.267   0.575  -2.363  0.00  0.00    -0.031 A 
ATOM      3  C3  DEN d   1      -0.108   1.161  -1.061  0.00  0.00     0.027 A 
ATOM      4  C4  DEN d   1      -0.732  -0.034   1.138  0.00  0.00     0.027 A 
ATOM      5  C5  DEN d   1      -0.913  -1.261   1.736  0.00  0.00    -0.003 A 
ATOM      6  C6  DEN d   1      -0.760  -2.437   1.050  0.00  0.00     0.001 A 
ATOM      7  C7  DEN d   1      -0.371  -2.412  -0.263  0.00  0.00     0.017 A 
ATOM      8  C8  DEN d   1      -0.194  -1.178  -0.875  0.00  0.00    -0.094 A 
ATOM      9  C9  DEN d   1      -0.342  -0.000  -0.162  0.00  0.00    -0.072 A 
ENDROOT
TORSDOF 0
ENDMDL
