MODEL 1
REMARK minimizedAffinity -4.7244916
REMARK minimizedRMSD -1
REMARK  0 active torsions:
REMARK  status: ('A' for Active; 'I' for Inactive)
ROOT
ATOM      1  C1  DEN d   1       1.513   0.452  -0.931  0.00  0.00     0.130 A 
ATOM      2  C2  DEN d   1       1.209   1.742  -0.316  0.00  0.00    -0.031 A 
ATOM      3  C3  DEN d   1       0.230   1.512   0.765  0.00  0.00     0.027 A 
ATOM      4  C4  DEN d   1      -0.835  -0.704   1.547  0.00  0.00     0.027 A 
ATOM      5  C5  DEN d   1      -0.895  -2.061   1.321  0.00  0.00    -0.003 A 
ATOM      6  C6  DEN d   1      -0.188  -2.666   0.316  0.00  0.00     0.001 A 
ATOM      7  C7  DEN d   1       0.645  -1.918  -0.474  0.00  0.00     0.017 A 
ATOM      8  C8  DEN d   1       0.705  -0.548  -0.257  0.00  0.00    -0.094 A 
ATOM      9  C9  DEN d   1      -0.008   0.043   0.772  0.00  0.00    -0.072 A 
ENDROOT
TORSDOF 0
ENDMDL
