MODEL 1
REMARK minimizedAffinity -4.65504742
REMARK minimizedRMSD -1
REMARK  0 active torsions:
REMARK  status: ('A' for Active; 'I' for Inactive)
ROOT
ATOM      1  C1  DEN d   1       1.208  -2.425   0.402  0.00  0.00     0.130 A 
ATOM      2  C2  DEN d   1      -0.003  -3.241   0.384  0.00  0.00    -0.031 A 
ATOM      3  C3  DEN d   1      -1.165  -2.332   0.311  0.00  0.00     0.027 A 
ATOM      4  C4  DEN d   1      -1.206   0.245   0.220  0.00  0.00     0.027 A 
ATOM      5  C5  DEN d   1      -0.426   1.381   0.222  0.00  0.00    -0.003 A 
ATOM      6  C6  DEN d   1       0.939   1.329   0.319  0.00  0.00     0.001 A 
ATOM      7  C7  DEN d   1       1.571   0.115   0.370  0.00  0.00     0.017 A 
ATOM      8  C8  DEN d   1       0.791  -1.035   0.376  0.00  0.00    -0.094 A 
ATOM      9  C9  DEN d   1      -0.587  -0.962   0.266  0.00  0.00    -0.072 A 
ENDROOT
TORSDOF 0
ENDMDL
