MODEL 1
REMARK minimizedAffinity -5.89176035
REMARK minimizedRMSD -1
REMARK  0 active torsions:
REMARK  status: ('A' for Active; 'I' for Inactive)
ROOT
ATOM      1  C1  DEN d   1       0.411  -2.474  -0.806  0.00  0.00     0.130 A 
ATOM      2  C2  DEN d   1      -0.152  -3.500   0.068  0.00  0.00    -0.031 A 
ATOM      3  C3  DEN d   1      -0.598  -2.843   1.313  0.00  0.00     0.027 A 
ATOM      4  C4  DEN d   1      -0.475  -0.351   1.968  0.00  0.00     0.027 A 
ATOM      5  C5  DEN d   1      -0.069   0.899   1.556  0.00  0.00    -0.003 A 
ATOM      6  C6  DEN d   1       0.552   1.105   0.353  0.00  0.00     0.001 A 
ATOM      7  C7  DEN d   1       0.744   0.052  -0.502  0.00  0.00     0.017 A 
ATOM      8  C8  DEN d   1       0.343  -1.213  -0.090  0.00  0.00    -0.094 A 
ATOM      9  C9  DEN d   1      -0.294  -1.399   1.125  0.00  0.00    -0.072 A 
ENDROOT
TORSDOF 0
ENDMDL
