MODEL 1
REMARK minimizedAffinity 2.35479879
REMARK minimizedRMSD -1
REMARK  0 active torsions:
REMARK  status: ('A' for Active; 'I' for Inactive)
ROOT
ATOM      1  C1  DEN d   1       0.738   1.877  -1.007  0.00  0.00     0.130 A 
ATOM      2  C2  DEN d   1       1.192   2.809   0.020  0.00  0.00    -0.031 A 
ATOM      3  C3  DEN d   1       0.870   2.228   1.339  0.00  0.00     0.027 A 
ATOM      4  C4  DEN d   1      -0.278  -0.016   1.886  0.00  0.00     0.027 A 
ATOM      5  C5  DEN d   1      -0.854  -1.144   1.344  0.00  0.00    -0.003 A 
ATOM      6  C6  DEN d   1      -0.969  -1.327  -0.008  0.00  0.00     0.001 A 
ATOM      7  C7  DEN d   1      -0.461  -0.387  -0.866  0.00  0.00     0.017 A 
ATOM      8  C8  DEN d   1       0.115   0.756  -0.327  0.00  0.00    -0.094 A 
ATOM      9  C9  DEN d   1       0.233   0.917   1.043  0.00  0.00    -0.072 A 
ENDROOT
TORSDOF 0
ENDMDL
