MODEL 1
REMARK minimizedAffinity -2.25662541
REMARK minimizedRMSD -1
REMARK  0 active torsions:
REMARK  status: ('A' for Active; 'I' for Inactive)
ROOT
ATOM      1  C1  DEN d   1       2.027   0.453  -0.046  0.00  0.00     0.130 A 
ATOM      2  C2  DEN d   1       1.430   1.784   0.024  0.00  0.00    -0.031 A 
ATOM      3  C3  DEN d   1       0.026   1.634   0.456  0.00  0.00     0.027 A 
ATOM      4  C4  DEN d   1      -1.273  -0.520   1.027  0.00  0.00     0.027 A 
ATOM      5  C5  DEN d   1      -1.193  -1.892   1.104  0.00  0.00    -0.003 A 
ATOM      6  C6  DEN d   1      -0.053  -2.577   0.773  0.00  0.00     0.001 A 
ATOM      7  C7  DEN d   1       1.067  -1.886   0.393  0.00  0.00     0.017 A 
ATOM      8  C8  DEN d   1       0.991  -0.502   0.306  0.00  0.00    -0.094 A 
ATOM      9  C9  DEN d   1      -0.166   0.172   0.656  0.00  0.00    -0.072 A 
ENDROOT
TORSDOF 0
ENDMDL
