MODEL 1
REMARK minimizedAffinity -6.80167198
REMARK minimizedRMSD -1
REMARK  0 active torsions:
REMARK  status: ('A' for Active; 'I' for Inactive)
ROOT
ATOM      1  C1  DEN d   1      -0.387  -3.395  -0.914  0.00  0.00     0.130 A 
ATOM      2  C2  DEN d   1      -0.030  -3.025  -2.280  0.00  0.00    -0.031 A 
ATOM      3  C3  DEN d   1       0.243  -1.574  -2.303  0.00  0.00     0.027 A 
ATOM      4  C4  DEN d   1       0.153   0.125  -0.365  0.00  0.00     0.027 A 
ATOM      5  C5  DEN d   1      -0.113   0.284   0.978  0.00  0.00    -0.003 A 
ATOM      6  C6  DEN d   1      -0.518  -0.758   1.770  0.00  0.00     0.001 A 
ATOM      7  C7  DEN d   1      -0.626  -2.015   1.236  0.00  0.00     0.017 A 
ATOM      8  C8  DEN d   1      -0.367  -2.181  -0.118  0.00  0.00    -0.094 A 
ATOM      9  C9  DEN d   1       0.053  -1.118  -0.900  0.00  0.00    -0.072 A 
ENDROOT
TORSDOF 0
ENDMDL
