MODEL 1
REMARK minimizedAffinity -4.00612164
REMARK minimizedRMSD -1
REMARK  0 active torsions:
REMARK  status: ('A' for Active; 'I' for Inactive)
ROOT
ATOM      1  C1  DEN d   1       1.160   1.000  -0.540  0.00  0.00     0.130 A 
ATOM      2  C2  DEN d   1       0.982   2.117   0.383  0.00  0.00    -0.031 A 
ATOM      3  C3  DEN d   1       0.113   1.663   1.487  0.00  0.00     0.027 A 
ATOM      4  C4  DEN d   1      -0.964  -0.651   1.856  0.00  0.00     0.027 A 
ATOM      5  C5  DEN d   1      -1.111  -1.918   1.335  0.00  0.00    -0.003 A 
ATOM      6  C6  DEN d   1      -0.543  -2.287   0.144  0.00  0.00     0.001 A 
ATOM      7  C7  DEN d   1       0.236  -1.393  -0.543  0.00  0.00     0.017 A 
ATOM      8  C8  DEN d   1       0.382  -0.112  -0.027  0.00  0.00    -0.094 A 
ATOM      9  C9  DEN d   1      -0.190   0.238   1.185  0.00  0.00    -0.072 A 
ENDROOT
TORSDOF 0
ENDMDL
