MODEL 1
REMARK minimizedAffinity -4.37642241
REMARK minimizedRMSD -1
REMARK  0 active torsions:
REMARK  status: ('A' for Active; 'I' for Inactive)
ROOT
ATOM      1  C1  DEN d   1       0.252   0.921   1.427  0.00  0.00     0.130 A 
ATOM      2  C2  DEN d   1       1.124   1.583   0.461  0.00  0.00    -0.031 A 
ATOM      3  C3  DEN d   1       1.395   0.632  -0.636  0.00  0.00     0.027 A 
ATOM      4  C4  DEN d   1       0.551  -1.787  -0.931  0.00  0.00     0.027 A 
ATOM      5  C5  DEN d   1      -0.206  -2.789  -0.365  0.00  0.00    -0.003 A 
ATOM      6  C6  DEN d   1      -0.829  -2.638   0.845  0.00  0.00     0.001 A 
ATOM      7  C7  DEN d   1      -0.745  -1.441   1.507  0.00  0.00     0.017 A 
ATOM      8  C8  DEN d   1       0.022  -0.429   0.946  0.00  0.00    -0.094 A 
ATOM      9  C9  DEN d   1       0.635  -0.597  -0.284  0.00  0.00    -0.072 A 
ENDROOT
TORSDOF 0
ENDMDL
