MODEL 1
REMARK minimizedAffinity -1.1904639
REMARK minimizedRMSD -1
REMARK  0 active torsions:
REMARK  status: ('A' for Active; 'I' for Inactive)
ROOT
ATOM      1  C1  DEN d   1      -0.305   0.502  -0.961  0.00  0.00     0.130 A 
ATOM      2  C2  DEN d   1      -0.016  -0.046  -2.283  0.00  0.00    -0.031 A 
ATOM      3  C3  DEN d   1       0.168  -1.505  -2.142  0.00  0.00     0.027 A 
ATOM      4  C4  DEN d   1       0.030  -2.959  -0.016  0.00  0.00     0.027 A 
ATOM      5  C5  DEN d   1      -0.179  -2.941   1.345  0.00  0.00    -0.003 A 
ATOM      6  C6  DEN d   1      -0.409  -1.779   2.033  0.00  0.00     0.001 A 
ATOM      7  C7  DEN d   1      -0.480  -0.591   1.354  0.00  0.00     0.017 A 
ATOM      8  C8  DEN d   1      -0.263  -0.601  -0.018  0.00  0.00    -0.094 A 
ATOM      9  C9  DEN d   1      -0.045  -1.788  -0.697  0.00  0.00    -0.072 A 
ENDROOT
TORSDOF 0
ENDMDL
