MODEL 1
REMARK minimizedAffinity -1.47534275
REMARK minimizedRMSD -1
REMARK  1 active torsions:
REMARK  status: ('A' for Active; 'I' for Inactive)
REMARK    1  A    between atoms: C1_2  and  C2_3 
ROOT
ATOM      1  C2  UNL d   1       0.752  -0.786   0.346  0.00  0.00    -0.077 A 
ATOM      2  C3  UNL d   1       1.210  -1.163   1.616  0.00  0.00     0.002 A 
ATOM      3  C4  UNL d   1       0.366  -1.078   2.725  0.00  0.00     0.002 A 
ATOM      4  C5  UNL d   1      -0.941  -0.620   2.574  0.00  0.00    -0.004 A 
ATOM      5  C6  UNL d   1      -1.405  -0.241   1.315  0.00  0.00     0.002 A 
ATOM      6  C7  UNL d   1      -0.563  -0.325   0.206  0.00  0.00     0.002 A 
ENDROOT
BRANCH   1   7
ATOM      7  C1  UNL d   1       1.645  -0.924  -0.860  0.00  0.00     0.055 C 
ATOM      8  C   UNL d   1       2.540   0.295  -1.028  0.00  0.00     0.019 C 
ENDBRANCH   1   7
TORSDOF 1
ENDMDL
