MODEL 1
REMARK minimizedAffinity 0.259449244
REMARK minimizedRMSD -1
REMARK  1 active torsions:
REMARK  status: ('A' for Active; 'I' for Inactive)
REMARK    1  A    between atoms: C1_2  and  C2_3 
ROOT
ATOM      1  C2  UNL d   1       0.509  -1.125   2.580  0.00  0.00    -0.077 A 
ATOM      2  C3  UNL d   1       1.618  -0.576   3.238  0.00  0.00     0.002 A 
ATOM      3  C4  UNL d   1       2.753  -0.201   2.517  0.00  0.00     0.002 A 
ATOM      4  C5  UNL d   1       2.788  -0.367   1.134  0.00  0.00    -0.004 A 
ATOM      5  C6  UNL d   1       1.690  -0.914   0.470  0.00  0.00     0.002 A 
ATOM      6  C7  UNL d   1       0.555  -1.291   1.190  0.00  0.00     0.002 A 
ENDROOT
BRANCH   1   7
ATOM      7  C1  UNL d   1      -0.735  -1.484   3.351  0.00  0.00     0.055 C 
ATOM      8  C   UNL d   1      -1.169  -2.915   3.066  0.00  0.00     0.019 C 
ENDBRANCH   1   7
TORSDOF 1
ENDMDL
