MODEL 1
REMARK minimizedAffinity -1.0775789
REMARK minimizedRMSD -1
REMARK  1 active torsions:
REMARK  status: ('A' for Active; 'I' for Inactive)
REMARK    1  A    between atoms: C1_2  and  C2_3 
ROOT
ATOM      1  C2  UNL d   1      -0.512  -1.204   1.668  0.00  0.00    -0.077 A 
ATOM      2  C3  UNL d   1       0.356  -0.891   0.612  0.00  0.00     0.002 A 
ATOM      3  C4  UNL d   1       0.066   0.169  -0.249  0.00  0.00     0.002 A 
ATOM      4  C5  UNL d   1      -1.088   0.926  -0.062  0.00  0.00    -0.004 A 
ATOM      5  C6  UNL d   1      -1.959   0.621   0.983  0.00  0.00     0.002 A 
ATOM      6  C7  UNL d   1      -1.672  -0.439   1.845  0.00  0.00     0.002 A 
ENDROOT
BRANCH   1   7
ATOM      7  C1  UNL d   1      -0.177  -2.315   2.628  0.00  0.00     0.055 C 
ATOM      8  C   UNL d   1      -1.417  -3.111   3.009  0.00  0.00     0.019 C 
ENDBRANCH   1   7
TORSDOF 1
ENDMDL
