MODEL 1
REMARK minimizedAffinity 8.68815231
REMARK minimizedRMSD -1
REMARK  1 active torsions:
REMARK  status: ('A' for Active; 'I' for Inactive)
REMARK    1  A    between atoms: C1_2  and  C2_3 
ROOT
ATOM      1  C2  UNL d   1      -4.606   1.403  -4.352  0.00  0.00    -0.077 A 
ATOM      2  C3  UNL d   1      -3.518   1.707  -3.522  0.00  0.00     0.002 A 
ATOM      3  C4  UNL d   1      -3.323   3.010  -3.062  0.00  0.00     0.002 A 
ATOM      4  C5  UNL d   1      -4.215   4.019  -3.421  0.00  0.00    -0.004 A 
ATOM      5  C6  UNL d   1      -5.299   3.727  -4.248  0.00  0.00     0.002 A 
ATOM      6  C7  UNL d   1      -5.494   2.425  -4.711  0.00  0.00     0.002 A 
ENDROOT
BRANCH   1   7
ATOM      7  C1  UNL d   1      -4.845  -0.012  -4.810  0.00  0.00     0.055 C 
ATOM      8  C   UNL d   1      -3.868  -0.412  -5.906  0.00  0.00     0.019 C 
ENDBRANCH   1   7
TORSDOF 1
ENDMDL
