MODEL 1
REMARK minimizedAffinity -3.17133093
REMARK minimizedRMSD -1
REMARK  1 active torsions:
REMARK  status: ('A' for Active; 'I' for Inactive)
REMARK    1  A    between atoms: C1_2  and  C2_3 
ROOT
ATOM      1  C2  UNL d   1      -0.930   1.089  -1.735  0.00  0.00    -0.077 A 
ATOM      2  C3  UNL d   1      -1.097  -0.302  -1.678  0.00  0.00     0.002 A 
ATOM      3  C4  UNL d   1      -0.738  -1.010  -0.529  0.00  0.00     0.002 A 
ATOM      4  C5  UNL d   1      -0.213  -0.336   0.571  0.00  0.00    -0.004 A 
ATOM      5  C6  UNL d   1      -0.041   1.047   0.524  0.00  0.00     0.002 A 
ATOM      6  C7  UNL d   1      -0.399   1.756  -0.623  0.00  0.00     0.002 A 
ENDROOT
BRANCH   1   7
ATOM      7  C1  UNL d   1      -1.362   1.861  -2.954  0.00  0.00     0.055 C 
ATOM      8  C   UNL d   1      -1.380   3.358  -2.683  0.00  0.00     0.019 C 
ENDBRANCH   1   7
TORSDOF 1
ENDMDL
