MODEL 1
REMARK minimizedAffinity -1.03939092
REMARK minimizedRMSD -1
REMARK  1 active torsions:
REMARK  status: ('A' for Active; 'I' for Inactive)
REMARK    1  A    between atoms: C1_2  and  C2_3 
ROOT
ATOM      1  C2  UNL d   1       0.077  -1.302   1.805  0.00  0.00    -0.077 A 
ATOM      2  C3  UNL d   1      -0.895  -0.424   2.304  0.00  0.00     0.002 A 
ATOM      3  C4  UNL d   1      -1.250   0.719   1.585  0.00  0.00     0.002 A 
ATOM      4  C5  UNL d   1      -0.642   0.991   0.361  0.00  0.00    -0.004 A 
ATOM      5  C6  UNL d   1       0.326   0.124  -0.143  0.00  0.00     0.002 A 
ATOM      6  C7  UNL d   1       0.684  -1.018   0.575  0.00  0.00     0.002 A 
ENDROOT
BRANCH   1   7
ATOM      7  C1  UNL d   1       0.426  -2.561   2.556  0.00  0.00     0.055 C 
ATOM      8  C   UNL d   1      -0.745  -3.532   2.582  0.00  0.00     0.019 C 
ENDBRANCH   1   7
TORSDOF 1
ENDMDL
