MODEL 1
REMARK minimizedAffinity -2.59827614
REMARK minimizedRMSD -1
REMARK  1 active torsions:
REMARK  status: ('A' for Active; 'I' for Inactive)
REMARK    1  A    between atoms: C1_2  and  C2_3 
ROOT
ATOM      1  C2  UNL d   1      -0.185  -0.218   0.769  0.00  0.00    -0.077 A 
ATOM      2  C3  UNL d   1      -0.425  -0.633   2.086  0.00  0.00     0.002 A 
ATOM      3  C4  UNL d   1       0.335  -1.658   2.653  0.00  0.00     0.002 A 
ATOM      4  C5  UNL d   1       1.342  -2.272   1.912  0.00  0.00    -0.004 A 
ATOM      5  C6  UNL d   1       1.587  -1.868   0.600  0.00  0.00     0.002 A 
ATOM      6  C7  UNL d   1       0.827  -0.845   0.031  0.00  0.00     0.002 A 
ENDROOT
BRANCH   1   7
ATOM      7  C1  UNL d   1      -0.971   0.921   0.172  0.00  0.00     0.055 C 
ATOM      8  C   UNL d   1      -0.537   1.203  -1.259  0.00  0.00     0.019 C 
ENDBRANCH   1   7
TORSDOF 1
ENDMDL
