MODEL 1
REMARK minimizedAffinity -0.0422495827
REMARK minimizedRMSD -1
REMARK  0 active torsions:
REMARK  status: ('A' for Active; 'I' for Inactive)
ROOT
ATOM      1  C   UNL d   1       1.165   0.625  -1.729  0.00  0.00     0.023 A 
ATOM      2  C1  UNL d   1       1.924   1.001  -0.621  0.00  0.00     0.003 A 
ATOM      3  C2  UNL d   1       2.124   2.354  -0.337  0.00  0.00     0.048 A 
ATOM      4  C3  UNL d   1       1.562   3.325  -1.165  0.00  0.00     0.023 A 
ATOM      5  C4  UNL d   1       0.802   2.953  -2.275  0.00  0.00     0.048 A 
ATOM      6  C5  UNL d   1       0.605   1.599  -2.555  0.00  0.00     0.003 A 
ATOM      7  I   UNL d   1       1.859   5.338  -0.745  0.00  0.00    -0.146 I 
ENDROOT
TORSDOF 0
ENDMDL
