MODEL 1
REMARK minimizedAffinity 3.58487844
REMARK minimizedRMSD -1
REMARK  0 active torsions:
REMARK  status: ('A' for Active; 'I' for Inactive)
ROOT
ATOM      1  C   UNL d   1      -1.427  -0.418   5.863  0.00  0.00     0.023 A 
ATOM      2  C1  UNL d   1      -1.155  -0.929   4.594  0.00  0.00     0.003 A 
ATOM      3  C2  UNL d   1      -1.624  -0.267   3.458  0.00  0.00     0.048 A 
ATOM      4  C3  UNL d   1      -2.365   0.906   3.598  0.00  0.00     0.023 A 
ATOM      5  C4  UNL d   1      -2.639   1.422   4.866  0.00  0.00     0.048 A 
ATOM      6  C5  UNL d   1      -2.169   0.756   5.999  0.00  0.00     0.003 A 
ATOM      7  I   UNL d   1      -3.064   1.894   1.909  0.00  0.00    -0.146 I 
ENDROOT
TORSDOF 0
ENDMDL
