MODEL 1
REMARK minimizedAffinity -2.65269232
REMARK minimizedRMSD -1
REMARK  0 active torsions:
REMARK  status: ('A' for Active; 'I' for Inactive)
ROOT
ATOM      1  C   UNL d   1       1.117   2.306  -1.884  0.00  0.00     0.023 A 
ATOM      2  C1  UNL d   1       1.306   3.649  -1.562  0.00  0.00     0.003 A 
ATOM      3  C2  UNL d   1       1.527   4.026  -0.235  0.00  0.00     0.048 A 
ATOM      4  C3  UNL d   1       1.559   3.053   0.763  0.00  0.00     0.023 A 
ATOM      5  C4  UNL d   1       1.371   1.707   0.445  0.00  0.00     0.048 A 
ATOM      6  C5  UNL d   1       1.150   1.336  -0.882  0.00  0.00     0.003 A 
ATOM      7  I   UNL d   1       1.888   3.611   2.738  0.00  0.00    -0.146 I 
ENDROOT
TORSDOF 0
ENDMDL
