MODEL 1
REMARK minimizedAffinity -3.27545118
REMARK minimizedRMSD -1
REMARK  0 active torsions:
REMARK  status: ('A' for Active; 'I' for Inactive)
ROOT
ATOM      1  C   UNL d   1       1.256   3.412  -0.324  0.00  0.00     0.023 A 
ATOM      2  C1  UNL d   1       0.970   2.586   0.763  0.00  0.00     0.003 A 
ATOM      3  C2  UNL d   1       0.953   1.199   0.602  0.00  0.00     0.048 A 
ATOM      4  C3  UNL d   1       1.224   0.645  -0.649  0.00  0.00     0.023 A 
ATOM      5  C4  UNL d   1       1.512   1.467  -1.739  0.00  0.00     0.048 A 
ATOM      6  C5  UNL d   1       1.527   2.854  -1.573  0.00  0.00     0.003 A 
ATOM      7  I   UNL d   1       1.200  -1.419  -0.891  0.00  0.00    -0.146 I 
ENDROOT
TORSDOF 0
ENDMDL
