MODEL 1
REMARK minimizedAffinity -3.45613456
REMARK minimizedRMSD -1
REMARK  0 active torsions:
REMARK  status: ('A' for Active; 'I' for Inactive)
ROOT
ATOM      1  C   UNL d   1       0.814   0.634  -0.532  0.00  0.00     0.023 A 
ATOM      2  C1  UNL d   1       0.790   1.456   0.594  0.00  0.00     0.003 A 
ATOM      3  C2  UNL d   1       1.092   2.814   0.475  0.00  0.00     0.048 A 
ATOM      4  C3  UNL d   1       1.415   3.344  -0.774  0.00  0.00     0.023 A 
ATOM      5  C4  UNL d   1       1.439   2.525  -1.904  0.00  0.00     0.048 A 
ATOM      6  C5  UNL d   1       1.138   1.168  -1.780  0.00  0.00     0.003 A 
ATOM      7  I   UNL d   1       1.864   5.365  -0.953  0.00  0.00    -0.146 I 
ENDROOT
TORSDOF 0
ENDMDL
