MODEL 1
REMARK minimizedAffinity 2.26108813
REMARK minimizedRMSD -1
REMARK  0 active torsions:
REMARK  status: ('A' for Active; 'I' for Inactive)
ROOT
ATOM      1  C   UNL d   1       1.281   1.792  -1.281  0.00  0.00     0.023 A 
ATOM      2  C1  UNL d   1       1.965   1.469  -0.109  0.00  0.00     0.003 A 
ATOM      3  C2  UNL d   1       1.994   0.149   0.343  0.00  0.00     0.048 A 
ATOM      4  C3  UNL d   1       1.337  -0.845  -0.382  0.00  0.00     0.023 A 
ATOM      5  C4  UNL d   1       0.652  -0.527  -1.556  0.00  0.00     0.048 A 
ATOM      6  C5  UNL d   1       0.625   0.795  -2.004  0.00  0.00     0.003 A 
ATOM      7  I   UNL d   1       1.378  -2.811   0.289  0.00  0.00    -0.146 I 
ENDROOT
TORSDOF 0
ENDMDL
