MODEL 1
REMARK minimizedAffinity -0.854148269
REMARK minimizedRMSD -1
REMARK  0 active torsions:
REMARK  status: ('A' for Active; 'I' for Inactive)
ROOT
ATOM      1  C   UNL d   1       0.984   0.996   0.127  0.00  0.00     0.023 A 
ATOM      2  C1  UNL d   1       1.085   1.364  -1.215  0.00  0.00     0.003 A 
ATOM      3  C2  UNL d   1       1.362   2.689  -1.558  0.00  0.00     0.048 A 
ATOM      4  C3  UNL d   1       1.537   3.641  -0.554  0.00  0.00     0.023 A 
ATOM      5  C4  UNL d   1       1.438   3.277   0.790  0.00  0.00     0.048 A 
ATOM      6  C5  UNL d   1       1.160   1.951   1.128  0.00  0.00     0.003 A 
ATOM      7  I   UNL d   1       1.949   5.614  -1.062  0.00  0.00    -0.146 I 
ENDROOT
TORSDOF 0
ENDMDL
