MODEL 1
REMARK minimizedAffinity 1.38311303
REMARK minimizedRMSD -1
REMARK  0 active torsions:
REMARK  status: ('A' for Active; 'I' for Inactive)
ROOT
ATOM      1  C   UNL d   1       0.763   0.567  -0.952  0.00  0.00     0.023 A 
ATOM      2  C1  UNL d   1       1.065   1.209   0.249  0.00  0.00     0.003 A 
ATOM      3  C2  UNL d   1       1.412   2.562   0.251  0.00  0.00     0.048 A 
ATOM      4  C3  UNL d   1       1.454   3.267  -0.951  0.00  0.00     0.023 A 
ATOM      5  C4  UNL d   1       1.152   2.629  -2.155  0.00  0.00     0.048 A 
ATOM      6  C5  UNL d   1       0.807   1.276  -2.153  0.00  0.00     0.003 A 
ATOM      7  I   UNL d   1       1.970   5.280  -0.950  0.00  0.00    -0.146 I 
ENDROOT
TORSDOF 0
ENDMDL
