MODEL 1
REMARK minimizedAffinity 0.815488994
REMARK minimizedRMSD -1
REMARK  0 active torsions:
REMARK  status: ('A' for Active; 'I' for Inactive)
ROOT
ATOM      1  C   UNL d   1       1.437   0.962  -0.906  0.00  0.00     0.023 A 
ATOM      2  C1  UNL d   1       1.411   1.643  -2.123  0.00  0.00     0.003 A 
ATOM      3  C2  UNL d   1       1.548   3.033  -2.150  0.00  0.00     0.048 A 
ATOM      4  C3  UNL d   1       1.711   3.735  -0.956  0.00  0.00     0.023 A 
ATOM      5  C4  UNL d   1       1.739   3.057   0.264  0.00  0.00     0.048 A 
ATOM      6  C5  UNL d   1       1.601   1.668   0.286  0.00  0.00     0.003 A 
ATOM      7  I   UNL d   1       1.916   5.803  -0.994  0.00  0.00    -0.146 I 
ENDROOT
TORSDOF 0
ENDMDL
