MODEL 1
REMARK minimizedAffinity 0.618623137
REMARK minimizedRMSD -1
REMARK  0 active torsions:
REMARK  status: ('A' for Active; 'I' for Inactive)
ROOT
ATOM      1  C   UNL d   1      -4.205   2.513   3.662  0.00  0.00     0.023 A 
ATOM      2  C1  UNL d   1      -3.443   1.495   3.090  0.00  0.00     0.003 A 
ATOM      3  C2  UNL d   1      -3.956   0.199   3.007  0.00  0.00     0.048 A 
ATOM      4  C3  UNL d   1      -5.233  -0.071   3.497  0.00  0.00     0.023 A 
ATOM      5  C4  UNL d   1      -6.000   0.945   4.070  0.00  0.00     0.048 A 
ATOM      6  C5  UNL d   1      -5.482   2.239   4.152  0.00  0.00     0.003 A 
ATOM      7  I   UNL d   1      -6.000  -1.999   3.375  0.00  0.00    -0.146 I 
ENDROOT
TORSDOF 0
ENDMDL
