MODEL 1
REMARK minimizedAffinity 7.92175913
REMARK minimizedRMSD -1
REMARK  0 active torsions:
REMARK  status: ('A' for Active; 'I' for Inactive)
ROOT
ATOM      1  C   UNL d   1       0.995   0.981  -1.620  0.00  0.00     0.023 A 
ATOM      2  C1  UNL d   1       0.896   1.935  -2.633  0.00  0.00     0.003 A 
ATOM      3  C2  UNL d   1       1.196   3.272  -2.366  0.00  0.00     0.048 A 
ATOM      4  C3  UNL d   1       1.597   3.648  -1.085  0.00  0.00     0.023 A 
ATOM      5  C4  UNL d   1       1.700   2.697  -0.068  0.00  0.00     0.048 A 
ATOM      6  C5  UNL d   1       1.397   1.361  -0.339  0.00  0.00     0.003 A 
ATOM      7  I   UNL d   1       2.046   5.638  -0.685  0.00  0.00    -0.146 I 
ENDROOT
TORSDOF 0
ENDMDL
