MODEL 1
REMARK minimizedAffinity 15.4312258
REMARK minimizedRMSD -1
REMARK  0 active torsions:
REMARK  status: ('A' for Active; 'I' for Inactive)
ROOT
ATOM      1  C1  DEN d   1      -5.879   3.256  -2.091  0.00  0.00     0.130 A 
ATOM      2  C2  DEN d   1      -5.082   4.331  -1.506  0.00  0.00    -0.031 A 
ATOM      3  C3  DEN d   1      -4.124   3.725  -0.559  0.00  0.00     0.027 A 
ATOM      4  C4  DEN d   1      -3.795   1.241   0.050  0.00  0.00     0.027 A 
ATOM      5  C5  DEN d   1      -4.245  -0.041  -0.180  0.00  0.00    -0.003 A 
ATOM      6  C6  DEN d   1      -5.285  -0.308  -1.030  0.00  0.00     0.001 A 
ATOM      7  C7  DEN d   1      -5.881   0.717  -1.716  0.00  0.00     0.017 A 
ATOM      8  C8  DEN d   1      -5.437   2.013  -1.484  0.00  0.00    -0.094 A 
ATOM      9  C9  DEN d   1      -4.376   2.261  -0.631  0.00  0.00    -0.072 A 
ENDROOT
TORSDOF 0
ENDMDL
