MODEL 1
REMARK minimizedAffinity 7.68816042
REMARK minimizedRMSD -1
REMARK  0 active torsions:
REMARK  status: ('A' for Active; 'I' for Inactive)
ROOT
ATOM      1  C1  DEN d   1       3.809   1.250  -0.257  0.00  0.00     0.130 A 
ATOM      2  C2  DEN d   1       2.374   1.321  -0.517  0.00  0.00    -0.031 A 
ATOM      3  C3  DEN d   1       1.735   0.151   0.119  0.00  0.00     0.027 A 
ATOM      4  C4  DEN d   1       2.824  -1.752   1.478  0.00  0.00     0.027 A 
ATOM      5  C5  DEN d   1       4.016  -2.250   1.956  0.00  0.00    -0.003 A 
ATOM      6  C6  DEN d   1       5.216  -1.641   1.703  0.00  0.00     0.001 A 
ATOM      7  C7  DEN d   1       5.246  -0.472   0.990  0.00  0.00     0.017 A 
ATOM      8  C8  DEN d   1       4.050   0.033   0.498  0.00  0.00    -0.094 A 
ATOM      9  C9  DEN d   1       2.845  -0.591   0.775  0.00  0.00    -0.072 A 
ENDROOT
TORSDOF 0
ENDMDL
