MODEL 1
REMARK minimizedAffinity 10.1758318
REMARK minimizedRMSD -1
REMARK  0 active torsions:
REMARK  status: ('A' for Active; 'I' for Inactive)
ROOT
ATOM      1  C1  DEN d   1       2.386  -2.198  -0.253  0.00  0.00     0.130 A 
ATOM      2  C2  DEN d   1       1.890  -2.211  -1.627  0.00  0.00    -0.031 A 
ATOM      3  C3  DEN d   1       1.653  -0.813  -2.039  0.00  0.00     0.027 A 
ATOM      4  C4  DEN d   1       2.011   1.359  -0.695  0.00  0.00     0.027 A 
ATOM      5  C5  DEN d   1       2.407   1.875   0.519  0.00  0.00    -0.003 A 
ATOM      6  C6  DEN d   1       2.788   1.074   1.564  0.00  0.00     0.001 A 
ATOM      7  C7  DEN d   1       2.825  -0.285   1.399  0.00  0.00     0.017 A 
ATOM      8  C8  DEN d   1       2.420  -0.813   0.180  0.00  0.00    -0.094 A 
ATOM      9  C9  DEN d   1       2.050   0.013  -0.867  0.00  0.00    -0.072 A 
ENDROOT
TORSDOF 0
ENDMDL
