MODEL 1
REMARK minimizedAffinity 18.1592426
REMARK minimizedRMSD -1
REMARK  0 active torsions:
REMARK  status: ('A' for Active; 'I' for Inactive)
ROOT
ATOM      1  C1  DEN d   1       3.258  -1.409   1.613  0.00  0.00     0.130 A 
ATOM      2  C2  DEN d   1       2.542  -2.368   0.775  0.00  0.00    -0.031 A 
ATOM      3  C3  DEN d   1       2.233  -1.709  -0.510  0.00  0.00     0.027 A 
ATOM      4  C4  DEN d   1       2.793   0.688  -1.281  0.00  0.00     0.027 A 
ATOM      5  C5  DEN d   1       3.381   1.877  -0.911  0.00  0.00    -0.003 A 
ATOM      6  C6  DEN d   1       3.933   2.065   0.328  0.00  0.00     0.001 A 
ATOM      7  C7  DEN d   1       3.950   1.031   1.227  0.00  0.00     0.017 A 
ATOM      8  C8  DEN d   1       3.354  -0.169   0.864  0.00  0.00    -0.094 A 
ATOM      9  C9  DEN d   1       2.811  -0.343  -0.398  0.00  0.00    -0.072 A 
ENDROOT
TORSDOF 0
ENDMDL
