MODEL 1
REMARK minimizedAffinity 18.7840939
REMARK minimizedRMSD -1
REMARK  0 active torsions:
REMARK  status: ('A' for Active; 'I' for Inactive)
ROOT
ATOM      1  C1  DEN d   1       4.521  -0.558   1.711  0.00  0.00     0.130 A 
ATOM      2  C2  DEN d   1       5.437   0.578   1.659  0.00  0.00    -0.031 A 
ATOM      3  C3  DEN d   1       4.913   1.541   0.669  0.00  0.00     0.027 A 
ATOM      4  C4  DEN d   1       2.781   1.386  -0.774  0.00  0.00     0.027 A 
ATOM      5  C5  DEN d   1       1.691   0.604  -1.087  0.00  0.00    -0.003 A 
ATOM      6  C6  DEN d   1       1.488  -0.625  -0.518  0.00  0.00     0.001 A 
ATOM      7  C7  DEN d   1       2.364  -1.089   0.427  0.00  0.00     0.017 A 
ATOM      8  C8  DEN d   1       3.469  -0.309   0.742  0.00  0.00    -0.094 A 
ATOM      9  C9  DEN d   1       3.651   0.936   0.165  0.00  0.00    -0.072 A 
ENDROOT
TORSDOF 0
ENDMDL
