MODEL 1
REMARK minimizedAffinity 10.4682293
REMARK minimizedRMSD -1
REMARK  0 active torsions:
REMARK  status: ('A' for Active; 'I' for Inactive)
ROOT
ATOM      1  C1  DEN d   1      -4.579   0.087  -5.999  0.00  0.00     0.130 A 
ATOM      2  C2  DEN d   1      -5.741   0.686  -5.349  0.00  0.00    -0.031 A 
ATOM      3  C3  DEN d   1      -5.396   0.932  -3.935  0.00  0.00     0.027 A 
ATOM      4  C4  DEN d   1      -3.186   0.450  -2.695  0.00  0.00     0.027 A 
ATOM      5  C5  DEN d   1      -1.915  -0.064  -2.826  0.00  0.00    -0.003 A 
ATOM      6  C6  DEN d   1      -1.458  -0.591  -4.005  0.00  0.00     0.001 A 
ATOM      7  C7  DEN d   1      -2.263  -0.574  -5.113  0.00  0.00     0.017 A 
ATOM      8  C8  DEN d   1      -3.549  -0.064  -4.987  0.00  0.00    -0.094 A 
ATOM      9  C9  DEN d   1      -3.988   0.475  -3.790  0.00  0.00    -0.072 A 
ENDROOT
TORSDOF 0
ENDMDL
