MODEL 1
REMARK minimizedAffinity 16.8725262
REMARK minimizedRMSD -1
REMARK  0 active torsions:
REMARK  status: ('A' for Active; 'I' for Inactive)
ROOT
ATOM      1  C1  DEN d   1       3.400   2.987   3.238  0.00  0.00     0.130 A 
ATOM      2  C2  DEN d   1       3.897   4.142   2.494  0.00  0.00    -0.031 A 
ATOM      3  C3  DEN d   1       3.173   5.338   2.971  0.00  0.00     0.027 A 
ATOM      4  C4  DEN d   1       1.344   5.513   4.781  0.00  0.00     0.027 A 
ATOM      5  C5  DEN d   1       0.583   4.800   5.681  0.00  0.00    -0.003 A 
ATOM      6  C6  DEN d   1       0.683   3.439   5.804  0.00  0.00     0.001 A 
ATOM      7  C7  DEN d   1       1.595   2.754   5.047  0.00  0.00     0.017 A 
ATOM      8  C8  DEN d   1       2.361   3.465   4.132  0.00  0.00    -0.094 A 
ATOM      9  C9  DEN d   1       2.254   4.842   4.031  0.00  0.00    -0.072 A 
ENDROOT
TORSDOF 0
ENDMDL
