MODEL 1
REMARK minimizedAffinity -4.52436352
REMARK minimizedRMSD -1
REMARK  2 active torsions:
REMARK  status: ('A' for Active; 'I' for Inactive)
REMARK    1  A    between atoms: C1_2  and  C2_3 
REMARK    2  A    between atoms: C2_3  and  C3_4 
ROOT
ATOM      1  C3  UNL d   1      -0.577  -0.067   0.243  0.00  0.00    -0.075 A 
ATOM      2  C4  UNL d   1       0.203   1.093   0.129  0.00  0.00     0.002 A 
ATOM      3  C5  UNL d   1       1.567   1.062   0.422  0.00  0.00     0.002 A 
ATOM      4  C6  UNL d   1       2.165  -0.124   0.842  0.00  0.00    -0.004 A 
ATOM      5  C7  UNL d   1       1.396  -1.279   0.975  0.00  0.00     0.002 A 
ATOM      6  C8  UNL d   1       0.033  -1.251   0.678  0.00  0.00     0.002 A 
ENDROOT
BRANCH   1   7
ATOM      7  C2  UNL d   1      -2.047  -0.046  -0.101  0.00  0.00     0.056 C 
BRANCH   7   8
ATOM      8  C1  UNL d   1      -2.356   0.534  -1.485  0.00  0.00     0.007 C 
ATOM      9  C   UNL d   1      -2.563  -0.534  -2.551  0.00  0.00     0.009 C 
ENDBRANCH   7   8
ENDBRANCH   1   7
TORSDOF 2
ENDMDL
