MODEL 1
REMARK minimizedAffinity -3.60893369
REMARK minimizedRMSD -1
REMARK  2 active torsions:
REMARK  status: ('A' for Active; 'I' for Inactive)
REMARK    1  A    between atoms: C1_2  and  C2_3 
REMARK    2  A    between atoms: C2_3  and  C3_4 
ROOT
ATOM      1  C3  UNL d   1      -0.573   0.156  -0.507  0.00  0.00    -0.075 A 
ATOM      2  C4  UNL d   1      -1.898   0.530  -0.241  0.00  0.00     0.002 A 
ATOM      3  C5  UNL d   1      -2.831   0.615  -1.275  0.00  0.00     0.002 A 
ATOM      4  C6  UNL d   1      -2.450   0.339  -2.586  0.00  0.00    -0.004 A 
ATOM      5  C7  UNL d   1      -1.132  -0.018  -2.864  0.00  0.00     0.002 A 
ATOM      6  C8  UNL d   1      -0.197  -0.108  -1.830  0.00  0.00     0.002 A 
ENDROOT
BRANCH   1   7
ATOM      7  C2  UNL d   1       0.434   0.034   0.612  0.00  0.00     0.056 C 
BRANCH   7   8
ATOM      8  C1  UNL d   1       1.696   0.879   0.410  0.00  0.00     0.007 C 
ATOM      9  C   UNL d   1       2.844   0.470   1.323  0.00  0.00     0.009 C 
ENDBRANCH   7   8
ENDBRANCH   1   7
TORSDOF 2
ENDMDL
