MODEL 1
REMARK minimizedAffinity 0.305805862
REMARK minimizedRMSD -1
REMARK  2 active torsions:
REMARK  status: ('A' for Active; 'I' for Inactive)
REMARK    1  A    between atoms: C1_2  and  C2_3 
REMARK    2  A    between atoms: C2_3  and  C3_4 
ROOT
ATOM      1  C3  UNL d   1      -0.332  -0.335   0.850  0.00  0.00    -0.075 A 
ATOM      2  C4  UNL d   1       0.107  -0.531  -0.467  0.00  0.00     0.002 A 
ATOM      3  C5  UNL d   1       0.934   0.408  -1.085  0.00  0.00     0.002 A 
ATOM      4  C6  UNL d   1       1.323   1.556  -0.399  0.00  0.00    -0.004 A 
ATOM      5  C7  UNL d   1       0.879   1.769   0.904  0.00  0.00     0.002 A 
ATOM      6  C8  UNL d   1       0.055   0.829   1.526  0.00  0.00     0.002 A 
ENDROOT
BRANCH   1   7
ATOM      7  C2  UNL d   1      -1.203  -1.361   1.535  0.00  0.00     0.056 C 
BRANCH   7   8
ATOM      8  C1  UNL d   1      -0.456  -2.631   1.957  0.00  0.00     0.007 C 
ATOM      9  C   UNL d   1       0.818  -2.346   2.740  0.00  0.00     0.009 C 
ENDBRANCH   7   8
ENDBRANCH   1   7
TORSDOF 2
ENDMDL
