MODEL 1
REMARK minimizedAffinity -2.95677018
REMARK minimizedRMSD -1
REMARK  2 active torsions:
REMARK  status: ('A' for Active; 'I' for Inactive)
REMARK    1  A    between atoms: C1_2  and  C2_3 
REMARK    2  A    between atoms: C2_3  and  C3_4 
ROOT
ATOM      1  C3  UNL d   1      -0.217   0.393   0.203  0.00  0.00    -0.075 A 
ATOM      2  C4  UNL d   1       0.504  -0.226   1.235  0.00  0.00     0.002 A 
ATOM      3  C5  UNL d   1       1.811   0.170   1.523  0.00  0.00     0.002 A 
ATOM      4  C6  UNL d   1       2.416   1.180   0.778  0.00  0.00    -0.004 A 
ATOM      5  C7  UNL d   1       1.715   1.790  -0.259  0.00  0.00     0.002 A 
ATOM      6  C8  UNL d   1       0.406   1.399  -0.547  0.00  0.00     0.002 A 
ENDROOT
BRANCH   1   7
ATOM      7  C2  UNL d   1      -1.641  -0.011  -0.094  0.00  0.00     0.056 C 
BRANCH   7   8
ATOM      8  C1  UNL d   1      -2.404   0.992  -0.966  0.00  0.00     0.007 C 
ATOM      9  C   UNL d   1      -2.839   0.414  -2.306  0.00  0.00     0.009 C 
ENDBRANCH   7   8
ENDBRANCH   1   7
TORSDOF 2
ENDMDL
