MODEL 1
REMARK minimizedAffinity 14.6664925
REMARK minimizedRMSD -1
REMARK  2 active torsions:
REMARK  status: ('A' for Active; 'I' for Inactive)
REMARK    1  A    between atoms: C1_2  and  C2_3 
REMARK    2  A    between atoms: C2_3  and  C3_4 
ROOT
ATOM      1  C3  UNL d   1      -2.813   1.237  -3.351  0.00  0.00    -0.075 A 
ATOM      2  C4  UNL d   1      -3.030   0.427  -4.475  0.00  0.00     0.002 A 
ATOM      3  C5  UNL d   1      -2.579  -0.893  -4.494  0.00  0.00     0.002 A 
ATOM      4  C6  UNL d   1      -1.898  -1.416  -3.397  0.00  0.00    -0.004 A 
ATOM      5  C7  UNL d   1      -1.662  -0.615  -2.281  0.00  0.00     0.002 A 
ATOM      6  C8  UNL d   1      -2.117   0.704  -2.257  0.00  0.00     0.002 A 
ENDROOT
BRANCH   1   7
ATOM      7  C2  UNL d   1      -3.325   2.657  -3.312  0.00  0.00     0.056 C 
BRANCH   7   8
ATOM      8  C1  UNL d   1      -4.148   2.989  -2.062  0.00  0.00     0.007 C 
ATOM      9  C   UNL d   1      -4.523   4.462  -1.965  0.00  0.00     0.009 C 
ENDBRANCH   7   8
ENDBRANCH   1   7
TORSDOF 2
ENDMDL
