MODEL 1
REMARK minimizedAffinity -4.41191101
REMARK minimizedRMSD -1
REMARK  0 active torsions:
REMARK  status: ('A' for Active; 'I' for Inactive)
ROOT
ATOM      1  C2' OXE d   1       2.722  -1.648   1.193  0.00  0.00     0.078 C 
ATOM      2  C1' OXE d   1       2.044   1.066   1.433  0.00  0.00     0.078 C 
ATOM      3  C1  OXE d   1       1.172   0.197   0.561  0.00  0.00    -0.078 A 
ATOM      4  C2  OXE d   1       1.539  -1.119   0.412  0.00  0.00    -0.078 A 
ATOM      5  C3  OXE d   1       0.739  -1.977  -0.337  0.00  0.00     0.003 A 
ATOM      6  C4  OXE d   1      -0.349  -1.478  -1.065  0.00  0.00    -0.002 A 
ATOM      7  C5  OXE d   1      -0.716  -0.133  -0.959  0.00  0.00    -0.002 A 
ATOM      8  C6  OXE d   1       0.007   0.707  -0.119  0.00  0.00     0.003 A 
ENDROOT
TORSDOF 0
ENDMDL
