MODEL 1
REMARK minimizedAffinity -4.12660742
REMARK minimizedRMSD -1
REMARK  0 active torsions:
REMARK  status: ('A' for Active; 'I' for Inactive)
ROOT
ATOM      1  C2' OXE d   1      -0.395  -1.860  -0.574  0.00  0.00     0.078 C 
ATOM      2  C1' OXE d   1       2.229  -1.546   0.374  0.00  0.00     0.078 C 
ATOM      3  C1  OXE d   1       1.467  -0.303  -0.013  0.00  0.00    -0.078 A 
ATOM      4  C2  OXE d   1       0.201  -0.470  -0.520  0.00  0.00    -0.078 A 
ATOM      5  C3  OXE d   1      -0.566   0.647  -0.841  0.00  0.00     0.003 A 
ATOM      6  C4  OXE d   1      -0.004   1.929  -0.798  0.00  0.00    -0.002 A 
ATOM      7  C5  OXE d   1       1.298   2.117  -0.323  0.00  0.00    -0.002 A 
ATOM      8  C6  OXE d   1       2.030   1.019   0.113  0.00  0.00     0.003 A 
ENDROOT
TORSDOF 0
ENDMDL
