MODEL 1
REMARK minimizedAffinity -5.1759119
REMARK minimizedRMSD -1
REMARK  0 active torsions:
REMARK  status: ('A' for Active; 'I' for Inactive)
ROOT
ATOM      1  C2' OXE d   1       2.969  -1.149   0.889  0.00  0.00     0.078 C 
ATOM      2  C1' OXE d   1       1.103  -2.748  -0.467  0.00  0.00     0.078 C 
ATOM      3  C1  OXE d   1       0.760  -1.295  -0.251  0.00  0.00    -0.078 A 
ATOM      4  C2  OXE d   1       1.658  -0.531   0.454  0.00  0.00    -0.078 A 
ATOM      5  C3  OXE d   1       1.416   0.828   0.634  0.00  0.00     0.003 A 
ATOM      6  C4  OXE d   1       0.196   1.389   0.237  0.00  0.00    -0.002 A 
ATOM      7  C5  OXE d   1      -0.750   0.619  -0.448  0.00  0.00    -0.002 A 
ATOM      8  C6  OXE d   1      -0.466  -0.711  -0.737  0.00  0.00     0.003 A 
ENDROOT
TORSDOF 0
ENDMDL
