MODEL 1
REMARK minimizedAffinity -4.724226
REMARK minimizedRMSD -1
REMARK  0 active torsions:
REMARK  status: ('A' for Active; 'I' for Inactive)
ROOT
ATOM      1  C2' OXE d   1       2.024   1.481   0.670  0.00  0.00     0.078 C 
ATOM      2  C1' OXE d   1       2.266  -1.311   0.507  0.00  0.00     0.078 C 
ATOM      3  C1  OXE d   1       0.930  -0.700   0.168  0.00  0.00    -0.078 A 
ATOM      4  C2  OXE d   1       0.807   0.663   0.295  0.00  0.00    -0.078 A 
ATOM      5  C3  OXE d   1      -0.388   1.283  -0.057  0.00  0.00     0.003 A 
ATOM      6  C4  OXE d   1      -1.512   0.518  -0.393  0.00  0.00    -0.002 A 
ATOM      7  C5  OXE d   1      -1.419  -0.874  -0.490  0.00  0.00    -0.002 A 
ATOM      8  C6  OXE d   1      -0.197  -1.494  -0.255  0.00  0.00     0.003 A 
ENDROOT
TORSDOF 0
ENDMDL
