MODEL 1
REMARK minimizedAffinity -3.63407207
REMARK minimizedRMSD -1
REMARK  0 active torsions:
REMARK  status: ('A' for Active; 'I' for Inactive)
ROOT
ATOM      1  C2' OXE d   1       1.407   2.879  -0.451  0.00  0.00     0.078 C 
ATOM      2  C1' OXE d   1       3.715   1.283  -0.393  0.00  0.00     0.078 C 
ATOM      3  C1  OXE d   1       2.381   0.586  -0.491  0.00  0.00    -0.078 A 
ATOM      4  C2  OXE d   1       1.255   1.373  -0.471  0.00  0.00    -0.078 A 
ATOM      5  C3  OXE d   1       0.001   0.785  -0.614  0.00  0.00     0.003 A 
ATOM      6  C4  OXE d   1      -0.132  -0.609  -0.623  0.00  0.00    -0.002 A 
ATOM      7  C5  OXE d   1       1.001  -1.430  -0.604  0.00  0.00    -0.002 A 
ATOM      8  C6  OXE d   1       2.264  -0.848  -0.581  0.00  0.00     0.003 A 
ENDROOT
TORSDOF 0
ENDMDL
