MODEL 1
REMARK minimizedAffinity -4.21363401
REMARK minimizedRMSD -1
REMARK  0 active torsions:
REMARK  status: ('A' for Active; 'I' for Inactive)
ROOT
ATOM      1  C2' OXE d   1      -0.655   0.550  -0.368  0.00  0.00     0.078 C 
ATOM      2  C1' OXE d   1       1.513   2.333  -0.325  0.00  0.00     0.078 C 
ATOM      3  C1  OXE d   1       1.817   0.858  -0.400  0.00  0.00    -0.078 A 
ATOM      4  C2  OXE d   1       0.752  -0.010  -0.373  0.00  0.00    -0.078 A 
ATOM      5  C3  OXE d   1       0.974  -1.378  -0.495  0.00  0.00     0.003 A 
ATOM      6  C4  OXE d   1       2.278  -1.888  -0.489  0.00  0.00    -0.002 A 
ATOM      7  C5  OXE d   1       3.378  -1.024  -0.477  0.00  0.00    -0.002 A 
ATOM      8  C6  OXE d   1       3.165   0.350  -0.475  0.00  0.00     0.003 A 
ENDROOT
TORSDOF 0
ENDMDL
