MODEL 1
REMARK minimizedAffinity -5.53614235
REMARK minimizedRMSD -1
REMARK  0 active torsions:
REMARK  status: ('A' for Active; 'I' for Inactive)
ROOT
ATOM      1  C2' OXE d   1      -0.312  -0.065   0.040  0.00  0.00     0.078 C 
ATOM      2  C1' OXE d   1       1.063   2.357  -0.313  0.00  0.00     0.078 C 
ATOM      3  C1  OXE d   1       1.873   1.132   0.030  0.00  0.00    -0.078 A 
ATOM      4  C2  OXE d   1       1.187  -0.039   0.247  0.00  0.00    -0.078 A 
ATOM      5  C3  OXE d   1       1.890  -1.211   0.512  0.00  0.00     0.003 A 
ATOM      6  C4  OXE d   1       3.276  -1.177   0.711  0.00  0.00    -0.002 A 
ATOM      7  C5  OXE d   1       3.989   0.014   0.534  0.00  0.00    -0.002 A 
ATOM      8  C6  OXE d   1       3.309   1.165   0.153  0.00  0.00     0.003 A 
ENDROOT
TORSDOF 0
ENDMDL
