MODEL 1
REMARK minimizedAffinity -6.05927849
REMARK minimizedRMSD -1
REMARK  0 active torsions:
REMARK  status: ('A' for Active; 'I' for Inactive)
ROOT
ATOM      1  C   UNL d   1       2.058  -2.725   2.212  0.00  0.00     0.077 C 
ATOM      2  C1  UNL d   1       1.567  -1.462   1.569  0.00  0.00    -0.074 A 
ATOM      3  C2  UNL d   1       2.394  -0.338   1.469  0.00  0.00    -0.005 A 
ATOM      4  C3  UNL d   1       1.927   0.826   0.859  0.00  0.00     0.006 A 
ATOM      5  C4  UNL d   1       0.631   0.879   0.345  0.00  0.00    -0.005 A 
ATOM      6  C5  UNL d   1      -0.210  -0.235   0.436  0.00  0.00    -0.074 A 
ATOM      7  C6  UNL d   1      -1.602  -0.198  -0.121  0.00  0.00     0.077 C 
ATOM      8  C7  UNL d   1       0.269  -1.403   1.043  0.00  0.00    -0.001 A 
ENDROOT
TORSDOF 0
ENDMDL
