MODEL 1
REMARK minimizedAffinity -0.980554283
REMARK minimizedRMSD -1
REMARK  0 active torsions:
REMARK  status: ('A' for Active; 'I' for Inactive)
ROOT
ATOM      1  C   UNL d   1      -1.252  -2.347   1.474  0.00  0.00     0.077 C 
ATOM      2  C1  UNL d   1      -0.368  -1.233   0.997  0.00  0.00    -0.074 A 
ATOM      3  C2  UNL d   1      -0.913  -0.073   0.437  0.00  0.00    -0.005 A 
ATOM      4  C3  UNL d   1      -0.079   0.959   0.006  0.00  0.00     0.006 A 
ATOM      5  C4  UNL d   1       1.306   0.840   0.130  0.00  0.00    -0.005 A 
ATOM      6  C5  UNL d   1       1.869  -0.312   0.688  0.00  0.00    -0.074 A 
ATOM      7  C6  UNL d   1       3.355  -0.451   0.838  0.00  0.00     0.077 C 
ATOM      8  C7  UNL d   1       1.024  -1.341   1.125  0.00  0.00    -0.001 A 
ENDROOT
TORSDOF 0
ENDMDL
