MODEL 1
REMARK minimizedAffinity -4.20478773
REMARK minimizedRMSD -1
REMARK  0 active torsions:
REMARK  status: ('A' for Active; 'I' for Inactive)
ROOT
ATOM      1  C   UNL d   1       3.593  -0.614   1.290  0.00  0.00     0.077 C 
ATOM      2  C1  UNL d   1       2.119  -0.558   1.020  0.00  0.00    -0.074 A 
ATOM      3  C2  UNL d   1       1.322  -1.701   1.144  0.00  0.00    -0.005 A 
ATOM      4  C3  UNL d   1      -0.049  -1.632   0.899  0.00  0.00     0.006 A 
ATOM      5  C4  UNL d   1      -0.637  -0.422   0.528  0.00  0.00    -0.005 A 
ATOM      6  C5  UNL d   1       0.143   0.731   0.401  0.00  0.00    -0.074 A 
ATOM      7  C6  UNL d   1      -0.474   2.042   0.013  0.00  0.00     0.077 C 
ATOM      8  C7  UNL d   1       1.520   0.655   0.655  0.00  0.00    -0.001 A 
ENDROOT
TORSDOF 0
ENDMDL
