MODEL 1
REMARK minimizedAffinity -3.5473597
REMARK minimizedRMSD -1
REMARK  0 active torsions:
REMARK  status: ('A' for Active; 'I' for Inactive)
ROOT
ATOM      1  C   UNL d   1      -1.283   0.770  -0.566  0.00  0.00     0.077 C 
ATOM      2  C1  UNL d   1       0.024   0.401   0.069  0.00  0.00    -0.074 A 
ATOM      3  C2  UNL d   1       1.141   1.235  -0.045  0.00  0.00    -0.005 A 
ATOM      4  C3  UNL d   1       2.347   0.883   0.559  0.00  0.00     0.006 A 
ATOM      5  C4  UNL d   1       2.449  -0.306   1.284  0.00  0.00    -0.005 A 
ATOM      6  C5  UNL d   1       1.344  -1.152   1.410  0.00  0.00    -0.074 A 
ATOM      7  C6  UNL d   1       1.434  -2.428   2.193  0.00  0.00     0.077 C 
ATOM      8  C7  UNL d   1       0.133  -0.788   0.805  0.00  0.00    -0.001 A 
ENDROOT
TORSDOF 0
ENDMDL
