MODEL 1
REMARK minimizedAffinity -3.79803801
REMARK minimizedRMSD -1
REMARK  0 active torsions:
REMARK  status: ('A' for Active; 'I' for Inactive)
ROOT
ATOM      1  C   UNL d   1       1.496  -2.601   1.497  0.00  0.00     0.077 C 
ATOM      2  C1  UNL d   1       1.389  -1.285   0.785  0.00  0.00    -0.074 A 
ATOM      3  C2  UNL d   1       2.455  -0.379   0.785  0.00  0.00    -0.005 A 
ATOM      4  C3  UNL d   1       2.344   0.837   0.111  0.00  0.00     0.006 A 
ATOM      5  C4  UNL d   1       1.169   1.159  -0.569  0.00  0.00    -0.005 A 
ATOM      6  C5  UNL d   1       0.093   0.266  -0.580  0.00  0.00    -0.074 A 
ATOM      7  C6  UNL d   1      -1.174   0.592  -1.314  0.00  0.00     0.077 C 
ATOM      8  C7  UNL d   1       0.214  -0.957   0.094  0.00  0.00    -0.001 A 
ENDROOT
TORSDOF 0
ENDMDL
