MODEL 1
REMARK minimizedAffinity -4.58612871
REMARK minimizedRMSD -1
REMARK  0 active torsions:
REMARK  status: ('A' for Active; 'I' for Inactive)
ROOT
ATOM      1  C   UNL d   1       3.298  -1.373   1.010  0.00  0.00     0.077 C 
ATOM      2  C1  UNL d   1       2.246  -0.355   0.681  0.00  0.00    -0.074 A 
ATOM      3  C2  UNL d   1       2.405   0.986   1.044  0.00  0.00    -0.005 A 
ATOM      4  C3  UNL d   1       1.422   1.922   0.723  0.00  0.00     0.006 A 
ATOM      5  C4  UNL d   1       0.273   1.528   0.037  0.00  0.00    -0.005 A 
ATOM      6  C5  UNL d   1       0.097   0.191  -0.334  0.00  0.00    -0.074 A 
ATOM      7  C6  UNL d   1      -1.128  -0.248  -1.081  0.00  0.00     0.077 C 
ATOM      8  C7  UNL d   1       1.092  -0.743  -0.014  0.00  0.00    -0.001 A 
ENDROOT
TORSDOF 0
ENDMDL
