MODEL 1
REMARK minimizedAffinity -1.78400433
REMARK minimizedRMSD -1
REMARK  0 active torsions:
REMARK  status: ('A' for Active; 'I' for Inactive)
ROOT
ATOM      1  C   UNL d   1       0.513  -2.422   1.273  0.00  0.00     0.077 C 
ATOM      2  C1  UNL d   1       1.080  -1.106   0.828  0.00  0.00    -0.074 A 
ATOM      3  C2  UNL d   1       2.417  -0.997   0.432  0.00  0.00    -0.005 A 
ATOM      4  C3  UNL d   1       2.928   0.231   0.012  0.00  0.00     0.006 A 
ATOM      5  C4  UNL d   1       2.108   1.360  -0.017  0.00  0.00    -0.005 A 
ATOM      6  C5  UNL d   1       0.769   1.270   0.375  0.00  0.00    -0.074 A 
ATOM      7  C6  UNL d   1      -0.128   2.471   0.340  0.00  0.00     0.077 C 
ATOM      8  C7  UNL d   1       0.261   0.031   0.789  0.00  0.00    -0.001 A 
ENDROOT
TORSDOF 0
ENDMDL
