MODEL 1
REMARK minimizedAffinity -3.4282248
REMARK minimizedRMSD -1
REMARK  1 active torsions:
REMARK  status: ('A' for Active; 'I' for Inactive)
REMARK    1  A    between atoms: C1_2  and  C2_3 
ROOT
ATOM      1  C2  UNL d   1       0.736  -1.359  -1.053  0.00  0.00    -0.073 A 
ATOM      2  C3  UNL d   1       0.762  -0.595  -2.225  0.00  0.00    -0.002 A 
ATOM      3  C4  UNL d   1       0.409   0.755  -2.195  0.00  0.00     0.004 A 
ATOM      4  C5  UNL d   1       0.033   1.356  -0.994  0.00  0.00    -0.004 A 
ATOM      5  C6  UNL d   1       0.012   0.612   0.190  0.00  0.00    -0.075 A 
ATOM      6  C7  UNL d   1      -0.392   1.243   1.491  0.00  0.00     0.076 C 
ATOM      7  C8  UNL d   1       0.365  -0.743   0.152  0.00  0.00     0.001 A 
ENDROOT
BRANCH   1   8
ATOM      8  C1  UNL d   1       1.123  -2.815  -1.079  0.00  0.00     0.053 C 
ATOM      9  C   UNL d   1       0.124  -3.684  -0.331  0.00  0.00     0.018 C 
ENDBRANCH   1   8
TORSDOF 1
ENDMDL
