MODEL 1
REMARK minimizedAffinity -2.64682555
REMARK minimizedRMSD -1
REMARK  1 active torsions:
REMARK  status: ('A' for Active; 'I' for Inactive)
REMARK    1  A    between atoms: C1_2  and  C2_3 
ROOT
ATOM      1  C2  UNL d   1       0.738  -2.330  -0.876  0.00  0.00    -0.073 A 
ATOM      2  C3  UNL d   1      -0.445  -2.687  -1.532  0.00  0.00    -0.002 A 
ATOM      3  C4  UNL d   1      -0.888  -4.010  -1.517  0.00  0.00     0.004 A 
ATOM      4  C5  UNL d   1      -0.157  -4.988  -0.841  0.00  0.00    -0.004 A 
ATOM      5  C6  UNL d   1       1.021  -4.649  -0.169  0.00  0.00    -0.075 A 
ATOM      6  C7  UNL d   1       1.820  -5.688   0.560  0.00  0.00     0.076 C 
ATOM      7  C8  UNL d   1       1.461  -3.318  -0.191  0.00  0.00     0.001 A 
ENDROOT
BRANCH   1   8
ATOM      8  C1  UNL d   1       1.217  -0.902  -0.884  0.00  0.00     0.053 C 
ATOM      9  C   UNL d   1       0.113   0.067  -1.275  0.00  0.00     0.018 C 
ENDBRANCH   1   8
TORSDOF 1
ENDMDL
