MODEL 1
REMARK minimizedAffinity 2.89703608
REMARK minimizedRMSD -1
REMARK  2 active torsions:
REMARK  status: ('A' for Active; 'I' for Inactive)
REMARK    1  A    between atoms: C1_2  and  C2_3 
REMARK    2  A    between atoms: C2_3  and  C3_4 
ROOT
ATOM      1  C3  UNL d   1       3.855  -3.341   2.381  0.00  0.00    -0.075 A 
ATOM      2  C4  UNL d   1       2.676  -2.636   2.100  0.00  0.00     0.002 A 
ATOM      3  C5  UNL d   1       2.226  -2.503   0.786  0.00  0.00     0.002 A 
ATOM      4  C6  UNL d   1       2.952  -3.064  -0.262  0.00  0.00    -0.004 A 
ATOM      5  C7  UNL d   1       4.134  -3.752   0.004  0.00  0.00     0.002 A 
ATOM      6  C8  UNL d   1       4.584  -3.890   1.318  0.00  0.00     0.002 A 
ENDROOT
BRANCH   1   7
ATOM      7  C2  UNL d   1       4.332  -3.513   3.804  0.00  0.00     0.056 C 
BRANCH   7   8
ATOM      8  C1  UNL d   1       4.622  -2.195   4.528  0.00  0.00     0.007 C 
ATOM      9  C   UNL d   1       4.967  -2.381   6.000  0.00  0.00     0.009 C 
ENDBRANCH   7   8
ENDBRANCH   1   7
TORSDOF 2
ENDMDL
