MODEL 1
REMARK minimizedAffinity -0.725691676
REMARK minimizedRMSD -1
REMARK  2 active torsions:
REMARK  status: ('A' for Active; 'I' for Inactive)
REMARK    1  A    between atoms: C1_2  and  C2_3 
REMARK    2  A    between atoms: C2_3  and  C3_4 
ROOT
ATOM      1  C3  UNL d   1      -3.478  -0.855  -3.638  0.00  0.00    -0.075 A 
ATOM      2  C4  UNL d   1      -2.562  -0.312  -4.550  0.00  0.00     0.002 A 
ATOM      3  C5  UNL d   1      -3.007   0.302  -5.721  0.00  0.00     0.002 A 
ATOM      4  C6  UNL d   1      -4.370   0.371  -6.000  0.00  0.00    -0.004 A 
ATOM      5  C7  UNL d   1      -5.289  -0.180  -5.109  0.00  0.00     0.002 A 
ATOM      6  C8  UNL d   1      -4.846  -0.790  -3.934  0.00  0.00     0.002 A 
ENDROOT
BRANCH   1   7
ATOM      7  C2  UNL d   1      -3.004  -1.493  -2.354  0.00  0.00     0.056 C 
BRANCH   7   8
ATOM      8  C1  UNL d   1      -2.678  -0.491  -1.242  0.00  0.00     0.007 C 
ATOM      9  C   UNL d   1      -3.390   0.845  -1.409  0.00  0.00     0.009 C 
ENDBRANCH   7   8
ENDBRANCH   1   7
TORSDOF 2
ENDMDL
