MODEL 1
REMARK minimizedAffinity 14.7548571
REMARK minimizedRMSD -1
REMARK  2 active torsions:
REMARK  status: ('A' for Active; 'I' for Inactive)
REMARK    1  A    between atoms: C1_2  and  C2_3 
REMARK    2  A    between atoms: C2_3  and  C3_4 
ROOT
ATOM      1  C3  UNL d   1      -3.773   3.084  -4.083  0.00  0.00    -0.075 A 
ATOM      2  C4  UNL d   1      -4.418   4.329  -4.123  0.00  0.00     0.002 A 
ATOM      3  C5  UNL d   1      -5.528   4.526  -4.945  0.00  0.00     0.002 A 
ATOM      4  C6  UNL d   1      -6.000   3.487  -5.744  0.00  0.00    -0.004 A 
ATOM      5  C7  UNL d   1      -5.357   2.251  -5.725  0.00  0.00     0.002 A 
ATOM      6  C8  UNL d   1      -4.249   2.050  -4.899  0.00  0.00     0.002 A 
ENDROOT
BRANCH   1   7
ATOM      7  C2  UNL d   1      -2.590   2.856  -3.173  0.00  0.00     0.056 C 
BRANCH   7   8
ATOM      8  C1  UNL d   1      -2.946   2.183  -1.843  0.00  0.00     0.007 C 
ATOM      9  C   UNL d   1      -3.307   0.711  -1.994  0.00  0.00     0.009 C 
ENDBRANCH   7   8
ENDBRANCH   1   7
TORSDOF 2
ENDMDL
