MODEL 1
REMARK minimizedAffinity 11.6977682
REMARK minimizedRMSD -1
REMARK  2 active torsions:
REMARK  status: ('A' for Active; 'I' for Inactive)
REMARK    1  A    between atoms: C1_2  and  C2_3 
REMARK    2  A    between atoms: C2_3  and  C3_4 
ROOT
ATOM      1  C3  UNL d   1       2.385  -0.076   1.563  0.00  0.00    -0.075 A 
ATOM      2  C4  UNL d   1       2.346   0.791   2.665  0.00  0.00     0.002 A 
ATOM      3  C5  UNL d   1       3.257   1.843   2.771  0.00  0.00     0.002 A 
ATOM      4  C6  UNL d   1       4.222   2.035   1.785  0.00  0.00    -0.004 A 
ATOM      5  C7  UNL d   1       4.280   1.170   0.694  0.00  0.00     0.002 A 
ATOM      6  C8  UNL d   1       3.367   0.120   0.583  0.00  0.00     0.002 A 
ENDROOT
BRANCH   1   7
ATOM      7  C2  UNL d   1       1.384  -1.198   1.427  0.00  0.00     0.056 C 
BRANCH   7   8
ATOM      8  C1  UNL d   1       1.847  -2.340   0.516  0.00  0.00     0.007 C 
ATOM      9  C   UNL d   1       2.852  -3.269   1.182  0.00  0.00     0.009 C 
ENDBRANCH   7   8
ENDBRANCH   1   7
TORSDOF 2
ENDMDL
