MODEL 1
REMARK minimizedAffinity 8.25838757
REMARK minimizedRMSD -1
REMARK  2 active torsions:
REMARK  status: ('A' for Active; 'I' for Inactive)
REMARK    1  A    between atoms: C1_2  and  C2_3 
REMARK    2  A    between atoms: C2_3  and  C3_4 
ROOT
ATOM      1  C3  UNL d   1       4.722  -5.077   3.371  0.00  0.00    -0.075 A 
ATOM      2  C4  UNL d   1       4.620  -5.981   4.438  0.00  0.00     0.002 A 
ATOM      3  C5  UNL d   1       4.877  -5.566   5.745  0.00  0.00     0.002 A 
ATOM      4  C6  UNL d   1       5.249  -4.247   6.000  0.00  0.00    -0.004 A 
ATOM      5  C7  UNL d   1       5.369  -3.345   4.945  0.00  0.00     0.002 A 
ATOM      6  C8  UNL d   1       5.108  -3.757   3.637  0.00  0.00     0.002 A 
ENDROOT
BRANCH   1   7
ATOM      7  C2  UNL d   1       4.417  -5.513   1.957  0.00  0.00     0.056 C 
BRANCH   7   8
ATOM      8  C1  UNL d   1       5.300  -4.849   0.896  0.00  0.00     0.007 C 
ATOM      9  C   UNL d   1       5.701  -5.795  -0.229  0.00  0.00     0.009 C 
ENDBRANCH   7   8
ENDBRANCH   1   7
TORSDOF 2
ENDMDL
