MODEL 1
REMARK minimizedAffinity 13.4874945
REMARK minimizedRMSD -1
REMARK  2 active torsions:
REMARK  status: ('A' for Active; 'I' for Inactive)
REMARK    1  A    between atoms: C1_2  and  C2_3 
REMARK    2  A    between atoms: C2_3  and  C3_4 
ROOT
ATOM      1  C3  UNL d   1      -4.593   2.137  -4.869  0.00  0.00    -0.075 A 
ATOM      2  C4  UNL d   1      -3.384   2.011  -4.168  0.00  0.00     0.002 A 
ATOM      3  C5  UNL d   1      -2.765   3.133  -3.616  0.00  0.00     0.002 A 
ATOM      4  C6  UNL d   1      -3.340   4.393  -3.764  0.00  0.00    -0.004 A 
ATOM      5  C7  UNL d   1      -4.532   4.532  -4.471  0.00  0.00     0.002 A 
ATOM      6  C8  UNL d   1      -5.156   3.411  -5.022  0.00  0.00     0.002 A 
ENDROOT
BRANCH   1   7
ATOM      7  C2  UNL d   1      -5.282   0.923  -5.444  0.00  0.00     0.056 C 
BRANCH   7   8
ATOM      8  C1  UNL d   1      -5.985   0.051  -4.398  0.00  0.00     0.007 C 
ATOM      9  C   UNL d   1      -5.598  -1.420  -4.486  0.00  0.00     0.009 C 
ENDBRANCH   7   8
ENDBRANCH   1   7
TORSDOF 2
ENDMDL
