MODEL 1
REMARK minimizedAffinity 10.9266796
REMARK minimizedRMSD -1
REMARK  2 active torsions:
REMARK  status: ('A' for Active; 'I' for Inactive)
REMARK    1  A    between atoms: C1_2  and  C2_3 
REMARK    2  A    between atoms: C2_3  and  C3_4 
ROOT
ATOM      1  C3  UNL d   1      -1.818   3.032  -3.429  0.00  0.00    -0.075 A 
ATOM      2  C4  UNL d   1      -2.659   2.503  -4.419  0.00  0.00     0.002 A 
ATOM      3  C5  UNL d   1      -3.482   1.412  -4.139  0.00  0.00     0.002 A 
ATOM      4  C6  UNL d   1      -3.468   0.830  -2.874  0.00  0.00    -0.004 A 
ATOM      5  C7  UNL d   1      -2.624   1.337  -1.888  0.00  0.00     0.002 A 
ATOM      6  C8  UNL d   1      -1.802   2.432  -2.163  0.00  0.00     0.002 A 
ENDROOT
BRANCH   1   7
ATOM      7  C2  UNL d   1      -0.947   4.232  -3.716  0.00  0.00     0.056 C 
BRANCH   7   8
ATOM      8  C1  UNL d   1      -0.027   4.059  -4.930  0.00  0.00     0.007 C 
ATOM      9  C   UNL d   1       0.689   5.342  -5.328  0.00  0.00     0.009 C 
ENDBRANCH   7   8
ENDBRANCH   1   7
TORSDOF 2
ENDMDL
