MODEL 1
REMARK minimizedAffinity 4.34665775
REMARK minimizedRMSD -1
REMARK  2 active torsions:
REMARK  status: ('A' for Active; 'I' for Inactive)
REMARK    1  A    between atoms: C1_2  and  C2_3 
REMARK    2  A    between atoms: C2_3  and  C3_4 
ROOT
ATOM      1  C3  UNL d   1       0.485  -0.761   2.568  0.00  0.00    -0.075 A 
ATOM      2  C4  UNL d   1      -0.748  -0.331   3.080  0.00  0.00     0.002 A 
ATOM      3  C5  UNL d   1      -0.858   0.905   3.718  0.00  0.00     0.002 A 
ATOM      4  C6  UNL d   1       0.262   1.720   3.861  0.00  0.00    -0.004 A 
ATOM      5  C7  UNL d   1       1.495   1.296   3.371  0.00  0.00     0.002 A 
ATOM      6  C8  UNL d   1       1.608   0.062   2.728  0.00  0.00     0.002 A 
ENDROOT
BRANCH   1   7
ATOM      7  C2  UNL d   1       0.605  -2.084   1.851  0.00  0.00     0.056 C 
BRANCH   7   8
ATOM      8  C1  UNL d   1       1.643  -2.091   0.724  0.00  0.00     0.007 C 
ATOM      9  C   UNL d   1       2.386  -3.415   0.600  0.00  0.00     0.009 C 
ENDBRANCH   7   8
ENDBRANCH   1   7
TORSDOF 2
ENDMDL
