MODEL 1
REMARK minimizedAffinity 8.1090374
REMARK minimizedRMSD -1
REMARK  2 active torsions:
REMARK  status: ('A' for Active; 'I' for Inactive)
REMARK    1  A    between atoms: C1_2  and  C2_3 
REMARK    2  A    between atoms: C2_3  and  C3_4 
ROOT
ATOM      1  C3  UNL d   1      -3.852   2.213  -3.624  0.00  0.00    -0.075 A 
ATOM      2  C4  UNL d   1      -4.711   1.174  -4.009  0.00  0.00     0.002 A 
ATOM      3  C5  UNL d   1      -5.774   1.418  -4.878  0.00  0.00     0.002 A 
ATOM      4  C6  UNL d   1      -5.998   2.704  -5.366  0.00  0.00    -0.004 A 
ATOM      5  C7  UNL d   1      -5.160   3.748  -4.978  0.00  0.00     0.002 A 
ATOM      6  C8  UNL d   1      -4.093   3.505  -4.111  0.00  0.00     0.002 A 
ENDROOT
BRANCH   1   7
ATOM      7  C2  UNL d   1      -2.682   1.949  -2.707  0.00  0.00     0.056 C 
BRANCH   7   8
ATOM      8  C1  UNL d   1      -2.920   0.815  -1.704  0.00  0.00     0.007 C 
ATOM      9  C   UNL d   1      -2.218  -0.482  -2.087  0.00  0.00     0.009 C 
ENDBRANCH   7   8
ENDBRANCH   1   7
TORSDOF 2
ENDMDL
