MODEL 1
REMARK minimizedAffinity 8.18536282
REMARK minimizedRMSD -1
REMARK  2 active torsions:
REMARK  status: ('A' for Active; 'I' for Inactive)
REMARK    1  A    between atoms: C1_2  and  C2_3 
REMARK    2  A    between atoms: C2_3  and  C3_4 
ROOT
ATOM      1  C3  UNL d   1       3.493   3.286  -5.232  0.00  0.00    -0.075 A 
ATOM      2  C4  UNL d   1       4.575   4.054  -5.688  0.00  0.00     0.002 A 
ATOM      3  C5  UNL d   1       4.405   5.404  -5.997  0.00  0.00     0.002 A 
ATOM      4  C6  UNL d   1       3.153   6.000  -5.864  0.00  0.00    -0.004 A 
ATOM      5  C7  UNL d   1       2.068   5.243  -5.428  0.00  0.00     0.002 A 
ATOM      6  C8  UNL d   1       2.236   3.893  -5.114  0.00  0.00     0.002 A 
ENDROOT
BRANCH   1   7
ATOM      7  C2  UNL d   1       3.677   1.833  -4.868  0.00  0.00     0.056 C 
BRANCH   7   8
ATOM      8  C1  UNL d   1       5.134   1.435  -4.605  0.00  0.00     0.007 C 
ATOM      9  C   UNL d   1       5.997   1.455  -5.859  0.00  0.00     0.009 C 
ENDBRANCH   7   8
ENDBRANCH   1   7
TORSDOF 2
ENDMDL
