MODEL 1
REMARK minimizedAffinity 8.22423172
REMARK minimizedRMSD -1
REMARK  0 active torsions:
REMARK  status: ('A' for Active; 'I' for Inactive)
ROOT
ATOM      1  C1  DEN d   1       4.133   1.504  -1.634  0.00  0.00     0.130 A 
ATOM      2  C2  DEN d   1       3.775   0.201  -1.079  0.00  0.00    -0.031 A 
ATOM      3  C3  DEN d   1       4.236   0.160   0.323  0.00  0.00     0.027 A 
ATOM      4  C4  DEN d   1       5.458   1.980   1.683  0.00  0.00     0.027 A 
ATOM      5  C5  DEN d   1       5.989   3.250   1.636  0.00  0.00    -0.003 A 
ATOM      6  C6  DEN d   1       5.968   4.008   0.495  0.00  0.00     0.001 A 
ATOM      7  C7  DEN d   1       5.365   3.519  -0.634  0.00  0.00     0.017 A 
ATOM      8  C8  DEN d   1       4.835   2.237  -0.596  0.00  0.00    -0.094 A 
ATOM      9  C9  DEN d   1       4.855   1.491   0.570  0.00  0.00    -0.072 A 
ENDROOT
TORSDOF 0
ENDMDL
