MODEL 1
REMARK minimizedAffinity 19.545126
REMARK minimizedRMSD -1
REMARK  0 active torsions:
REMARK  status: ('A' for Active; 'I' for Inactive)
ROOT
ATOM      1  C1  DEN d   1      -0.193  -0.380   3.238  0.00  0.00     0.130 A 
ATOM      2  C2  DEN d   1       0.867  -1.379   3.138  0.00  0.00    -0.031 A 
ATOM      3  C3  DEN d   1       1.469  -1.272   1.793  0.00  0.00     0.027 A 
ATOM      4  C4  DEN d   1       0.869   0.338  -0.130  0.00  0.00     0.027 A 
ATOM      5  C5  DEN d   1       0.029   1.358  -0.519  0.00  0.00    -0.003 A 
ATOM      6  C6  DEN d   1      -0.957   1.844   0.298  0.00  0.00     0.001 A 
ATOM      7  C7  DEN d   1      -1.100   1.340   1.564  0.00  0.00     0.017 A 
ATOM      8  C8  DEN d   1      -0.262   0.306   1.960  0.00  0.00    -0.094 A 
ATOM      9  C9  DEN d   1       0.737  -0.163   1.124  0.00  0.00    -0.072 A 
ENDROOT
TORSDOF 0
ENDMDL
