MODEL 1
REMARK minimizedAffinity 9.55812931
REMARK minimizedRMSD -1
REMARK  0 active torsions:
REMARK  status: ('A' for Active; 'I' for Inactive)
ROOT
ATOM      1  C1  DEN d   1       1.722   1.730   1.820  0.00  0.00     0.130 A 
ATOM      2  C2  DEN d   1       0.421   1.112   2.060  0.00  0.00    -0.031 A 
ATOM      3  C3  DEN d   1       0.276  -0.024   1.127  0.00  0.00     0.027 A 
ATOM      4  C4  DEN d   1       1.934  -0.883  -0.652  0.00  0.00     0.027 A 
ATOM      5  C5  DEN d   1       3.165  -0.674  -1.233  0.00  0.00    -0.003 A 
ATOM      6  C6  DEN d   1       3.980   0.363  -0.864  0.00  0.00     0.001 A 
ATOM      7  C7  DEN d   1       3.593   1.204   0.146  0.00  0.00     0.017 A 
ATOM      8  C8  DEN d   1       2.350   1.004   0.731  0.00  0.00    -0.094 A 
ATOM      9  C9  DEN d   1       1.546  -0.057   0.352  0.00  0.00    -0.072 A 
ENDROOT
TORSDOF 0
ENDMDL
