MODEL 1
REMARK minimizedAffinity 17.9498882
REMARK minimizedRMSD -1
REMARK  0 active torsions:
REMARK  status: ('A' for Active; 'I' for Inactive)
ROOT
ATOM      1  C1  DEN d   1       2.614   0.691   0.885  0.00  0.00     0.130 A 
ATOM      2  C2  DEN d   1       1.843  -0.073  -0.092  0.00  0.00    -0.031 A 
ATOM      3  C3  DEN d   1       2.630  -0.144  -1.339  0.00  0.00     0.027 A 
ATOM      4  C4  DEN d   1       4.957   0.844  -1.848  0.00  0.00     0.027 A 
ATOM      5  C5  DEN d   1       6.000   1.583  -1.335  0.00  0.00    -0.003 A 
ATOM      6  C6  DEN d   1       5.973   2.101  -0.067  0.00  0.00     0.001 A 
ATOM      7  C7  DEN d   1       4.899   1.849   0.746  0.00  0.00     0.017 A 
ATOM      8  C8  DEN d   1       3.841   1.111   0.233  0.00  0.00    -0.094 A 
ATOM      9  C9  DEN d   1       3.893   0.585  -1.047  0.00  0.00    -0.072 A 
ENDROOT
TORSDOF 0
ENDMDL
