MODEL 1
REMARK minimizedAffinity 17.9666309
REMARK minimizedRMSD -1
REMARK  0 active torsions:
REMARK  status: ('A' for Active; 'I' for Inactive)
ROOT
ATOM      1  C1  DEN d   1       5.417   2.344  -0.950  0.00  0.00     0.130 A 
ATOM      2  C2  DEN d   1       5.388   1.355   0.124  0.00  0.00    -0.031 A 
ATOM      3  C3  DEN d   1       5.572   2.066   1.405  0.00  0.00     0.027 A 
ATOM      4  C4  DEN d   1       5.891   4.591   1.828  0.00  0.00     0.027 A 
ATOM      5  C5  DEN d   1       5.997   5.825   1.227  0.00  0.00    -0.003 A 
ATOM      6  C6  DEN d   1       5.951   5.981  -0.133  0.00  0.00     0.001 A 
ATOM      7  C7  DEN d   1       5.750   4.888  -0.935  0.00  0.00     0.017 A 
ATOM      8  C8  DEN d   1       5.650   3.640  -0.336  0.00  0.00    -0.094 A 
ATOM      9  C9  DEN d   1       5.687   3.504   1.041  0.00  0.00    -0.072 A 
ENDROOT
TORSDOF 0
ENDMDL
