MODEL 1
REMARK minimizedAffinity 13.1338758
REMARK minimizedRMSD -1
REMARK  0 active torsions:
REMARK  status: ('A' for Active; 'I' for Inactive)
ROOT
ATOM      1  C1  DEN d   1       6.000   1.654   0.013  0.00  0.00     0.130 A 
ATOM      2  C2  DEN d   1       5.109   2.616  -0.630  0.00  0.00    -0.031 A 
ATOM      3  C3  DEN d   1       3.901   1.892  -1.076  0.00  0.00     0.027 A 
ATOM      4  C4  DEN d   1       3.326  -0.610  -0.830  0.00  0.00     0.027 A 
ATOM      5  C5  DEN d   1       3.777  -1.825  -0.364  0.00  0.00    -0.003 A 
ATOM      6  C6  DEN d   1       5.005  -1.971   0.226  0.00  0.00     0.001 A 
ATOM      7  C7  DEN d   1       5.806  -0.874   0.405  0.00  0.00     0.017 A 
ATOM      8  C8  DEN d   1       5.361   0.353  -0.069  0.00  0.00    -0.094 A 
ATOM      9  C9  DEN d   1       4.112   0.482  -0.651  0.00  0.00    -0.072 A 
ENDROOT
TORSDOF 0
ENDMDL
