MODEL 1
REMARK minimizedAffinity 16.7113266
REMARK minimizedRMSD -1
REMARK  0 active torsions:
REMARK  status: ('A' for Active; 'I' for Inactive)
ROOT
ATOM      1  C1  DEN d   1      -1.300  -3.893  -1.899  0.00  0.00     0.130 A 
ATOM      2  C2  DEN d   1      -1.439  -5.238  -1.349  0.00  0.00    -0.031 A 
ATOM      3  C3  DEN d   1      -0.234  -5.530  -0.547  0.00  0.00     0.027 A 
ATOM      4  C4  DEN d   1       1.820  -4.035  -0.101  0.00  0.00     0.027 A 
ATOM      5  C5  DEN d   1       2.397  -2.813  -0.365  0.00  0.00    -0.003 A 
ATOM      6  C6  DEN d   1       1.803  -1.886  -1.180  0.00  0.00     0.001 A 
ATOM      7  C7  DEN d   1       0.574  -2.148  -1.723  0.00  0.00     0.017 A 
ATOM      8  C8  DEN d   1      -0.011  -3.382  -1.468  0.00  0.00    -0.094 A 
ATOM      9  C9  DEN d   1       0.600  -4.301  -0.632  0.00  0.00    -0.072 A 
ENDROOT
TORSDOF 0
ENDMDL
