MODEL 1
REMARK minimizedAffinity -5.42891407
REMARK minimizedRMSD -1
REMARK  0 active torsions:
REMARK  status: ('A' for Active; 'I' for Inactive)
ROOT
ATOM      1  C   UNL d   1       0.727   0.032  -1.478  0.00  0.00     0.077 C 
ATOM      2  C1  UNL d   1       0.325   0.033  -0.033  0.00  0.00    -0.074 A 
ATOM      3  C2  UNL d   1       1.286  -0.028   0.981  0.00  0.00    -0.005 A 
ATOM      4  C3  UNL d   1       0.897  -0.017   2.320  0.00  0.00     0.006 A 
ATOM      5  C4  UNL d   1      -0.455   0.055   2.659  0.00  0.00    -0.005 A 
ATOM      6  C5  UNL d   1      -1.430   0.118   1.658  0.00  0.00    -0.074 A 
ATOM      7  C6  UNL d   1      -2.887   0.205   2.005  0.00  0.00     0.077 C 
ATOM      8  C7  UNL d   1      -1.031   0.113   0.315  0.00  0.00    -0.001 A 
ENDROOT
TORSDOF 0
ENDMDL
