MODEL 1
REMARK minimizedAffinity -4.06423807
REMARK minimizedRMSD -1
REMARK  0 active torsions:
REMARK  status: ('A' for Active; 'I' for Inactive)
ROOT
ATOM      1  C   UNL d   1       0.298   1.956   3.722  0.00  0.00     0.077 C 
ATOM      2  C1  UNL d   1       0.020   0.792   2.819  0.00  0.00    -0.074 A 
ATOM      3  C2  UNL d   1      -0.532  -0.391   3.320  0.00  0.00    -0.005 A 
ATOM      4  C3  UNL d   1      -0.794  -1.462   2.466  0.00  0.00     0.006 A 
ATOM      5  C4  UNL d   1      -0.507  -1.362   1.104  0.00  0.00    -0.005 A 
ATOM      6  C5  UNL d   1       0.045  -0.186   0.585  0.00  0.00    -0.074 A 
ATOM      7  C6  UNL d   1       0.351  -0.058  -0.878  0.00  0.00     0.077 C 
ATOM      8  C7  UNL d   1       0.299   0.888   1.448  0.00  0.00    -0.001 A 
ENDROOT
TORSDOF 0
ENDMDL
