MODEL 1
REMARK minimizedAffinity -4.1380558
REMARK minimizedRMSD -1
REMARK  0 active torsions:
REMARK  status: ('A' for Active; 'I' for Inactive)
ROOT
ATOM      1  C   UNL d   1       0.573   0.127  -2.354  0.00  0.00     0.077 C 
ATOM      2  C1  UNL d   1       0.005   0.082  -0.967  0.00  0.00    -0.074 A 
ATOM      3  C2  UNL d   1      -1.377   0.081  -0.756  0.00  0.00    -0.005 A 
ATOM      4  C3  UNL d   1      -1.891   0.029   0.540  0.00  0.00     0.006 A 
ATOM      5  C4  UNL d   1      -1.029  -0.023   1.636  0.00  0.00    -0.005 A 
ATOM      6  C5  UNL d   1       0.357  -0.024   1.444  0.00  0.00    -0.074 A 
ATOM      7  C6  UNL d   1       1.297  -0.089   2.611  0.00  0.00     0.077 C 
ATOM      8  C7  UNL d   1       0.865   0.022   0.139  0.00  0.00    -0.001 A 
ENDROOT
TORSDOF 0
ENDMDL
