MODEL 1
REMARK minimizedAffinity -3.39160132
REMARK minimizedRMSD -1
REMARK  0 active torsions:
REMARK  status: ('A' for Active; 'I' for Inactive)
ROOT
ATOM      1  C   UNL d   1      -0.119  -0.363   0.671  0.00  0.00     0.077 C 
ATOM      2  C1  UNL d   1       0.174  -0.245  -0.796  0.00  0.00    -0.074 A 
ATOM      3  C2  UNL d   1       0.202   1.004  -1.425  0.00  0.00    -0.005 A 
ATOM      4  C3  UNL d   1       0.485   1.099  -2.787  0.00  0.00     0.006 A 
ATOM      5  C4  UNL d   1       0.743  -0.052  -3.533  0.00  0.00    -0.005 A 
ATOM      6  C5  UNL d   1       0.720  -1.309  -2.921  0.00  0.00    -0.074 A 
ATOM      7  C6  UNL d   1       1.004  -2.555  -3.707  0.00  0.00     0.077 C 
ATOM      8  C7  UNL d   1       0.442  -1.396  -1.550  0.00  0.00    -0.001 A 
ENDROOT
TORSDOF 0
ENDMDL
