MODEL 1
REMARK minimizedAffinity -1.39644039
REMARK minimizedRMSD -1
REMARK  0 active torsions:
REMARK  status: ('A' for Active; 'I' for Inactive)
ROOT
ATOM      1  C   UNL d   1      -0.063  -0.472  -0.457  0.00  0.00     0.077 C 
ATOM      2  C1  UNL d   1      -0.299  -0.541   1.023  0.00  0.00    -0.074 A 
ATOM      3  C2  UNL d   1      -0.963  -1.631   1.595  0.00  0.00    -0.005 A 
ATOM      4  C3  UNL d   1      -1.167  -1.686   2.974  0.00  0.00     0.006 A 
ATOM      5  C4  UNL d   1      -0.709  -0.653   3.793  0.00  0.00    -0.005 A 
ATOM      6  C5  UNL d   1      -0.042   0.444   3.239  0.00  0.00    -0.074 A 
ATOM      7  C6  UNL d   1       0.465   1.557   4.107  0.00  0.00     0.077 C 
ATOM      8  C7  UNL d   1       0.165   0.488   1.854  0.00  0.00    -0.001 A 
ENDROOT
TORSDOF 0
ENDMDL
