MODEL 1
REMARK minimizedAffinity -4.51829147
REMARK minimizedRMSD -1
REMARK  0 active torsions:
REMARK  status: ('A' for Active; 'I' for Inactive)
ROOT
ATOM      1  C   UNL d   1       1.844   1.926   1.449  0.00  0.00     0.077 C 
ATOM      2  C1  UNL d   1       0.744   0.907   1.489  0.00  0.00    -0.074 A 
ATOM      3  C2  UNL d   1       0.285   0.298   0.316  0.00  0.00    -0.005 A 
ATOM      4  C3  UNL d   1      -0.732  -0.655   0.370  0.00  0.00     0.006 A 
ATOM      5  C4  UNL d   1      -1.299  -1.008   1.595  0.00  0.00    -0.005 A 
ATOM      6  C5  UNL d   1      -0.853  -0.411   2.778  0.00  0.00    -0.074 A 
ATOM      7  C6  UNL d   1      -1.445  -0.786   4.104  0.00  0.00     0.077 C 
ATOM      8  C7  UNL d   1       0.174   0.541   2.716  0.00  0.00    -0.001 A 
ENDROOT
TORSDOF 0
ENDMDL
