MODEL 1
REMARK minimizedAffinity -5.42959452
REMARK minimizedRMSD -1
REMARK  0 active torsions:
REMARK  status: ('A' for Active; 'I' for Inactive)
ROOT
ATOM      1  C   UNL d   1       0.443   0.403  -1.799  0.00  0.00     0.077 C 
ATOM      2  C1  UNL d   1       0.305   0.394  -0.306  0.00  0.00    -0.074 A 
ATOM      3  C2  UNL d   1       1.431   0.462   0.521  0.00  0.00    -0.005 A 
ATOM      4  C3  UNL d   1       1.287   0.462   1.908  0.00  0.00     0.006 A 
ATOM      5  C4  UNL d   1       0.017   0.395   2.482  0.00  0.00    -0.005 A 
ATOM      6  C5  UNL d   1      -1.121   0.328   1.672  0.00  0.00    -0.074 A 
ATOM      7  C6  UNL d   1      -2.494   0.265   2.272  0.00  0.00     0.077 C 
ATOM      8  C7  UNL d   1      -0.968   0.335   0.278  0.00  0.00    -0.001 A 
ENDROOT
TORSDOF 0
ENDMDL
