MODEL 1
REMARK minimizedAffinity -3.36230922
REMARK minimizedRMSD -1
REMARK  0 active torsions:
REMARK  status: ('A' for Active; 'I' for Inactive)
ROOT
ATOM      1  C   UNL d   1      -0.079   0.226  -1.288  0.00  0.00     0.077 C 
ATOM      2  C1  UNL d   1       0.351   0.292   0.147  0.00  0.00    -0.074 A 
ATOM      3  C2  UNL d   1       1.390   1.139   0.547  0.00  0.00    -0.005 A 
ATOM      4  C3  UNL d   1       1.774   1.197   1.887  0.00  0.00     0.006 A 
ATOM      5  C4  UNL d   1       1.123   0.410   2.839  0.00  0.00    -0.005 A 
ATOM      6  C5  UNL d   1       0.081  -0.441   2.457  0.00  0.00    -0.074 A 
ATOM      7  C6  UNL d   1      -0.636  -1.285   3.469  0.00  0.00     0.077 C 
ATOM      8  C7  UNL d   1      -0.303  -0.488   1.110  0.00  0.00    -0.001 A 
ENDROOT
TORSDOF 0
ENDMDL
