MODEL 1
REMARK minimizedAffinity -5.04985523
REMARK minimizedRMSD -1
REMARK  0 active torsions:
REMARK  status: ('A' for Active; 'I' for Inactive)
ROOT
ATOM      1  C   UNL d   1       0.744   0.044  -1.707  0.00  0.00     0.077 C 
ATOM      2  C1  UNL d   1      -0.146   0.043  -0.500  0.00  0.00    -0.074 A 
ATOM      3  C2  UNL d   1      -1.476   0.466  -0.589  0.00  0.00    -0.005 A 
ATOM      4  C3  UNL d   1      -2.295   0.451   0.541  0.00  0.00     0.006 A 
ATOM      5  C4  UNL d   1      -1.793   0.014   1.767  0.00  0.00    -0.005 A 
ATOM      6  C5  UNL d   1      -0.466  -0.413   1.874  0.00  0.00    -0.074 A 
ATOM      7  C6  UNL d   1       0.087  -0.895   3.182  0.00  0.00     0.077 C 
ATOM      8  C7  UNL d   1       0.349  -0.402   0.733  0.00  0.00    -0.001 A 
ENDROOT
TORSDOF 0
ENDMDL
