MODEL 1
REMARK minimizedAffinity -4.05336952
REMARK minimizedRMSD -1
REMARK  0 active torsions:
REMARK  status: ('A' for Active; 'I' for Inactive)
ROOT
ATOM      1  C   UNL d   1       0.132   0.485  -1.114  0.00  0.00     0.077 C 
ATOM      2  C1  UNL d   1       0.077  -0.075   0.276  0.00  0.00    -0.074 A 
ATOM      3  C2  UNL d   1      -0.097   0.762   1.382  0.00  0.00    -0.005 A 
ATOM      4  C3  UNL d   1      -0.156   0.226   2.668  0.00  0.00     0.006 A 
ATOM      5  C4  UNL d   1      -0.042  -1.152   2.861  0.00  0.00    -0.005 A 
ATOM      6  C5  UNL d   1       0.131  -2.005   1.767  0.00  0.00    -0.074 A 
ATOM      7  C6  UNL d   1       0.245  -3.489   1.955  0.00  0.00     0.077 C 
ATOM      8  C7  UNL d   1       0.182  -1.459   0.477  0.00  0.00    -0.001 A 
ENDROOT
TORSDOF 0
ENDMDL
