MODEL 1
REMARK minimizedAffinity -4.72906208
REMARK minimizedRMSD -1
REMARK  0 active torsions:
REMARK  status: ('A' for Active; 'I' for Inactive)
ROOT
ATOM      1  C   UNL d   1      -0.921  -1.457   3.097  0.00  0.00     0.077 C 
ATOM      2  C1  UNL d   1      -0.343  -0.505   2.092  0.00  0.00    -0.074 A 
ATOM      3  C2  UNL d   1      -1.021  -0.216   0.904  0.00  0.00    -0.005 A 
ATOM      4  C3  UNL d   1      -0.476   0.679  -0.017  0.00  0.00     0.006 A 
ATOM      5  C4  UNL d   1       0.751   1.291   0.240  0.00  0.00    -0.005 A 
ATOM      6  C5  UNL d   1       1.443   1.015   1.423  0.00  0.00    -0.074 A 
ATOM      7  C6  UNL d   1       2.759   1.672   1.720  0.00  0.00     0.077 C 
ATOM      8  C7  UNL d   1       0.886   0.120   2.347  0.00  0.00    -0.001 A 
ENDROOT
TORSDOF 0
ENDMDL
