MODEL 1
REMARK minimizedAffinity -5.92973804
REMARK minimizedRMSD -1
REMARK  0 active torsions:
REMARK  status: ('A' for Active; 'I' for Inactive)
ROOT
ATOM      1  C   UNL d   1      -1.357  -0.802   3.521  0.00  0.00     0.077 C 
ATOM      2  C1  UNL d   1      -0.206  -0.520   2.602  0.00  0.00    -0.074 A 
ATOM      3  C2  UNL d   1       1.082  -0.312   3.105  0.00  0.00    -0.005 A 
ATOM      4  C3  UNL d   1       2.144  -0.060   2.236  0.00  0.00     0.006 A 
ATOM      5  C4  UNL d   1       1.930  -0.014   0.858  0.00  0.00    -0.005 A 
ATOM      6  C5  UNL d   1       0.648  -0.220   0.337  0.00  0.00    -0.074 A 
ATOM      7  C6  UNL d   1       0.402  -0.184  -1.142  0.00  0.00     0.077 C 
ATOM      8  C7  UNL d   1      -0.412  -0.480   1.215  0.00  0.00    -0.001 A 
ENDROOT
TORSDOF 0
ENDMDL
