MODEL 1
REMARK minimizedAffinity -4.22675133
REMARK minimizedRMSD -1
REMARK  0 active torsions:
REMARK  status: ('A' for Active; 'I' for Inactive)
ROOT
ATOM      1  C   UNL d   1       0.790   0.371  -1.908  0.00  0.00     0.077 C 
ATOM      2  C1  UNL d   1      -0.260   0.202  -0.851  0.00  0.00    -0.074 A 
ATOM      3  C2  UNL d   1      -1.609   0.443  -1.133  0.00  0.00    -0.005 A 
ATOM      4  C3  UNL d   1      -2.576   0.272  -0.142  0.00  0.00     0.006 A 
ATOM      5  C4  UNL d   1      -2.204  -0.141   1.138  0.00  0.00    -0.005 A 
ATOM      6  C5  UNL d   1      -0.861  -0.388   1.438  0.00  0.00    -0.074 A 
ATOM      7  C6  UNL d   1      -0.446  -0.841   2.806  0.00  0.00     0.077 C 
ATOM      8  C7  UNL d   1       0.104  -0.221   0.435  0.00  0.00    -0.001 A 
ENDROOT
TORSDOF 0
ENDMDL
