MODEL 1
REMARK minimizedAffinity -4.25934505
REMARK minimizedRMSD -1
REMARK  0 active torsions:
REMARK  status: ('A' for Active; 'I' for Inactive)
ROOT
ATOM      1  C   UNL d   1       1.139   0.389   3.071  0.00  0.00     0.077 C 
ATOM      2  C1  UNL d   1       0.633   0.273   1.664  0.00  0.00    -0.074 A 
ATOM      3  C2  UNL d   1       1.506  -0.005   0.606  0.00  0.00    -0.005 A 
ATOM      4  C3  UNL d   1       1.019  -0.119  -0.696  0.00  0.00     0.006 A 
ATOM      5  C4  UNL d   1      -0.343   0.042  -0.953  0.00  0.00    -0.005 A 
ATOM      6  C5  UNL d   1      -1.231   0.319   0.091  0.00  0.00    -0.074 A 
ATOM      7  C6  UNL d   1      -2.699   0.486  -0.167  0.00  0.00     0.077 C 
ATOM      8  C7  UNL d   1      -0.735   0.426   1.398  0.00  0.00    -0.001 A 
ENDROOT
TORSDOF 0
ENDMDL
