MODEL 1
REMARK minimizedAffinity -5.90113688
REMARK minimizedRMSD -1
REMARK  0 active torsions:
REMARK  status: ('A' for Active; 'I' for Inactive)
ROOT
ATOM      1  C   UNL d   1       2.904   1.110   1.599  0.00  0.00     0.077 C 
ATOM      2  C1  UNL d   1       1.537   0.555   1.328  0.00  0.00    -0.074 A 
ATOM      3  C2  UNL d   1       0.978   0.615   0.047  0.00  0.00    -0.005 A 
ATOM      4  C3  UNL d   1      -0.290   0.086  -0.192  0.00  0.00     0.006 A 
ATOM      5  C4  UNL d   1      -1.011  -0.507   0.845  0.00  0.00    -0.005 A 
ATOM      6  C5  UNL d   1      -0.467  -0.578   2.132  0.00  0.00    -0.074 A 
ATOM      7  C6  UNL d   1      -1.225  -1.221   3.256  0.00  0.00     0.077 C 
ATOM      8  C7  UNL d   1       0.810  -0.050   2.363  0.00  0.00    -0.001 A 
ENDROOT
TORSDOF 0
ENDMDL
