MODEL 1
REMARK minimizedAffinity -4.22838211
REMARK minimizedRMSD -1
REMARK  0 active torsions:
REMARK  status: ('A' for Active; 'I' for Inactive)
ROOT
ATOM      1  C   UNL d   1      -0.367  -0.904   2.183  0.00  0.00     0.077 C 
ATOM      2  C1  UNL d   1      -0.756  -0.500   0.792  0.00  0.00    -0.074 A 
ATOM      3  C2  UNL d   1      -2.072  -0.133   0.492  0.00  0.00    -0.005 A 
ATOM      4  C3  UNL d   1      -2.417   0.250  -0.804  0.00  0.00     0.006 A 
ATOM      5  C4  UNL d   1      -1.451   0.270  -1.811  0.00  0.00    -0.005 A 
ATOM      6  C5  UNL d   1      -0.130  -0.092  -1.529  0.00  0.00    -0.074 A 
ATOM      7  C6  UNL d   1       0.922  -0.066  -2.598  0.00  0.00     0.077 C 
ATOM      8  C7  UNL d   1       0.210  -0.469  -0.223  0.00  0.00    -0.001 A 
ENDROOT
TORSDOF 0
ENDMDL
