MODEL 1
REMARK minimizedAffinity -5.12754774
REMARK minimizedRMSD -1
REMARK  0 active torsions:
REMARK  status: ('A' for Active; 'I' for Inactive)
ROOT
ATOM      1  C   UNL d   1       1.932   0.853   2.909  0.00  0.00     0.077 C 
ATOM      2  C1  UNL d   1       0.846   0.275   2.051  0.00  0.00    -0.074 A 
ATOM      3  C2  UNL d   1      -0.304  -0.278   2.623  0.00  0.00    -0.005 A 
ATOM      4  C3  UNL d   1      -1.310  -0.804   1.812  0.00  0.00     0.006 A 
ATOM      5  C4  UNL d   1      -1.176  -0.782   0.423  0.00  0.00    -0.005 A 
ATOM      6  C5  UNL d   1      -0.033  -0.232  -0.167  0.00  0.00    -0.074 A 
ATOM      7  C6  UNL d   1       0.122  -0.192  -1.658  0.00  0.00     0.077 C 
ATOM      8  C7  UNL d   1       0.970   0.300   0.654  0.00  0.00    -0.001 A 
ENDROOT
TORSDOF 0
ENDMDL
