MODEL 1
REMARK minimizedAffinity -0.69919163
REMARK minimizedRMSD -1
REMARK  0 active torsions:
REMARK  status: ('A' for Active; 'I' for Inactive)
ROOT
ATOM      1  C   UNL d   1       1.824   1.729  -1.460  0.00  0.00     0.023 A 
ATOM      2  C1  UNL d   1       2.096   0.472  -0.918  0.00  0.00     0.003 A 
ATOM      3  C2  UNL d   1       1.328  -0.014   0.141  0.00  0.00     0.048 A 
ATOM      4  C3  UNL d   1       0.288   0.761   0.654  0.00  0.00     0.023 A 
ATOM      5  C4  UNL d   1       0.011   2.018   0.114  0.00  0.00     0.048 A 
ATOM      6  C5  UNL d   1       0.783   2.501  -0.944  0.00  0.00     0.003 A 
ATOM      7  I   UNL d   1      -0.858   0.039   2.231  0.00  0.00    -0.146 I 
ENDROOT
TORSDOF 0
ENDMDL
