MODEL 1
REMARK minimizedAffinity -0.753557563
REMARK minimizedRMSD -1
REMARK  0 active torsions:
REMARK  status: ('A' for Active; 'I' for Inactive)
ROOT
ATOM      1  C   UNL d   1      -0.576   0.789   1.074  0.00  0.00     0.023 A 
ATOM      2  C1  UNL d   1      -0.119   0.939  -0.236  0.00  0.00     0.003 A 
ATOM      3  C2  UNL d   1       0.297  -0.178  -0.964  0.00  0.00     0.048 A 
ATOM      4  C3  UNL d   1       0.253  -1.442  -0.376  0.00  0.00     0.023 A 
ATOM      5  C4  UNL d   1      -0.204  -1.597   0.934  0.00  0.00     0.048 A 
ATOM      6  C5  UNL d   1      -0.618  -0.477   1.658  0.00  0.00     0.003 A 
ATOM      7  I   UNL d   1       0.871  -3.105  -1.458  0.00  0.00    -0.146 I 
ENDROOT
TORSDOF 0
ENDMDL
