MODEL 1
REMARK minimizedAffinity -3.49494267
REMARK minimizedRMSD -1
REMARK  0 active torsions:
REMARK  status: ('A' for Active; 'I' for Inactive)
ROOT
ATOM      1  C   UNL d   1      -0.628   2.101   1.653  0.00  0.00     0.023 A 
ATOM      2  C1  UNL d   1       0.097   2.319   0.482  0.00  0.00     0.003 A 
ATOM      3  C2  UNL d   1       0.533   1.236  -0.283  0.00  0.00     0.048 A 
ATOM      4  C3  UNL d   1       0.240  -0.064   0.129  0.00  0.00     0.023 A 
ATOM      5  C4  UNL d   1      -0.486  -0.287   1.300  0.00  0.00     0.048 A 
ATOM      6  C5  UNL d   1      -0.919   0.799   2.062  0.00  0.00     0.003 A 
ATOM      7  I   UNL d   1       0.889  -1.679  -1.008  0.00  0.00    -0.146 I 
ENDROOT
TORSDOF 0
ENDMDL
