MODEL 1
REMARK minimizedAffinity -2.85577083
REMARK minimizedRMSD -1
REMARK  0 active torsions:
REMARK  status: ('A' for Active; 'I' for Inactive)
ROOT
ATOM      1  C   UNL d   1      -1.118   1.503   1.776  0.00  0.00     0.023 A 
ATOM      2  C1  UNL d   1      -0.396   1.891   0.647  0.00  0.00     0.003 A 
ATOM      3  C2  UNL d   1       0.091   0.926  -0.237  0.00  0.00     0.048 A 
ATOM      4  C3  UNL d   1      -0.148  -0.425   0.014  0.00  0.00     0.023 A 
ATOM      5  C4  UNL d   1      -0.870  -0.817   1.142  0.00  0.00     0.048 A 
ATOM      6  C5  UNL d   1      -1.355   0.151   2.023  0.00  0.00     0.003 A 
ATOM      7  I   UNL d   1       0.576  -1.863  -1.300  0.00  0.00    -0.146 I 
ENDROOT
TORSDOF 0
ENDMDL
