MODEL 1
REMARK minimizedAffinity -2.33202314
REMARK minimizedRMSD -1
REMARK  0 active torsions:
REMARK  status: ('A' for Active; 'I' for Inactive)
ROOT
ATOM      1  C   UNL d   1      -0.789   2.037   1.478  0.00  0.00     0.023 A 
ATOM      2  C1  UNL d   1      -0.796   0.726   1.955  0.00  0.00     0.003 A 
ATOM      3  C2  UNL d   1      -0.337  -0.315   1.146  0.00  0.00     0.048 A 
ATOM      4  C3  UNL d   1       0.129  -0.039  -0.139  0.00  0.00     0.023 A 
ATOM      5  C4  UNL d   1       0.140   1.272  -0.620  0.00  0.00     0.048 A 
ATOM      6  C5  UNL d   1      -0.321   2.309   0.192  0.00  0.00     0.003 A 
ATOM      7  I   UNL d   1       0.814  -1.587  -1.345  0.00  0.00    -0.146 I 
ENDROOT
TORSDOF 0
ENDMDL
