MODEL 1
REMARK minimizedAffinity -1.73475444
REMARK minimizedRMSD -1
REMARK  0 active torsions:
REMARK  status: ('A' for Active; 'I' for Inactive)
ROOT
ATOM      1  C   UNL d   1      -0.006  -4.276  -2.724  0.00  0.00     0.023 A 
ATOM      2  C1  UNL d   1      -0.130  -3.197  -3.599  0.00  0.00     0.003 A 
ATOM      3  C2  UNL d   1       0.392  -1.950  -3.249  0.00  0.00     0.048 A 
ATOM      4  C3  UNL d   1       1.036  -1.789  -2.023  0.00  0.00     0.023 A 
ATOM      5  C4  UNL d   1       1.162  -2.866  -1.144  0.00  0.00     0.048 A 
ATOM      6  C5  UNL d   1       0.639  -4.111  -1.498  0.00  0.00     0.003 A 
ATOM      7  I   UNL d   1       1.813   0.066  -1.500  0.00  0.00    -0.146 I 
ENDROOT
TORSDOF 0
ENDMDL
