MODEL 1
REMARK minimizedAffinity -2.46874309
REMARK minimizedRMSD -1
REMARK  0 active torsions:
REMARK  status: ('A' for Active; 'I' for Inactive)
ROOT
ATOM      1  C   UNL d   1      -0.858   3.444   0.363  0.00  0.00     0.023 A 
ATOM      2  C1  UNL d   1      -1.270   2.462   1.265  0.00  0.00     0.003 A 
ATOM      3  C2  UNL d   1      -0.895   1.131   1.069  0.00  0.00     0.048 A 
ATOM      4  C3  UNL d   1      -0.108   0.789  -0.030  0.00  0.00     0.023 A 
ATOM      5  C4  UNL d   1       0.307   1.768  -0.934  0.00  0.00     0.048 A 
ATOM      6  C5  UNL d   1      -0.070   3.097  -0.735  0.00  0.00     0.003 A 
ATOM      7  I   UNL d   1       0.451  -1.191  -0.323  0.00  0.00    -0.146 I 
ENDROOT
TORSDOF 0
ENDMDL
