MODEL 1
REMARK minimizedAffinity 1.62293994
REMARK minimizedRMSD -1
REMARK  0 active torsions:
REMARK  status: ('A' for Active; 'I' for Inactive)
ROOT
ATOM      1  C   UNL d   1      -0.729   1.249   1.844  0.00  0.00     0.023 A 
ATOM      2  C1  UNL d   1      -1.171  -0.018   2.224  0.00  0.00     0.003 A 
ATOM      3  C2  UNL d   1      -0.863  -1.131   1.439  0.00  0.00     0.048 A 
ATOM      4  C3  UNL d   1      -0.112  -0.969   0.275  0.00  0.00     0.023 A 
ATOM      5  C4  UNL d   1       0.333   0.297  -0.109  0.00  0.00     0.048 A 
ATOM      6  C5  UNL d   1       0.022   1.407   0.679  0.00  0.00     0.003 A 
ATOM      7  I   UNL d   1       0.348  -2.624  -0.896  0.00  0.00    -0.146 I 
ENDROOT
TORSDOF 0
ENDMDL
