MODEL 1
REMARK minimizedAffinity -3.7599256
REMARK minimizedRMSD -1
REMARK  0 active torsions:
REMARK  status: ('A' for Active; 'I' for Inactive)
ROOT
ATOM      1  C   UNL d   1      -1.552   2.244   1.555  0.00  0.00     0.023 A 
ATOM      2  C1  UNL d   1      -1.564   0.920   1.993  0.00  0.00     0.003 A 
ATOM      3  C2  UNL d   1      -0.915  -0.069   1.249  0.00  0.00     0.048 A 
ATOM      4  C3  UNL d   1      -0.257   0.274   0.069  0.00  0.00     0.023 A 
ATOM      5  C4  UNL d   1      -0.241   1.598  -0.373  0.00  0.00     0.048 A 
ATOM      6  C5  UNL d   1      -0.892   2.583   0.373  0.00  0.00     0.003 A 
ATOM      7  I   UNL d   1       0.709  -1.196  -1.039  0.00  0.00    -0.146 I 
ENDROOT
TORSDOF 0
ENDMDL
