MODEL 1
REMARK minimizedAffinity 11.4983454
REMARK minimizedRMSD -1
REMARK  0 active torsions:
REMARK  status: ('A' for Active; 'I' for Inactive)
ROOT
ATOM      1  C   UNL d   1      -2.536   0.793  -2.567  0.00  0.00     0.020 A 
ATOM      2  C1  UNL d   1      -2.422  -0.596  -2.600  0.00  0.00     0.020 A 
ATOM      3  C2  UNL d   1      -2.000  -1.289  -1.464  0.00  0.00     0.034 A 
ATOM      4  C3  UNL d   1      -1.691  -0.594  -0.289  0.00  0.00     0.017 A 
ATOM      5  C4  UNL d   1      -1.806   0.801  -0.257  0.00  0.00     0.017 A 
ATOM      6  C5  UNL d   1      -2.229   1.490  -1.398  0.00  0.00     0.034 A 
ATOM      7 Cl   UNL d   1      -1.442   1.728   1.156  0.00  0.00    -0.070 Cl
ATOM      8 Cl1  UNL d   1      -1.176  -1.515   1.078  0.00  0.00    -0.070 Cl
ENDROOT
TORSDOF 0
ENDMDL
