MODEL 1
REMARK minimizedAffinity 6.22572374
REMARK minimizedRMSD -1
REMARK  0 active torsions:
REMARK  status: ('A' for Active; 'I' for Inactive)
ROOT
ATOM      1  C   UNL d   1      -1.972  -1.217  -2.956  0.00  0.00     0.020 A 
ATOM      2  C1  UNL d   1      -2.513  -0.395  -3.945  0.00  0.00     0.020 A 
ATOM      3  C2  UNL d   1      -2.970   0.882  -3.617  0.00  0.00     0.034 A 
ATOM      4  C3  UNL d   1      -2.889   1.342  -2.297  0.00  0.00     0.017 A 
ATOM      5  C4  UNL d   1      -2.346   0.517  -1.306  0.00  0.00     0.017 A 
ATOM      6  C5  UNL d   1      -1.889  -0.762  -1.640  0.00  0.00     0.034 A 
ATOM      7 Cl   UNL d   1      -2.212   1.014   0.344  0.00  0.00    -0.070 Cl
ATOM      8 Cl1  UNL d   1      -3.474   2.933  -1.963  0.00  0.00    -0.070 Cl
ENDROOT
TORSDOF 0
ENDMDL
