MODEL 1
REMARK minimizedAffinity 10.5029945
REMARK minimizedRMSD -1
REMARK  0 active torsions:
REMARK  status: ('A' for Active; 'I' for Inactive)
ROOT
ATOM      1  C   UNL d   1      -2.197  -0.855   0.528  0.00  0.00     0.020 A 
ATOM      2  C1  UNL d   1      -1.864   0.490   0.372  0.00  0.00     0.020 A 
ATOM      3  C2  UNL d   1      -1.823   1.056  -0.904  0.00  0.00     0.034 A 
ATOM      4  C3  UNL d   1      -2.116   0.277  -2.029  0.00  0.00     0.017 A 
ATOM      5  C4  UNL d   1      -2.450  -1.073  -1.872  0.00  0.00     0.017 A 
ATOM      6  C5  UNL d   1      -2.489  -1.635  -0.592  0.00  0.00     0.034 A 
ATOM      7 Cl   UNL d   1      -2.823  -2.098  -3.213  0.00  0.00    -0.070 Cl
ATOM      8 Cl1  UNL d   1      -2.047   1.042  -3.577  0.00  0.00    -0.070 Cl
ENDROOT
TORSDOF 0
ENDMDL
