MODEL 1
REMARK minimizedAffinity 5.77226782
REMARK minimizedRMSD -1
REMARK  0 active torsions:
REMARK  status: ('A' for Active; 'I' for Inactive)
ROOT
ATOM      1  C   UNL d   1      -2.120  -1.856  -2.928  0.00  0.00     0.020 A 
ATOM      2  C1  UNL d   1      -2.538  -1.221  -4.097  0.00  0.00     0.020 A 
ATOM      3  C2  UNL d   1      -2.860   0.137  -4.076  0.00  0.00     0.034 A 
ATOM      4  C3  UNL d   1      -2.766   0.865  -2.884  0.00  0.00     0.017 A 
ATOM      5  C4  UNL d   1      -2.347   0.226  -1.711  0.00  0.00     0.017 A 
ATOM      6  C5  UNL d   1      -2.025  -1.134  -1.738  0.00  0.00     0.034 A 
ATOM      7 Cl   UNL d   1      -2.207   1.058  -0.203  0.00  0.00    -0.070 Cl
ATOM      8 Cl1  UNL d   1      -3.181   2.542  -2.931  0.00  0.00    -0.070 Cl
ENDROOT
TORSDOF 0
ENDMDL
