MODEL 1
REMARK minimizedAffinity 5.96783829
REMARK minimizedRMSD -1
REMARK  0 active torsions:
REMARK  status: ('A' for Active; 'I' for Inactive)
ROOT
ATOM      1  C   UNL d   1      -3.268   1.992  -4.787  0.00  0.00     0.020 A 
ATOM      2  C1  UNL d   1      -3.284   2.794  -3.646  0.00  0.00     0.020 A 
ATOM      3  C2  UNL d   1      -3.000   2.237  -2.398  0.00  0.00     0.034 A 
ATOM      4  C3  UNL d   1      -2.699   0.874  -2.287  0.00  0.00     0.017 A 
ATOM      5  C4  UNL d   1      -2.684   0.070  -3.432  0.00  0.00     0.017 A 
ATOM      6  C5  UNL d   1      -2.968   0.633  -4.680  0.00  0.00     0.034 A 
ATOM      7 Cl   UNL d   1      -2.322  -1.619  -3.375  0.00  0.00    -0.070 Cl
ATOM      8 Cl1  UNL d   1      -2.358   0.252  -0.711  0.00  0.00    -0.070 Cl
ENDROOT
TORSDOF 0
ENDMDL
