MODEL 1
REMARK minimizedAffinity 4.77983904
REMARK minimizedRMSD -1
REMARK  0 active torsions:
REMARK  status: ('A' for Active; 'I' for Inactive)
ROOT
ATOM      1  C   UNL d   1      -2.971   1.743  -2.653  0.00  0.00     0.020 A 
ATOM      2  C1  UNL d   1      -3.007   0.936  -3.789  0.00  0.00     0.020 A 
ATOM      3  C2  UNL d   1      -2.792  -0.439  -3.676  0.00  0.00     0.034 A 
ATOM      4  C3  UNL d   1      -2.541  -1.012  -2.424  0.00  0.00     0.017 A 
ATOM      5  C4  UNL d   1      -2.506  -0.201  -1.283  0.00  0.00     0.017 A 
ATOM      6  C5  UNL d   1      -2.721   1.175  -1.402  0.00  0.00     0.034 A 
ATOM      7 Cl   UNL d   1      -2.202  -0.835   0.296  0.00  0.00    -0.070 Cl
ATOM      8 Cl1  UNL d   1      -2.286  -2.720  -2.358  0.00  0.00    -0.070 Cl
ENDROOT
TORSDOF 0
ENDMDL
