MODEL 1
REMARK minimizedAffinity 22.1566086
REMARK minimizedRMSD -1
REMARK  0 active torsions:
REMARK  status: ('A' for Active; 'I' for Inactive)
ROOT
ATOM      1  C   UNL d   1      -2.194   1.498  -3.713  0.00  0.00     0.020 A 
ATOM      2  C1  UNL d   1      -2.580   0.378  -2.977  0.00  0.00     0.020 A 
ATOM      3  C2  UNL d   1      -3.712   0.434  -2.163  0.00  0.00     0.034 A 
ATOM      4  C3  UNL d   1      -4.463   1.612  -2.081  0.00  0.00     0.017 A 
ATOM      5  C4  UNL d   1      -4.075   2.736  -2.819  0.00  0.00     0.017 A 
ATOM      6  C5  UNL d   1      -2.940   2.675  -3.633  0.00  0.00     0.034 A 
ATOM      7 Cl   UNL d   1      -4.952   4.225  -2.769  0.00  0.00    -0.070 Cl
ATOM      8 Cl1  UNL d   1      -5.852   1.610  -1.053  0.00  0.00    -0.070 Cl
ENDROOT
TORSDOF 0
ENDMDL
