MODEL 1
REMARK minimizedAffinity 16.1710033
REMARK minimizedRMSD -1
REMARK  0 active torsions:
REMARK  status: ('A' for Active; 'I' for Inactive)
ROOT
ATOM      1  C   UNL d   1       2.224   4.020  -0.355  0.00  0.00     0.020 A 
ATOM      2  C1  UNL d   1       2.094   5.409  -0.345  0.00  0.00     0.020 A 
ATOM      3  C2  UNL d   1       0.960   5.999   0.217  0.00  0.00     0.034 A 
ATOM      4  C3  UNL d   1      -0.048   5.202   0.770  0.00  0.00     0.017 A 
ATOM      5  C4  UNL d   1       0.083   3.809   0.759  0.00  0.00     0.017 A 
ATOM      6  C5  UNL d   1       1.221   3.222   0.195  0.00  0.00     0.034 A 
ATOM      7 Cl   UNL d   1      -1.119   2.759   1.423  0.00  0.00    -0.070 Cl
ATOM      8 Cl1  UNL d   1      -1.422   6.000   1.448  0.00  0.00    -0.070 Cl
ENDROOT
TORSDOF 0
ENDMDL
