MODEL 1
REMARK minimizedAffinity 15.8997459
REMARK minimizedRMSD -1
REMARK  0 active torsions:
REMARK  status: ('A' for Active; 'I' for Inactive)
ROOT
ATOM      1  C   UNL d   1       3.490  -4.914  -5.435  0.00  0.00     0.020 A 
ATOM      2  C1  UNL d   1       2.986  -4.903  -4.135  0.00  0.00     0.020 A 
ATOM      3  C2  UNL d   1       3.005  -3.723  -3.389  0.00  0.00     0.034 A 
ATOM      4  C3  UNL d   1       3.530  -2.549  -3.942  0.00  0.00     0.017 A 
ATOM      5  C4  UNL d   1       4.036  -2.561  -5.247  0.00  0.00     0.017 A 
ATOM      6  C5  UNL d   1       4.014  -3.745  -5.989  0.00  0.00     0.034 A 
ATOM      7 Cl   UNL d   1       4.699  -1.152  -5.996  0.00  0.00    -0.070 Cl
ATOM      8 Cl1  UNL d   1       3.521  -1.126  -2.962  0.00  0.00    -0.070 Cl
ENDROOT
TORSDOF 0
ENDMDL
