MODEL 1
REMARK minimizedAffinity 7.05480909
REMARK minimizedRMSD -1
REMARK  0 active torsions:
REMARK  status: ('A' for Active; 'I' for Inactive)
ROOT
ATOM      1  C   UNL d   1      -3.064   2.981  -2.605  0.00  0.00     0.020 A 
ATOM      2  C1  UNL d   1      -3.250   2.490  -3.897  0.00  0.00     0.020 A 
ATOM      3  C2  UNL d   1      -2.822   1.201  -4.222  0.00  0.00     0.034 A 
ATOM      4  C3  UNL d   1      -2.207   0.399  -3.254  0.00  0.00     0.017 A 
ATOM      5  C4  UNL d   1      -2.021   0.892  -1.958  0.00  0.00     0.017 A 
ATOM      6  C5  UNL d   1      -2.451   2.184  -1.638  0.00  0.00     0.034 A 
ATOM      7 Cl   UNL d   1      -1.271  -0.039  -0.710  0.00  0.00    -0.070 Cl
ATOM      8 Cl1  UNL d   1      -1.704  -1.185  -3.726  0.00  0.00    -0.070 Cl
ENDROOT
TORSDOF 0
ENDMDL
