MODEL 1
REMARK minimizedAffinity 14.7291412
REMARK minimizedRMSD -1
REMARK  0 active torsions:
REMARK  status: ('A' for Active; 'I' for Inactive)
ROOT
ATOM      1  C   UNL d   1      -2.195  -0.922  -3.995  0.00  0.00     0.020 A 
ATOM      2  C1  UNL d   1      -1.858  -1.316  -2.700  0.00  0.00     0.020 A 
ATOM      3  C2  UNL d   1      -1.819  -0.373  -1.671  0.00  0.00     0.034 A 
ATOM      4  C3  UNL d   1      -2.118   0.969  -1.935  0.00  0.00     0.017 A 
ATOM      5  C4  UNL d   1      -2.456   1.363  -3.234  0.00  0.00     0.017 A 
ATOM      6  C5  UNL d   1      -2.494   0.415  -4.261  0.00  0.00     0.034 A 
ATOM      7 Cl   UNL d   1      -2.838   3.000  -3.637  0.00  0.00    -0.070 Cl
ATOM      8 Cl1  UNL d   1      -2.051   2.081  -0.614  0.00  0.00    -0.070 Cl
ENDROOT
TORSDOF 0
ENDMDL
