MODEL 1
REMARK minimizedAffinity 3.24803925
REMARK minimizedRMSD -1
REMARK  0 active torsions:
REMARK  status: ('A' for Active; 'I' for Inactive)
ROOT
ATOM      1  C   UNL d   1       1.607  -1.470   2.097  0.00  0.00     0.020 A 
ATOM      2  C1  UNL d   1       1.700  -0.110   1.808  0.00  0.00     0.020 A 
ATOM      3  C2  UNL d   1       2.034   0.798   2.816  0.00  0.00     0.034 A 
ATOM      4  C3  UNL d   1       2.275   0.345   4.118  0.00  0.00     0.017 A 
ATOM      5  C4  UNL d   1       2.181  -1.021   4.408  0.00  0.00     0.017 A 
ATOM      6  C5  UNL d   1       1.847  -1.925   3.395  0.00  0.00     0.034 A 
ATOM      7 Cl   UNL d   1       2.465  -1.654   5.991  0.00  0.00    -0.070 Cl
ATOM      8 Cl1  UNL d   1       2.683   1.523   5.315  0.00  0.00    -0.070 Cl
ENDROOT
TORSDOF 0
ENDMDL
