MODEL 1
REMARK minimizedAffinity -2.11114097
REMARK minimizedRMSD -1
REMARK  0 active torsions:
REMARK  status: ('A' for Active; 'I' for Inactive)
ROOT
ATOM      1  O1  BZF d   1       1.144  -0.861   0.530  0.00  0.00    -0.204 OA
ATOM      2  C2  BZF d   1       0.451  -1.249  -0.601  0.00  0.00     0.174 A 
ATOM      3  C3  BZF d   1      -0.645  -0.482  -0.776  0.00  0.00    -0.012 A 
ATOM      4  C3A BZF d   1      -0.585   0.502   0.260  0.00  0.00    -0.107 A 
ATOM      5  C4  BZF d   1      -1.385   1.555   0.602  0.00  0.00     0.055 A 
ATOM      6  C5  BZF d   1      -1.087   2.277   1.714  0.00  0.00    -0.016 A 
ATOM      7  C6  BZF d   1      -0.002   1.972   2.509  0.00  0.00     0.022 A 
ATOM      8  C7  BZF d   1       0.823   0.939   2.208  0.00  0.00     0.029 A 
ATOM      9  C7A BZF d   1       0.544   0.228   1.066  0.00  0.00     0.058 A 
ENDROOT
TORSDOF 0
ENDMDL
