MODEL 1
REMARK minimizedAffinity -5.34460497
REMARK minimizedRMSD -1
REMARK  0 active torsions:
REMARK  status: ('A' for Active; 'I' for Inactive)
ROOT
ATOM      1  O1  BZF d   1       0.122  -0.896  -0.134  0.00  0.00    -0.204 OA
ATOM      2  C2  BZF d   1       0.132  -0.435  -1.437  0.00  0.00     0.174 A 
ATOM      3  C3  BZF d   1      -0.211   0.868  -1.486  0.00  0.00    -0.012 A 
ATOM      4  C3A BZF d   1      -0.362   1.270  -0.121  0.00  0.00    -0.107 A 
ATOM      5  C4  BZF d   1      -0.679   2.454   0.480  0.00  0.00     0.055 A 
ATOM      6  C5  BZF d   1      -0.815   2.494   1.832  0.00  0.00    -0.016 A 
ATOM      7  C6  BZF d   1      -0.647   1.368   2.611  0.00  0.00     0.022 A 
ATOM      8  C7  BZF d   1      -0.326   0.172   2.061  0.00  0.00     0.029 A 
ATOM      9  C7A BZF d   1      -0.155   0.136   0.699  0.00  0.00     0.058 A 
ENDROOT
TORSDOF 0
ENDMDL
