MODEL 1
REMARK minimizedAffinity -4.53906918
REMARK minimizedRMSD -1
REMARK  0 active torsions:
REMARK  status: ('A' for Active; 'I' for Inactive)
ROOT
ATOM      1  O1  BZF d   1       0.512  -0.893   0.638  0.00  0.00    -0.204 OA
ATOM      2  C2  BZF d   1       0.181  -0.898  -0.703  0.00  0.00     0.174 A 
ATOM      3  C3  BZF d   1      -0.492   0.223  -1.034  0.00  0.00    -0.012 A 
ATOM      4  C3A BZF d   1      -0.506   1.018   0.156  0.00  0.00    -0.107 A 
ATOM      5  C4  BZF d   1      -1.012   2.250   0.455  0.00  0.00     0.055 A 
ATOM      6  C5  BZF d   1      -0.922   2.709   1.731  0.00  0.00    -0.016 A 
ATOM      7  C6  BZF d   1      -0.337   1.961   2.732  0.00  0.00     0.022 A 
ATOM      8  C7  BZF d   1       0.184   0.736   2.482  0.00  0.00     0.029 A 
ATOM      9  C7A BZF d   1       0.124   0.283   1.187  0.00  0.00     0.058 A 
ENDROOT
TORSDOF 0
ENDMDL
