MODEL 1
REMARK minimizedAffinity -2.88563085
REMARK minimizedRMSD -1
REMARK  0 active torsions:
REMARK  status: ('A' for Active; 'I' for Inactive)
ROOT
ATOM      1  O1  BZF d   1      -0.385   2.411  -1.424  0.00  0.00    -0.204 OA
ATOM      2  C2  BZF d   1      -0.415   3.738  -1.041  0.00  0.00     0.174 A 
ATOM      3  C3  BZF d   1      -0.323   3.852   0.300  0.00  0.00    -0.012 A 
ATOM      4  C3A BZF d   1      -0.136   2.516   0.778  0.00  0.00    -0.107 A 
ATOM      5  C4  BZF d   1       0.035   1.980   2.023  0.00  0.00     0.055 A 
ATOM      6  C5  BZF d   1       0.117   0.630   2.155  0.00  0.00    -0.016 A 
ATOM      7  C6  BZF d   1       0.025  -0.213   1.067  0.00  0.00     0.022 A 
ATOM      8  C7  BZF d   1      -0.141   0.272  -0.188  0.00  0.00     0.029 A 
ATOM      9  C7A BZF d   1      -0.190   1.638  -0.329  0.00  0.00     0.058 A 
ENDROOT
TORSDOF 0
ENDMDL
