MODEL 1
REMARK minimizedAffinity -3.55060196
REMARK minimizedRMSD -1
REMARK  0 active torsions:
REMARK  status: ('A' for Active; 'I' for Inactive)
ROOT
ATOM      1  O1  BZF d   1      -0.823  -0.009  -0.965  0.00  0.00    -0.204 OA
ATOM      2  C2  BZF d   1      -0.032  -1.129  -1.137  0.00  0.00     0.174 A 
ATOM      3  C3  BZF d   1       0.893  -1.216  -0.160  0.00  0.00    -0.012 A 
ATOM      4  C3A BZF d   1       0.608  -0.129   0.727  0.00  0.00    -0.107 A 
ATOM      5  C4  BZF d   1       1.171   0.304   1.893  0.00  0.00     0.055 A 
ATOM      6  C5  BZF d   1       0.701   1.440   2.471  0.00  0.00    -0.016 A 
ATOM      7  C6  BZF d   1      -0.325   2.170   1.909  0.00  0.00     0.022 A 
ATOM      8  C7  BZF d   1      -0.919   1.778   0.755  0.00  0.00     0.029 A 
ATOM      9  C7A BZF d   1      -0.468   0.612   0.186  0.00  0.00     0.058 A 
ENDROOT
TORSDOF 0
ENDMDL
