MODEL 1
REMARK minimizedAffinity -5.53158474
REMARK minimizedRMSD -1
REMARK  0 active torsions:
REMARK  status: ('A' for Active; 'I' for Inactive)
ROOT
ATOM      1  O1  BZF d   1      -0.830   0.296   0.259  0.00  0.00    -0.204 OA
ATOM      2  C2  BZF d   1      -0.081  -0.696   0.863  0.00  0.00     0.174 A 
ATOM      3  C3  BZF d   1       0.775  -0.169   1.762  0.00  0.00    -0.012 A 
ATOM      4  C3A BZF d   1       0.483   1.232   1.783  0.00  0.00    -0.107 A 
ATOM      5  C4  BZF d   1       0.989   2.286   2.489  0.00  0.00     0.055 A 
ATOM      6  C5  BZF d   1       0.536   3.539   2.221  0.00  0.00    -0.016 A 
ATOM      7  C6  BZF d   1      -0.418   3.774   1.253  0.00  0.00     0.022 A 
ATOM      8  C7  BZF d   1      -0.953   2.760   0.530  0.00  0.00     0.029 A 
ATOM      9  C7A BZF d   1      -0.521   1.489   0.821  0.00  0.00     0.058 A 
ENDROOT
TORSDOF 0
ENDMDL
