MODEL 1
REMARK minimizedAffinity -5.67341757
REMARK minimizedRMSD -1
REMARK  0 active torsions:
REMARK  status: ('A' for Active; 'I' for Inactive)
ROOT
ATOM      1  O1  BZF d   1       0.170   0.194  -0.942  0.00  0.00    -0.204 OA
ATOM      2  C2  BZF d   1       0.492  -0.744   0.020  0.00  0.00     0.174 A 
ATOM      3  C3  BZF d   1       0.331  -0.234   1.258  0.00  0.00    -0.012 A 
ATOM      4  C3A BZF d   1      -0.208   1.076   1.059  0.00  0.00    -0.107 A 
ATOM      5  C4  BZF d   1      -0.597   2.071   1.909  0.00  0.00     0.055 A 
ATOM      6  C5  BZF d   1      -1.012   3.257   1.392  0.00  0.00    -0.016 A 
ATOM      7  C6  BZF d   1      -1.045   3.485   0.032  0.00  0.00     0.022 A 
ATOM      8  C7  BZF d   1      -0.674   2.526  -0.851  0.00  0.00     0.029 A 
ATOM      9  C7A BZF d   1      -0.286   1.315  -0.333  0.00  0.00     0.058 A 
ENDROOT
TORSDOF 0
ENDMDL
