MODEL 1
REMARK minimizedAffinity -5.77959967
REMARK minimizedRMSD -1
REMARK  0 active torsions:
REMARK  status: ('A' for Active; 'I' for Inactive)
ROOT
ATOM      1  O1  BZF d   1       1.021  -0.120   1.386  0.00  0.00    -0.204 OA
ATOM      2  C2  BZF d   1       0.707  -1.002   0.371  0.00  0.00     0.174 A 
ATOM      3  C3  BZF d   1      -0.355  -0.561  -0.334  0.00  0.00    -0.012 A 
ATOM      4  C3A BZF d   1      -0.671   0.719   0.221  0.00  0.00    -0.107 A 
ATOM      5  C4  BZF d   1      -1.618   1.660  -0.066  0.00  0.00     0.055 A 
ATOM      6  C5  BZF d   1      -1.704   2.770   0.713  0.00  0.00    -0.016 A 
ATOM      7  C6  BZF d   1      -0.864   2.969   1.789  0.00  0.00     0.022 A 
ATOM      8  C7  BZF d   1       0.095   2.066   2.110  0.00  0.00     0.029 A 
ATOM      9  C7A BZF d   1       0.206   0.959   1.305  0.00  0.00     0.058 A 
ENDROOT
TORSDOF 0
ENDMDL
