MODEL 1
REMARK minimizedAffinity -3.80790758
REMARK minimizedRMSD -1
REMARK  0 active torsions:
REMARK  status: ('A' for Active; 'I' for Inactive)
ROOT
ATOM      1  O1  BZF d   1      -0.291   1.811   2.245  0.00  0.00    -0.204 OA
ATOM      2  C2  BZF d   1       0.607   0.908   2.781  0.00  0.00     0.174 A 
ATOM      3  C3  BZF d   1       0.982   0.001   1.857  0.00  0.00    -0.012 A 
ATOM      4  C3A BZF d   1       0.346   0.414   0.644  0.00  0.00    -0.107 A 
ATOM      5  C4  BZF d   1       0.347  -0.076  -0.631  0.00  0.00     0.055 A 
ATOM      6  C5  BZF d   1      -0.437   0.518  -1.568  0.00  0.00    -0.016 A 
ATOM      7  C6  BZF d   1      -1.238   1.599  -1.264  0.00  0.00     0.022 A 
ATOM      8  C7  BZF d   1      -1.269   2.124  -0.015  0.00  0.00     0.029 A 
ATOM      9  C7A BZF d   1      -0.452   1.546   0.926  0.00  0.00     0.058 A 
ENDROOT
TORSDOF 0
ENDMDL
