MODEL 1
REMARK minimizedAffinity -5.26676941
REMARK minimizedRMSD -1
REMARK  2 active torsions:
REMARK  status: ('A' for Active; 'I' for Inactive)
REMARK    1  A    between atoms: C2'_3  and  C1'_4 
REMARK    2  A    between atoms: C1'_4  and  C1_5 
ROOT
ATOM      1  C1  I4B d   1      -0.332  -0.889   0.429  0.00  0.00    -0.075 A 
ATOM      2  C2  I4B d   1      -1.401  -0.823  -0.430  0.00  0.00     0.003 A 
ATOM      3  C3  I4B d   1      -2.524  -1.663  -0.235  0.00  0.00     0.002 A 
ATOM      4  C4  I4B d   1      -2.516  -2.582   0.794  0.00  0.00    -0.004 A 
ATOM      5  C5  I4B d   1      -1.441  -2.631   1.677  0.00  0.00     0.002 A 
ATOM      6  C6  I4B d   1      -0.347  -1.771   1.501  0.00  0.00     0.003 A 
ENDROOT
BRANCH   1   7
ATOM      7  C1' I4B d   1       0.852  -0.011   0.174  0.00  0.00     0.060 C 
BRANCH   7   8
ATOM      8  C2' I4B d   1       0.650   1.279   0.943  0.00  0.00    -0.013 C 
ATOM      9  C4' I4B d   1       1.961   1.979   1.186  0.00  0.00     0.013 C 
ATOM     10  C3' I4B d   1      -0.288   2.145   0.156  0.00  0.00     0.013 C 
ENDBRANCH   7   8
ENDBRANCH   1   7
TORSDOF 2
ENDMDL
