MODEL 1
REMARK minimizedAffinity -2.78454781
REMARK minimizedRMSD -1
REMARK  2 active torsions:
REMARK  status: ('A' for Active; 'I' for Inactive)
REMARK    1  A    between atoms: C2'_3  and  C1'_4 
REMARK    2  A    between atoms: C1'_4  and  C1_5 
ROOT
ATOM      1  C1  I4B d   1       0.630   1.189   0.520  0.00  0.00    -0.075 A 
ATOM      2  C2  I4B d   1      -0.640   1.412   0.989  0.00  0.00     0.003 A 
ATOM      3  C3  I4B d   1      -1.516   0.325   1.222  0.00  0.00     0.002 A 
ATOM      4  C4  I4B d   1      -1.100  -0.958   0.927  0.00  0.00    -0.004 A 
ATOM      5  C5  I4B d   1       0.196  -1.185   0.473  0.00  0.00     0.002 A 
ATOM      6  C6  I4B d   1       1.071  -0.106   0.279  0.00  0.00     0.003 A 
ENDROOT
BRANCH   1   7
ATOM      7  C1' I4B d   1       1.518   2.363   0.253  0.00  0.00     0.060 C 
BRANCH   7   8
ATOM      8  C2' I4B d   1       2.909   2.018   0.744  0.00  0.00    -0.013 C 
ATOM      9  C4' I4B d   1       3.902   2.016  -0.388  0.00  0.00     0.013 C 
ATOM     10  C3' I4B d   1       3.290   3.016   1.796  0.00  0.00     0.013 C 
ENDBRANCH   7   8
ENDBRANCH   1   7
TORSDOF 2
ENDMDL
