MODEL 1
REMARK minimizedAffinity -5.76795149
REMARK minimizedRMSD -1
REMARK  2 active torsions:
REMARK  status: ('A' for Active; 'I' for Inactive)
REMARK    1  A    between atoms: C2'_3  and  C1'_4 
REMARK    2  A    between atoms: C1'_4  and  C1_5 
ROOT
ATOM      1  C1  I4B d   1      -1.027  -0.629   0.921  0.00  0.00    -0.075 A 
ATOM      2  C2  I4B d   1      -0.837  -1.938   1.290  0.00  0.00     0.003 A 
ATOM      3  C3  I4B d   1      -1.856  -2.896   1.070  0.00  0.00     0.002 A 
ATOM      4  C4  I4B d   1      -3.060  -2.495   0.529  0.00  0.00    -0.004 A 
ATOM      5  C5  I4B d   1      -3.243  -1.173   0.135  0.00  0.00     0.002 A 
ATOM      6  C6  I4B d   1      -2.216  -0.236   0.321  0.00  0.00     0.003 A 
ENDROOT
BRANCH   1   7
ATOM      7  C1' I4B d   1       0.058   0.362   1.198  0.00  0.00     0.060 C 
BRANCH   7   8
ATOM      8  C2' I4B d   1       0.241   1.212  -0.043  0.00  0.00    -0.013 C 
ATOM      9  C4' I4B d   1       1.243   2.312   0.192  0.00  0.00     0.013 C 
ATOM     10  C3' I4B d   1       0.678   0.312  -1.160  0.00  0.00     0.013 C 
ENDBRANCH   7   8
ENDBRANCH   1   7
TORSDOF 2
ENDMDL
