MODEL 1
REMARK minimizedAffinity -2.95018578
REMARK minimizedRMSD -1
REMARK  2 active torsions:
REMARK  status: ('A' for Active; 'I' for Inactive)
REMARK    1  A    between atoms: C2'_3  and  C1'_4 
REMARK    2  A    between atoms: C1'_4  and  C1_5 
ROOT
ATOM      1  C1  I4B d   1      -1.081   0.475  -0.175  0.00  0.00    -0.075 A 
ATOM      2  C2  I4B d   1      -0.707   0.419  -1.494  0.00  0.00     0.003 A 
ATOM      3  C3  I4B d   1      -1.510  -0.271  -2.434  0.00  0.00     0.002 A 
ATOM      4  C4  I4B d   1      -2.644  -0.930  -2.006  0.00  0.00    -0.004 A 
ATOM      5  C5  I4B d   1      -3.034  -0.853  -0.672  0.00  0.00     0.002 A 
ATOM      6  C6  I4B d   1      -2.255  -0.136   0.248  0.00  0.00     0.003 A 
ENDROOT
BRANCH   1   7
ATOM      7  C1' I4B d   1      -0.193   1.185   0.797  0.00  0.00     0.060 C 
BRANCH   7   8
ATOM      8  C2' I4B d   1       1.239   0.797   0.489  0.00  0.00    -0.013 C 
ATOM      9  C4' I4B d   1       2.213   1.710   1.187  0.00  0.00     0.013 C 
ATOM     10  C3' I4B d   1       1.434  -0.628   0.913  0.00  0.00     0.013 C 
ENDBRANCH   7   8
ENDBRANCH   1   7
TORSDOF 2
ENDMDL
