MODEL 1
REMARK minimizedAffinity -3.7299664
REMARK minimizedRMSD -1
REMARK  2 active torsions:
REMARK  status: ('A' for Active; 'I' for Inactive)
REMARK    1  A    between atoms: C2'_3  and  C1'_4 
REMARK    2  A    between atoms: C1'_4  and  C1_5 
ROOT
ATOM      1  C1  I4B d   1      -0.544   0.203  -0.543  0.00  0.00    -0.075 A 
ATOM      2  C2  I4B d   1      -1.411  -0.090  -1.566  0.00  0.00     0.003 A 
ATOM      3  C3  I4B d   1      -2.730  -0.518  -1.282  0.00  0.00     0.002 A 
ATOM      4  C4  I4B d   1      -3.123  -0.685   0.030  0.00  0.00    -0.004 A 
ATOM      5  C5  I4B d   1      -2.250  -0.365   1.066  0.00  0.00     0.002 A 
ATOM      6  C6  I4B d   1      -0.956   0.094   0.779  0.00  0.00     0.003 A 
ENDROOT
BRANCH   1   7
ATOM      7  C1' I4B d   1       0.853   0.620  -0.879  0.00  0.00     0.060 C 
BRANCH   7   8
ATOM      8  C2' I4B d   1       1.611   0.803   0.420  0.00  0.00    -0.013 C 
ATOM      9  C4' I4B d   1       1.945  -0.524   1.048  0.00  0.00     0.013 C 
ATOM     10  C3' I4B d   1       2.852   1.591   0.125  0.00  0.00     0.013 C 
ENDBRANCH   7   8
ENDBRANCH   1   7
TORSDOF 2
ENDMDL
