MODEL 1
REMARK minimizedAffinity -6.28040266
REMARK minimizedRMSD -1
REMARK  2 active torsions:
REMARK  status: ('A' for Active; 'I' for Inactive)
REMARK    1  A    between atoms: C2'_3  and  C1'_4 
REMARK    2  A    between atoms: C1'_4  and  C1_5 
ROOT
ATOM      1  C1  I4B d   1       0.426   0.787  -0.098  0.00  0.00    -0.075 A 
ATOM      2  C2  I4B d   1       1.728   0.355  -0.127  0.00  0.00     0.003 A 
ATOM      3  C3  I4B d   1       2.756   1.151   0.435  0.00  0.00     0.002 A 
ATOM      4  C4  I4B d   1       2.446   2.386   0.966  0.00  0.00    -0.004 A 
ATOM      5  C5  I4B d   1       1.122   2.812   1.015  0.00  0.00     0.002 A 
ATOM      6  C6  I4B d   1       0.103   2.003   0.491  0.00  0.00     0.003 A 
ENDROOT
BRANCH   1   7
ATOM      7  C1' I4B d   1      -0.630  -0.064  -0.730  0.00  0.00     0.060 C 
BRANCH   7   8
ATOM      8  C2' I4B d   1      -1.642  -0.423   0.340  0.00  0.00    -0.013 C 
ATOM      9  C4' I4B d   1      -2.952  -0.848  -0.270  0.00  0.00     0.013 C 
ATOM     10  C3' I4B d   1      -1.056  -1.517   1.182  0.00  0.00     0.013 C 
ENDBRANCH   7   8
ENDBRANCH   1   7
TORSDOF 2
ENDMDL
