MODEL 1
REMARK minimizedAffinity -4.6659236
REMARK minimizedRMSD -1
REMARK  2 active torsions:
REMARK  status: ('A' for Active; 'I' for Inactive)
REMARK    1  A    between atoms: C2'_3  and  C1'_4 
REMARK    2  A    between atoms: C1'_4  and  C1_5 
ROOT
ATOM      1  C1  I4B d   1       0.463  -0.017  -0.020  0.00  0.00    -0.075 A 
ATOM      2  C2  I4B d   1      -0.494  -0.863   0.481  0.00  0.00     0.003 A 
ATOM      3  C3  I4B d   1      -1.777  -0.921  -0.115  0.00  0.00     0.002 A 
ATOM      4  C4  I4B d   1      -2.074  -0.084  -1.171  0.00  0.00    -0.004 A 
ATOM      5  C5  I4B d   1      -1.095   0.757  -1.692  0.00  0.00     0.002 A 
ATOM      6  C6  I4B d   1       0.185   0.783  -1.121  0.00  0.00     0.003 A 
ENDROOT
BRANCH   1   7
ATOM      7  C1' I4B d   1       1.797   0.043   0.654  0.00  0.00     0.060 C 
BRANCH   7   8
ATOM      8  C2' I4B d   1       2.188   1.501   0.787  0.00  0.00    -0.013 C 
ATOM      9  C4' I4B d   1       2.441   1.869   2.225  0.00  0.00     0.013 C 
ATOM     10  C3' I4B d   1       3.409   1.731  -0.053  0.00  0.00     0.013 C 
ENDBRANCH   7   8
ENDBRANCH   1   7
TORSDOF 2
ENDMDL
