MODEL 1
REMARK minimizedAffinity -1.18439364
REMARK minimizedRMSD -1
REMARK  2 active torsions:
REMARK  status: ('A' for Active; 'I' for Inactive)
REMARK    1  A    between atoms: C2'_3  and  C1'_4 
REMARK    2  A    between atoms: C1'_4  and  C1_5 
ROOT
ATOM      1  C1  I4B d   1       0.471  -0.017   0.031  0.00  0.00    -0.075 A 
ATOM      2  C2  I4B d   1       0.114   0.340  -1.245  0.00  0.00     0.003 A 
ATOM      3  C3  I4B d   1      -1.170   0.014  -1.744  0.00  0.00     0.002 A 
ATOM      4  C4  I4B d   1      -2.042  -0.710  -0.956  0.00  0.00    -0.004 A 
ATOM      5  C5  I4B d   1      -1.687  -1.051   0.346  0.00  0.00     0.002 A 
ATOM      6  C6  I4B d   1      -0.428  -0.692   0.848  0.00  0.00     0.003 A 
ENDROOT
BRANCH   1   7
ATOM      7  C1' I4B d   1       1.847   0.315   0.515  0.00  0.00     0.060 C 
BRANCH   7   8
ATOM      8  C2' I4B d   1       1.786   1.662   1.207  0.00  0.00    -0.013 C 
ATOM      9  C4' I4B d   1       1.928   1.515   2.699  0.00  0.00     0.013 C 
ATOM     10  C3' I4B d   1       2.876   2.522   0.641  0.00  0.00     0.013 C 
ENDBRANCH   7   8
ENDBRANCH   1   7
TORSDOF 2
ENDMDL
