MODEL 1
REMARK minimizedAffinity -5.37971306
REMARK minimizedRMSD -1
REMARK  2 active torsions:
REMARK  status: ('A' for Active; 'I' for Inactive)
REMARK    1  A    between atoms: C2'_3  and  C1'_4 
REMARK    2  A    between atoms: C1'_4  and  C1_5 
ROOT
ATOM      1  C1  I4B d   1      -1.886  -0.822   0.358  0.00  0.00    -0.075 A 
ATOM      2  C2  I4B d   1      -3.032  -1.533   0.102  0.00  0.00     0.003 A 
ATOM      3  C3  I4B d   1      -3.268  -2.765   0.759  0.00  0.00     0.002 A 
ATOM      4  C4  I4B d   1      -2.315  -3.269   1.621  0.00  0.00    -0.004 A 
ATOM      5  C5  I4B d   1      -1.165  -2.536   1.896  0.00  0.00     0.002 A 
ATOM      6  C6  I4B d   1      -0.954  -1.299   1.271  0.00  0.00     0.003 A 
ENDROOT
BRANCH   1   7
ATOM      7  C1' I4B d   1      -1.653   0.459  -0.378  0.00  0.00     0.060 C 
BRANCH   7   8
ATOM      8  C2' I4B d   1      -0.414   0.288  -1.232  0.00  0.00    -0.013 C 
ATOM      9  C4' I4B d   1      -0.569   0.977  -2.562  0.00  0.00     0.013 C 
ATOM     10  C3' I4B d   1       0.754   0.839  -0.470  0.00  0.00     0.013 C 
ENDBRANCH   7   8
ENDBRANCH   1   7
TORSDOF 2
ENDMDL
