MODEL 1
REMARK minimizedAffinity -5.29561186
REMARK minimizedRMSD -1
REMARK  1 active torsions:
REMARK  status: ('A' for Active; 'I' for Inactive)
REMARK    1  A    between atoms: C3_4  and  O_7 
ROOT
ATOM      1  C   UNL d   1      -0.226  -0.370  -0.411  0.00  0.00    -0.033 A 
ATOM      2  C1  UNL d   1       0.266  -1.582  -0.899  0.00  0.00     0.039 A 
ATOM      3  C2  UNL d   1       1.507  -2.058  -0.469  0.00  0.00    -0.080 A 
ATOM      4  C3  UNL d   1       2.243  -1.314   0.449  0.00  0.00     0.150 A 
ATOM      5  C4  UNL d   1       1.757  -0.108   0.942  0.00  0.00    -0.007 A 
ATOM      6  C5  UNL d   1       0.519   0.366   0.511  0.00  0.00     0.039 A 
ENDROOT
BRANCH   4   7
ATOM      7  O   UNL d   1       3.460  -1.736   0.895  0.00  0.00    -0.526 OA
ATOM      8  H5  UNL d   1       3.680  -2.569   0.446  0.00  0.00     0.418 HD
ENDBRANCH   4   7
TORSDOF 1
ENDMDL
