MODEL 1
REMARK minimizedAffinity -5.12256956
REMARK minimizedRMSD -1
REMARK  1 active torsions:
REMARK  status: ('A' for Active; 'I' for Inactive)
REMARK    1  A    between atoms: C3_4  and  O_7 
ROOT
ATOM      1  C   UNL d   1      -0.097  -0.179  -0.386  0.00  0.00    -0.033 A 
ATOM      2  C1  UNL d   1       0.672   0.553   0.521  0.00  0.00     0.039 A 
ATOM      3  C2  UNL d   1       1.840   0.003   1.051  0.00  0.00    -0.080 A 
ATOM      4  C3  UNL d   1       2.229  -1.277   0.666  0.00  0.00     0.150 A 
ATOM      5  C4  UNL d   1       1.470  -2.010  -0.240  0.00  0.00    -0.007 A 
ATOM      6  C5  UNL d   1       0.302  -1.460  -0.768  0.00  0.00     0.039 A 
ENDROOT
BRANCH   4   7
ATOM      7  O   UNL d   1       3.359  -1.858   1.161  0.00  0.00    -0.526 OA
ATOM      8  H5  UNL d   1       3.766  -1.246   1.797  0.00  0.00     0.418 HD
ENDBRANCH   4   7
TORSDOF 1
ENDMDL
