MODEL 1
REMARK minimizedAffinity -5.47286987
REMARK minimizedRMSD -1
REMARK  1 active torsions:
REMARK  status: ('A' for Active; 'I' for Inactive)
REMARK    1  A    between atoms: C3_4  and  O_7 
ROOT
ATOM      1  C   UNL d   1      -0.326  -0.734  -0.601  0.00  0.00    -0.033 A 
ATOM      2  C1  UNL d   1       0.179  -2.028  -0.742  0.00  0.00     0.039 A 
ATOM      3  C2  UNL d   1       1.364  -2.390  -0.100  0.00  0.00    -0.080 A 
ATOM      4  C3  UNL d   1       2.034  -1.451   0.680  0.00  0.00     0.150 A 
ATOM      5  C4  UNL d   1       1.534  -0.161   0.828  0.00  0.00    -0.007 A 
ATOM      6  C5  UNL d   1       0.351   0.199   0.185  0.00  0.00     0.039 A 
ENDROOT
BRANCH   4   7
ATOM      7  O   UNL d   1       3.197  -1.757   1.323  0.00  0.00    -0.526 OA
ATOM      8  H5  UNL d   1       3.436  -2.674   1.106  0.00  0.00     0.418 HD
ENDBRANCH   4   7
TORSDOF 1
ENDMDL
