MODEL 1
REMARK minimizedAffinity -4.68093824
REMARK minimizedRMSD -1
REMARK  1 active torsions:
REMARK  status: ('A' for Active; 'I' for Inactive)
REMARK    1  A    between atoms: C3_4  and  O_7 
ROOT
ATOM      1  C   UNL d   1       1.344   0.021   0.801  0.00  0.00    -0.033 A 
ATOM      2  C1  UNL d   1       0.475  -0.521  -0.148  0.00  0.00     0.039 A 
ATOM      3  C2  UNL d   1       0.959  -1.401  -1.118  0.00  0.00    -0.080 A 
ATOM      4  C3  UNL d   1       2.311  -1.730  -1.129  0.00  0.00     0.150 A 
ATOM      5  C4  UNL d   1       3.182  -1.197  -0.184  0.00  0.00    -0.007 A 
ATOM      6  C5  UNL d   1       2.698  -0.318   0.783  0.00  0.00     0.039 A 
ENDROOT
BRANCH   4   7
ATOM      7  O   UNL d   1       2.830  -2.581  -2.059  0.00  0.00    -0.526 OA
ATOM      8  H5  UNL d   1       2.118  -2.848  -2.664  0.00  0.00     0.418 HD
ENDBRANCH   4   7
TORSDOF 1
ENDMDL
