MODEL 1
REMARK minimizedAffinity -5.16357565
REMARK minimizedRMSD -1
REMARK  1 active torsions:
REMARK  status: ('A' for Active; 'I' for Inactive)
REMARK    1  A    between atoms: C3_4  and  O_7 
ROOT
ATOM      1  C   UNL d   1      -0.192  -0.367  -0.530  0.00  0.00    -0.033 A 
ATOM      2  C1  UNL d   1       0.432  -1.511  -1.030  0.00  0.00     0.039 A 
ATOM      3  C2  UNL d   1       1.692  -1.884  -0.558  0.00  0.00    -0.080 A 
ATOM      4  C3  UNL d   1       2.315  -1.106   0.414  0.00  0.00     0.150 A 
ATOM      5  C4  UNL d   1       1.697   0.033   0.919  0.00  0.00    -0.007 A 
ATOM      6  C5  UNL d   1       0.440   0.405   0.445  0.00  0.00     0.039 A 
ENDROOT
BRANCH   4   7
ATOM      7  O   UNL d   1       3.546  -1.428   0.902  0.00  0.00    -0.526 OA
ATOM      8  H5  UNL d   1       3.863  -2.223   0.441  0.00  0.00     0.418 HD
ENDBRANCH   4   7
TORSDOF 1
ENDMDL
