MODEL 1
REMARK minimizedAffinity -4.11172152
REMARK minimizedRMSD -1
REMARK  1 active torsions:
REMARK  status: ('A' for Active; 'I' for Inactive)
REMARK    1  A    between atoms: C3_4  and  O_7 
ROOT
ATOM      1  C   UNL d   1      -0.687   1.117  -0.408  0.00  0.00    -0.033 A 
ATOM      2  C1  UNL d   1       0.488   1.803  -0.095  0.00  0.00     0.039 A 
ATOM      3  C2  UNL d   1       1.608   1.103   0.358  0.00  0.00    -0.080 A 
ATOM      4  C3  UNL d   1       1.540  -0.281   0.492  0.00  0.00     0.150 A 
ATOM      5  C4  UNL d   1       0.374  -0.972   0.178  0.00  0.00    -0.007 A 
ATOM      6  C5  UNL d   1      -0.743  -0.271  -0.273  0.00  0.00     0.039 A 
ENDROOT
BRANCH   4   7
ATOM      7  O   UNL d   1       2.606  -1.007   0.935  0.00  0.00    -0.526 OA
ATOM      8  H5  UNL d   1       3.332  -0.394   1.140  0.00  0.00     0.418 HD
ENDBRANCH   4   7
TORSDOF 1
ENDMDL
