MODEL 1
REMARK minimizedAffinity 13.1556435
REMARK minimizedRMSD -1
REMARK  0 active torsions:
REMARK  status: ('A' for Active; 'I' for Inactive)
ROOT
ATOM      1  C   UNL d   1       1.045   0.839   5.430  0.00  0.00     0.020 A 
ATOM      2  C1  UNL d   1       0.906   0.640   4.057  0.00  0.00     0.020 A 
ATOM      3  C2  UNL d   1       0.387   1.657   3.253  0.00  0.00     0.034 A 
ATOM      4  C3  UNL d   1       0.005   2.878   3.821  0.00  0.00     0.017 A 
ATOM      5  C4  UNL d   1       0.145   3.077   5.200  0.00  0.00     0.017 A 
ATOM      6  C5  UNL d   1       0.666   2.055   6.000  0.00  0.00     0.034 A 
ATOM      7 Cl   UNL d   1      -0.304   4.556   5.973  0.00  0.00    -0.070 Cl
ATOM      8 Cl1  UNL d   1      -0.628   4.091   2.767  0.00  0.00    -0.070 Cl
ENDROOT
TORSDOF 0
ENDMDL
