MODEL 1
REMARK minimizedAffinity 6.5715313
REMARK minimizedRMSD -1
REMARK  0 active torsions:
REMARK  status: ('A' for Active; 'I' for Inactive)
ROOT
ATOM      1  C   UNL d   1      -2.886   0.740   3.115  0.00  0.00     0.020 A 
ATOM      2  C1  UNL d   1      -3.773   0.792   2.040  0.00  0.00     0.020 A 
ATOM      3  C2  UNL d   1      -4.685  -0.246   1.838  0.00  0.00     0.034 A 
ATOM      4  C3  UNL d   1      -4.712  -1.340   2.711  0.00  0.00     0.017 A 
ATOM      5  C4  UNL d   1      -3.821  -1.390   3.789  0.00  0.00     0.017 A 
ATOM      6  C5  UNL d   1      -2.910  -0.348   3.987  0.00  0.00     0.034 A 
ATOM      7 Cl   UNL d   1      -3.794  -2.707   4.909  0.00  0.00    -0.070 Cl
ATOM      8 Cl1  UNL d   1      -5.867  -2.587   2.401  0.00  0.00    -0.070 Cl
ENDROOT
TORSDOF 0
ENDMDL
