MODEL 1
REMARK minimizedAffinity 10.7414751
REMARK minimizedRMSD -1
REMARK  0 active torsions:
REMARK  status: ('A' for Active; 'I' for Inactive)
ROOT
ATOM      1  C   UNL d   1      -5.222  -3.183  -6.000  0.00  0.00     0.020 A 
ATOM      2  C1  UNL d   1      -5.067  -4.568  -5.969  0.00  0.00     0.020 A 
ATOM      3  C2  UNL d   1      -4.101  -5.145  -5.143  0.00  0.00     0.034 A 
ATOM      4  C3  UNL d   1      -3.284  -4.336  -4.344  0.00  0.00     0.017 A 
ATOM      5  C4  UNL d   1      -3.440  -2.945  -4.375  0.00  0.00     0.017 A 
ATOM      6  C5  UNL d   1      -4.410  -2.373  -5.204  0.00  0.00     0.034 A 
ATOM      7 Cl   UNL d   1      -2.470  -1.882  -3.418  0.00  0.00    -0.070 Cl
ATOM      8 Cl1  UNL d   1      -2.110  -5.117  -3.346  0.00  0.00    -0.070 Cl
ENDROOT
TORSDOF 0
ENDMDL
