MODEL 1
REMARK minimizedAffinity 11.4604797
REMARK minimizedRMSD -1
REMARK  0 active torsions:
REMARK  status: ('A' for Active; 'I' for Inactive)
ROOT
ATOM      1  C   UNL d   1      -1.465  -4.237  -3.102  0.00  0.00     0.020 A 
ATOM      2  C1  UNL d   1      -2.730  -3.745  -3.421  0.00  0.00     0.020 A 
ATOM      3  C2  UNL d   1      -2.942  -2.368  -3.508  0.00  0.00     0.034 A 
ATOM      4  C3  UNL d   1      -1.887  -1.477  -3.276  0.00  0.00     0.017 A 
ATOM      5  C4  UNL d   1      -0.618  -1.972  -2.955  0.00  0.00     0.017 A 
ATOM      6  C5  UNL d   1      -0.411  -3.352  -2.869  0.00  0.00     0.034 A 
ATOM      7 Cl   UNL d   1       0.732  -0.935  -2.655  0.00  0.00    -0.070 Cl
ATOM      8 Cl1  UNL d   1      -2.221   0.214  -3.401  0.00  0.00    -0.070 Cl
ENDROOT
TORSDOF 0
ENDMDL
