MODEL 1
REMARK minimizedAffinity 17.2294312
REMARK minimizedRMSD -1
REMARK  0 active torsions:
REMARK  status: ('A' for Active; 'I' for Inactive)
ROOT
ATOM      1  C   UNL d   1      -4.121   1.393   3.751  0.00  0.00     0.020 A 
ATOM      2  C1  UNL d   1      -4.160   1.864   5.062  0.00  0.00     0.020 A 
ATOM      3  C2  UNL d   1      -2.972   2.154   5.736  0.00  0.00     0.034 A 
ATOM      4  C3  UNL d   1      -1.739   1.972   5.098  0.00  0.00     0.017 A 
ATOM      5  C4  UNL d   1      -1.701   1.499   3.782  0.00  0.00     0.017 A 
ATOM      6  C5  UNL d   1      -2.894   1.211   3.112  0.00  0.00     0.034 A 
ATOM      7 Cl   UNL d   1      -0.218   1.250   2.929  0.00  0.00    -0.070 Cl
ATOM      8 Cl1  UNL d   1      -0.309   2.351   5.991  0.00  0.00    -0.070 Cl
ENDROOT
TORSDOF 0
ENDMDL
