MODEL 1
REMARK minimizedAffinity 12.3094482
REMARK minimizedRMSD -1
REMARK  0 active torsions:
REMARK  status: ('A' for Active; 'I' for Inactive)
ROOT
ATOM      1  C   UNL d   1      -5.313  -4.285  -6.000  0.00  0.00     0.020 A 
ATOM      2  C1  UNL d   1      -5.318  -5.582  -5.488  0.00  0.00     0.020 A 
ATOM      3  C2  UNL d   1      -4.444  -5.929  -4.456  0.00  0.00     0.034 A 
ATOM      4  C3  UNL d   1      -3.561  -4.978  -3.932  0.00  0.00     0.017 A 
ATOM      5  C4  UNL d   1      -3.556  -3.676  -4.446  0.00  0.00     0.017 A 
ATOM      6  C5  UNL d   1      -4.434  -3.334  -5.480  0.00  0.00     0.034 A 
ATOM      7 Cl   UNL d   1      -2.496  -2.448  -3.851  0.00  0.00    -0.070 Cl
ATOM      8 Cl1  UNL d   1      -2.508  -5.477  -2.656  0.00  0.00    -0.070 Cl
ENDROOT
TORSDOF 0
ENDMDL
