MODEL 1
REMARK minimizedAffinity 5.31707239
REMARK minimizedRMSD -1
REMARK  0 active torsions:
REMARK  status: ('A' for Active; 'I' for Inactive)
ROOT
ATOM      1  C   UNL d   1       4.119  -6.000  -1.208  0.00  0.00     0.020 A 
ATOM      2  C1  UNL d   1       4.693  -4.884  -0.600  0.00  0.00     0.020 A 
ATOM      3  C2  UNL d   1       4.081  -3.634  -0.715  0.00  0.00     0.034 A 
ATOM      4  C3  UNL d   1       2.892  -3.497  -1.440  0.00  0.00     0.017 A 
ATOM      5  C4  UNL d   1       2.316  -4.618  -2.050  0.00  0.00     0.017 A 
ATOM      6  C5  UNL d   1       2.934  -5.867  -1.932  0.00  0.00     0.034 A 
ATOM      7 Cl   UNL d   1       0.850  -4.527  -2.961  0.00  0.00    -0.070 Cl
ATOM      8 Cl1  UNL d   1       2.189  -1.922  -1.541  0.00  0.00    -0.070 Cl
ENDROOT
TORSDOF 0
ENDMDL
