MODEL 1
REMARK minimizedAffinity 14.4631443
REMARK minimizedRMSD -1
REMARK  0 active torsions:
REMARK  status: ('A' for Active; 'I' for Inactive)
ROOT
ATOM      1  C   UNL d   1      -1.790   5.965  -5.988  0.00  0.00     0.020 A 
ATOM      2  C1  UNL d   1      -0.866   4.921  -5.992  0.00  0.00     0.020 A 
ATOM      3  C2  UNL d   1      -1.308   3.597  -5.995  0.00  0.00     0.034 A 
ATOM      4  C3  UNL d   1      -2.679   3.312  -5.994  0.00  0.00     0.017 A 
ATOM      5  C4  UNL d   1      -3.606   4.361  -5.991  0.00  0.00     0.017 A 
ATOM      6  C5  UNL d   1      -3.157   5.685  -5.988  0.00  0.00     0.034 A 
ATOM      7 Cl   UNL d   1      -5.313   4.089  -5.990  0.00  0.00    -0.070 Cl
ATOM      8 Cl1  UNL d   1      -3.155   1.651  -5.998  0.00  0.00    -0.070 Cl
ENDROOT
TORSDOF 0
ENDMDL
