MODEL 1
REMARK minimizedAffinity 4.97762537
REMARK minimizedRMSD -1
REMARK  0 active torsions:
REMARK  status: ('A' for Active; 'I' for Inactive)
ROOT
ATOM      1  C   UNL d   1       2.549   2.304  -1.636  0.00  0.00     0.020 A 
ATOM      2  C1  UNL d   1       2.714   1.184  -2.449  0.00  0.00     0.020 A 
ATOM      3  C2  UNL d   1       2.302  -0.072  -1.998  0.00  0.00     0.034 A 
ATOM      4  C3  UNL d   1       1.723  -0.211  -0.732  0.00  0.00     0.017 A 
ATOM      5  C4  UNL d   1       1.557   0.915   0.084  0.00  0.00     0.017 A 
ATOM      6  C5  UNL d   1       1.972   2.170  -0.372  0.00  0.00     0.034 A 
ATOM      7 Cl   UNL d   1       0.851   0.823   1.658  0.00  0.00    -0.070 Cl
ATOM      8 Cl1  UNL d   1       1.235  -1.794  -0.240  0.00  0.00    -0.070 Cl
ENDROOT
TORSDOF 0
ENDMDL
