MODEL 1
REMARK minimizedAffinity 17.4101334
REMARK minimizedRMSD -1
REMARK  0 active torsions:
REMARK  status: ('A' for Active; 'I' for Inactive)
ROOT
ATOM      1  C   UNL d   1       2.430  -0.646  -5.208  0.00  0.00     0.020 A 
ATOM      2  C1  UNL d   1       1.477  -1.437  -5.847  0.00  0.00     0.020 A 
ATOM      3  C2  UNL d   1       0.449  -2.026  -5.108  0.00  0.00     0.034 A 
ATOM      4  C3  UNL d   1       0.371  -1.825  -3.725  0.00  0.00     0.017 A 
ATOM      5  C4  UNL d   1       1.329  -1.030  -3.084  0.00  0.00     0.017 A 
ATOM      6  C5  UNL d   1       2.356  -0.443  -3.829  0.00  0.00     0.034 A 
ATOM      7 Cl   UNL d   1       1.299  -0.736  -1.381  0.00  0.00    -0.070 Cl
ATOM      8 Cl1  UNL d   1      -0.927  -2.584  -2.874  0.00  0.00    -0.070 Cl
ENDROOT
TORSDOF 0
ENDMDL
