MODEL 1
REMARK minimizedAffinity 12.7195024
REMARK minimizedRMSD -1
REMARK  0 active torsions:
REMARK  status: ('A' for Active; 'I' for Inactive)
ROOT
ATOM      1  C   UNL d   1      -3.321   5.011  -5.997  0.00  0.00     0.020 A 
ATOM      2  C1  UNL d   1      -2.422   6.000  -5.600  0.00  0.00     0.020 A 
ATOM      3  C2  UNL d   1      -1.446   5.713  -4.644  0.00  0.00     0.034 A 
ATOM      4  C3  UNL d   1      -1.366   4.434  -4.081  0.00  0.00     0.017 A 
ATOM      5  C4  UNL d   1      -2.269   3.442  -4.479  0.00  0.00     0.017 A 
ATOM      6  C5  UNL d   1      -3.245   3.734  -5.438  0.00  0.00     0.034 A 
ATOM      7 Cl   UNL d   1      -2.233   1.841  -3.830  0.00  0.00    -0.070 Cl
ATOM      8 Cl1  UNL d   1      -0.134   4.150  -2.903  0.00  0.00    -0.070 Cl
ENDROOT
TORSDOF 0
ENDMDL
