MODEL 1
REMARK minimizedAffinity 21.3017464
REMARK minimizedRMSD -1
REMARK  0 active torsions:
REMARK  status: ('A' for Active; 'I' for Inactive)
ROOT
ATOM      1  C   UNL d   1       2.990   0.238  -0.666  0.00  0.00     0.020 A 
ATOM      2  C1  UNL d   1       2.069  -0.542   0.031  0.00  0.00     0.020 A 
ATOM      3  C2  UNL d   1       1.026  -1.170  -0.653  0.00  0.00     0.034 A 
ATOM      4  C3  UNL d   1       0.901  -1.018  -2.039  0.00  0.00     0.017 A 
ATOM      5  C4  UNL d   1       1.826  -0.234  -2.738  0.00  0.00     0.017 A 
ATOM      6  C5  UNL d   1       2.869   0.392  -2.048  0.00  0.00     0.034 A 
ATOM      7 Cl   UNL d   1       1.738  -0.000  -4.448  0.00  0.00    -0.070 Cl
ATOM      8 Cl1  UNL d   1      -0.413  -1.824  -2.820  0.00  0.00    -0.070 Cl
ENDROOT
TORSDOF 0
ENDMDL
