MODEL 1
REMARK minimizedAffinity 20.9171124
REMARK minimizedRMSD -1
REMARK  0 active torsions:
REMARK  status: ('A' for Active; 'I' for Inactive)
ROOT
ATOM      1  C   UNL d   1      -3.108  -3.408  -4.048  0.00  0.00     0.020 A 
ATOM      2  C1  UNL d   1      -1.833  -3.194  -4.569  0.00  0.00     0.020 A 
ATOM      3  C2  UNL d   1      -0.718  -3.750  -3.938  0.00  0.00     0.034 A 
ATOM      4  C3  UNL d   1      -0.877  -4.522  -2.781  0.00  0.00     0.017 A 
ATOM      5  C4  UNL d   1      -2.157  -4.736  -2.259  0.00  0.00     0.017 A 
ATOM      6  C5  UNL d   1      -3.270  -4.177  -2.895  0.00  0.00     0.034 A 
ATOM      7 Cl   UNL d   1      -2.433  -5.677  -0.835  0.00  0.00    -0.070 Cl
ATOM      8 Cl1  UNL d   1       0.545  -5.179  -2.052  0.00  0.00    -0.070 Cl
ENDROOT
TORSDOF 0
ENDMDL
