MODEL 1
REMARK minimizedAffinity 13.8849525
REMARK minimizedRMSD -1
REMARK  0 active torsions:
REMARK  status: ('A' for Active; 'I' for Inactive)
ROOT
ATOM      1  C   UNL d   1      -0.300   0.079   2.677  0.00  0.00     0.020 A 
ATOM      2  C1  UNL d   1      -0.537   1.453   2.685  0.00  0.00     0.020 A 
ATOM      3  C2  UNL d   1      -1.823   1.939   2.933  0.00  0.00     0.034 A 
ATOM      4  C3  UNL d   1      -2.876   1.049   3.174  0.00  0.00     0.017 A 
ATOM      5  C4  UNL d   1      -2.638  -0.330   3.167  0.00  0.00     0.017 A 
ATOM      6  C5  UNL d   1      -1.348  -0.810   2.918  0.00  0.00     0.034 A 
ATOM      7 Cl   UNL d   1      -3.887  -1.488   3.457  0.00  0.00    -0.070 Cl
ATOM      8 Cl1  UNL d   1      -4.441   1.720   3.474  0.00  0.00    -0.070 Cl
ENDROOT
TORSDOF 0
ENDMDL
