MODEL 1
REMARK minimizedAffinity 14.1223888
REMARK minimizedRMSD -1
REMARK  0 active torsions:
REMARK  status: ('A' for Active; 'I' for Inactive)
ROOT
ATOM      1  C   UNL d   1      -3.903   0.794   2.916  0.00  0.00     0.020 A 
ATOM      2  C1  UNL d   1      -3.732  -0.345   2.129  0.00  0.00     0.020 A 
ATOM      3  C2  UNL d   1      -2.447  -0.772   1.790  0.00  0.00     0.034 A 
ATOM      4  C3  UNL d   1      -1.327  -0.060   2.237  0.00  0.00     0.017 A 
ATOM      5  C4  UNL d   1      -1.500   1.082   3.027  0.00  0.00     0.017 A 
ATOM      6  C5  UNL d   1      -2.790   1.505   3.364  0.00  0.00     0.034 A 
ATOM      7 Cl   UNL d   1      -0.168   2.012   3.616  0.00  0.00    -0.070 Cl
ATOM      8 Cl1  UNL d   1       0.232  -0.645   1.779  0.00  0.00    -0.070 Cl
ENDROOT
TORSDOF 0
ENDMDL
