MODEL 1
REMARK minimizedAffinity 18.9593868
REMARK minimizedRMSD -1
REMARK  0 active torsions:
REMARK  status: ('A' for Active; 'I' for Inactive)
ROOT
ATOM      1  C   UNL d   1      -1.920   0.086   2.145  0.00  0.00     0.020 A 
ATOM      2  C1  UNL d   1      -0.945  -0.825   2.552  0.00  0.00     0.020 A 
ATOM      3  C2  UNL d   1      -1.271  -2.173   2.708  0.00  0.00     0.034 A 
ATOM      4  C3  UNL d   1      -2.576  -2.616   2.459  0.00  0.00     0.017 A 
ATOM      5  C4  UNL d   1      -3.553  -1.701   2.051  0.00  0.00     0.017 A 
ATOM      6  C5  UNL d   1      -3.221  -0.352   1.896  0.00  0.00     0.034 A 
ATOM      7 Cl   UNL d   1      -5.184  -2.172   1.724  0.00  0.00    -0.070 Cl
ATOM      8 Cl1  UNL d   1      -2.908  -4.298   2.672  0.00  0.00    -0.070 Cl
ENDROOT
TORSDOF 0
ENDMDL
