MODEL 1
REMARK minimizedAffinity 10.2857389
REMARK minimizedRMSD -1
REMARK  0 active torsions:
REMARK  status: ('A' for Active; 'I' for Inactive)
ROOT
ATOM      1  C   UNL d   1       0.681   0.648   5.996  0.00  0.00     0.020 A 
ATOM      2  C1  UNL d   1      -0.462  -0.151   5.997  0.00  0.00     0.020 A 
ATOM      3  C2  UNL d   1      -1.727   0.440   5.998  0.00  0.00     0.034 A 
ATOM      4  C3  UNL d   1      -1.853   1.834   5.998  0.00  0.00     0.017 A 
ATOM      5  C4  UNL d   1      -0.705   2.635   5.997  0.00  0.00     0.017 A 
ATOM      6  C5  UNL d   1       0.559   2.038   5.996  0.00  0.00     0.034 A 
ATOM      7 Cl   UNL d   1      -0.781   4.362   5.997  0.00  0.00    -0.070 Cl
ATOM      8 Cl1  UNL d   1      -3.449   2.497   5.999  0.00  0.00    -0.070 Cl
ENDROOT
TORSDOF 0
ENDMDL
