MODEL 1
REMARK minimizedAffinity 2.61660504
REMARK minimizedRMSD -1
REMARK  0 active torsions:
REMARK  status: ('A' for Active; 'I' for Inactive)
ROOT
ATOM      1  C   UNL d   1      -4.656  -4.525  -5.247  0.00  0.00     0.020 A 
ATOM      2  C1  UNL d   1      -3.803  -3.718  -6.000  0.00  0.00     0.020 A 
ATOM      3  C2  UNL d   1      -2.457  -3.607  -5.647  0.00  0.00     0.034 A 
ATOM      4  C3  UNL d   1      -1.959  -4.302  -4.539  0.00  0.00     0.017 A 
ATOM      5  C4  UNL d   1      -2.816  -5.111  -3.785  0.00  0.00     0.017 A 
ATOM      6  C5  UNL d   1      -4.164  -5.219  -4.142  0.00  0.00     0.034 A 
ATOM      7 Cl   UNL d   1      -2.275  -6.000  -2.404  0.00  0.00    -0.070 Cl
ATOM      8 Cl1  UNL d   1      -0.283  -4.118  -4.161  0.00  0.00    -0.070 Cl
ENDROOT
TORSDOF 0
ENDMDL
