MODEL 1
REMARK minimizedAffinity 8.76676846
REMARK minimizedRMSD -1
REMARK  0 active torsions:
REMARK  status: ('A' for Active; 'I' for Inactive)
ROOT
ATOM      1  C   UNL d   1      -2.652   0.510   6.000  0.00  0.00     0.020 A 
ATOM      2  C1  UNL d   1      -1.675   1.131   5.222  0.00  0.00     0.020 A 
ATOM      3  C2  UNL d   1      -2.026   1.740   4.015  0.00  0.00     0.034 A 
ATOM      4  C3  UNL d   1      -3.357   1.728   3.582  0.00  0.00     0.017 A 
ATOM      5  C4  UNL d   1      -4.337   1.104   4.364  0.00  0.00     0.017 A 
ATOM      6  C5  UNL d   1      -3.980   0.497   5.571  0.00  0.00     0.034 A 
ATOM      7 Cl   UNL d   1      -6.000   1.050   3.896  0.00  0.00    -0.070 Cl
ATOM      8 Cl1  UNL d   1      -3.720   2.500   2.080  0.00  0.00    -0.070 Cl
ENDROOT
TORSDOF 0
ENDMDL
