MODEL 1
REMARK minimizedAffinity 5.08373451
REMARK minimizedRMSD -1
REMARK  0 active torsions:
REMARK  status: ('A' for Active; 'I' for Inactive)
ROOT
ATOM      1  C   UNL d   1       0.784   2.511   0.394  0.00  0.00     0.020 A 
ATOM      2  C1  UNL d   1       1.139   3.739   0.951  0.00  0.00     0.020 A 
ATOM      3  C2  UNL d   1       1.500   4.803   0.122  0.00  0.00     0.034 A 
ATOM      4  C3  UNL d   1       1.508   4.641  -1.269  0.00  0.00     0.017 A 
ATOM      5  C4  UNL d   1       1.152   3.408  -1.827  0.00  0.00     0.017 A 
ATOM      6  C5  UNL d   1       0.790   2.346  -0.992  0.00  0.00     0.034 A 
ATOM      7 Cl   UNL d   1       1.137   3.132  -3.533  0.00  0.00    -0.070 Cl
ATOM      8 Cl1  UNL d   1       1.966   6.000  -2.233  0.00  0.00    -0.070 Cl
ENDROOT
TORSDOF 0
ENDMDL
