MODEL 1
REMARK minimizedAffinity 8.42123413
REMARK minimizedRMSD -1
REMARK  2 active torsions:
REMARK  status: ('A' for Active; 'I' for Inactive)
REMARK    1  A    between atoms: C1_2  and  C2_3 
REMARK    2  A    between atoms: C2_3  and  C3_4 
ROOT
ATOM      1  C3  UNL d   1       4.875   5.650  -2.789  0.00  0.00    -0.075 A 
ATOM      2  C4  UNL d   1       5.014   5.871  -1.411  0.00  0.00     0.002 A 
ATOM      3  C5  UNL d   1       3.982   5.538  -0.533  0.00  0.00     0.002 A 
ATOM      4  C6  UNL d   1       2.798   4.990  -1.021  0.00  0.00    -0.004 A 
ATOM      5  C7  UNL d   1       2.643   4.781  -2.390  0.00  0.00     0.002 A 
ATOM      6  C8  UNL d   1       3.675   5.110  -3.270  0.00  0.00     0.002 A 
ENDROOT
BRANCH   1   7
ATOM      7  C2  UNL d   1       5.999   5.982  -3.742  0.00  0.00     0.056 C 
BRANCH   7   8
ATOM      8  C1  UNL d   1       5.859   5.331  -5.122  0.00  0.00     0.007 C 
ATOM      9  C   UNL d   1       4.801   5.994  -5.994  0.00  0.00     0.009 C 
ENDBRANCH   7   8
ENDBRANCH   1   7
TORSDOF 2
ENDMDL
