MODEL 1
REMARK minimizedAffinity 8.14664745
REMARK minimizedRMSD -1
REMARK  2 active torsions:
REMARK  status: ('A' for Active; 'I' for Inactive)
REMARK    1  A    between atoms: C1_2  and  C2_3 
REMARK    2  A    between atoms: C2_3  and  C3_4 
ROOT
ATOM      1  C3  UNL d   1       1.352  -1.944   1.331  0.00  0.00    -0.075 A 
ATOM      2  C4  UNL d   1       1.994  -2.878   2.156  0.00  0.00     0.002 A 
ATOM      3  C5  UNL d   1       2.076  -2.669   3.533  0.00  0.00     0.002 A 
ATOM      4  C6  UNL d   1       1.527  -1.521   4.100  0.00  0.00    -0.004 A 
ATOM      5  C7  UNL d   1       0.901  -0.578   3.287  0.00  0.00     0.002 A 
ATOM      6  C8  UNL d   1       0.814  -0.787   1.910  0.00  0.00     0.002 A 
ENDROOT
BRANCH   1   7
ATOM      7  C2  UNL d   1       1.234  -2.179  -0.156  0.00  0.00     0.056 C 
BRANCH   7   8
ATOM      8  C1  UNL d   1       1.426  -3.641  -0.574  0.00  0.00     0.007 C 
ATOM      9  C   UNL d   1       1.424  -3.839  -2.084  0.00  0.00     0.009 C 
ENDBRANCH   7   8
ENDBRANCH   1   7
TORSDOF 2
ENDMDL
