MODEL 1
REMARK minimizedAffinity 2.78878307
REMARK minimizedRMSD -1
REMARK  2 active torsions:
REMARK  status: ('A' for Active; 'I' for Inactive)
REMARK    1  A    between atoms: C1_2  and  C2_3 
REMARK    2  A    between atoms: C2_3  and  C3_4 
ROOT
ATOM      1  C3  UNL d   1      -0.220  -1.856   0.039  0.00  0.00    -0.075 A 
ATOM      2  C4  UNL d   1      -0.910  -2.906   0.660  0.00  0.00     0.002 A 
ATOM      3  C5  UNL d   1      -2.181  -2.699   1.197  0.00  0.00     0.002 A 
ATOM      4  C6  UNL d   1      -2.773  -1.440   1.129  0.00  0.00    -0.004 A 
ATOM      5  C7  UNL d   1      -2.090  -0.385   0.529  0.00  0.00     0.002 A 
ATOM      6  C8  UNL d   1      -0.820  -0.590  -0.013  0.00  0.00     0.002 A 
ENDROOT
BRANCH   1   7
ATOM      7  C2  UNL d   1       1.143  -2.080  -0.571  0.00  0.00     0.056 C 
BRANCH   7   8
ATOM      8  C1  UNL d   1       1.337  -3.478  -1.167  0.00  0.00     0.007 C 
ATOM      9  C   UNL d   1       1.878  -3.454  -2.590  0.00  0.00     0.009 C 
ENDBRANCH   7   8
ENDBRANCH   1   7
TORSDOF 2
ENDMDL
