MODEL 1
REMARK minimizedAffinity 2.45215487
REMARK minimizedRMSD -1
REMARK  2 active torsions:
REMARK  status: ('A' for Active; 'I' for Inactive)
REMARK    1  A    between atoms: C1_2  and  C2_3 
REMARK    2  A    between atoms: C2_3  and  C3_4 
ROOT
ATOM      1  C3  UNL d   1       2.063   0.657   0.897  0.00  0.00    -0.075 A 
ATOM      2  C4  UNL d   1       1.159   1.514   0.252  0.00  0.00     0.002 A 
ATOM      3  C5  UNL d   1       1.620   2.609  -0.480  0.00  0.00     0.002 A 
ATOM      4  C6  UNL d   1       2.986   2.866  -0.568  0.00  0.00    -0.004 A 
ATOM      5  C7  UNL d   1       3.892   2.031   0.082  0.00  0.00     0.002 A 
ATOM      6  C8  UNL d   1       3.434   0.933   0.812  0.00  0.00     0.002 A 
ENDROOT
BRANCH   1   7
ATOM      7  C2  UNL d   1       1.572  -0.546   1.666  0.00  0.00     0.056 C 
BRANCH   7   8
ATOM      8  C1  UNL d   1       1.054  -1.684   0.780  0.00  0.00     0.007 C 
ATOM      9  C   UNL d   1      -0.365  -2.115   1.125  0.00  0.00     0.009 C 
ENDBRANCH   7   8
ENDBRANCH   1   7
TORSDOF 2
ENDMDL
