MODEL 1
REMARK minimizedAffinity 4.32212448
REMARK minimizedRMSD -1
REMARK  2 active torsions:
REMARK  status: ('A' for Active; 'I' for Inactive)
REMARK    1  A    between atoms: C1_2  and  C2_3 
REMARK    2  A    between atoms: C2_3  and  C3_4 
ROOT
ATOM      1  C3  UNL d   1       2.996   1.046   1.157  0.00  0.00    -0.075 A 
ATOM      2  C4  UNL d   1       3.846   0.007   0.751  0.00  0.00     0.002 A 
ATOM      3  C5  UNL d   1       3.474  -1.325   0.934  0.00  0.00     0.002 A 
ATOM      4  C6  UNL d   1       2.255  -1.635   1.533  0.00  0.00    -0.004 A 
ATOM      5  C7  UNL d   1       1.410  -0.611   1.954  0.00  0.00     0.002 A 
ATOM      6  C8  UNL d   1       1.778   0.723   1.769  0.00  0.00     0.002 A 
ENDROOT
BRANCH   1   7
ATOM      7  C2  UNL d   1       3.380   2.489   0.935  0.00  0.00     0.056 C 
BRANCH   7   8
ATOM      8  C1  UNL d   1       2.309   3.316   0.215  0.00  0.00     0.007 C 
ATOM      9  C   UNL d   1       2.795   3.914  -1.099  0.00  0.00     0.009 C 
ENDBRANCH   7   8
ENDBRANCH   1   7
TORSDOF 2
ENDMDL
