MODEL 1
REMARK minimizedAffinity 0.686938703
REMARK minimizedRMSD -1
REMARK  2 active torsions:
REMARK  status: ('A' for Active; 'I' for Inactive)
REMARK    1  A    between atoms: C1_2  and  C2_3 
REMARK    2  A    between atoms: C2_3  and  C3_4 
ROOT
ATOM      1  C3  UNL d   1       1.925  -0.630   1.560  0.00  0.00    -0.075 A 
ATOM      2  C4  UNL d   1       2.814   0.341   1.078  0.00  0.00     0.002 A 
ATOM      3  C5  UNL d   1       2.334   1.523   0.513  0.00  0.00     0.002 A 
ATOM      4  C6  UNL d   1       0.962   1.743   0.413  0.00  0.00    -0.004 A 
ATOM      5  C7  UNL d   1       0.069   0.777   0.873  0.00  0.00     0.002 A 
ATOM      6  C8  UNL d   1       0.547  -0.404   1.444  0.00  0.00     0.002 A 
ENDROOT
BRANCH   1   7
ATOM      7  C2  UNL d   1       2.439  -1.898   2.200  0.00  0.00     0.056 C 
BRANCH   7   8
ATOM      8  C1  UNL d   1       1.503  -2.483   3.264  0.00  0.00     0.007 C 
ATOM      9  C   UNL d   1       1.017  -3.887   2.929  0.00  0.00     0.009 C 
ENDBRANCH   7   8
ENDBRANCH   1   7
TORSDOF 2
ENDMDL
