MODEL 1
REMARK minimizedAffinity 2.76601171
REMARK minimizedRMSD -1
REMARK  2 active torsions:
REMARK  status: ('A' for Active; 'I' for Inactive)
REMARK    1  A    between atoms: C1_2  and  C2_3 
REMARK    2  A    between atoms: C2_3  and  C3_4 
ROOT
ATOM      1  C3  UNL d   1       2.542  -1.691   2.499  0.00  0.00    -0.075 A 
ATOM      2  C4  UNL d   1       2.071  -0.372   2.421  0.00  0.00     0.002 A 
ATOM      3  C5  UNL d   1       1.457   0.227   3.521  0.00  0.00     0.002 A 
ATOM      4  C6  UNL d   1       1.295  -0.486   4.706  0.00  0.00    -0.004 A 
ATOM      5  C7  UNL d   1       1.744  -1.802   4.790  0.00  0.00     0.002 A 
ATOM      6  C8  UNL d   1       2.364  -2.403   3.692  0.00  0.00     0.002 A 
ENDROOT
BRANCH   1   7
ATOM      7  C2  UNL d   1       3.235  -2.335   1.322  0.00  0.00     0.056 C 
BRANCH   7   8
ATOM      8  C1  UNL d   1       4.698  -2.706   1.585  0.00  0.00     0.007 C 
ATOM      9  C   UNL d   1       5.619  -1.496   1.663  0.00  0.00     0.009 C 
ENDBRANCH   7   8
ENDBRANCH   1   7
TORSDOF 2
ENDMDL
