MODEL 1
REMARK minimizedAffinity -1.72645223
REMARK minimizedRMSD -1
REMARK  2 active torsions:
REMARK  status: ('A' for Active; 'I' for Inactive)
REMARK    1  A    between atoms: C1_2  and  C2_3 
REMARK    2  A    between atoms: C2_3  and  C3_4 
ROOT
ATOM      1  C3  UNL d   1       2.605  -1.547   2.867  0.00  0.00    -0.075 A 
ATOM      2  C4  UNL d   1       2.079  -2.210   3.985  0.00  0.00     0.002 A 
ATOM      3  C5  UNL d   1       1.230  -1.543   4.869  0.00  0.00     0.002 A 
ATOM      4  C6  UNL d   1       0.906  -0.205   4.653  0.00  0.00    -0.004 A 
ATOM      5  C7  UNL d   1       1.436   0.467   3.554  0.00  0.00     0.002 A 
ATOM      6  C8  UNL d   1       2.282  -0.199   2.665  0.00  0.00     0.002 A 
ENDROOT
BRANCH   1   7
ATOM      7  C2  UNL d   1       3.500  -2.272   1.890  0.00  0.00     0.056 C 
BRANCH   7   8
ATOM      8  C1  UNL d   1       4.913  -2.539   2.418  0.00  0.00     0.007 C 
ATOM      9  C   UNL d   1       5.999  -2.294   1.380  0.00  0.00     0.009 C 
ENDBRANCH   7   8
ENDBRANCH   1   7
TORSDOF 2
ENDMDL
