MODEL 1
REMARK minimizedAffinity 2.74140549
REMARK minimizedRMSD -1
REMARK  2 active torsions:
REMARK  status: ('A' for Active; 'I' for Inactive)
REMARK    1  A    between atoms: C1_2  and  C2_3 
REMARK    2  A    between atoms: C2_3  and  C3_4 
ROOT
ATOM      1  C3  UNL d   1       0.755   0.408   1.626  0.00  0.00    -0.075 A 
ATOM      2  C4  UNL d   1      -0.339   1.174   1.199  0.00  0.00     0.002 A 
ATOM      3  C5  UNL d   1      -0.141   2.388   0.540  0.00  0.00     0.002 A 
ATOM      4  C6  UNL d   1       1.151   2.855   0.309  0.00  0.00    -0.004 A 
ATOM      5  C7  UNL d   1       2.245   2.111   0.743  0.00  0.00     0.002 A 
ATOM      6  C8  UNL d   1       2.050   0.894   1.399  0.00  0.00     0.002 A 
ENDROOT
BRANCH   1   7
ATOM      7  C2  UNL d   1       0.548  -0.920   2.313  0.00  0.00     0.056 C 
BRANCH   7   8
ATOM      8  C1  UNL d   1       1.659  -1.292   3.301  0.00  0.00     0.007 C 
ATOM      9  C   UNL d   1       1.130  -1.791   4.639  0.00  0.00     0.009 C 
ENDBRANCH   7   8
ENDBRANCH   1   7
TORSDOF 2
ENDMDL
