MODEL 1
REMARK minimizedAffinity -3.41018295
REMARK minimizedRMSD -1
REMARK  2 active torsions:
REMARK  status: ('A' for Active; 'I' for Inactive)
REMARK    1  A    between atoms: C1_2  and  C2_3 
REMARK    2  A    between atoms: C2_3  and  C3_4 
ROOT
ATOM      1  C3  UNL d   1      -5.800  -5.283  -3.521  0.00  0.00    -0.075 A 
ATOM      2  C4  UNL d   1      -5.982  -3.894  -3.589  0.00  0.00     0.002 A 
ATOM      3  C5  UNL d   1      -5.997  -3.242  -4.822  0.00  0.00     0.002 A 
ATOM      4  C6  UNL d   1      -5.820  -3.966  -5.999  0.00  0.00    -0.004 A 
ATOM      5  C7  UNL d   1      -5.622  -5.343  -5.942  0.00  0.00     0.002 A 
ATOM      6  C8  UNL d   1      -5.611  -6.000  -4.710  0.00  0.00     0.002 A 
ENDROOT
BRANCH   1   7
ATOM      7  C2  UNL d   1      -5.812  -6.000  -2.192  0.00  0.00     0.056 C 
BRANCH   7   8
ATOM      8  C1  UNL d   1      -4.472  -5.960  -1.450  0.00  0.00     0.007 C 
ATOM      9  C   UNL d   1      -3.945  -4.547  -1.236  0.00  0.00     0.009 C 
ENDBRANCH   7   8
ENDBRANCH   1   7
TORSDOF 2
ENDMDL
