MODEL 1
REMARK minimizedAffinity -0.662370741
REMARK minimizedRMSD -1
REMARK  2 active torsions:
REMARK  status: ('A' for Active; 'I' for Inactive)
REMARK    1  A    between atoms: C1_2  and  C2_3 
REMARK    2  A    between atoms: C2_3  and  C3_4 
ROOT
ATOM      1  C3  UNL d   1      -5.300   0.334  -4.979  0.00  0.00    -0.075 A 
ATOM      2  C4  UNL d   1      -5.351   0.351  -3.577  0.00  0.00     0.002 A 
ATOM      3  C5  UNL d   1      -4.784   1.406  -2.861  0.00  0.00     0.002 A 
ATOM      4  C6  UNL d   1      -4.152   2.449  -3.535  0.00  0.00    -0.004 A 
ATOM      5  C7  UNL d   1      -4.081   2.434  -4.926  0.00  0.00     0.002 A 
ATOM      6  C8  UNL d   1      -4.651   1.382  -5.645  0.00  0.00     0.002 A 
ENDROOT
BRANCH   1   7
ATOM      7  C2  UNL d   1      -5.937  -0.790  -5.761  0.00  0.00     0.056 C 
BRANCH   7   8
ATOM      8  C1  UNL d   1      -6.000  -2.120  -5.002  0.00  0.00     0.007 C 
ATOM      9  C   UNL d   1      -5.993  -3.336  -5.920  0.00  0.00     0.009 C 
ENDBRANCH   7   8
ENDBRANCH   1   7
TORSDOF 2
ENDMDL
