MODEL 1
REMARK minimizedAffinity -4.39724207
REMARK minimizedRMSD -1
REMARK  1 active torsions:
REMARK  status: ('A' for Active; 'I' for Inactive)
REMARK    1  A    between atoms: C1_2  and  C2_3 
ROOT
ATOM      1  C2  UNL d   1      -0.009   0.656  -0.901  0.00  0.00    -0.081 A 
ATOM      2  C3  UNL d   1      -1.209   0.446  -0.210  0.00  0.00     0.006 A 
ATOM      3  C4  UNL d   1      -1.228  -0.314   0.961  0.00  0.00     0.002 A 
ATOM      4  C5  UNL d   1      -0.048  -0.871   1.465  0.00  0.00    -0.080 A 
ATOM      5  C6  UNL d   1      -0.050  -1.664   2.738  0.00  0.00     0.076 C 
ATOM      6  C7  UNL d   1       1.148  -0.677   0.766  0.00  0.00     0.002 A 
ATOM      7  C8  UNL d   1       1.168   0.083  -0.406  0.00  0.00     0.006 A 
ENDROOT
BRANCH   1   8
ATOM      8  C1  UNL d   1       0.026   1.529  -2.129  0.00  0.00     0.054 C 
ATOM      9  C   UNL d   1      -1.289   2.272  -2.317  0.00  0.00     0.018 C 
ENDBRANCH   1   8
TORSDOF 1
ENDMDL
