MODEL 1
REMARK minimizedAffinity 0.213353261
REMARK minimizedRMSD -1
REMARK  1 active torsions:
REMARK  status: ('A' for Active; 'I' for Inactive)
REMARK    1  A    between atoms: C1_2  and  C2_3 
ROOT
ATOM      1  C2  UNL d   1      -0.959   1.577  -1.455  0.00  0.00    -0.081 A 
ATOM      2  C3  UNL d   1      -1.542   0.353  -1.106  0.00  0.00     0.006 A 
ATOM      3  C4  UNL d   1      -0.886  -0.522  -0.237  0.00  0.00     0.002 A 
ATOM      4  C5  UNL d   1       0.360  -0.185   0.303  0.00  0.00    -0.080 A 
ATOM      5  C6  UNL d   1       1.061  -1.102   1.260  0.00  0.00     0.076 C 
ATOM      6  C7  UNL d   1       0.951   1.030  -0.060  0.00  0.00     0.002 A 
ATOM      7  C8  UNL d   1       0.295   1.905  -0.930  0.00  0.00     0.006 A 
ENDROOT
BRANCH   1   8
ATOM      8  C1  UNL d   1      -1.693   2.551  -2.341  0.00  0.00     0.054 C 
ATOM      9  C   UNL d   1      -0.728   3.349  -3.205  0.00  0.00     0.018 C 
ENDBRANCH   1   8
TORSDOF 1
ENDMDL
