MODEL 1
REMARK minimizedAffinity -2.32957339
REMARK minimizedRMSD -1
REMARK  1 active torsions:
REMARK  status: ('A' for Active; 'I' for Inactive)
REMARK    1  A    between atoms: C1_2  and  C2_3 
ROOT
ATOM      1  C2  UNL d   1      -0.436   0.358  -0.277  0.00  0.00    -0.081 A 
ATOM      2  C3  UNL d   1      -1.015  -0.151   0.892  0.00  0.00     0.006 A 
ATOM      3  C4  UNL d   1      -0.210  -0.591   1.946  0.00  0.00     0.002 A 
ATOM      4  C5  UNL d   1       1.184  -0.523   1.852  0.00  0.00    -0.080 A 
ATOM      5  C6  UNL d   1       2.058  -0.964   2.988  0.00  0.00     0.076 C 
ATOM      6  C7  UNL d   1       1.762  -0.031   0.676  0.00  0.00     0.002 A 
ATOM      7  C8  UNL d   1       0.958   0.409  -0.378  0.00  0.00     0.006 A 
ENDROOT
BRANCH   1   8
ATOM      8  C1  UNL d   1      -1.301   0.893  -1.390  0.00  0.00     0.054 C 
ATOM      9  C   UNL d   1      -0.775   2.224  -1.908  0.00  0.00     0.018 C 
ENDBRANCH   1   8
TORSDOF 1
ENDMDL
