MODEL 1
REMARK minimizedAffinity -5.80844355
REMARK minimizedRMSD -1
REMARK  1 active torsions:
REMARK  status: ('A' for Active; 'I' for Inactive)
REMARK    1  A    between atoms: C1_2  and  C2_3 
ROOT
ATOM      1  C2  UNL d   1       1.895  -1.301   1.148  0.00  0.00    -0.081 A 
ATOM      2  C3  UNL d   1       1.365  -1.251   2.443  0.00  0.00     0.006 A 
ATOM      3  C4  UNL d   1       0.071  -0.771   2.661  0.00  0.00     0.002 A 
ATOM      4  C5  UNL d   1      -0.716  -0.341   1.587  0.00  0.00    -0.080 A 
ATOM      5  C6  UNL d   1      -2.118   0.147   1.804  0.00  0.00     0.076 C 
ATOM      6  C7  UNL d   1      -0.180  -0.375   0.296  0.00  0.00     0.002 A 
ATOM      7  C8  UNL d   1       1.113  -0.853   0.078  0.00  0.00     0.006 A 
ENDROOT
BRANCH   1   8
ATOM      8  C1  UNL d   1       3.266  -1.878   0.903  0.00  0.00     0.054 C 
ATOM      9  C   UNL d   1       3.344  -2.562  -0.454  0.00  0.00     0.018 C 
ENDBRANCH   1   8
TORSDOF 1
ENDMDL
