MODEL 1
REMARK minimizedAffinity -2.11608505
REMARK minimizedRMSD -1
REMARK  1 active torsions:
REMARK  status: ('A' for Active; 'I' for Inactive)
REMARK    1  A    between atoms: C1_2  and  C2_3 
ROOT
ATOM      1  C2  UNL d   1      -0.739   0.766  -1.127  0.00  0.00    -0.081 A 
ATOM      2  C3  UNL d   1      -1.481   0.840   0.059  0.00  0.00     0.006 A 
ATOM      3  C4  UNL d   1      -1.115   0.080   1.172  0.00  0.00     0.002 A 
ATOM      4  C5  UNL d   1       0.002  -0.761   1.121  0.00  0.00    -0.080 A 
ATOM      5  C6  UNL d   1       0.423  -1.561   2.318  0.00  0.00     0.076 C 
ATOM      6  C7  UNL d   1       0.732  -0.849  -0.069  0.00  0.00     0.002 A 
ATOM      7  C8  UNL d   1       0.367  -0.089  -1.182  0.00  0.00     0.006 A 
ENDROOT
BRANCH   1   8
ATOM      8  C1  UNL d   1      -1.093   1.634  -2.307  0.00  0.00     0.054 C 
ATOM      9  C   UNL d   1      -0.233   2.890  -2.348  0.00  0.00     0.018 C 
ENDBRANCH   1   8
TORSDOF 1
ENDMDL
