MODEL 1
REMARK minimizedAffinity -0.819922566
REMARK minimizedRMSD -1
REMARK  1 active torsions:
REMARK  status: ('A' for Active; 'I' for Inactive)
REMARK    1  A    between atoms: C1_2  and  C2_3 
ROOT
ATOM      1  C2  UNL d   1      -1.001   1.180  -0.418  0.00  0.00    -0.081 A 
ATOM      2  C3  UNL d   1      -0.818  -0.178  -0.707  0.00  0.00     0.006 A 
ATOM      3  C4  UNL d   1      -0.587  -1.096   0.320  0.00  0.00     0.002 A 
ATOM      4  C5  UNL d   1      -0.544  -0.673   1.653  0.00  0.00    -0.080 A 
ATOM      5  C6  UNL d   1      -0.328  -1.653   2.768  0.00  0.00     0.076 C 
ATOM      6  C7  UNL d   1      -0.710   0.686   1.941  0.00  0.00     0.002 A 
ATOM      7  C8  UNL d   1      -0.939   1.604   0.914  0.00  0.00     0.006 A 
ENDROOT
BRANCH   1   8
ATOM      8  C1  UNL d   1      -1.314   2.162  -1.518  0.00  0.00     0.054 C 
ATOM      9  C   UNL d   1      -0.048   2.815  -2.053  0.00  0.00     0.018 C 
ENDBRANCH   1   8
TORSDOF 1
ENDMDL
