MODEL 1
REMARK minimizedAffinity -2.49092317
REMARK minimizedRMSD -1
REMARK  0 active torsions:
REMARK  status: ('A' for Active; 'I' for Inactive)
ROOT
ATOM      1  C   UNL d   1      -2.125  -0.005  -1.383  0.00  0.00     0.172 C 
ATOM      2  N   UNL d   1      -2.632   1.210  -1.977  0.00  0.00    -0.070 N 
ATOM      3  C1  UNL d   1      -2.688   1.480  -3.318  0.00  0.00    -0.004 A 
ATOM      4  C2  UNL d   1      -3.233   2.736  -3.473  0.00  0.00    -0.047 A 
ATOM      5  C3  UNL d   1      -3.513   3.239  -2.180  0.00  0.00    -0.047 A 
ATOM      6  C4  UNL d   1      -3.131   2.274  -1.272  0.00  0.00    -0.004 A 
ENDROOT
TORSDOF 0
ENDMDL
