MODEL 1
REMARK minimizedAffinity -3.05792522
REMARK minimizedRMSD -1
REMARK  0 active torsions:
REMARK  status: ('A' for Active; 'I' for Inactive)
ROOT
ATOM      1  C   UNL d   1      -3.094   2.081  -3.059  0.00  0.00     0.172 C 
ATOM      2  N   UNL d   1      -2.780   3.402  -3.550  0.00  0.00    -0.070 N 
ATOM      3  C1  UNL d   1      -2.473   4.489  -2.775  0.00  0.00    -0.004 A 
ATOM      4  C2  UNL d   1      -2.237   5.555  -3.617  0.00  0.00    -0.047 A 
ATOM      5  C3  UNL d   1      -2.409   5.092  -4.943  0.00  0.00    -0.047 A 
ATOM      6  C4  UNL d   1      -2.744   3.756  -4.873  0.00  0.00    -0.004 A 
ENDROOT
TORSDOF 0
ENDMDL
