MODEL 1
REMARK minimizedAffinity -3.19256997
REMARK minimizedRMSD -1
REMARK  0 active torsions:
REMARK  status: ('A' for Active; 'I' for Inactive)
ROOT
ATOM      1  C   UNL d   1      -2.507   4.990  -4.562  0.00  0.00     0.172 C 
ATOM      2  N   UNL d   1      -2.710   4.241  -3.344  0.00  0.00    -0.070 N 
ATOM      3  C1  UNL d   1      -3.267   4.728  -2.191  0.00  0.00    -0.004 A 
ATOM      4  C2  UNL d   1      -3.283   3.706  -1.266  0.00  0.00    -0.047 A 
ATOM      5  C3  UNL d   1      -2.716   2.567  -1.884  0.00  0.00    -0.047 A 
ATOM      6  C4  UNL d   1      -2.370   2.926  -3.170  0.00  0.00    -0.004 A 
ENDROOT
TORSDOF 0
ENDMDL
