MODEL 1
REMARK minimizedAffinity -1.49134684
REMARK minimizedRMSD -1
REMARK  0 active torsions:
REMARK  status: ('A' for Active; 'I' for Inactive)
ROOT
ATOM      1  C   UNL d   1       0.837  -1.649   1.517  0.00  0.00     0.172 C 
ATOM      2  N   UNL d   1      -0.466  -1.107   1.823  0.00  0.00    -0.070 N 
ATOM      3  C1  UNL d   1      -1.565  -1.163   1.008  0.00  0.00    -0.004 A 
ATOM      4  C2  UNL d   1      -2.606  -0.535   1.659  0.00  0.00    -0.047 A 
ATOM      5  C3  UNL d   1      -2.114  -0.086   2.908  0.00  0.00    -0.047 A 
ATOM      6  C4  UNL d   1      -0.787  -0.453   2.983  0.00  0.00    -0.004 A 
ENDROOT
TORSDOF 0
ENDMDL
