MODEL 1
REMARK minimizedAffinity 0.589680552
REMARK minimizedRMSD -1
REMARK  0 active torsions:
REMARK  status: ('A' for Active; 'I' for Inactive)
ROOT
ATOM      1  C   UNL d   1       6.000   3.906   0.258  0.00  0.00     0.172 C 
ATOM      2  N   UNL d   1       5.893   4.491   1.574  0.00  0.00    -0.070 N 
ATOM      3  C1  UNL d   1       5.670   3.804   2.737  0.00  0.00    -0.004 A 
ATOM      4  C2  UNL d   1       5.635   4.718   3.768  0.00  0.00    -0.047 A 
ATOM      5  C3  UNL d   1       5.843   5.999   3.204  0.00  0.00    -0.047 A 
ATOM      6  C4  UNL d   1       5.999   5.830   1.845  0.00  0.00    -0.004 A 
ENDROOT
TORSDOF 0
ENDMDL
