MODEL 1
REMARK minimizedAffinity 1.21583915
REMARK minimizedRMSD -1
REMARK  0 active torsions:
REMARK  status: ('A' for Active; 'I' for Inactive)
ROOT
ATOM      1  C   UNL d   1      -1.560  -1.345  -0.453  0.00  0.00     0.172 C 
ATOM      2  N   UNL d   1      -0.320  -1.738   0.174  0.00  0.00    -0.070 N 
ATOM      3  C1  UNL d   1      -0.079  -1.762   1.522  0.00  0.00    -0.004 A 
ATOM      4  C2  UNL d   1       1.216  -2.193   1.711  0.00  0.00    -0.047 A 
ATOM      5  C3  UNL d   1       1.774  -2.434   0.433  0.00  0.00    -0.047 A 
ATOM      6  C4  UNL d   1       0.802  -2.144  -0.500  0.00  0.00    -0.004 A 
ENDROOT
TORSDOF 0
ENDMDL
