MODEL 1
REMARK minimizedAffinity -3.05306482
REMARK minimizedRMSD -1
REMARK  0 active torsions:
REMARK  status: ('A' for Active; 'I' for Inactive)
ROOT
ATOM      1  C   UNL d   1      -3.207   2.980  -1.136  0.00  0.00     0.172 C 
ATOM      2  N   UNL d   1      -2.757   3.255  -2.480  0.00  0.00    -0.070 N 
ATOM      3  C1  UNL d   1      -2.312   2.324  -3.379  0.00  0.00    -0.004 A 
ATOM      4  C2  UNL d   1      -1.978   2.985  -4.541  0.00  0.00    -0.047 A 
ATOM      5  C3  UNL d   1      -2.230   4.361  -4.333  0.00  0.00    -0.047 A 
ATOM      6  C4  UNL d   1      -2.712   4.501  -3.049  0.00  0.00    -0.004 A 
ENDROOT
TORSDOF 0
ENDMDL
