MODEL 1
REMARK minimizedAffinity -3.44613171
REMARK minimizedRMSD -1
REMARK  0 active torsions:
REMARK  status: ('A' for Active; 'I' for Inactive)
ROOT
ATOM      1  C   UNL d   1      -2.665   4.472  -4.145  0.00  0.00     0.172 C 
ATOM      2  N   UNL d   1      -2.310   3.353  -3.306  0.00  0.00    -0.070 N 
ATOM      3  C1  UNL d   1      -2.962   2.149  -3.262  0.00  0.00    -0.004 A 
ATOM      4  C2  UNL d   1      -2.318   1.353  -2.340  0.00  0.00    -0.047 A 
ATOM      5  C3  UNL d   1      -1.242   2.104  -1.811  0.00  0.00    -0.047 A 
ATOM      6  C4  UNL d   1      -1.260   3.338  -2.426  0.00  0.00    -0.004 A 
ENDROOT
TORSDOF 0
ENDMDL
