MODEL 1
REMARK minimizedAffinity -4.68575144
REMARK minimizedRMSD -1
REMARK  0 active torsions:
REMARK  status: ('A' for Active; 'I' for Inactive)
ROOT
ATOM      1  C2' OXE d   1       0.202   0.170  -2.258  0.00  0.00     0.078 C 
ATOM      2  C1' OXE d   1       1.003   0.217   0.432  0.00  0.00     0.078 C 
ATOM      3  C1  OXE d   1      -0.443  -0.095   0.134  0.00  0.00    -0.078 A 
ATOM      4  C2  OXE d   1      -0.836  -0.069  -1.182  0.00  0.00    -0.078 A 
ATOM      5  C3  OXE d   1      -2.145  -0.403  -1.517  0.00  0.00     0.003 A 
ATOM      6  C4  OXE d   1      -3.101  -0.613  -0.516  0.00  0.00    -0.002 A 
ATOM      7  C5  OXE d   1      -2.730  -0.604   0.833  0.00  0.00    -0.002 A 
ATOM      8  C6  OXE d   1      -1.399  -0.389   1.172  0.00  0.00     0.003 A 
ENDROOT
TORSDOF 0
ENDMDL
