MODEL 1
REMARK minimizedAffinity -4.32853079
REMARK minimizedRMSD -1
REMARK  0 active torsions:
REMARK  status: ('A' for Active; 'I' for Inactive)
ROOT
ATOM      1  C2' OXE d   1      -2.695  -0.467   0.550  0.00  0.00     0.078 C 
ATOM      2  C1' OXE d   1      -0.983  -2.068   2.095  0.00  0.00     0.078 C 
ATOM      3  C1  OXE d   1      -0.366  -0.951   1.290  0.00  0.00    -0.078 A 
ATOM      4  C2  OXE d   1      -1.205  -0.203   0.500  0.00  0.00    -0.078 A 
ATOM      5  C3  OXE d   1      -0.696   0.874  -0.220  0.00  0.00     0.003 A 
ATOM      6  C4  OXE d   1       0.684   1.105  -0.268  0.00  0.00    -0.002 A 
ATOM      7  C5  OXE d   1       1.561   0.330   0.498  0.00  0.00    -0.002 A 
ATOM      8  C6  OXE d   1       1.049  -0.673   1.313  0.00  0.00     0.003 A 
ENDROOT
TORSDOF 0
ENDMDL
