MODEL 1
REMARK minimizedAffinity -3.73201799
REMARK minimizedRMSD -1
REMARK  0 active torsions:
REMARK  status: ('A' for Active; 'I' for Inactive)
ROOT
ATOM      1  C2' OXE d   1       0.834   0.812   0.461  0.00  0.00     0.078 C 
ATOM      2  C1' OXE d   1       0.233   0.103  -2.188  0.00  0.00     0.078 C 
ATOM      3  C1  OXE d   1      -0.794  -0.205  -1.127  0.00  0.00    -0.078 A 
ATOM      4  C2  OXE d   1      -0.472   0.103   0.173  0.00  0.00    -0.078 A 
ATOM      5  C3  OXE d   1      -1.405  -0.110   1.184  0.00  0.00     0.003 A 
ATOM      6  C4  OXE d   1      -2.606  -0.775   0.911  0.00  0.00    -0.002 A 
ATOM      7  C5  OXE d   1      -2.937  -1.134  -0.400  0.00  0.00    -0.002 A 
ATOM      8  C6  OXE d   1      -2.063  -0.818  -1.434  0.00  0.00     0.003 A 
ENDROOT
TORSDOF 0
ENDMDL
