MODEL 1
REMARK minimizedAffinity -4.83702707
REMARK minimizedRMSD -1
REMARK  0 active torsions:
REMARK  status: ('A' for Active; 'I' for Inactive)
ROOT
ATOM      1  C2' OXE d   1      -1.357  -1.449   2.116  0.00  0.00     0.078 C 
ATOM      2  C1' OXE d   1      -3.204  -0.823   0.096  0.00  0.00     0.078 C 
ATOM      3  C1  OXE d   1      -1.785  -0.343  -0.075  0.00  0.00    -0.078 A 
ATOM      4  C2  OXE d   1      -0.899  -0.613   0.940  0.00  0.00    -0.078 A 
ATOM      5  C3  OXE d   1       0.436  -0.241   0.808  0.00  0.00     0.003 A 
ATOM      6  C4  OXE d   1       0.850   0.540  -0.278  0.00  0.00    -0.002 A 
ATOM      7  C5  OXE d   1      -0.046   0.861  -1.304  0.00  0.00    -0.002 A 
ATOM      8  C6  OXE d   1      -1.353   0.392  -1.239  0.00  0.00     0.003 A 
ENDROOT
TORSDOF 0
ENDMDL
