MODEL 1
REMARK minimizedAffinity -3.13062215
REMARK minimizedRMSD -1
REMARK  0 active torsions:
REMARK  status: ('A' for Active; 'I' for Inactive)
ROOT
ATOM      1  C2' OXE d   1      -3.287  -0.575  -0.684  0.00  0.00     0.078 C 
ATOM      2  C1' OXE d   1      -1.741   0.506  -2.763  0.00  0.00     0.078 C 
ATOM      3  C1  OXE d   1      -1.040   0.152  -1.476  0.00  0.00    -0.078 A 
ATOM      4  C2  OXE d   1      -1.812  -0.333  -0.448  0.00  0.00    -0.078 A 
ATOM      5  C3  OXE d   1      -1.207  -0.727   0.742  0.00  0.00     0.003 A 
ATOM      6  C4  OXE d   1       0.157  -0.490   0.956  0.00  0.00    -0.002 A 
ATOM      7  C5  OXE d   1       0.954   0.039  -0.064  0.00  0.00    -0.002 A 
ATOM      8  C6  OXE d   1       0.381   0.325  -1.298  0.00  0.00     0.003 A 
ENDROOT
TORSDOF 0
ENDMDL
