MODEL 1
REMARK minimizedAffinity -5.72336626
REMARK minimizedRMSD -1
REMARK  0 active torsions:
REMARK  status: ('A' for Active; 'I' for Inactive)
ROOT
ATOM      1  C2' OXE d   1       0.680   0.589  -0.097  0.00  0.00     0.078 C 
ATOM      2  C1' OXE d   1      -0.516   0.960  -2.610  0.00  0.00     0.078 C 
ATOM      3  C1  OXE d   1      -1.293   0.197  -1.566  0.00  0.00    -0.078 A 
ATOM      4  C2  OXE d   1      -0.681  -0.020  -0.355  0.00  0.00    -0.078 A 
ATOM      5  C3  OXE d   1      -1.375  -0.671   0.661  0.00  0.00     0.003 A 
ATOM      6  C4  OXE d   1      -2.630  -1.240   0.411  0.00  0.00    -0.002 A 
ATOM      7  C5  OXE d   1      -3.254  -1.065  -0.828  0.00  0.00    -0.002 A 
ATOM      8  C6  OXE d   1      -2.619  -0.314  -1.811  0.00  0.00     0.003 A 
ENDROOT
TORSDOF 0
ENDMDL
