MODEL 1
REMARK minimizedAffinity 1.34819531
REMARK minimizedRMSD -1
REMARK  0 active torsions:
REMARK  status: ('A' for Active; 'I' for Inactive)
ROOT
ATOM      1  C2' OXE d   1      -1.110  -2.392   1.942  0.00  0.00     0.078 C 
ATOM      2  C1' OXE d   1      -2.568  -1.043  -0.041  0.00  0.00     0.078 C 
ATOM      3  C1  OXE d   1      -1.099  -0.727   0.090  0.00  0.00    -0.078 A 
ATOM      4  C2  OXE d   1      -0.404  -1.357   1.094  0.00  0.00    -0.078 A 
ATOM      5  C3  OXE d   1       0.966  -1.143   1.224  0.00  0.00     0.003 A 
ATOM      6  C4  OXE d   1       1.609  -0.176   0.441  0.00  0.00    -0.002 A 
ATOM      7  C5  OXE d   1       0.911   0.506  -0.561  0.00  0.00    -0.002 A 
ATOM      8  C6  OXE d   1      -0.431   0.212  -0.777  0.00  0.00     0.003 A 
ENDROOT
TORSDOF 0
ENDMDL
