MODEL 1
REMARK minimizedAffinity 3.44301891
REMARK minimizedRMSD -1
REMARK  0 active torsions:
REMARK  status: ('A' for Active; 'I' for Inactive)
ROOT
ATOM      1  C2' OXE d   1      -3.312  -1.865  -0.340  0.00  0.00     0.078 C 
ATOM      2  C1' OXE d   1      -2.195  -1.807  -2.915  0.00  0.00     0.078 C 
ATOM      3  C1  OXE d   1      -1.463  -1.081  -1.814  0.00  0.00    -0.078 A 
ATOM      4  C2  OXE d   1      -2.041  -1.075  -0.568  0.00  0.00    -0.078 A 
ATOM      5  C3  OXE d   1      -1.380  -0.467   0.496  0.00  0.00     0.003 A 
ATOM      6  C4  OXE d   1      -0.210   0.270   0.275  0.00  0.00    -0.002 A 
ATOM      7  C5  OXE d   1       0.374   0.311  -0.996  0.00  0.00    -0.002 A 
ATOM      8  C6  OXE d   1      -0.216  -0.393  -2.040  0.00  0.00     0.003 A 
ENDROOT
TORSDOF 0
ENDMDL
