MODEL 1
REMARK minimizedAffinity -4.01210976
REMARK minimizedRMSD -1
REMARK  0 active torsions:
REMARK  status: ('A' for Active; 'I' for Inactive)
ROOT
ATOM      1  C2' OXE d   1       2.411  -0.571   0.339  0.00  0.00     0.078 C 
ATOM      2  C1' OXE d   1      -0.215   0.411   0.202  0.00  0.00     0.078 C 
ATOM      3  C1  OXE d   1       0.912   1.414   0.207  0.00  0.00    -0.078 A 
ATOM      4  C2  OXE d   1       2.191   0.926   0.321  0.00  0.00    -0.078 A 
ATOM      5  C3  OXE d   1       3.270   1.804   0.276  0.00  0.00     0.003 A 
ATOM      6  C4  OXE d   1       3.058   3.188   0.270  0.00  0.00    -0.002 A 
ATOM      7  C5  OXE d   1       1.761   3.707   0.194  0.00  0.00    -0.002 A 
ATOM      8  C6  OXE d   1       0.681   2.835   0.119  0.00  0.00     0.003 A 
ENDROOT
TORSDOF 0
ENDMDL
