MODEL 1
REMARK minimizedAffinity 1.57865143
REMARK minimizedRMSD -1
REMARK  0 active torsions:
REMARK  status: ('A' for Active; 'I' for Inactive)
ROOT
ATOM      1  C2' OXE d   1       2.380   0.569  -0.163  0.00  0.00     0.078 C 
ATOM      2  C1' OXE d   1      -0.030   0.277  -1.572  0.00  0.00     0.078 C 
ATOM      3  C1  OXE d   1       0.035  -0.272  -0.168  0.00  0.00    -0.078 A 
ATOM      4  C2  OXE d   1       1.233  -0.166   0.497  0.00  0.00    -0.078 A 
ATOM      5  C3  OXE d   1       1.332  -0.606   1.813  0.00  0.00     0.003 A 
ATOM      6  C4  OXE d   1       0.270  -1.294   2.412  0.00  0.00    -0.002 A 
ATOM      7  C5  OXE d   1      -0.946  -1.448   1.738  0.00  0.00    -0.002 A 
ATOM      8  C6  OXE d   1      -1.094  -0.906   0.466  0.00  0.00     0.003 A 
ENDROOT
TORSDOF 0
ENDMDL
