MODEL 1
REMARK minimizedAffinity -1.86623335
REMARK minimizedRMSD -1
REMARK  0 active torsions:
REMARK  status: ('A' for Active; 'I' for Inactive)
ROOT
ATOM      1  C2' OXE d   1      -2.401  -1.376  -0.980  0.00  0.00     0.078 C 
ATOM      2  C1' OXE d   1      -0.605  -0.190  -2.782  0.00  0.00     0.078 C 
ATOM      3  C1  OXE d   1      -0.157  -0.360  -1.352  0.00  0.00    -0.078 A 
ATOM      4  C2  OXE d   1      -1.059  -0.898  -0.466  0.00  0.00    -0.078 A 
ATOM      5  C3  OXE d   1      -0.678  -1.127   0.853  0.00  0.00     0.003 A 
ATOM      6  C4  OXE d   1       0.561  -0.673   1.321  0.00  0.00    -0.002 A 
ATOM      7  C5  OXE d   1       1.480  -0.086   0.445  0.00  0.00    -0.002 A 
ATOM      8  C6  OXE d   1       1.154   0.039  -0.901  0.00  0.00     0.003 A 
ENDROOT
TORSDOF 0
ENDMDL
