MODEL 1
REMARK minimizedAffinity -6.18827009
REMARK minimizedRMSD -1
REMARK  0 active torsions:
REMARK  status: ('A' for Active; 'I' for Inactive)
ROOT
ATOM      1  C2' OXE d   1      -0.214   0.435  -2.651  0.00  0.00     0.078 C 
ATOM      2  C1' OXE d   1       0.749   0.546  -0.017  0.00  0.00     0.078 C 
ATOM      3  C1  OXE d   1      -0.596  -0.096  -0.248  0.00  0.00    -0.078 A 
ATOM      4  C2  OXE d   1      -1.080  -0.104  -1.534  0.00  0.00    -0.078 A 
ATOM      5  C3  OXE d   1      -2.291  -0.733  -1.810  0.00  0.00     0.003 A 
ATOM      6  C4  OXE d   1      -3.091  -1.220  -0.769  0.00  0.00    -0.002 A 
ATOM      7  C5  OXE d   1      -2.634  -1.186   0.552  0.00  0.00    -0.002 A 
ATOM      8  C6  OXE d   1      -1.373  -0.668   0.825  0.00  0.00     0.003 A 
ENDROOT
TORSDOF 0
ENDMDL
