MODEL 1
REMARK minimizedAffinity -2.48370528
REMARK minimizedRMSD -1
REMARK  0 active torsions:
REMARK  status: ('A' for Active; 'I' for Inactive)
ROOT
ATOM      1  C2' OXE d   1       2.683   1.386  -0.010  0.00  0.00     0.078 C 
ATOM      2  C1' OXE d   1       0.041   2.331  -0.078  0.00  0.00     0.078 C 
ATOM      3  C1  OXE d   1       0.269   0.912   0.381  0.00  0.00    -0.078 A 
ATOM      4  C2  OXE d   1       1.561   0.443   0.367  0.00  0.00    -0.078 A 
ATOM      5  C3  OXE d   1       1.833  -0.840   0.833  0.00  0.00     0.003 A 
ATOM      6  C4  OXE d   1       0.788  -1.708   1.170  0.00  0.00    -0.002 A 
ATOM      7  C5  OXE d   1      -0.538  -1.263   1.153  0.00  0.00    -0.002 A 
ATOM      8  C6  OXE d   1      -0.811   0.054   0.803  0.00  0.00     0.003 A 
ENDROOT
TORSDOF 0
ENDMDL
