MODEL 1
REMARK minimizedAffinity -2.16483402
REMARK minimizedRMSD -1
REMARK  0 active torsions:
REMARK  status: ('A' for Active; 'I' for Inactive)
ROOT
ATOM      1  C2' OXE d   1      -2.615  -0.059   0.869  0.00  0.00     0.078 C 
ATOM      2  C1' OXE d   1      -1.099  -1.654   2.612  0.00  0.00     0.078 C 
ATOM      3  C1  OXE d   1      -0.367  -0.910   1.523  0.00  0.00    -0.078 A 
ATOM      4  C2  OXE d   1      -1.122  -0.169   0.646  0.00  0.00    -0.078 A 
ATOM      5  C3  OXE d   1      -0.492   0.580  -0.344  0.00  0.00     0.003 A 
ATOM      6  C4  OXE d   1       0.888   0.465  -0.549  0.00  0.00    -0.002 A 
ATOM      7  C5  OXE d   1       1.671  -0.316   0.308  0.00  0.00    -0.002 A 
ATOM      8  C6  OXE d   1       1.066  -0.974   1.373  0.00  0.00     0.003 A 
ENDROOT
TORSDOF 0
ENDMDL
