MODEL 1
REMARK minimizedAffinity -4.98891449
REMARK minimizedRMSD -1
REMARK  0 active torsions:
REMARK  status: ('A' for Active; 'I' for Inactive)
ROOT
ATOM      1  C2' OXE d   1      -2.562  -0.592   0.021  0.00  0.00     0.078 C 
ATOM      2  C1' OXE d   1      -0.728   0.850  -1.540  0.00  0.00     0.078 C 
ATOM      3  C1  OXE d   1      -0.194   0.081  -0.357  0.00  0.00    -0.078 A 
ATOM      4  C2  OXE d   1      -1.105  -0.584   0.428  0.00  0.00    -0.078 A 
ATOM      5  C3  OXE d   1      -0.659  -1.353   1.500  0.00  0.00     0.003 A 
ATOM      6  C4  OXE d   1       0.689  -1.332   1.875  0.00  0.00    -0.002 A 
ATOM      7  C5  OXE d   1       1.628  -0.629   1.112  0.00  0.00    -0.002 A 
ATOM      8  C6  OXE d   1       1.210   0.046  -0.029  0.00  0.00     0.003 A 
ENDROOT
TORSDOF 0
ENDMDL
