MODEL 1
REMARK minimizedAffinity -5.31299925
REMARK minimizedRMSD -1
REMARK  0 active torsions:
REMARK  status: ('A' for Active; 'I' for Inactive)
ROOT
ATOM      1  C2' OXE d   1      -2.954  -0.700   0.052  0.00  0.00     0.078 C 
ATOM      2  C1' OXE d   1      -1.218  -1.573   2.078  0.00  0.00     0.078 C 
ATOM      3  C1  OXE d   1      -0.611  -0.895   0.875  0.00  0.00    -0.078 A 
ATOM      4  C2  OXE d   1      -1.464  -0.512  -0.132  0.00  0.00    -0.078 A 
ATOM      5  C3  OXE d   1      -0.963   0.167  -1.239  0.00  0.00     0.003 A 
ATOM      6  C4  OXE d   1       0.418   0.327  -1.407  0.00  0.00    -0.002 A 
ATOM      7  C5  OXE d   1       1.307  -0.090  -0.411  0.00  0.00    -0.002 A 
ATOM      8  C6  OXE d   1       0.807  -0.663   0.753  0.00  0.00     0.003 A 
ENDROOT
TORSDOF 0
ENDMDL
