MODEL 1
REMARK minimizedAffinity -3.37988853
REMARK minimizedRMSD -1
REMARK  0 active torsions:
REMARK  status: ('A' for Active; 'I' for Inactive)
ROOT
ATOM      1  C2' OXE d   1      -2.481  -1.195  -2.887  0.00  0.00     0.078 C 
ATOM      2  C1' OXE d   1      -3.512  -1.200  -0.276  0.00  0.00     0.078 C 
ATOM      3  C1  OXE d   1      -2.181  -0.528  -0.505  0.00  0.00    -0.078 A 
ATOM      4  C2  OXE d   1      -1.663  -0.571  -1.777  0.00  0.00    -0.078 A 
ATOM      5  C3  OXE d   1      -0.464   0.080  -2.055  0.00  0.00     0.003 A 
ATOM      6  C4  OXE d   1       0.292   0.645  -1.021  0.00  0.00    -0.002 A 
ATOM      7  C5  OXE d   1      -0.200   0.665   0.289  0.00  0.00    -0.002 A 
ATOM      8  C6  OXE d   1      -1.451   0.121   0.555  0.00  0.00     0.003 A 
ENDROOT
TORSDOF 0
ENDMDL
