MODEL 1
REMARK minimizedAffinity -1.66284156
REMARK minimizedRMSD -1
REMARK  0 active torsions:
REMARK  status: ('A' for Active; 'I' for Inactive)
ROOT
ATOM      1  C2' OXE d   1       0.205   0.354  -1.419  0.00  0.00     0.078 C 
ATOM      2  C1' OXE d   1      -0.011  -0.516   1.241  0.00  0.00     0.078 C 
ATOM      3  C1  OXE d   1       0.809   0.721   0.969  0.00  0.00    -0.078 A 
ATOM      4  C2  OXE d   1       0.948   1.112  -0.340  0.00  0.00    -0.078 A 
ATOM      5  C3  OXE d   1       1.648   2.276  -0.641  0.00  0.00     0.003 A 
ATOM      6  C4  OXE d   1       2.341   2.966   0.361  0.00  0.00    -0.002 A 
ATOM      7  C5  OXE d   1       2.245   2.562   1.697  0.00  0.00    -0.002 A 
ATOM      8  C6  OXE d   1       1.450   1.468   2.023  0.00  0.00     0.003 A 
ENDROOT
TORSDOF 0
ENDMDL
