MODEL 1
REMARK minimizedAffinity -1.88541365
REMARK minimizedRMSD -1
REMARK  0 active torsions:
REMARK  status: ('A' for Active; 'I' for Inactive)
ROOT
ATOM      1  C2' OXE d   1       1.940  -0.813   0.810  0.00  0.00     0.078 C 
ATOM      2  C1' OXE d   1      -0.297   0.487  -0.279  0.00  0.00     0.078 C 
ATOM      3  C1  OXE d   1       0.778   1.341   0.347  0.00  0.00    -0.078 A 
ATOM      4  C2  OXE d   1       1.847   0.694   0.919  0.00  0.00    -0.078 A 
ATOM      5  C3  OXE d   1       2.893   1.436   1.461  0.00  0.00     0.003 A 
ATOM      6  C4  OXE d   1       2.793   2.828   1.566  0.00  0.00    -0.002 A 
ATOM      7  C5  OXE d   1       1.695   3.505   1.025  0.00  0.00    -0.002 A 
ATOM      8  C6  OXE d   1       0.701   2.781   0.376  0.00  0.00     0.003 A 
ENDROOT
TORSDOF 0
ENDMDL
