MODEL 1
REMARK minimizedAffinity -3.36796856
REMARK minimizedRMSD -1
REMARK  0 active torsions:
REMARK  status: ('A' for Active; 'I' for Inactive)
ROOT
ATOM      1  C2' OXE d   1      -0.839   0.447  -1.867  0.00  0.00     0.078 C 
ATOM      2  C1' OXE d   1       0.246  -0.060   0.672  0.00  0.00     0.078 C 
ATOM      3  C1  OXE d   1      -1.038  -0.759   0.303  0.00  0.00    -0.078 A 
ATOM      4  C2  OXE d   1      -1.587  -0.469  -0.923  0.00  0.00    -0.078 A 
ATOM      5  C3  OXE d   1      -2.741  -1.128  -1.335  0.00  0.00     0.003 A 
ATOM      6  C4  OXE d   1      -3.432  -1.967  -0.452  0.00  0.00    -0.002 A 
ATOM      7  C5  OXE d   1      -2.912  -2.245   0.816  0.00  0.00    -0.002 A 
ATOM      8  C6  OXE d   1      -1.697  -1.684   1.192  0.00  0.00     0.003 A 
ENDROOT
TORSDOF 0
ENDMDL
