MODEL 1
REMARK minimizedAffinity 3.11906791
REMARK minimizedRMSD -1
REMARK  0 active torsions:
REMARK  status: ('A' for Active; 'I' for Inactive)
ROOT
ATOM      1  C   UNL d   1      -5.470  -0.882  -4.080  0.00  0.00     0.020 A 
ATOM      2  C1  UNL d   1      -4.987  -2.165  -3.830  0.00  0.00     0.020 A 
ATOM      3  C2  UNL d   1      -4.277  -2.427  -2.656  0.00  0.00     0.034 A 
ATOM      4  C3  UNL d   1      -4.048  -1.404  -1.729  0.00  0.00     0.017 A 
ATOM      5  C4  UNL d   1      -4.533  -0.116  -1.981  0.00  0.00     0.017 A 
ATOM      6  C5  UNL d   1      -5.243   0.141  -3.158  0.00  0.00     0.034 A 
ATOM      7 Cl   UNL d   1      -4.290   1.198  -0.884  0.00  0.00    -0.070 Cl
ATOM      8 Cl1  UNL d   1      -3.163  -1.799  -0.298  0.00  0.00    -0.070 Cl
ENDROOT
TORSDOF 0
ENDMDL
