MODEL 1
REMARK minimizedAffinity 12.6599798
REMARK minimizedRMSD -1
REMARK  0 active torsions:
REMARK  status: ('A' for Active; 'I' for Inactive)
ROOT
ATOM      1  C   UNL d   1       1.592  -4.655   1.722  0.00  0.00     0.020 A 
ATOM      2  C1  UNL d   1       1.991  -3.338   1.497  0.00  0.00     0.020 A 
ATOM      3  C2  UNL d   1       1.182  -2.282   1.920  0.00  0.00     0.034 A 
ATOM      4  C3  UNL d   1      -0.031  -2.540   2.569  0.00  0.00     0.017 A 
ATOM      5  C4  UNL d   1      -0.431  -3.862   2.795  0.00  0.00     0.017 A 
ATOM      6  C5  UNL d   1       0.384  -4.917   2.369  0.00  0.00     0.034 A 
ATOM      7 Cl   UNL d   1      -1.913  -4.260   3.589  0.00  0.00    -0.070 Cl
ATOM      8 Cl1  UNL d   1      -0.981  -1.185   3.065  0.00  0.00    -0.070 Cl
ENDROOT
TORSDOF 0
ENDMDL
