MODEL 1
REMARK minimizedAffinity 9.14373016
REMARK minimizedRMSD -1
REMARK  0 active torsions:
REMARK  status: ('A' for Active; 'I' for Inactive)
ROOT
ATOM      1  C   UNL d   1       2.329   5.484   5.999  0.00  0.00     0.020 A 
ATOM      2  C1  UNL d   1       1.039   6.000   5.887  0.00  0.00     0.020 A 
ATOM      3  C2  UNL d   1       0.097   5.355   5.082  0.00  0.00     0.034 A 
ATOM      4  C3  UNL d   1       0.444   4.190   4.388  0.00  0.00     0.017 A 
ATOM      5  C4  UNL d   1       1.739   3.673   4.502  0.00  0.00     0.017 A 
ATOM      6  C5  UNL d   1       2.679   4.323   5.309  0.00  0.00     0.034 A 
ATOM      7 Cl   UNL d   1       2.241   2.240   3.676  0.00  0.00    -0.070 Cl
ATOM      8 Cl1  UNL d   1      -0.772   3.444   3.412  0.00  0.00    -0.070 Cl
ENDROOT
TORSDOF 0
ENDMDL
