MODEL 1
REMARK minimizedAffinity 4.69180775
REMARK minimizedRMSD -1
REMARK  0 active torsions:
REMARK  status: ('A' for Active; 'I' for Inactive)
ROOT
ATOM      1  C   UNL d   1      -0.299  -1.573   3.641  0.00  0.00     0.020 A 
ATOM      2  C1  UNL d   1      -1.501  -2.202   3.315  0.00  0.00     0.020 A 
ATOM      3  C2  UNL d   1      -2.641  -1.437   3.059  0.00  0.00     0.034 A 
ATOM      4  C3  UNL d   1      -2.583  -0.041   3.129  0.00  0.00     0.017 A 
ATOM      5  C4  UNL d   1      -1.376   0.589   3.456  0.00  0.00     0.017 A 
ATOM      6  C5  UNL d   1      -0.237  -0.181   3.711  0.00  0.00     0.034 A 
ATOM      7 Cl   UNL d   1      -1.226   2.308   3.560  0.00  0.00    -0.070 Cl
ATOM      8 Cl1  UNL d   1      -4.032   0.841   2.800  0.00  0.00    -0.070 Cl
ENDROOT
TORSDOF 0
ENDMDL
