MODEL 1
REMARK minimizedAffinity 10.2324648
REMARK minimizedRMSD -1
REMARK  0 active torsions:
REMARK  status: ('A' for Active; 'I' for Inactive)
ROOT
ATOM      1  C   UNL d   1       1.855   5.617   5.852  0.00  0.00     0.020 A 
ATOM      2  C1  UNL d   1       0.522   5.999   5.998  0.00  0.00     0.020 A 
ATOM      3  C2  UNL d   1      -0.487   5.270   5.365  0.00  0.00     0.034 A 
ATOM      4  C3  UNL d   1      -0.165   4.155   4.583  0.00  0.00     0.017 A 
ATOM      5  C4  UNL d   1       1.174   3.772   4.436  0.00  0.00     0.017 A 
ATOM      6  C5  UNL d   1       2.180   4.506   5.072  0.00  0.00     0.034 A 
ATOM      7 Cl   UNL d   1       1.649   2.408   3.487  0.00  0.00    -0.070 Cl
ATOM      8 Cl1  UNL d   1      -1.463   3.300   3.829  0.00  0.00    -0.070 Cl
ENDROOT
TORSDOF 0
ENDMDL
