MODEL 1
REMARK minimizedAffinity 6.16516781
REMARK minimizedRMSD -1
REMARK  0 active torsions:
REMARK  status: ('A' for Active; 'I' for Inactive)
ROOT
ATOM      1  C   UNL d   1       1.339  -0.087  -1.335  0.00  0.00     0.020 A 
ATOM      2  C1  UNL d   1       1.470   1.228  -1.781  0.00  0.00     0.020 A 
ATOM      3  C2  UNL d   1       0.332   2.002  -2.018  0.00  0.00     0.034 A 
ATOM      4  C3  UNL d   1      -0.942   1.461  -1.811  0.00  0.00     0.017 A 
ATOM      5  C4  UNL d   1      -1.073   0.141  -1.364  0.00  0.00     0.017 A 
ATOM      6  C5  UNL d   1       0.070  -0.629  -1.127  0.00  0.00     0.034 A 
ATOM      7 Cl   UNL d   1      -2.612  -0.595  -1.085  0.00  0.00    -0.070 Cl
ATOM      8 Cl1  UNL d   1      -2.306   2.475  -2.124  0.00  0.00    -0.070 Cl
ENDROOT
TORSDOF 0
ENDMDL
