MODEL 1
REMARK minimizedAffinity 11.8828535
REMARK minimizedRMSD -1
REMARK  0 active torsions:
REMARK  status: ('A' for Active; 'I' for Inactive)
ROOT
ATOM      1  C   UNL d   1      -5.069   3.129  -4.222  0.00  0.00     0.020 A 
ATOM      2  C1  UNL d   1      -5.070   3.750  -5.470  0.00  0.00     0.020 A 
ATOM      3  C2  UNL d   1      -3.881   4.255  -6.000  0.00  0.00     0.034 A 
ATOM      4  C3  UNL d   1      -2.686   4.141  -5.280  0.00  0.00     0.017 A 
ATOM      5  C4  UNL d   1      -2.685   3.518  -4.027  0.00  0.00     0.017 A 
ATOM      6  C5  UNL d   1      -3.879   3.014  -3.502  0.00  0.00     0.034 A 
ATOM      7 Cl   UNL d   1      -1.250   3.339  -3.081  0.00  0.00    -0.070 Cl
ATOM      8 Cl1  UNL d   1      -1.252   4.788  -5.996  0.00  0.00    -0.070 Cl
ENDROOT
TORSDOF 0
ENDMDL
