MODEL 1
REMARK minimizedAffinity 9.33361053
REMARK minimizedRMSD -1
REMARK  0 active torsions:
REMARK  status: ('A' for Active; 'I' for Inactive)
ROOT
ATOM      1  C   UNL d   1      -5.027  -1.903  -3.818  0.00  0.00     0.020 A 
ATOM      2  C1  UNL d   1      -3.893  -1.948  -4.629  0.00  0.00     0.020 A 
ATOM      3  C2  UNL d   1      -2.624  -1.807  -4.064  0.00  0.00     0.034 A 
ATOM      4  C3  UNL d   1      -2.485  -1.621  -2.684  0.00  0.00     0.017 A 
ATOM      5  C4  UNL d   1      -3.623  -1.576  -1.870  0.00  0.00     0.017 A 
ATOM      6  C5  UNL d   1      -4.892  -1.717  -2.442  0.00  0.00     0.034 A 
ATOM      7 Cl   UNL d   1      -3.532  -1.349  -0.159  0.00  0.00    -0.070 Cl
ATOM      8 Cl1  UNL d   1      -0.886  -1.454  -2.052  0.00  0.00    -0.070 Cl
ENDROOT
TORSDOF 0
ENDMDL
