MODEL 1
REMARK minimizedAffinity 7.77091599
REMARK minimizedRMSD -1
REMARK  0 active torsions:
REMARK  status: ('A' for Active; 'I' for Inactive)
ROOT
ATOM      1  C   UNL d   1       1.459  -3.373   0.707  0.00  0.00     0.020 A 
ATOM      2  C1  UNL d   1       2.624  -4.051   1.064  0.00  0.00     0.020 A 
ATOM      3  C2  UNL d   1       3.188  -3.853   2.326  0.00  0.00     0.034 A 
ATOM      4  C3  UNL d   1       2.587  -2.975   3.236  0.00  0.00     0.017 A 
ATOM      5  C4  UNL d   1       1.418  -2.295   2.877  0.00  0.00     0.017 A 
ATOM      6  C5  UNL d   1       0.857  -2.497   1.612  0.00  0.00     0.034 A 
ATOM      7 Cl   UNL d   1       0.619  -1.196   3.945  0.00  0.00    -0.070 Cl
ATOM      8 Cl1  UNL d   1       3.339  -2.778   4.779  0.00  0.00    -0.070 Cl
ENDROOT
TORSDOF 0
ENDMDL
