MODEL 1
REMARK minimizedAffinity 4.53341961
REMARK minimizedRMSD -1
REMARK  0 active torsions:
REMARK  status: ('A' for Active; 'I' for Inactive)
ROOT
ATOM      1  C   UNL d   1       0.003  -2.688   2.446  0.00  0.00     0.020 A 
ATOM      2  C1  UNL d   1       0.754  -1.813   1.663  0.00  0.00     0.020 A 
ATOM      3  C2  UNL d   1       1.981  -2.224   1.137  0.00  0.00     0.034 A 
ATOM      4  C3  UNL d   1       2.460  -3.514   1.394  0.00  0.00     0.017 A 
ATOM      5  C4  UNL d   1       1.704  -4.392   2.180  0.00  0.00     0.017 A 
ATOM      6  C5  UNL d   1       0.477  -3.974   2.704  0.00  0.00     0.034 A 
ATOM      7 Cl   UNL d   1       2.229  -5.998   2.541  0.00  0.00    -0.070 Cl
ATOM      8 Cl1  UNL d   1       3.984  -3.956   0.712  0.00  0.00    -0.070 Cl
ENDROOT
TORSDOF 0
ENDMDL
