MODEL 1
REMARK minimizedAffinity 2.28124404
REMARK minimizedRMSD -1
REMARK  0 active torsions:
REMARK  status: ('A' for Active; 'I' for Inactive)
ROOT
ATOM      1  C   UNL d   1       1.979  -2.734   1.662  0.00  0.00     0.020 A 
ATOM      2  C1  UNL d   1       1.714  -4.098   1.551  0.00  0.00     0.020 A 
ATOM      3  C2  UNL d   1       0.523  -4.622   2.059  0.00  0.00     0.034 A 
ATOM      4  C3  UNL d   1      -0.407  -3.781   2.680  0.00  0.00     0.017 A 
ATOM      5  C4  UNL d   1      -0.140  -2.412   2.791  0.00  0.00     0.017 A 
ATOM      6  C5  UNL d   1       1.054  -1.892   2.281  0.00  0.00     0.034 A 
ATOM      7 Cl   UNL d   1      -1.240  -1.311   3.545  0.00  0.00    -0.070 Cl
ATOM      8 Cl1  UNL d   1      -1.859  -4.497   3.285  0.00  0.00    -0.070 Cl
ENDROOT
TORSDOF 0
ENDMDL
