MODEL 1
REMARK minimizedAffinity 14.5526609
REMARK minimizedRMSD -1
REMARK  0 active torsions:
REMARK  status: ('A' for Active; 'I' for Inactive)
ROOT
ATOM      1  C   UNL d   1       1.397   2.103   3.196  0.00  0.00     0.020 A 
ATOM      2  C1  UNL d   1       1.275   0.936   3.948  0.00  0.00     0.020 A 
ATOM      3  C2  UNL d   1       1.237  -0.306   3.310  0.00  0.00     0.034 A 
ATOM      4  C3  UNL d   1       1.321  -0.383   1.915  0.00  0.00     0.017 A 
ATOM      5  C4  UNL d   1       1.444   0.790   1.160  0.00  0.00     0.017 A 
ATOM      6  C5  UNL d   1       1.482   2.030   1.805  0.00  0.00     0.034 A 
ATOM      7 Cl   UNL d   1       1.553   0.775  -0.564  0.00  0.00    -0.070 Cl
ATOM      8 Cl1  UNL d   1       1.268  -1.951   1.192  0.00  0.00    -0.070 Cl
ENDROOT
TORSDOF 0
ENDMDL
