MODEL 1
REMARK minimizedAffinity -3.7616396
REMARK minimizedRMSD -1
REMARK  0 active torsions:
REMARK  status: ('A' for Active; 'I' for Inactive)
ROOT
ATOM      1  C   UNL d   1      -3.015  -0.725  -0.727  0.00  0.00     0.023 A 
ATOM      2  C1  UNL d   1      -2.072  -0.381  -1.696  0.00  0.00     0.003 A 
ATOM      3  C2  UNL d   1      -0.789   0.018  -1.313  0.00  0.00     0.048 A 
ATOM      4  C3  UNL d   1      -0.456   0.069   0.040  0.00  0.00     0.023 A 
ATOM      5  C4  UNL d   1      -1.396  -0.275   1.013  0.00  0.00     0.048 A 
ATOM      6  C5  UNL d   1      -2.677  -0.672   0.626  0.00  0.00     0.003 A 
ATOM      7  I   UNL d   1       1.452   0.662   0.611  0.00  0.00    -0.146 I 
ENDROOT
TORSDOF 0
ENDMDL
