MODEL 1
REMARK minimizedAffinity -3.99894857
REMARK minimizedRMSD -1
REMARK  0 active torsions:
REMARK  status: ('A' for Active; 'I' for Inactive)
ROOT
ATOM      1  C   UNL d   1      -2.336  -0.764  -0.501  0.00  0.00     0.023 A 
ATOM      2  C1  UNL d   1      -2.220  -0.488   0.862  0.00  0.00     0.003 A 
ATOM      3  C2  UNL d   1      -1.091   0.175   1.348  0.00  0.00     0.048 A 
ATOM      4  C3  UNL d   1      -0.082   0.560   0.465  0.00  0.00     0.023 A 
ATOM      5  C4  UNL d   1      -0.195   0.286  -0.899  0.00  0.00     0.048 A 
ATOM      6  C5  UNL d   1      -1.325  -0.378  -1.380  0.00  0.00     0.003 A 
ATOM      7  I   UNL d   1       1.599   1.547   1.186  0.00  0.00    -0.146 I 
ENDROOT
TORSDOF 0
ENDMDL
