MODEL 1
REMARK minimizedAffinity -2.50556755
REMARK minimizedRMSD -1
REMARK  0 active torsions:
REMARK  status: ('A' for Active; 'I' for Inactive)
ROOT
ATOM      1  C   UNL d   1      -2.877  -0.900  -0.460  0.00  0.00     0.023 A 
ATOM      2  C1  UNL d   1      -2.448  -0.649   0.844  0.00  0.00     0.003 A 
ATOM      3  C2  UNL d   1      -1.221  -0.022   1.069  0.00  0.00     0.048 A 
ATOM      4  C3  UNL d   1      -0.428   0.354  -0.015  0.00  0.00     0.023 A 
ATOM      5  C4  UNL d   1      -0.853   0.107  -1.321  0.00  0.00     0.048 A 
ATOM      6  C5  UNL d   1      -2.080  -0.522  -1.541  0.00  0.00     0.003 A 
ATOM      7  I   UNL d   1       1.398   1.289   0.317  0.00  0.00    -0.146 I 
ENDROOT
TORSDOF 0
ENDMDL
