MODEL 1
REMARK minimizedAffinity -3.32626796
REMARK minimizedRMSD -1
REMARK  0 active torsions:
REMARK  status: ('A' for Active; 'I' for Inactive)
ROOT
ATOM      1  C   UNL d   1      -2.646  -0.576  -1.581  0.00  0.00     0.023 A 
ATOM      2  C1  UNL d   1      -1.605  -0.100  -2.378  0.00  0.00     0.003 A 
ATOM      3  C2  UNL d   1      -0.369   0.207  -1.805  0.00  0.00     0.048 A 
ATOM      4  C3  UNL d   1      -0.180   0.034  -0.435  0.00  0.00     0.023 A 
ATOM      5  C4  UNL d   1      -1.219  -0.444   0.367  0.00  0.00     0.048 A 
ATOM      6  C5  UNL d   1      -2.453  -0.748  -0.210  0.00  0.00     0.003 A 
ATOM      7  I   UNL d   1       1.658   0.489   0.421  0.00  0.00    -0.146 I 
ENDROOT
TORSDOF 0
ENDMDL
