MODEL 1
REMARK minimizedAffinity -4.95947647
REMARK minimizedRMSD -1
REMARK  0 active torsions:
REMARK  status: ('A' for Active; 'I' for Inactive)
ROOT
ATOM      1  C   UNL d   1      -3.031  -0.785  -1.069  0.00  0.00     0.023 A 
ATOM      2  C1  UNL d   1      -2.507  -1.034   0.199  0.00  0.00     0.003 A 
ATOM      3  C2  UNL d   1      -1.231  -0.575   0.532  0.00  0.00     0.048 A 
ATOM      4  C3  UNL d   1      -0.485   0.135  -0.409  0.00  0.00     0.023 A 
ATOM      5  C4  UNL d   1      -1.006   0.387  -1.679  0.00  0.00     0.048 A 
ATOM      6  C5  UNL d   1      -2.281  -0.076  -2.007  0.00  0.00     0.003 A 
ATOM      7  I   UNL d   1       1.414   0.820   0.083  0.00  0.00    -0.146 I 
ENDROOT
TORSDOF 0
ENDMDL
