MODEL 1
REMARK minimizedAffinity 1.20571744
REMARK minimizedRMSD -1
REMARK  0 active torsions:
REMARK  status: ('A' for Active; 'I' for Inactive)
ROOT
ATOM      1  C   UNL d   1       1.543  -0.316   0.699  0.00  0.00     0.023 A 
ATOM      2  C1  UNL d   1       0.907   0.299  -0.379  0.00  0.00     0.003 A 
ATOM      3  C2  UNL d   1      -0.417  -0.020  -0.686  0.00  0.00     0.048 A 
ATOM      4  C3  UNL d   1      -1.100  -0.955   0.091  0.00  0.00     0.023 A 
ATOM      5  C4  UNL d   1      -0.469  -1.573   1.171  0.00  0.00     0.048 A 
ATOM      6  C5  UNL d   1       0.856  -1.251   1.474  0.00  0.00     0.003 A 
ATOM      7  I   UNL d   1      -3.071  -1.432  -0.364  0.00  0.00    -0.146 I 
ENDROOT
TORSDOF 0
ENDMDL
