MODEL 1
REMARK minimizedAffinity 5.49716663
REMARK minimizedRMSD -1
REMARK  0 active torsions:
REMARK  status: ('A' for Active; 'I' for Inactive)
ROOT
ATOM      1  C   UNL d   1      -0.477   0.220   0.489  0.00  0.00     0.023 A 
ATOM      2  C1  UNL d   1       0.066   0.393  -0.784  0.00  0.00     0.003 A 
ATOM      3  C2  UNL d   1      -0.434  -0.337  -1.864  0.00  0.00     0.048 A 
ATOM      4  C3  UNL d   1      -1.479  -1.239  -1.663  0.00  0.00     0.023 A 
ATOM      5  C4  UNL d   1      -2.027  -1.415  -0.391  0.00  0.00     0.048 A 
ATOM      6  C5  UNL d   1      -1.522  -0.683   0.685  0.00  0.00     0.003 A 
ATOM      7  I   UNL d   1      -2.226  -2.328  -3.268  0.00  0.00    -0.146 I 
ENDROOT
TORSDOF 0
ENDMDL
