MODEL 1
REMARK minimizedAffinity -3.76594615
REMARK minimizedRMSD -1
REMARK  0 active torsions:
REMARK  status: ('A' for Active; 'I' for Inactive)
ROOT
ATOM      1  C   UNL d   1       3.123   2.301   1.006  0.00  0.00     0.023 A 
ATOM      2  C1  UNL d   1       3.145   1.263   0.074  0.00  0.00     0.003 A 
ATOM      3  C2  UNL d   1       1.969   0.577  -0.236  0.00  0.00     0.048 A 
ATOM      4  C3  UNL d   1       0.774   0.935   0.388  0.00  0.00     0.023 A 
ATOM      5  C4  UNL d   1       0.748   1.974   1.320  0.00  0.00     0.048 A 
ATOM      6  C5  UNL d   1       1.926   2.656   1.628  0.00  0.00     0.003 A 
ATOM      7  I   UNL d   1      -0.978  -0.084  -0.073  0.00  0.00    -0.146 I 
ENDROOT
TORSDOF 0
ENDMDL
