MODEL 1
REMARK minimizedAffinity 2.03937554
REMARK minimizedRMSD -1
REMARK  0 active torsions:
REMARK  status: ('A' for Active; 'I' for Inactive)
ROOT
ATOM      1  C   UNL d   1       2.913   2.905   0.865  0.00  0.00     0.023 A 
ATOM      2  C1  UNL d   1       3.307   1.877   0.009  0.00  0.00     0.003 A 
ATOM      3  C2  UNL d   1       4.113   2.157  -1.097  0.00  0.00     0.048 A 
ATOM      4  C3  UNL d   1       4.523   3.467  -1.339  0.00  0.00     0.023 A 
ATOM      5  C4  UNL d   1       4.131   4.500  -0.485  0.00  0.00     0.048 A 
ATOM      6  C5  UNL d   1       3.325   4.215   0.618  0.00  0.00     0.003 A 
ATOM      7  I   UNL d   1       5.722   3.887  -2.984  0.00  0.00    -0.146 I 
ENDROOT
TORSDOF 0
ENDMDL
