MODEL 1
REMARK minimizedAffinity -5.09331942
REMARK minimizedRMSD -1
REMARK  0 active torsions:
REMARK  status: ('A' for Active; 'I' for Inactive)
ROOT
ATOM      1  C   UNL d   1      -3.034  -1.076  -0.986  0.00  0.00     0.023 A 
ATOM      2  C1  UNL d   1      -2.678  -0.969   0.358  0.00  0.00     0.003 A 
ATOM      3  C2  UNL d   1      -1.412  -0.496   0.711  0.00  0.00     0.048 A 
ATOM      4  C3  UNL d   1      -0.508  -0.132  -0.286  0.00  0.00     0.023 A 
ATOM      5  C4  UNL d   1      -0.861  -0.236  -1.633  0.00  0.00     0.048 A 
ATOM      6  C5  UNL d   1      -2.127  -0.710  -1.980  0.00  0.00     0.003 A 
ATOM      7  I   UNL d   1       1.377   0.572   0.235  0.00  0.00    -0.146 I 
ENDROOT
TORSDOF 0
ENDMDL
