MODEL 1
REMARK minimizedAffinity -3.06090999
REMARK minimizedRMSD -1
REMARK  0 active torsions:
REMARK  status: ('A' for Active; 'I' for Inactive)
ROOT
ATOM      1  C   UNL d   1      -0.490  -1.199   1.044  0.00  0.00     0.023 A 
ATOM      2  C1  UNL d   1       0.848  -1.591   0.983  0.00  0.00     0.003 A 
ATOM      3  C2  UNL d   1       1.840  -0.650   0.703  0.00  0.00     0.048 A 
ATOM      4  C3  UNL d   1       1.489   0.682   0.486  0.00  0.00     0.023 A 
ATOM      5  C4  UNL d   1       0.152   1.079   0.547  0.00  0.00     0.048 A 
ATOM      6  C5  UNL d   1      -0.837   0.134   0.826  0.00  0.00     0.003 A 
ATOM      7  I   UNL d   1       2.965   2.084   0.070  0.00  0.00    -0.146 I 
ENDROOT
TORSDOF 0
ENDMDL
