MODEL 1
REMARK minimizedAffinity 0.448629111
REMARK minimizedRMSD -1
REMARK  0 active torsions:
REMARK  status: ('A' for Active; 'I' for Inactive)
ROOT
ATOM      1  C   UNL d   1      -0.828  -1.203   0.977  0.00  0.00     0.023 A 
ATOM      2  C1  UNL d   1      -1.010  -0.054   0.208  0.00  0.00     0.003 A 
ATOM      3  C2  UNL d   1       0.050   0.834   0.014  0.00  0.00     0.048 A 
ATOM      4  C3  UNL d   1       1.290   0.567   0.593  0.00  0.00     0.023 A 
ATOM      5  C4  UNL d   1       1.478  -0.582   1.363  0.00  0.00     0.048 A 
ATOM      6  C5  UNL d   1       0.415  -1.466   1.554  0.00  0.00     0.003 A 
ATOM      7  I   UNL d   1       2.869   1.887   0.306  0.00  0.00    -0.146 I 
ENDROOT
TORSDOF 0
ENDMDL
