MODEL 1
REMARK minimizedAffinity -2.19282532
REMARK minimizedRMSD -1
REMARK  0 active torsions:
REMARK  status: ('A' for Active; 'I' for Inactive)
ROOT
ATOM      1  C   UNL d   1       2.554   2.430   1.541  0.00  0.00     0.023 A 
ATOM      2  C1  UNL d   1       1.439   1.860   2.156  0.00  0.00     0.003 A 
ATOM      3  C2  UNL d   1       0.501   1.160   1.393  0.00  0.00     0.048 A 
ATOM      4  C3  UNL d   1       0.686   1.033   0.017  0.00  0.00     0.023 A 
ATOM      5  C4  UNL d   1       1.801   1.600  -0.602  0.00  0.00     0.048 A 
ATOM      6  C5  UNL d   1       2.735   2.300   0.164  0.00  0.00     0.003 A 
ATOM      7  I   UNL d   1      -0.707  -0.009  -1.120  0.00  0.00    -0.146 I 
ENDROOT
TORSDOF 0
ENDMDL
