MODEL 1
REMARK minimizedAffinity -3.05501461
REMARK minimizedRMSD -1
REMARK  0 active torsions:
REMARK  status: ('A' for Active; 'I' for Inactive)
ROOT
ATOM      1  C   UNL d   1      -3.074  -1.309  -0.959  0.00  0.00     0.023 A 
ATOM      2  C1  UNL d   1      -2.634  -1.493   0.352  0.00  0.00     0.003 A 
ATOM      3  C2  UNL d   1      -1.381  -1.017   0.743  0.00  0.00     0.048 A 
ATOM      4  C3  UNL d   1      -0.572  -0.358  -0.182  0.00  0.00     0.023 A 
ATOM      5  C4  UNL d   1      -1.008  -0.172  -1.495  0.00  0.00     0.048 A 
ATOM      6  C5  UNL d   1      -2.261  -0.650  -1.882  0.00  0.00     0.003 A 
ATOM      7  I   UNL d   1       1.294   0.351   0.397  0.00  0.00    -0.146 I 
ENDROOT
TORSDOF 0
ENDMDL
