MODEL 1
REMARK minimizedAffinity -3.94076467
REMARK minimizedRMSD -1
REMARK  0 active torsions:
REMARK  status: ('A' for Active; 'I' for Inactive)
ROOT
ATOM      1  C   UNL d   1      -0.125   0.259  -0.639  0.00  0.00     0.172 C 
ATOM      2  N   UNL d   1       0.037  -0.173   0.729  0.00  0.00    -0.070 N 
ATOM      3  C1  UNL d   1      -0.974  -0.558   1.569  0.00  0.00    -0.004 A 
ATOM      4  C2  UNL d   1      -0.410  -0.897   2.780  0.00  0.00    -0.047 A 
ATOM      5  C3  UNL d   1       0.988  -0.707   2.665  0.00  0.00    -0.047 A 
ATOM      6  C4  UNL d   1       1.237  -0.259   1.385  0.00  0.00    -0.004 A 
ENDROOT
TORSDOF 0
ENDMDL
