MODEL 1
REMARK minimizedAffinity -3.8786869
REMARK minimizedRMSD -1
REMARK  0 active torsions:
REMARK  status: ('A' for Active; 'I' for Inactive)
ROOT
ATOM      1  C   UNL d   1      -0.025  -0.210  -1.204  0.00  0.00     0.172 C 
ATOM      2  N   UNL d   1       0.109  -0.343   0.227  0.00  0.00    -0.070 N 
ATOM      3  C1  UNL d   1      -0.925  -0.429   1.121  0.00  0.00    -0.004 A 
ATOM      4  C2  UNL d   1      -0.384  -0.545   2.383  0.00  0.00    -0.047 A 
ATOM      5  C3  UNL d   1       1.024  -0.527   2.243  0.00  0.00    -0.047 A 
ATOM      6  C4  UNL d   1       1.302  -0.401   0.898  0.00  0.00    -0.004 A 
ENDROOT
TORSDOF 0
ENDMDL
