MODEL 1
REMARK minimizedAffinity -2.45544481
REMARK minimizedRMSD -1
REMARK  0 active torsions:
REMARK  status: ('A' for Active; 'I' for Inactive)
ROOT
ATOM      1  C   UNL d   1       0.013  -1.312   2.547  0.00  0.00     0.172 C 
ATOM      2  N   UNL d   1      -0.136  -0.549   1.330  0.00  0.00    -0.070 N 
ATOM      3  C1  UNL d   1       0.628  -0.688   0.202  0.00  0.00    -0.004 A 
ATOM      4  C2  UNL d   1       0.172   0.218  -0.731  0.00  0.00    -0.047 A 
ATOM      5  C3  UNL d   1      -0.902   0.928  -0.142  0.00  0.00    -0.047 A 
ATOM      6  C4  UNL d   1      -1.071   0.433   1.134  0.00  0.00    -0.004 A 
ENDROOT
TORSDOF 0
ENDMDL
