MODEL 1
REMARK minimizedAffinity -1.4279213
REMARK minimizedRMSD -1
REMARK  0 active torsions:
REMARK  status: ('A' for Active; 'I' for Inactive)
ROOT
ATOM      1  C   UNL d   1       0.133  -0.650   2.707  0.00  0.00     0.172 C 
ATOM      2  N   UNL d   1      -0.115  -0.488   1.294  0.00  0.00    -0.070 N 
ATOM      3  C1  UNL d   1      -1.344  -0.332   0.711  0.00  0.00    -0.004 A 
ATOM      4  C2  UNL d   1      -1.155  -0.210  -0.648  0.00  0.00    -0.047 A 
ATOM      5  C3  UNL d   1       0.237  -0.297  -0.891  0.00  0.00    -0.047 A 
ATOM      6  C4  UNL d   1       0.857  -0.469   0.328  0.00  0.00    -0.004 A 
ENDROOT
TORSDOF 0
ENDMDL
