MODEL 1
REMARK minimizedAffinity -4.6686039
REMARK minimizedRMSD -1
REMARK  0 active torsions:
REMARK  status: ('A' for Active; 'I' for Inactive)
ROOT
ATOM      1  C   UNL d   1       3.051   0.885   0.746  0.00  0.00    -0.002 A 
ATOM      2  C1  UNL d   1       2.304   1.990   0.365  0.00  0.00     0.010 A 
ATOM      3  C2  UNL d   1       0.951   1.857   0.044  0.00  0.00     0.041 A 
ATOM      4  C3  UNL d   1       0.357   0.582   0.114  0.00  0.00    -0.075 A 
ATOM      5  S   UNL d   1      -1.283   0.179  -0.233  0.00  0.00     0.015 SA
ATOM      6  C4  UNL d   1      -1.031  -1.470   0.116  0.00  0.00     0.022 A 
ATOM      7  C5  UNL d   1       0.268  -1.725   0.490  0.00  0.00     0.026 A 
ATOM      8  C6  UNL d   1       1.089  -0.546   0.495  0.00  0.00    -0.082 A 
ATOM      9  C7  UNL d   1       2.458  -0.379   0.814  0.00  0.00     0.045 A 
ENDROOT
TORSDOF 0
ENDMDL
