MODEL 1
REMARK minimizedAffinity -2.25042439
REMARK minimizedRMSD -1
REMARK  0 active torsions:
REMARK  status: ('A' for Active; 'I' for Inactive)
ROOT
ATOM      1  C   UNL d   1       2.538   1.630   0.406  0.00  0.00    -0.002 A 
ATOM      2  C1  UNL d   1       2.987   0.320   0.492  0.00  0.00     0.010 A 
ATOM      3  C2  UNL d   1       2.089  -0.746   0.401  0.00  0.00     0.041 A 
ATOM      4  C3  UNL d   1       0.720  -0.470   0.218  0.00  0.00    -0.075 A 
ATOM      5  S   UNL d   1      -0.562  -1.615   0.079  0.00  0.00     0.015 SA
ATOM      6  C4  UNL d   1      -1.735  -0.391  -0.100  0.00  0.00     0.022 A 
ATOM      7  C5  UNL d   1      -1.180   0.866  -0.056  0.00  0.00     0.026 A 
ATOM      8  C6  UNL d   1       0.244   0.841   0.127  0.00  0.00    -0.082 A 
ATOM      9  C7  UNL d   1       1.179   1.900   0.224  0.00  0.00     0.045 A 
ENDROOT
TORSDOF 0
ENDMDL
