MODEL 1
REMARK minimizedAffinity -2.56306529
REMARK minimizedRMSD -1
REMARK  0 active torsions:
REMARK  status: ('A' for Active; 'I' for Inactive)
ROOT
ATOM      1  C   UNL d   1       3.098   0.286   0.365  0.00  0.00    -0.002 A 
ATOM      2  C1  UNL d   1       2.886  -0.948   0.963  0.00  0.00     0.010 A 
ATOM      3  C2  UNL d   1       1.609  -1.512   0.997  0.00  0.00     0.041 A 
ATOM      4  C3  UNL d   1       0.538  -0.807   0.412  0.00  0.00    -0.075 A 
ATOM      5  S   UNL d   1      -1.112  -1.302   0.334  0.00  0.00     0.015 SA
ATOM      6  C4  UNL d   1      -1.574   0.113  -0.496  0.00  0.00     0.022 A 
ATOM      7  C5  UNL d   1      -0.509   0.953  -0.716  0.00  0.00     0.026 A 
ATOM      8  C6  UNL d   1       0.726   0.437  -0.196  0.00  0.00    -0.082 A 
ATOM      9  C7  UNL d   1       2.033   0.981  -0.214  0.00  0.00     0.045 A 
ENDROOT
TORSDOF 0
ENDMDL
