MODEL 1
REMARK minimizedAffinity 20.7838631
REMARK minimizedRMSD -1
REMARK  2 active torsions:
REMARK  status: ('A' for Active; 'I' for Inactive)
REMARK    1  A    between atoms: C2'_3  and  C1'_4 
REMARK    2  A    between atoms: C1'_4  and  C1_5 
ROOT
ATOM      1  C1  I4B d   1      -2.968   3.323   3.367  0.00  0.00    -0.075 A 
ATOM      2  C2  I4B d   1      -2.220   2.217   3.689  0.00  0.00     0.003 A 
ATOM      3  C3  I4B d   1      -2.630   0.931   3.262  0.00  0.00     0.002 A 
ATOM      4  C4  I4B d   1      -3.812   0.791   2.563  0.00  0.00    -0.004 A 
ATOM      5  C5  I4B d   1      -4.556   1.915   2.218  0.00  0.00     0.002 A 
ATOM      6  C6  I4B d   1      -4.126   3.190   2.612  0.00  0.00     0.003 A 
ENDROOT
BRANCH   1   7
ATOM      7  C1' I4B d   1      -2.523   4.662   3.862  0.00  0.00     0.060 C 
BRANCH   7   8
ATOM      8  C2' I4B d   1      -3.228   4.931   5.176  0.00  0.00    -0.013 C 
ATOM      9  C4' I4B d   1      -2.477   5.945   5.999  0.00  0.00     0.013 C 
ATOM     10  C3' I4B d   1      -4.617   5.405   4.868  0.00  0.00     0.013 C 
ENDBRANCH   7   8
ENDBRANCH   1   7
TORSDOF 2
ENDMDL
