MODEL 1
REMARK minimizedAffinity -0.425998002
REMARK minimizedRMSD -1
REMARK  2 active torsions:
REMARK  status: ('A' for Active; 'I' for Inactive)
REMARK    1  A    between atoms: C2'_3  and  C1'_4 
REMARK    2  A    between atoms: C1'_4  and  C1_5 
ROOT
ATOM      1  C1  I4B d   1       0.597   1.564  -0.880  0.00  0.00    -0.075 A 
ATOM      2  C2  I4B d   1       1.692   2.126  -0.272  0.00  0.00     0.003 A 
ATOM      3  C3  I4B d   1       1.603   3.415   0.307  0.00  0.00     0.002 A 
ATOM      4  C4  I4B d   1       0.422   4.123   0.211  0.00  0.00    -0.004 A 
ATOM      5  C5  I4B d   1      -0.694   3.543  -0.386  0.00  0.00     0.002 A 
ATOM      6  C6  I4B d   1      -0.610   2.251  -0.923  0.00  0.00     0.003 A 
ENDROOT
BRANCH   1   7
ATOM      7  C1' I4B d   1       0.735   0.215  -1.509  0.00  0.00     0.060 C 
BRANCH   7   8
ATOM      8  C2' I4B d   1       1.848   0.290  -2.535  0.00  0.00    -0.013 C 
ATOM      9  C4' I4B d   1       1.469   1.184  -3.686  0.00  0.00     0.013 C 
ATOM     10  C3' I4B d   1       3.081   0.791  -1.844  0.00  0.00     0.013 C 
ENDBRANCH   7   8
ENDBRANCH   1   7
TORSDOF 2
ENDMDL
