MODEL 1
REMARK minimizedAffinity 7.36161089
REMARK minimizedRMSD -1
REMARK  2 active torsions:
REMARK  status: ('A' for Active; 'I' for Inactive)
REMARK    1  A    between atoms: C2'_3  and  C1'_4 
REMARK    2  A    between atoms: C1'_4  and  C1_5 
ROOT
ATOM      1  C1  I4B d   1       1.715  -0.503  -2.227  0.00  0.00    -0.075 A 
ATOM      2  C2  I4B d   1       0.951   0.060  -3.219  0.00  0.00     0.003 A 
ATOM      3  C3  I4B d   1       0.198  -0.762  -4.091  0.00  0.00     0.002 A 
ATOM      4  C4  I4B d   1       0.277  -2.134  -3.970  0.00  0.00    -0.004 A 
ATOM      5  C5  I4B d   1       1.034  -2.702  -2.949  0.00  0.00     0.002 A 
ATOM      6  C6  I4B d   1       1.748  -1.882  -2.064  0.00  0.00     0.003 A 
ENDROOT
BRANCH   1   7
ATOM      7  C1' I4B d   1       2.524   0.393  -1.344  0.00  0.00     0.060 C 
BRANCH   7   8
ATOM      8  C2' I4B d   1       3.939  -0.148  -1.300  0.00  0.00    -0.013 C 
ATOM      9  C4' I4B d   1       3.969  -1.549  -0.749  0.00  0.00     0.013 C 
ATOM     10  C3' I4B d   1       4.496  -0.101  -2.691  0.00  0.00     0.013 C 
ENDBRANCH   7   8
ENDBRANCH   1   7
TORSDOF 2
ENDMDL
