MODEL 1
REMARK minimizedAffinity 15.6465616
REMARK minimizedRMSD -1
REMARK  2 active torsions:
REMARK  status: ('A' for Active; 'I' for Inactive)
REMARK    1  A    between atoms: C2'_3  and  C1'_4 
REMARK    2  A    between atoms: C1'_4  and  C1_5 
ROOT
ATOM      1  C1  I4B d   1      -3.003   4.025   4.112  0.00  0.00    -0.075 A 
ATOM      2  C2  I4B d   1      -2.122   5.031   4.423  0.00  0.00     0.003 A 
ATOM      3  C3  I4B d   1      -2.462   5.999   5.400  0.00  0.00     0.002 A 
ATOM      4  C4  I4B d   1      -3.704   5.952   6.000  0.00  0.00    -0.004 A 
ATOM      5  C5  I4B d   1      -4.586   4.918   5.700  0.00  0.00     0.002 A 
ATOM      6  C6  I4B d   1      -4.229   3.941   4.759  0.00  0.00     0.003 A 
ENDROOT
BRANCH   1   7
ATOM      7  C1' I4B d   1      -2.625   3.039   3.053  0.00  0.00     0.060 C 
BRANCH   7   8
ATOM      8  C2' I4B d   1      -3.349   1.740   3.344  0.00  0.00    -0.013 C 
ATOM      9  C4' I4B d   1      -4.664   1.673   2.612  0.00  0.00     0.013 C 
ATOM     10  C3' I4B d   1      -2.449   0.609   2.945  0.00  0.00     0.013 C 
ENDBRANCH   7   8
ENDBRANCH   1   7
TORSDOF 2
ENDMDL
