MODEL 1
REMARK minimizedAffinity 4.31727123
REMARK minimizedRMSD -1
REMARK  2 active torsions:
REMARK  status: ('A' for Active; 'I' for Inactive)
REMARK    1  A    between atoms: C2'_3  and  C1'_4 
REMARK    2  A    between atoms: C1'_4  and  C1_5 
ROOT
ATOM      1  C1  I4B d   1       2.863   0.350  -0.460  0.00  0.00    -0.075 A 
ATOM      2  C2  I4B d   1       3.785  -0.656  -0.314  0.00  0.00     0.003 A 
ATOM      3  C3  I4B d   1       4.337  -0.938   0.959  0.00  0.00     0.002 A 
ATOM      4  C4  I4B d   1       3.979  -0.161   2.042  0.00  0.00    -0.004 A 
ATOM      5  C5  I4B d   1       3.027   0.844   1.897  0.00  0.00     0.002 A 
ATOM      6  C6  I4B d   1       2.455   1.093   0.640  0.00  0.00     0.003 A 
ENDROOT
BRANCH   1   7
ATOM      7  C1' I4B d   1       2.324   0.641  -1.825  0.00  0.00     0.060 C 
BRANCH   7   8
ATOM      8  C2' I4B d   1       0.829   0.396  -1.799  0.00  0.00    -0.013 C 
ATOM      9  C4' I4B d   1       0.118   1.257  -2.809  0.00  0.00     0.013 C 
ATOM     10  C3' I4B d   1       0.595  -1.061  -2.069  0.00  0.00     0.013 C 
ENDBRANCH   7   8
ENDBRANCH   1   7
TORSDOF 2
ENDMDL
