MODEL 1
REMARK minimizedAffinity 19.4645023
REMARK minimizedRMSD -1
REMARK  2 active torsions:
REMARK  status: ('A' for Active; 'I' for Inactive)
REMARK    1  A    between atoms: C2'_3  and  C1'_4 
REMARK    2  A    between atoms: C1'_4  and  C1_5 
ROOT
ATOM      1  C1  I4B d   1      -3.593   3.881   3.860  0.00  0.00    -0.075 A 
ATOM      2  C2  I4B d   1      -4.674   4.667   4.169  0.00  0.00     0.003 A 
ATOM      3  C3  I4B d   1      -4.530   5.761   5.056  0.00  0.00     0.002 A 
ATOM      4  C4  I4B d   1      -3.306   6.000   5.647  0.00  0.00    -0.004 A 
ATOM      5  C5  I4B d   1      -2.205   5.215   5.315  0.00  0.00     0.002 A 
ATOM      6  C6  I4B d   1      -2.346   4.157   4.406  0.00  0.00     0.003 A 
ENDROOT
BRANCH   1   7
ATOM      7  C1' I4B d   1      -3.788   2.714   2.945  0.00  0.00     0.060 C 
BRANCH   7   8
ATOM      8  C2' I4B d   1      -2.912   1.581   3.439  0.00  0.00    -0.013 C 
ATOM      9  C4' I4B d   1      -3.632   0.739   4.459  0.00  0.00     0.013 C 
ATOM     10  C3' I4B d   1      -2.502   0.761   2.252  0.00  0.00     0.013 C 
ENDBRANCH   7   8
ENDBRANCH   1   7
TORSDOF 2
ENDMDL
