MODEL 1
REMARK minimizedAffinity 12.7189035
REMARK minimizedRMSD -1
REMARK  2 active torsions:
REMARK  status: ('A' for Active; 'I' for Inactive)
REMARK    1  A    between atoms: C2'_3  and  C1'_4 
REMARK    2  A    between atoms: C1'_4  and  C1_5 
ROOT
ATOM      1  C1  I4B d   1      -2.689   3.518   4.301  0.00  0.00    -0.075 A 
ATOM      2  C2  I4B d   1      -2.052   3.971   5.430  0.00  0.00     0.003 A 
ATOM      3  C3  I4B d   1      -2.408   5.219   5.996  0.00  0.00     0.002 A 
ATOM      4  C4  I4B d   1      -3.363   5.999   5.377  0.00  0.00    -0.004 A 
ATOM      5  C5  I4B d   1      -4.024   5.528   4.246  0.00  0.00     0.002 A 
ATOM      6  C6  I4B d   1      -3.694   4.274   3.711  0.00  0.00     0.003 A 
ENDROOT
BRANCH   1   7
ATOM      7  C1' I4B d   1      -2.266   2.210   3.711  0.00  0.00     0.060 C 
BRANCH   7   8
ATOM      8  C2' I4B d   1      -3.511   1.377   3.480  0.00  0.00    -0.013 C 
ATOM      9  C4' I4B d   1      -4.439   2.045   2.501  0.00  0.00     0.013 C 
ATOM     10  C3' I4B d   1      -3.080   0.029   2.986  0.00  0.00     0.013 C 
ENDBRANCH   7   8
ENDBRANCH   1   7
TORSDOF 2
ENDMDL
