MODEL 1
REMARK minimizedAffinity 15.0324945
REMARK minimizedRMSD -1
REMARK  2 active torsions:
REMARK  status: ('A' for Active; 'I' for Inactive)
REMARK    1  A    between atoms: C2'_3  and  C1'_4 
REMARK    2  A    between atoms: C1'_4  and  C1_5 
ROOT
ATOM      1  C1  I4B d   1      -2.553   3.680   4.558  0.00  0.00    -0.075 A 
ATOM      2  C2  I4B d   1      -3.758   3.814   5.202  0.00  0.00     0.003 A 
ATOM      3  C3  I4B d   1      -4.057   5.000   5.915  0.00  0.00     0.002 A 
ATOM      4  C4  I4B d   1      -3.109   5.999   6.000  0.00  0.00    -0.004 A 
ATOM      5  C5  I4B d   1      -1.897   5.871   5.327  0.00  0.00     0.002 A 
ATOM      6  C6  I4B d   1      -1.622   4.709   4.591  0.00  0.00     0.003 A 
ENDROOT
BRANCH   1   7
ATOM      7  C1' I4B d   1      -2.257   2.400   3.841  0.00  0.00     0.060 C 
BRANCH   7   8
ATOM      8  C2' I4B d   1      -3.577   1.769   3.449  0.00  0.00    -0.013 C 
ATOM      9  C4' I4B d   1      -4.161   2.438   2.232  0.00  0.00     0.013 C 
ATOM     10  C3' I4B d   1      -3.337   0.310   3.202  0.00  0.00     0.013 C 
ENDBRANCH   7   8
ENDBRANCH   1   7
TORSDOF 2
ENDMDL
