MODEL 1
REMARK minimizedAffinity 17.4136944
REMARK minimizedRMSD -1
REMARK  2 active torsions:
REMARK  status: ('A' for Active; 'I' for Inactive)
REMARK    1  A    between atoms: C2'_3  and  C1'_4 
REMARK    2  A    between atoms: C1'_4  and  C1_5 
ROOT
ATOM      1  C1  I4B d   1      -0.802   0.934  -1.409  0.00  0.00    -0.075 A 
ATOM      2  C2  I4B d   1       0.180   0.057  -1.020  0.00  0.00     0.003 A 
ATOM      3  C3  I4B d   1       1.444   0.075  -1.658  0.00  0.00     0.002 A 
ATOM      4  C4  I4B d   1       1.665   0.944  -2.706  0.00  0.00    -0.004 A 
ATOM      5  C5  I4B d   1       0.676   1.848  -3.084  0.00  0.00     0.002 A 
ATOM      6  C6  I4B d   1      -0.561   1.852  -2.423  0.00  0.00     0.003 A 
ENDROOT
BRANCH   1   7
ATOM      7  C1' I4B d   1      -2.137   0.866  -0.737  0.00  0.00     0.060 C 
BRANCH   7   8
ATOM      8  C2' I4B d   1      -2.098  -0.272   0.263  0.00  0.00    -0.013 C 
ATOM      9  C4' I4B d   1      -2.550   0.184   1.625  0.00  0.00     0.013 C 
ATOM     10  C3' I4B d   1      -2.972  -1.374  -0.257  0.00  0.00     0.013 C 
ENDBRANCH   7   8
ENDBRANCH   1   7
TORSDOF 2
ENDMDL
