MODEL 1
REMARK minimizedAffinity 10.5793867
REMARK minimizedRMSD -1
REMARK  2 active torsions:
REMARK  status: ('A' for Active; 'I' for Inactive)
REMARK    1  A    between atoms: C2'_3  and  C1'_4 
REMARK    2  A    between atoms: C1'_4  and  C1_5 
ROOT
ATOM      1  C1  I4B d   1       1.719   2.821  -2.022  0.00  0.00    -0.075 A 
ATOM      2  C2  I4B d   1       0.967   1.794  -1.510  0.00  0.00     0.003 A 
ATOM      3  C3  I4B d   1       0.441   0.798  -2.368  0.00  0.00     0.002 A 
ATOM      4  C4  I4B d   1       0.647   0.896  -3.729  0.00  0.00    -0.004 A 
ATOM      5  C5  I4B d   1       1.429   1.926  -4.244  0.00  0.00     0.002 A 
ATOM      6  C6  I4B d   1       1.979   2.888  -3.385  0.00  0.00     0.003 A 
ENDROOT
BRANCH   1   7
ATOM      7  C1' I4B d   1       2.232   3.873  -1.091  0.00  0.00     0.060 C 
BRANCH   7   8
ATOM      8  C2' I4B d   1       1.803   3.502   0.314  0.00  0.00    -0.013 C 
ATOM      9  C4' I4B d   1       2.934   3.674   1.294  0.00  0.00     0.013 C 
ATOM     10  C3' I4B d   1       0.632   4.364   0.683  0.00  0.00     0.013 C 
ENDBRANCH   7   8
ENDBRANCH   1   7
TORSDOF 2
ENDMDL
