MODEL 1
REMARK minimizedAffinity 3.46033955
REMARK minimizedRMSD -1
REMARK  2 active torsions:
REMARK  status: ('A' for Active; 'I' for Inactive)
REMARK    1  A    between atoms: C2'_3  and  C1'_4 
REMARK    2  A    between atoms: C1'_4  and  C1_5 
ROOT
ATOM      1  C1  I4B d   1       2.102   0.172  -2.007  0.00  0.00    -0.075 A 
ATOM      2  C2  I4B d   1       2.923   0.575  -3.031  0.00  0.00     0.003 A 
ATOM      3  C3  I4B d   1       2.526   1.629  -3.889  0.00  0.00     0.002 A 
ATOM      4  C4  I4B d   1       1.288   2.214  -3.721  0.00  0.00    -0.004 A 
ATOM      5  C5  I4B d   1       0.467   1.820  -2.668  0.00  0.00     0.002 A 
ATOM      6  C6  I4B d   1       0.881   0.801  -1.798  0.00  0.00     0.003 A 
ENDROOT
BRANCH   1   7
ATOM      7  C1' I4B d   1       2.538  -0.966  -1.139  0.00  0.00     0.060 C 
BRANCH   7   8
ATOM      8  C2' I4B d   1       1.345  -1.877  -0.931  0.00  0.00    -0.013 C 
ATOM      9  C4' I4B d   1       0.884  -2.476  -2.234  0.00  0.00     0.013 C 
ATOM     10  C3' I4B d   1       1.742  -2.944   0.045  0.00  0.00     0.013 C 
ENDBRANCH   7   8
ENDBRANCH   1   7
TORSDOF 2
ENDMDL
