MODEL 1
REMARK minimizedAffinity 2.99716258
REMARK minimizedRMSD -1
REMARK  2 active torsions:
REMARK  status: ('A' for Active; 'I' for Inactive)
REMARK    1  A    between atoms: C2'_3  and  C1'_4 
REMARK    2  A    between atoms: C1'_4  and  C1_5 
ROOT
ATOM      1  C1  I4B d   1       1.532   1.975  -3.811  0.00  0.00    -0.075 A 
ATOM      2  C2  I4B d   1       1.610   2.139  -5.172  0.00  0.00     0.003 A 
ATOM      3  C3  I4B d   1       2.271   3.267  -5.717  0.00  0.00     0.002 A 
ATOM      4  C4  I4B d   1       2.792   4.224  -4.870  0.00  0.00    -0.004 A 
ATOM      5  C5  I4B d   1       2.732   4.044  -3.491  0.00  0.00     0.002 A 
ATOM      6  C6  I4B d   1       2.109   2.906  -2.958  0.00  0.00     0.003 A 
ENDROOT
BRANCH   1   7
ATOM      7  C1' I4B d   1       0.797   0.790  -3.270  0.00  0.00     0.060 C 
BRANCH   7   8
ATOM      8  C2' I4B d   1       0.902   0.826  -1.759  0.00  0.00    -0.013 C 
ATOM      9  C4' I4B d   1      -0.345   1.399  -1.139  0.00  0.00     0.013 C 
ATOM     10  C3' I4B d   1       1.152  -0.573  -1.278  0.00  0.00     0.013 C 
ENDBRANCH   7   8
ENDBRANCH   1   7
TORSDOF 2
ENDMDL
