MODEL 1
REMARK minimizedAffinity 10.8513355
REMARK minimizedRMSD -1
REMARK  2 active torsions:
REMARK  status: ('A' for Active; 'I' for Inactive)
REMARK    1  A    between atoms: C2'_3  and  C1'_4 
REMARK    2  A    between atoms: C1'_4  and  C1_5 
ROOT
ATOM      1  C1  I4B d   1       1.180  -0.595  -2.237  0.00  0.00    -0.075 A 
ATOM      2  C2  I4B d   1       2.006  -0.132  -3.232  0.00  0.00     0.003 A 
ATOM      3  C3  I4B d   1       1.840   1.177  -3.745  0.00  0.00     0.002 A 
ATOM      4  C4  I4B d   1       0.810   1.966  -3.274  0.00  0.00    -0.004 A 
ATOM      5  C5  I4B d   1      -0.012   1.504  -2.250  0.00  0.00     0.002 A 
ATOM      6  C6  I4B d   1       0.182   0.220  -1.719  0.00  0.00     0.003 A 
ENDROOT
BRANCH   1   7
ATOM      7  C1' I4B d   1       1.363  -1.994  -1.741  0.00  0.00     0.060 C 
BRANCH   7   8
ATOM      8  C2' I4B d   1       1.692  -1.926  -0.264  0.00  0.00    -0.013 C 
ATOM      9  C4' I4B d   1       1.592  -3.284   0.380  0.00  0.00     0.013 C 
ATOM     10  C3' I4B d   1       3.074  -1.361  -0.123  0.00  0.00     0.013 C 
ENDBRANCH   7   8
ENDBRANCH   1   7
TORSDOF 2
ENDMDL
