MODEL 1
REMARK minimizedAffinity -5.4759078
REMARK minimizedRMSD -1
REMARK  1 active torsions:
REMARK  status: ('A' for Active; 'I' for Inactive)
REMARK    1  A    between atoms: N_2  and  C1_3 
ROOT
ATOM      1  C1  UNL d   1      -0.293   1.276   0.151  0.00  0.00     0.143 A 
ATOM      2  C2  UNL d   1      -0.697   1.407   1.484  0.00  0.00    -0.057 A 
ATOM      3  C3  UNL d   1      -1.204   2.616   1.973  0.00  0.00     0.033 A 
ATOM      4  C4  UNL d   1      -1.291   3.729   1.142  0.00  0.00    -0.042 A 
ATOM      5  C5  UNL d   1      -0.872   3.629  -0.180  0.00  0.00     0.033 A 
ATOM      6  C6  UNL d   1      -0.372   2.416  -0.664  0.00  0.00    -0.057 A 
ENDROOT
BRANCH   1   7
ATOM      7  N   UNL d   1       0.311   0.129  -0.370  0.00  0.00    -0.732 N 
ATOM      8  C   UNL d   1       1.548  -0.372   0.191  0.00  0.00     0.284 C 
ATOM      9  H3  UNL d   1      -0.365  -0.596  -0.600  0.00  0.00     0.395 HD
ENDBRANCH   1   7
TORSDOF 1
ENDMDL
