MODEL 1
REMARK minimizedAffinity 5.07969284
REMARK minimizedRMSD -1
REMARK  1 active torsions:
REMARK  status: ('A' for Active; 'I' for Inactive)
REMARK    1  A    between atoms: N_2  and  C1_3 
ROOT
ATOM      1  C1  UNL d   1       4.525  -0.372   1.825  0.00  0.00     0.143 A 
ATOM      2  C2  UNL d   1       5.047  -0.506   0.534  0.00  0.00    -0.057 A 
ATOM      3  C3  UNL d   1       4.208  -0.633  -0.579  0.00  0.00     0.033 A 
ATOM      4  C4  UNL d   1       2.827  -0.659  -0.417  0.00  0.00    -0.042 A 
ATOM      5  C5  UNL d   1       2.286  -0.553   0.859  0.00  0.00     0.033 A 
ATOM      6  C6  UNL d   1       3.129  -0.419   1.966  0.00  0.00    -0.057 A 
ENDROOT
BRANCH   1   7
ATOM      7  N   UNL d   1       5.307  -0.341   2.982  0.00  0.00    -0.732 N 
ATOM      8  C   UNL d   1       5.365  -1.487   3.865  0.00  0.00     0.284 C 
ATOM      9  H3  UNL d   1       6.205   0.113   2.831  0.00  0.00     0.395 HD
ENDBRANCH   1   7
TORSDOF 1
ENDMDL
