MODEL 1
REMARK minimizedAffinity -2.6501286
REMARK minimizedRMSD -1
REMARK  1 active torsions:
REMARK  status: ('A' for Active; 'I' for Inactive)
REMARK    1  A    between atoms: N_2  and  C1_3 
ROOT
ATOM      1  C1  UNL d   1      -0.072   0.231   0.055  0.00  0.00     0.143 A 
ATOM      2  C2  UNL d   1       0.288   0.467   1.386  0.00  0.00    -0.057 A 
ATOM      3  C3  UNL d   1      -0.205   1.574   2.086  0.00  0.00     0.033 A 
ATOM      4  C4  UNL d   1      -1.047   2.485   1.456  0.00  0.00    -0.042 A 
ATOM      5  C5  UNL d   1      -1.398   2.284   0.126  0.00  0.00     0.033 A 
ATOM      6  C6  UNL d   1      -0.908   1.172  -0.566  0.00  0.00    -0.057 A 
ENDROOT
BRANCH   1   7
ATOM      7  N   UNL d   1       0.462  -0.798  -0.725  0.00  0.00    -0.732 N 
ATOM      8  C   UNL d   1      -0.251  -2.047  -0.887  0.00  0.00     0.284 C 
ATOM      9  H3  UNL d   1       0.896  -0.453  -1.578  0.00  0.00     0.395 HD
ENDBRANCH   1   7
TORSDOF 1
ENDMDL
