MODEL 1
REMARK minimizedAffinity -1.04078496
REMARK minimizedRMSD -1
REMARK  1 active torsions:
REMARK  status: ('A' for Active; 'I' for Inactive)
REMARK    1  A    between atoms: N_2  and  C1_3 
ROOT
ATOM      1  C1  UNL d   1       1.705  -0.054   0.787  0.00  0.00     0.143 A 
ATOM      2  C2  UNL d   1       1.431   0.803   1.858  0.00  0.00    -0.057 A 
ATOM      3  C3  UNL d   1       0.269   1.583   1.884  0.00  0.00     0.033 A 
ATOM      4  C4  UNL d   1      -0.628   1.542   0.823  0.00  0.00    -0.042 A 
ATOM      5  C5  UNL d   1      -0.364   0.716  -0.264  0.00  0.00     0.033 A 
ATOM      6  C6  UNL d   1       0.795  -0.066  -0.282  0.00  0.00    -0.057 A 
ENDROOT
BRANCH   1   7
ATOM      7  N   UNL d   1       2.891  -0.781   0.656  0.00  0.00    -0.732 N 
ATOM      8  C   UNL d   1       3.959  -0.630   1.621  0.00  0.00     0.284 C 
ATOM      9  H3  UNL d   1       2.728  -1.742   0.364  0.00  0.00     0.395 HD
ENDBRANCH   1   7
TORSDOF 1
ENDMDL
