MODEL 1
REMARK minimizedAffinity -2.24406362
REMARK minimizedRMSD -1
REMARK  1 active torsions:
REMARK  status: ('A' for Active; 'I' for Inactive)
REMARK    1  A    between atoms: N_2  and  C1_3 
ROOT
ATOM      1  C1  UNL d   1       1.047   0.302   0.505  0.00  0.00     0.143 A 
ATOM      2  C2  UNL d   1       0.812   0.427  -0.869  0.00  0.00    -0.057 A 
ATOM      3  C3  UNL d   1      -0.241   1.209  -1.357  0.00  0.00     0.033 A 
ATOM      4  C4  UNL d   1      -1.099   1.859  -0.477  0.00  0.00    -0.042 A 
ATOM      5  C5  UNL d   1      -0.900   1.729   0.893  0.00  0.00     0.033 A 
ATOM      6  C6  UNL d   1       0.158   0.952   1.375  0.00  0.00    -0.057 A 
ENDROOT
BRANCH   1   7
ATOM      7  N   UNL d   1       2.017  -0.539   1.055  0.00  0.00    -0.732 N 
ATOM      8  C   UNL d   1       3.103  -1.042   0.242  0.00  0.00     0.284 C 
ATOM      9  H3  UNL d   1       2.296  -0.251   1.990  0.00  0.00     0.395 HD
ENDBRANCH   1   7
TORSDOF 1
ENDMDL
