MODEL 1
REMARK minimizedAffinity 5.56480694
REMARK minimizedRMSD -1
REMARK  2 active torsions:
REMARK  status: ('A' for Active; 'I' for Inactive)
REMARK    1  A    between atoms: C1_2  and  C2_3 
REMARK    2  A    between atoms: C2_3  and  C3_4 
ROOT
ATOM      1  C3  UNL d   1       3.830   0.188   0.482  0.00  0.00    -0.075 A 
ATOM      2  C4  UNL d   1       3.097  -0.320  -0.600  0.00  0.00     0.002 A 
ATOM      3  C5  UNL d   1       3.347   0.126  -1.898  0.00  0.00     0.002 A 
ATOM      4  C6  UNL d   1       4.324   1.092  -2.129  0.00  0.00    -0.004 A 
ATOM      5  C7  UNL d   1       5.048   1.616  -1.060  0.00  0.00     0.002 A 
ATOM      6  C8  UNL d   1       4.802   1.168   0.239  0.00  0.00     0.002 A 
ENDROOT
BRANCH   1   7
ATOM      7  C2  UNL d   1       3.584  -0.312   1.885  0.00  0.00     0.056 C 
BRANCH   7   8
ATOM      8  C1  UNL d   1       4.549  -1.416   2.332  0.00  0.00     0.007 C 
ATOM      9  C   UNL d   1       5.505  -0.969   3.429  0.00  0.00     0.009 C 
ENDBRANCH   7   8
ENDBRANCH   1   7
TORSDOF 2
ENDMDL
