MODEL 1
REMARK minimizedAffinity 11.6719122
REMARK minimizedRMSD -1
REMARK  2 active torsions:
REMARK  status: ('A' for Active; 'I' for Inactive)
REMARK    1  A    between atoms: C1_2  and  C2_3 
REMARK    2  A    between atoms: C2_3  and  C3_4 
ROOT
ATOM      1  C3  UNL d   1       2.821   0.394  -0.481  0.00  0.00    -0.075 A 
ATOM      2  C4  UNL d   1       3.690   1.149  -1.281  0.00  0.00     0.002 A 
ATOM      3  C5  UNL d   1       4.676   1.946  -0.698  0.00  0.00     0.002 A 
ATOM      4  C6  UNL d   1       4.799   2.005   0.689  0.00  0.00    -0.004 A 
ATOM      5  C7  UNL d   1       3.929   1.272   1.493  0.00  0.00     0.002 A 
ATOM      6  C8  UNL d   1       2.945   0.471   0.913  0.00  0.00     0.002 A 
ENDROOT
BRANCH   1   7
ATOM      7  C2  UNL d   1       1.771  -0.494  -1.106  0.00  0.00     0.056 C 
BRANCH   7   8
ATOM      8  C1  UNL d   1       0.339  -0.168  -0.669  0.00  0.00     0.007 C 
ATOM      9  C   UNL d   1      -0.601  -1.364  -0.752  0.00  0.00     0.009 C 
ENDBRANCH   7   8
ENDBRANCH   1   7
TORSDOF 2
ENDMDL
