MODEL 1
REMARK minimizedAffinity 9.25402832
REMARK minimizedRMSD -1
REMARK  2 active torsions:
REMARK  status: ('A' for Active; 'I' for Inactive)
REMARK    1  A    between atoms: C1_2  and  C2_3 
REMARK    2  A    between atoms: C2_3  and  C3_4 
ROOT
ATOM      1  C3  UNL d   1       3.840   1.197  -0.909  0.00  0.00    -0.075 A 
ATOM      2  C4  UNL d   1       4.071   1.238  -2.292  0.00  0.00     0.002 A 
ATOM      3  C5  UNL d   1       5.148   1.959  -2.809  0.00  0.00     0.002 A 
ATOM      4  C6  UNL d   1       6.000   2.655  -1.953  0.00  0.00    -0.004 A 
ATOM      5  C7  UNL d   1       5.770   2.634  -0.580  0.00  0.00     0.002 A 
ATOM      6  C8  UNL d   1       4.696   1.910  -0.059  0.00  0.00     0.002 A 
ENDROOT
BRANCH   1   7
ATOM      7  C2  UNL d   1       2.694   0.395  -0.341  0.00  0.00     0.056 C 
BRANCH   7   8
ATOM      8  C1  UNL d   1       2.717   0.270   1.186  0.00  0.00     0.007 C 
ATOM      9  C   UNL d   1       3.104  -1.122   1.669  0.00  0.00     0.009 C 
ENDBRANCH   7   8
ENDBRANCH   1   7
TORSDOF 2
ENDMDL
