MODEL 1
REMARK minimizedAffinity -4.05345201
REMARK minimizedRMSD -1
REMARK  2 active torsions:
REMARK  status: ('A' for Active; 'I' for Inactive)
REMARK    1  A    between atoms: C2'_3  and  C1'_4 
REMARK    2  A    between atoms: C1'_4  and  C1_5 
ROOT
ATOM      1  C1  I4B d   1      -0.816   0.091  -0.147  0.00  0.00    -0.075 A 
ATOM      2  C2  I4B d   1      -0.585  -1.107   0.483  0.00  0.00     0.003 A 
ATOM      3  C3  I4B d   1       0.675  -1.371   1.073  0.00  0.00     0.002 A 
ATOM      4  C4  I4B d   1       1.685  -0.436   0.966  0.00  0.00    -0.004 A 
ATOM      5  C5  I4B d   1       1.442   0.787   0.347  0.00  0.00     0.002 A 
ATOM      6  C6  I4B d   1       0.180   1.057  -0.203  0.00  0.00     0.003 A 
ENDROOT
BRANCH   1   7
ATOM      7  C1' I4B d   1      -2.147   0.323  -0.788  0.00  0.00     0.060 C 
BRANCH   7   8
ATOM      8  C2' I4B d   1      -1.991   0.111  -2.280  0.00  0.00    -0.013 C 
ATOM      9  C4' I4B d   1      -2.786  -1.079  -2.748  0.00  0.00     0.013 C 
ATOM     10  C3' I4B d   1      -2.433   1.365  -2.974  0.00  0.00     0.013 C 
ENDBRANCH   7   8
ENDBRANCH   1   7
TORSDOF 2
ENDMDL
