MODEL 1
REMARK minimizedAffinity -1.89151061
REMARK minimizedRMSD -1
REMARK  2 active torsions:
REMARK  status: ('A' for Active; 'I' for Inactive)
REMARK    1  A    between atoms: C2'_3  and  C1'_4 
REMARK    2  A    between atoms: C1'_4  and  C1_5 
ROOT
ATOM      1  C1  I4B d   1      -0.963   0.016  -0.188  0.00  0.00    -0.075 A 
ATOM      2  C2  I4B d   1      -0.732  -1.032   0.668  0.00  0.00     0.003 A 
ATOM      3  C3  I4B d   1       0.559  -1.235   1.214  0.00  0.00     0.002 A 
ATOM      4  C4  I4B d   1       1.594  -0.403   0.840  0.00  0.00    -0.004 A 
ATOM      5  C5  I4B d   1       1.352   0.673  -0.011  0.00  0.00     0.002 A 
ATOM      6  C6  I4B d   1       0.063   0.891  -0.518  0.00  0.00     0.003 A 
ENDROOT
BRANCH   1   7
ATOM      7  C1' I4B d   1      -2.330   0.181  -0.772  0.00  0.00     0.060 C 
BRANCH   7   8
ATOM      8  C2' I4B d   1      -2.178   0.386  -2.266  0.00  0.00    -0.013 C 
ATOM      9  C4' I4B d   1      -2.550  -0.860  -3.027  0.00  0.00     0.013 C 
ATOM     10  C3' I4B d   1      -3.044   1.543  -2.665  0.00  0.00     0.013 C 
ENDBRANCH   7   8
ENDBRANCH   1   7
TORSDOF 2
ENDMDL
