MODEL 1
REMARK minimizedAffinity -2.21993303
REMARK minimizedRMSD -1
REMARK  2 active torsions:
REMARK  status: ('A' for Active; 'I' for Inactive)
REMARK    1  A    between atoms: C2'_3  and  C1'_4 
REMARK    2  A    between atoms: C1'_4  and  C1_5 
ROOT
ATOM      1  C1  I4B d   1      -0.718   0.169  -0.622  0.00  0.00    -0.075 A 
ATOM      2  C2  I4B d   1      -0.801  -0.018   0.735  0.00  0.00     0.003 A 
ATOM      3  C3  I4B d   1       0.370  -0.253   1.495  0.00  0.00     0.002 A 
ATOM      4  C4  I4B d   1       1.589  -0.344   0.855  0.00  0.00    -0.004 A 
ATOM      5  C5  I4B d   1       1.675  -0.131  -0.517  0.00  0.00     0.002 A 
ATOM      6  C6  I4B d   1       0.516   0.139  -1.260  0.00  0.00     0.003 A 
ENDROOT
BRANCH   1   7
ATOM      7  C1' I4B d   1      -1.978   0.383  -1.399  0.00  0.00     0.060 C 
BRANCH   7   8
ATOM      8  C2' I4B d   1      -1.867  -0.399  -2.693  0.00  0.00    -0.013 C 
ATOM      9  C4' I4B d   1      -2.531  -1.745  -2.574  0.00  0.00     0.013 C 
ATOM     10  C3' I4B d   1      -2.492   0.419  -3.783  0.00  0.00     0.013 C 
ENDBRANCH   7   8
ENDBRANCH   1   7
TORSDOF 2
ENDMDL
