MODEL 1
REMARK minimizedAffinity -4.19536543
REMARK minimizedRMSD -1
REMARK  2 active torsions:
REMARK  status: ('A' for Active; 'I' for Inactive)
REMARK    1  A    between atoms: C2'_3  and  C1'_4 
REMARK    2  A    between atoms: C1'_4  and  C1_5 
ROOT
ATOM      1  C1  I4B d   1      -0.153   0.006   0.106  0.00  0.00    -0.075 A 
ATOM      2  C2  I4B d   1       0.581  -1.132   0.327  0.00  0.00     0.003 A 
ATOM      3  C3  I4B d   1       1.958  -1.042   0.644  0.00  0.00     0.002 A 
ATOM      4  C4  I4B d   1       2.568   0.195   0.678  0.00  0.00    -0.004 A 
ATOM      5  C5  I4B d   1       1.818   1.350   0.476  0.00  0.00     0.002 A 
ATOM      6  C6  I4B d   1       0.446   1.256   0.201  0.00  0.00     0.003 A 
ENDROOT
BRANCH   1   7
ATOM      7  C1' I4B d   1      -1.598  -0.127  -0.258  0.00  0.00     0.060 C 
BRANCH   7   8
ATOM      8  C2' I4B d   1      -1.742   0.214  -1.727  0.00  0.00    -0.013 C 
ATOM      9  C4' I4B d   1      -1.848  -1.031  -2.568  0.00  0.00     0.013 C 
ATOM     10  C3' I4B d   1      -2.957   1.078  -1.885  0.00  0.00     0.013 C 
ENDBRANCH   7   8
ENDBRANCH   1   7
TORSDOF 2
ENDMDL
