MODEL 1
REMARK minimizedAffinity -2.02734852
REMARK minimizedRMSD -1
REMARK  2 active torsions:
REMARK  status: ('A' for Active; 'I' for Inactive)
REMARK    1  A    between atoms: C2'_3  and  C1'_4 
REMARK    2  A    between atoms: C1'_4  and  C1_5 
ROOT
ATOM      1  C1  I4B d   1       0.298   0.221  -0.010  0.00  0.00    -0.075 A 
ATOM      2  C2  I4B d   1       1.374   1.019  -0.308  0.00  0.00     0.003 A 
ATOM      3  C3  I4B d   1       2.692   0.551  -0.089  0.00  0.00     0.002 A 
ATOM      4  C4  I4B d   1       2.886  -0.694   0.474  0.00  0.00    -0.004 A 
ATOM      5  C5  I4B d   1       1.795  -1.511   0.755  0.00  0.00     0.002 A 
ATOM      6  C6  I4B d   1       0.493  -1.056   0.500  0.00  0.00     0.003 A 
ENDROOT
BRANCH   1   7
ATOM      7  C1' I4B d   1      -1.080   0.760  -0.224  0.00  0.00     0.060 C 
BRANCH   7   8
ATOM      8  C2' I4B d   1      -1.409   0.631  -1.697  0.00  0.00    -0.013 C 
ATOM      9  C4' I4B d   1      -1.647  -0.807  -2.079  0.00  0.00     0.013 C 
ATOM     10  C3' I4B d   1      -2.618   1.473  -1.978  0.00  0.00     0.013 C 
ENDBRANCH   7   8
ENDBRANCH   1   7
TORSDOF 2
ENDMDL
