MODEL 1
REMARK minimizedAffinity -3.06880569
REMARK minimizedRMSD -1
REMARK  2 active torsions:
REMARK  status: ('A' for Active; 'I' for Inactive)
REMARK    1  A    between atoms: C2'_3  and  C1'_4 
REMARK    2  A    between atoms: C1'_4  and  C1_5 
ROOT
ATOM      1  C1  I4B d   1      -0.620  -0.672  -0.386  0.00  0.00    -0.075 A 
ATOM      2  C2  I4B d   1       0.543  -0.379  -1.055  0.00  0.00     0.003 A 
ATOM      3  C3  I4B d   1       1.746  -1.044  -0.717  0.00  0.00     0.002 A 
ATOM      4  C4  I4B d   1       1.752  -1.953   0.321  0.00  0.00    -0.004 A 
ATOM      5  C5  I4B d   1       0.568  -2.265   0.983  0.00  0.00     0.002 A 
ATOM      6  C6  I4B d   1      -0.629  -1.630   0.619  0.00  0.00     0.003 A 
ENDROOT
BRANCH   1   7
ATOM      7  C1' I4B d   1      -1.866   0.074  -0.746  0.00  0.00     0.060 C 
BRANCH   7   8
ATOM      8  C2' I4B d   1      -2.124  -0.135  -2.225  0.00  0.00    -0.013 C 
ATOM      9  C4' I4B d   1      -2.489  -1.566  -2.517  0.00  0.00     0.013 C 
ATOM     10  C3' I4B d   1      -3.222   0.799  -2.639  0.00  0.00     0.013 C 
ENDBRANCH   7   8
ENDBRANCH   1   7
TORSDOF 2
ENDMDL
