MODEL 1
REMARK minimizedAffinity 23.364893
REMARK minimizedRMSD -1
REMARK  2 active torsions:
REMARK  status: ('A' for Active; 'I' for Inactive)
REMARK    1  A    between atoms: C2'_3  and  C1'_4 
REMARK    2  A    between atoms: C1'_4  and  C1_5 
ROOT
ATOM      1  C1  I4B d   1       3.142  -3.260  -0.328  0.00  0.00    -0.075 A 
ATOM      2  C2  I4B d   1       4.250  -4.066  -0.234  0.00  0.00     0.003 A 
ATOM      3  C3  I4B d   1       4.102  -5.462  -0.048  0.00  0.00     0.002 A 
ATOM      4  C4  I4B d   1       2.839  -5.999   0.088  0.00  0.00    -0.004 A 
ATOM      5  C5  I4B d   1       1.716  -5.185  -0.031  0.00  0.00     0.002 A 
ATOM      6  C6  I4B d   1       1.868  -3.808  -0.252  0.00  0.00     0.003 A 
ENDROOT
BRANCH   1   7
ATOM      7  C1' I4B d   1       3.335  -1.786  -0.491  0.00  0.00     0.060 C 
BRANCH   7   8
ATOM      8  C2' I4B d   1       2.014  -1.188  -0.930  0.00  0.00    -0.013 C 
ATOM      9  C4' I4B d   1       1.837   0.204  -0.383  0.00  0.00     0.013 C 
ATOM     10  C3' I4B d   1       1.981  -1.189  -2.429  0.00  0.00     0.013 C 
ENDBRANCH   7   8
ENDBRANCH   1   7
TORSDOF 2
ENDMDL
