MODEL 1
REMARK minimizedAffinity 18.4621334
REMARK minimizedRMSD -1
REMARK  2 active torsions:
REMARK  status: ('A' for Active; 'I' for Inactive)
REMARK    1  A    between atoms: C2'_3  and  C1'_4 
REMARK    2  A    between atoms: C1'_4  and  C1_5 
ROOT
ATOM      1  C1  I4B d   1       1.575   0.516   0.730  0.00  0.00    -0.075 A 
ATOM      2  C2  I4B d   1       1.727  -0.149  -0.461  0.00  0.00     0.003 A 
ATOM      3  C3  I4B d   1       2.785   0.194  -1.338  0.00  0.00     0.002 A 
ATOM      4  C4  I4B d   1       3.630   1.234  -1.010  0.00  0.00    -0.004 A 
ATOM      5  C5  I4B d   1       3.488   1.892   0.208  0.00  0.00     0.002 A 
ATOM      6  C6  I4B d   1       2.462   1.523   1.090  0.00  0.00     0.003 A 
ENDROOT
BRANCH   1   7
ATOM      7  C1' I4B d   1       0.428   0.151   1.618  0.00  0.00     0.060 C 
BRANCH   7   8
ATOM      8  C2' I4B d   1       0.123   1.344   2.501  0.00  0.00    -0.013 C 
ATOM      9  C4' I4B d   1      -1.338   1.706   2.442  0.00  0.00     0.013 C 
ATOM     10  C3' I4B d   1       0.540   1.003   3.900  0.00  0.00     0.013 C 
ENDBRANCH   7   8
ENDBRANCH   1   7
TORSDOF 2
ENDMDL
