MODEL 1
REMARK minimizedAffinity 15.6548557
REMARK minimizedRMSD -1
REMARK  2 active torsions:
REMARK  status: ('A' for Active; 'I' for Inactive)
REMARK    1  A    between atoms: C2'_3  and  C1'_4 
REMARK    2  A    between atoms: C1'_4  and  C1_5 
ROOT
ATOM      1  C1  I4B d   1       3.045  -3.651   0.086  0.00  0.00    -0.075 A 
ATOM      2  C2  I4B d   1       2.662  -4.969   0.111  0.00  0.00     0.003 A 
ATOM      3  C3  I4B d   1       3.636  -5.995   0.048  0.00  0.00     0.002 A 
ATOM      4  C4  I4B d   1       4.968  -5.661  -0.090  0.00  0.00    -0.004 A 
ATOM      5  C5  I4B d   1       5.355  -4.324  -0.092  0.00  0.00     0.002 A 
ATOM      6  C6  I4B d   1       4.389  -3.312   0.009  0.00  0.00     0.003 A 
ENDROOT
BRANCH   1   7
ATOM      7  C1' I4B d   1       1.988  -2.593   0.122  0.00  0.00     0.060 C 
BRANCH   7   8
ATOM      8  C2' I4B d   1       2.475  -1.419  -0.703  0.00  0.00    -0.013 C 
ATOM      9  C4' I4B d   1       1.696  -1.293  -1.986  0.00  0.00     0.013 C 
ATOM     10  C3' I4B d   1       2.345  -0.181   0.133  0.00  0.00     0.013 C 
ENDBRANCH   7   8
ENDBRANCH   1   7
TORSDOF 2
ENDMDL
