MODEL 1
REMARK minimizedAffinity 26.1275997
REMARK minimizedRMSD -1
REMARK  2 active torsions:
REMARK  status: ('A' for Active; 'I' for Inactive)
REMARK    1  A    between atoms: C2'_3  and  C1'_4 
REMARK    2  A    between atoms: C1'_4  and  C1_5 
ROOT
ATOM      1  C1  I4B d   1       2.148  -2.243  -0.341  0.00  0.00    -0.075 A 
ATOM      2  C2  I4B d   1       1.990  -2.444  -1.690  0.00  0.00     0.003 A 
ATOM      3  C3  I4B d   1       1.822  -1.341  -2.561  0.00  0.00     0.002 A 
ATOM      4  C4  I4B d   1       1.769  -0.065  -2.038  0.00  0.00    -0.004 A 
ATOM      5  C5  I4B d   1       1.952   0.140  -0.674  0.00  0.00     0.002 A 
ATOM      6  C6  I4B d   1       2.155  -0.955   0.179  0.00  0.00     0.003 A 
ENDROOT
BRANCH   1   7
ATOM      7  C1' I4B d   1       2.289  -3.433   0.554  0.00  0.00     0.060 C 
BRANCH   7   8
ATOM      8  C2' I4B d   1       3.621  -4.089   0.251  0.00  0.00    -0.013 C 
ATOM      9  C4' I4B d   1       4.760  -3.323   0.870  0.00  0.00     0.013 C 
ATOM     10  C3' I4B d   1       3.571  -5.497   0.767  0.00  0.00     0.013 C 
ENDBRANCH   7   8
ENDBRANCH   1   7
TORSDOF 2
ENDMDL
