MODEL 1
REMARK minimizedAffinity -0.739005804
REMARK minimizedRMSD -1
REMARK  2 active torsions:
REMARK  status: ('A' for Active; 'I' for Inactive)
REMARK    1  A    between atoms: C2'_3  and  C1'_4 
REMARK    2  A    between atoms: C1'_4  and  C1_5 
ROOT
ATOM      1  C1  I4B d   1       2.855  -2.357  -0.480  0.00  0.00    -0.075 A 
ATOM      2  C2  I4B d   1       2.479  -2.574  -1.782  0.00  0.00     0.003 A 
ATOM      3  C3  I4B d   1       1.997  -1.502  -2.573  0.00  0.00     0.002 A 
ATOM      4  C4  I4B d   1       1.859  -0.250  -2.009  0.00  0.00    -0.004 A 
ATOM      5  C5  I4B d   1       2.262  -0.027  -0.696  0.00  0.00     0.002 A 
ATOM      6  C6  I4B d   1       2.774  -1.084   0.071  0.00  0.00     0.003 A 
ENDROOT
BRANCH   1   7
ATOM      7  C1' I4B d   1       3.329  -3.517   0.336  0.00  0.00     0.060 C 
BRANCH   7   8
ATOM      8  C2' I4B d   1       4.781  -3.773  -0.015  0.00  0.00    -0.013 C 
ATOM      9  C4' I4B d   1       5.704  -3.181   1.017  0.00  0.00     0.013 C 
ATOM     10  C3' I4B d   1       4.975  -5.255  -0.130  0.00  0.00     0.013 C 
ENDBRANCH   7   8
ENDBRANCH   1   7
TORSDOF 2
ENDMDL
