MODEL 1
REMARK minimizedAffinity 19.0712585
REMARK minimizedRMSD -1
REMARK  2 active torsions:
REMARK  status: ('A' for Active; 'I' for Inactive)
REMARK    1  A    between atoms: C2'_3  and  C1'_4 
REMARK    2  A    between atoms: C1'_4  and  C1_5 
ROOT
ATOM      1  C1  I4B d   1      -1.193   1.257   3.302  0.00  0.00    -0.075 A 
ATOM      2  C2  I4B d   1      -1.195   1.711   4.597  0.00  0.00     0.003 A 
ATOM      3  C3  I4B d   1       0.023   1.851   5.306  0.00  0.00     0.002 A 
ATOM      4  C4  I4B d   1       1.207   1.480   4.702  0.00  0.00    -0.004 A 
ATOM      5  C5  I4B d   1       1.210   1.041   3.381  0.00  0.00     0.002 A 
ATOM      6  C6  I4B d   1       0.004   0.941   2.672  0.00  0.00     0.003 A 
ENDROOT
BRANCH   1   7
ATOM      7  C1' I4B d   1      -2.500   1.090   2.594  0.00  0.00     0.060 C 
BRANCH   7   8
ATOM      8  C2' I4B d   1      -3.548   0.732   3.628  0.00  0.00    -0.013 C 
ATOM      9  C4' I4B d   1      -4.503   1.875   3.854  0.00  0.00     0.013 C 
ATOM     10  C3' I4B d   1      -4.272  -0.491   3.151  0.00  0.00     0.013 C 
ENDBRANCH   7   8
ENDBRANCH   1   7
TORSDOF 2
ENDMDL
