MODEL 1
REMARK minimizedAffinity 19.7604942
REMARK minimizedRMSD -1
REMARK  2 active torsions:
REMARK  status: ('A' for Active; 'I' for Inactive)
REMARK    1  A    between atoms: C2'_3  and  C1'_4 
REMARK    2  A    between atoms: C1'_4  and  C1_5 
ROOT
ATOM      1  C1  I4B d   1       2.010   2.535  -3.163  0.00  0.00    -0.075 A 
ATOM      2  C2  I4B d   1       3.184   2.555  -2.453  0.00  0.00     0.003 A 
ATOM      3  C3  I4B d   1       3.512   3.674  -1.649  0.00  0.00     0.002 A 
ATOM      4  C4  I4B d   1       2.666   4.764  -1.625  0.00  0.00    -0.004 A 
ATOM      5  C5  I4B d   1       1.465   4.733  -2.327  0.00  0.00     0.002 A 
ATOM      6  C6  I4B d   1       1.128   3.606  -3.092  0.00  0.00     0.003 A 
ENDROOT
BRANCH   1   7
ATOM      7  C1' I4B d   1       1.710   1.352  -4.028  0.00  0.00     0.060 C 
BRANCH   7   8
ATOM      8  C2' I4B d   1       2.609   0.214  -3.589  0.00  0.00    -0.013 C 
ATOM      9  C4' I4B d   1       2.096  -0.431  -2.328  0.00  0.00     0.013 C 
ATOM     10  C3' I4B d   1       2.684  -0.777  -4.712  0.00  0.00     0.013 C 
ENDBRANCH   7   8
ENDBRANCH   1   7
TORSDOF 2
ENDMDL
