MODEL 1
REMARK minimizedAffinity 0.706087232
REMARK minimizedRMSD -1
REMARK  2 active torsions:
REMARK  status: ('A' for Active; 'I' for Inactive)
REMARK    1  A    between atoms: C2'_3  and  C1'_4 
REMARK    2  A    between atoms: C1'_4  and  C1_5 
ROOT
ATOM      1  C1  I4B d   1       2.536  -3.043  -1.333  0.00  0.00    -0.075 A 
ATOM      2  C2  I4B d   1       2.560  -2.116  -0.321  0.00  0.00     0.003 A 
ATOM      3  C3  I4B d   1       2.195  -0.772  -0.577  0.00  0.00     0.002 A 
ATOM      4  C4  I4B d   1       1.864  -0.391  -1.861  0.00  0.00    -0.004 A 
ATOM      5  C5  I4B d   1       1.817  -1.337  -2.881  0.00  0.00     0.002 A 
ATOM      6  C6  I4B d   1       2.144  -2.674  -2.613  0.00  0.00     0.003 A 
ENDROOT
BRANCH   1   7
ATOM      7  C1' I4B d   1       2.959  -4.447  -1.035  0.00  0.00     0.060 C 
BRANCH   7   8
ATOM      8  C2' I4B d   1       3.183  -5.157  -2.355  0.00  0.00    -0.013 C 
ATOM      9  C4' I4B d   1       4.432  -5.998  -2.316  0.00  0.00     0.013 C 
ATOM     10  C3' I4B d   1       1.974  -5.997  -2.640  0.00  0.00     0.013 C 
ENDBRANCH   7   8
ENDBRANCH   1   7
TORSDOF 2
ENDMDL
