MODEL 1
REMARK minimizedAffinity 19.2021141
REMARK minimizedRMSD -1
REMARK  2 active torsions:
REMARK  status: ('A' for Active; 'I' for Inactive)
REMARK    1  A    between atoms: C2'_3  and  C1'_4 
REMARK    2  A    between atoms: C1'_4  and  C1_5 
ROOT
ATOM      1  C1  I4B d   1       2.547   3.782  -1.419  0.00  0.00    -0.075 A 
ATOM      2  C2  I4B d   1       2.323   4.856  -2.243  0.00  0.00     0.003 A 
ATOM      3  C3  I4B d   1       1.639   5.997  -1.756  0.00  0.00     0.002 A 
ATOM      4  C4  I4B d   1       1.157   6.000  -0.463  0.00  0.00    -0.004 A 
ATOM      5  C5  I4B d   1       1.405   4.919   0.377  0.00  0.00     0.002 A 
ATOM      6  C6  I4B d   1       2.116   3.807  -0.099  0.00  0.00     0.003 A 
ENDROOT
BRANCH   1   7
ATOM      7  C1' I4B d   1       3.243   2.580  -1.976  0.00  0.00     0.060 C 
BRANCH   7   8
ATOM      8  C2' I4B d   1       2.613   1.348  -1.359  0.00  0.00    -0.013 C 
ATOM      9  C4' I4B d   1       2.107   0.406  -2.419  0.00  0.00     0.013 C 
ATOM     10  C3' I4B d   1       3.643   0.686  -0.493  0.00  0.00     0.013 C 
ENDBRANCH   7   8
ENDBRANCH   1   7
TORSDOF 2
ENDMDL
