MODEL 1
REMARK minimizedAffinity 14.2279768
REMARK minimizedRMSD -1
REMARK  2 active torsions:
REMARK  status: ('A' for Active; 'I' for Inactive)
REMARK    1  A    between atoms: C2'_3  and  C1'_4 
REMARK    2  A    between atoms: C1'_4  and  C1_5 
ROOT
ATOM      1  C1  I4B d   1       0.847   0.597   1.333  0.00  0.00    -0.075 A 
ATOM      2  C2  I4B d   1       1.960   1.359   1.586  0.00  0.00     0.003 A 
ATOM      3  C3  I4B d   1       3.031   1.385   0.660  0.00  0.00     0.002 A 
ATOM      4  C4  I4B d   1       2.969   0.601  -0.474  0.00  0.00    -0.004 A 
ATOM      5  C5  I4B d   1       1.829  -0.153  -0.740  0.00  0.00     0.002 A 
ATOM      6  C6  I4B d   1       0.756  -0.146   0.163  0.00  0.00     0.003 A 
ENDROOT
BRANCH   1   7
ATOM      7  C1' I4B d   1      -0.251   0.566   2.349  0.00  0.00     0.060 C 
BRANCH   7   8
ATOM      8  C2' I4B d   1      -1.446   1.292   1.766  0.00  0.00    -0.013 C 
ATOM      9  C4' I4B d   1      -2.732   0.808   2.382  0.00  0.00     0.013 C 
ATOM     10  C3' I4B d   1      -1.254   2.761   2.000  0.00  0.00     0.013 C 
ENDBRANCH   7   8
ENDBRANCH   1   7
TORSDOF 2
ENDMDL
