MODEL 1
REMARK minimizedAffinity 13.1530247
REMARK minimizedRMSD -1
REMARK  2 active torsions:
REMARK  status: ('A' for Active; 'I' for Inactive)
REMARK    1  A    between atoms: C2'_3  and  C1'_4 
REMARK    2  A    between atoms: C1'_4  and  C1_5 
ROOT
ATOM      1  C1  I4B d   1       2.145   0.948   0.536  0.00  0.00    -0.075 A 
ATOM      2  C2  I4B d   1       0.802   0.748   0.737  0.00  0.00     0.003 A 
ATOM      3  C3  I4B d   1       0.210   1.076   1.981  0.00  0.00     0.002 A 
ATOM      4  C4  I4B d   1       1.003   1.551   3.006  0.00  0.00    -0.004 A 
ATOM      5  C5  I4B d   1       2.360   1.774   2.793  0.00  0.00     0.002 A 
ATOM      6  C6  I4B d   1       2.933   1.482   1.547  0.00  0.00     0.003 A 
ENDROOT
BRANCH   1   7
ATOM      7  C1' I4B d   1       2.743   0.559  -0.779  0.00  0.00     0.060 C 
BRANCH   7   8
ATOM      8  C2' I4B d   1       1.684  -0.179  -1.573  0.00  0.00    -0.013 C 
ATOM      9  C4' I4B d   1       1.389   0.523  -2.872  0.00  0.00     0.013 C 
ATOM     10  C3' I4B d   1       2.175  -1.576  -1.812  0.00  0.00     0.013 C 
ENDBRANCH   7   8
ENDBRANCH   1   7
TORSDOF 2
ENDMDL
