MODEL 1
REMARK minimizedAffinity 18.0465317
REMARK minimizedRMSD -1
REMARK  2 active torsions:
REMARK  status: ('A' for Active; 'I' for Inactive)
REMARK    1  A    between atoms: C2'_3  and  C1'_4 
REMARK    2  A    between atoms: C1'_4  and  C1_5 
ROOT
ATOM      1  C1  I4B d   1      -1.656  -3.935  -3.216  0.00  0.00    -0.075 A 
ATOM      2  C2  I4B d   1      -1.255  -5.237  -3.048  0.00  0.00     0.003 A 
ATOM      3  C3  I4B d   1       0.075  -5.529  -2.660  0.00  0.00     0.002 A 
ATOM      4  C4  I4B d   1       0.978  -4.499  -2.500  0.00  0.00    -0.004 A 
ATOM      5  C5  I4B d   1       0.564  -3.178  -2.648  0.00  0.00     0.002 A 
ATOM      6  C6  I4B d   1      -0.764  -2.893  -2.997  0.00  0.00     0.003 A 
ENDROOT
BRANCH   1   7
ATOM      7  C1' I4B d   1      -3.059  -3.664  -3.659  0.00  0.00     0.060 C 
BRANCH   7   8
ATOM      8  C2' I4B d   1      -3.006  -3.135  -5.078  0.00  0.00    -0.013 C 
ATOM      9  C4' I4B d   1      -2.324  -4.112  -6.000  0.00  0.00     0.013 C 
ATOM     10  C3' I4B d   1      -4.412  -2.862  -5.523  0.00  0.00     0.013 C 
ENDBRANCH   7   8
ENDBRANCH   1   7
TORSDOF 2
ENDMDL
