MODEL 1
REMARK minimizedAffinity 11.5897522
REMARK minimizedRMSD -1
REMARK  2 active torsions:
REMARK  status: ('A' for Active; 'I' for Inactive)
REMARK    1  A    between atoms: C2'_3  and  C1'_4 
REMARK    2  A    between atoms: C1'_4  and  C1_5 
ROOT
ATOM      1  C1  I4B d   1      -3.296   1.614   3.733  0.00  0.00    -0.075 A 
ATOM      2  C2  I4B d   1      -3.065   1.519   5.083  0.00  0.00     0.003 A 
ATOM      3  C3  I4B d   1      -3.908   2.193   6.000  0.00  0.00     0.002 A 
ATOM      4  C4  I4B d   1      -4.932   2.986   5.525  0.00  0.00    -0.004 A 
ATOM      5  C5  I4B d   1      -5.179   3.062   4.157  0.00  0.00     0.002 A 
ATOM      6  C6  I4B d   1      -4.364   2.363   3.256  0.00  0.00     0.003 A 
ENDROOT
BRANCH   1   7
ATOM      7  C1' I4B d   1      -2.366   0.916   2.792  0.00  0.00     0.060 C 
BRANCH   7   8
ATOM      8  C2' I4B d   1      -0.951   1.331   3.141  0.00  0.00    -0.013 C 
ATOM      9  C4' I4B d   1       0.057   0.386   2.540  0.00  0.00     0.013 C 
ATOM     10  C3' I4B d   1      -0.743   2.731   2.646  0.00  0.00     0.013 C 
ENDBRANCH   7   8
ENDBRANCH   1   7
TORSDOF 2
ENDMDL
