MODEL 1
REMARK minimizedAffinity 18.7419968
REMARK minimizedRMSD -1
REMARK  2 active torsions:
REMARK  status: ('A' for Active; 'I' for Inactive)
REMARK    1  A    between atoms: C2'_3  and  C1'_4 
REMARK    2  A    between atoms: C1'_4  and  C1_5 
ROOT
ATOM      1  C1  I4B d   1       1.850   0.691   0.263  0.00  0.00    -0.075 A 
ATOM      2  C2  I4B d   1       1.145  -0.437  -0.076  0.00  0.00     0.003 A 
ATOM      3  C3  I4B d   1       1.164  -0.916  -1.409  0.00  0.00     0.002 A 
ATOM      4  C4  I4B d   1       1.854  -0.212  -2.374  0.00  0.00    -0.004 A 
ATOM      5  C5  I4B d   1       2.586   0.919  -2.024  0.00  0.00     0.002 A 
ATOM      6  C6  I4B d   1       2.594   1.367  -0.695  0.00  0.00     0.003 A 
ENDROOT
BRANCH   1   7
ATOM      7  C1' I4B d   1       1.782   1.187   1.672  0.00  0.00     0.060 C 
BRANCH   7   8
ATOM      8  C2' I4B d   1       0.417   0.833   2.226  0.00  0.00    -0.013 C 
ATOM      9  C4' I4B d   1       0.524   0.264   3.617  0.00  0.00     0.013 C 
ATOM     10  C3' I4B d   1      -0.425   2.074   2.212  0.00  0.00     0.013 C 
ENDBRANCH   7   8
ENDBRANCH   1   7
TORSDOF 2
ENDMDL
