MODEL 1
REMARK minimizedAffinity 3.70392966
REMARK minimizedRMSD -1
REMARK  1 active torsions:
REMARK  status: ('A' for Active; 'I' for Inactive)
REMARK    1  A    between atoms: C1_2  and  C2_3 
ROOT
ATOM      1  C2  UNL d   1       2.395  -0.021   3.130  0.00  0.00    -0.076 A 
ATOM      2  C3  UNL d   1       2.133   0.494   4.412  0.00  0.00     0.004 A 
ATOM      3  C4  UNL d   1       2.406   1.826   4.719  0.00  0.00    -0.003 A 
ATOM      4  C5  UNL d   1       2.944   2.665   3.750  0.00  0.00     0.000 A 
ATOM      5  C6  UNL d   1       3.193   2.176   2.468  0.00  0.00     0.000 A 
ATOM      6  C7  UNL d   1       2.909   0.840   2.137  0.00  0.00    -0.073 A 
ATOM      7  C8  UNL d   1       3.203   0.364   0.741  0.00  0.00     0.078 C 
ENDROOT
BRANCH   1   8
ATOM      8  C1  UNL d   1       2.104  -1.480   2.863  0.00  0.00     0.053 C 
ATOM      9  C   UNL d   1       2.929  -2.409   3.741  0.00  0.00     0.018 C 
ENDBRANCH   1   8
TORSDOF 1
ENDMDL
