MODEL 1
REMARK minimizedAffinity 7.89966965
REMARK minimizedRMSD -1
REMARK  1 active torsions:
REMARK  status: ('A' for Active; 'I' for Inactive)
REMARK    1  A    between atoms: C1_2  and  C2_3 
ROOT
ATOM      1  C2  UNL d   1       2.079  -1.125   3.287  0.00  0.00    -0.076 A 
ATOM      2  C3  UNL d   1       2.298  -1.453   1.938  0.00  0.00     0.004 A 
ATOM      3  C4  UNL d   1       2.513  -0.460   0.984  0.00  0.00    -0.003 A 
ATOM      4  C5  UNL d   1       2.514   0.878   1.365  0.00  0.00     0.000 A 
ATOM      5  C6  UNL d   1       2.316   1.220   2.702  0.00  0.00     0.000 A 
ATOM      6  C7  UNL d   1       2.113   0.230   3.679  0.00  0.00    -0.073 A 
ATOM      7  C8  UNL d   1       1.899   0.656   5.105  0.00  0.00     0.078 C 
ENDROOT
BRANCH   1   8
ATOM      8  C1  UNL d   1       1.824  -2.244   4.272  0.00  0.00     0.053 C 
ATOM      9  C   UNL d   1       2.681  -3.470   3.996  0.00  0.00     0.018 C 
ENDBRANCH   1   8
TORSDOF 1
ENDMDL
