MODEL 1
REMARK minimizedAffinity 9.76313114
REMARK minimizedRMSD -1
REMARK  1 active torsions:
REMARK  status: ('A' for Active; 'I' for Inactive)
REMARK    1  A    between atoms: C1_2  and  C2_3 
ROOT
ATOM      1  C2  UNL d   1      -4.495   1.595  -3.240  0.00  0.00    -0.076 A 
ATOM      2  C3  UNL d   1      -4.542   1.792  -1.849  0.00  0.00     0.004 A 
ATOM      3  C4  UNL d   1      -5.287   2.831  -1.296  0.00  0.00    -0.003 A 
ATOM      4  C5  UNL d   1      -5.999   3.691  -2.126  0.00  0.00     0.000 A 
ATOM      5  C6  UNL d   1      -5.978   3.500  -3.507  0.00  0.00     0.000 A 
ATOM      6  C7  UNL d   1      -5.245   2.447  -4.079  0.00  0.00    -0.073 A 
ATOM      7  C8  UNL d   1      -5.252   2.292  -5.575  0.00  0.00     0.078 C 
ENDROOT
BRANCH   1   8
ATOM      8  C1  UNL d   1      -3.648   0.467  -3.784  0.00  0.00     0.053 C 
ATOM      9  C   UNL d   1      -4.476  -0.746  -4.179  0.00  0.00     0.018 C 
ENDBRANCH   1   8
TORSDOF 1
ENDMDL
