MODEL 1
REMARK minimizedAffinity -4.34799623
REMARK minimizedRMSD -1
REMARK  1 active torsions:
REMARK  status: ('A' for Active; 'I' for Inactive)
REMARK    1  A    between atoms: N_2  and  C1_3 
ROOT
ATOM      1  C1  UNL d   1       0.486   0.842   0.016  0.00  0.00     0.143 A 
ATOM      2  C2  UNL d   1       1.178  -0.337  -0.285  0.00  0.00    -0.057 A 
ATOM      3  C3  UNL d   1       0.682  -1.588   0.099  0.00  0.00     0.033 A 
ATOM      4  C4  UNL d   1      -0.504  -1.682   0.820  0.00  0.00    -0.042 A 
ATOM      5  C5  UNL d   1      -1.195  -0.522   1.153  0.00  0.00     0.033 A 
ATOM      6  C6  UNL d   1      -0.698   0.725   0.760  0.00  0.00    -0.057 A 
ENDROOT
BRANCH   1   7
ATOM      7  N   UNL d   1       0.977   2.122  -0.252  0.00  0.00    -0.732 N 
ATOM      8  C   UNL d   1       2.369   2.442  -0.016  0.00  0.00     0.284 C 
ATOM      9  H3  UNL d   1       0.602   2.508  -1.115  0.00  0.00     0.395 HD
ENDBRANCH   1   7
TORSDOF 1
ENDMDL
