MODEL 1
REMARK minimizedAffinity -1.46578848
REMARK minimizedRMSD -1
REMARK  1 active torsions:
REMARK  status: ('A' for Active; 'I' for Inactive)
REMARK    1  A    between atoms: N_2  and  C1_3 
ROOT
ATOM      1  C1  UNL d   1       1.361   1.411  -0.321  0.00  0.00     0.143 A 
ATOM      2  C2  UNL d   1       2.689   1.712   0.001  0.00  0.00    -0.057 A 
ATOM      3  C3  UNL d   1       3.049   2.974   0.489  0.00  0.00     0.033 A 
ATOM      4  C4  UNL d   1       2.089   3.970   0.636  0.00  0.00    -0.042 A 
ATOM      5  C5  UNL d   1       0.768   3.701   0.298  0.00  0.00     0.033 A 
ATOM      6  C6  UNL d   1       0.413   2.437  -0.182  0.00  0.00    -0.057 A 
ENDROOT
BRANCH   1   7
ATOM      7  N   UNL d   1       0.956   0.207  -0.903  0.00  0.00    -0.732 N 
ATOM      8  C   UNL d   1       1.047  -1.035  -0.166  0.00  0.00     0.284 C 
ATOM      9  H3  UNL d   1       0.101   0.307  -1.446  0.00  0.00     0.395 HD
ENDBRANCH   1   7
TORSDOF 1
ENDMDL
