MODEL 1
REMARK minimizedAffinity -0.189691052
REMARK minimizedRMSD -1
REMARK  1 active torsions:
REMARK  status: ('A' for Active; 'I' for Inactive)
REMARK    1  A    between atoms: N_2  and  C1_3 
ROOT
ATOM      1  C1  UNL d   1       0.249   1.314  -0.182  0.00  0.00     0.143 A 
ATOM      2  C2  UNL d   1       0.818   0.819  -1.361  0.00  0.00    -0.057 A 
ATOM      3  C3  UNL d   1       0.845  -0.554  -1.633  0.00  0.00     0.033 A 
ATOM      4  C4  UNL d   1       0.328  -1.462  -0.715  0.00  0.00    -0.042 A 
ATOM      5  C5  UNL d   1      -0.220  -0.994   0.474  0.00  0.00     0.033 A 
ATOM      6  C6  UNL d   1      -0.251   0.379   0.737  0.00  0.00    -0.057 A 
ENDROOT
BRANCH   1   7
ATOM      7  N   UNL d   1       0.280   2.660   0.191  0.00  0.00    -0.732 N 
ATOM      8  C   UNL d   1       1.533   3.306   0.518  0.00  0.00     0.284 C 
ATOM      9  H3  UNL d   1      -0.350   3.232  -0.368  0.00  0.00     0.395 HD
ENDBRANCH   1   7
TORSDOF 1
ENDMDL
