MODEL 1
REMARK minimizedAffinity -3.17673564
REMARK minimizedRMSD -1
REMARK  1 active torsions:
REMARK  status: ('A' for Active; 'I' for Inactive)
REMARK    1  A    between atoms: N_2  and  C1_3 
ROOT
ATOM      1  C1  UNL d   1       0.720  -0.279  -0.581  0.00  0.00     0.143 A 
ATOM      2  C2  UNL d   1       1.468  -1.447  -0.768  0.00  0.00    -0.057 A 
ATOM      3  C3  UNL d   1       1.139  -2.634  -0.104  0.00  0.00     0.033 A 
ATOM      4  C4  UNL d   1       0.070  -2.667   0.786  0.00  0.00    -0.042 A 
ATOM      5  C5  UNL d   1      -0.672  -1.512   1.007  0.00  0.00     0.033 A 
ATOM      6  C6  UNL d   1      -0.342  -0.331   0.335  0.00  0.00    -0.057 A 
ENDROOT
BRANCH   1   7
ATOM      7  N   UNL d   1       1.057   0.957  -1.137  0.00  0.00    -0.732 N 
ATOM      8  C   UNL d   1       1.912   1.880  -0.421  0.00  0.00     0.284 C 
ATOM      9  H3  UNL d   1       1.255   0.894  -2.133  0.00  0.00     0.395 HD
ENDBRANCH   1   7
TORSDOF 1
ENDMDL
