MODEL 1
REMARK minimizedAffinity -4.7467432
REMARK minimizedRMSD -1
REMARK  1 active torsions:
REMARK  status: ('A' for Active; 'I' for Inactive)
REMARK    1  A    between atoms: N_2  and  C1_3 
ROOT
ATOM      1  C1  UNL d   1      -0.103  -0.129   0.184  0.00  0.00     0.143 A 
ATOM      2  C2  UNL d   1      -0.963  -0.743   1.101  0.00  0.00    -0.057 A 
ATOM      3  C3  UNL d   1      -1.009  -2.136   1.233  0.00  0.00     0.033 A 
ATOM      4  C4  UNL d   1      -0.213  -2.944   0.428  0.00  0.00    -0.042 A 
ATOM      5  C5  UNL d   1       0.632  -2.357  -0.507  0.00  0.00     0.033 A 
ATOM      6  C6  UNL d   1       0.678  -0.965  -0.630  0.00  0.00    -0.057 A 
ENDROOT
BRANCH   1   7
ATOM      7  N   UNL d   1      -0.082   1.246  -0.063  0.00  0.00    -0.732 N 
ATOM      8  C   UNL d   1       1.153   1.994   0.033  0.00  0.00     0.284 C 
ATOM      9  H3  UNL d   1      -0.666   1.506  -0.855  0.00  0.00     0.395 HD
ENDBRANCH   1   7
TORSDOF 1
ENDMDL
