MODEL 1
REMARK minimizedAffinity -3.99526238
REMARK minimizedRMSD -1
REMARK  1 active torsions:
REMARK  status: ('A' for Active; 'I' for Inactive)
REMARK    1  A    between atoms: N_2  and  C1_3 
ROOT
ATOM      1  C1  UNL d   1      -0.017  -0.248  -0.352  0.00  0.00     0.143 A 
ATOM      2  C2  UNL d   1      -0.598  -0.635   0.860  0.00  0.00    -0.057 A 
ATOM      3  C3  UNL d   1      -0.700  -1.985   1.218  0.00  0.00     0.033 A 
ATOM      4  C4  UNL d   1      -0.247  -2.976   0.354  0.00  0.00    -0.042 A 
ATOM      5  C5  UNL d   1       0.312  -2.616  -0.867  0.00  0.00     0.033 A 
ATOM      6  C6  UNL d   1       0.417  -1.267  -1.216  0.00  0.00    -0.057 A 
ENDROOT
BRANCH   1   7
ATOM      7  N   UNL d   1       0.024   1.071  -0.809  0.00  0.00    -0.732 N 
ATOM      8  C   UNL d   1       0.841   2.059  -0.137  0.00  0.00     0.284 C 
ATOM      9  H3  UNL d   1       0.052   1.130  -1.825  0.00  0.00     0.395 HD
ENDBRANCH   1   7
TORSDOF 1
ENDMDL
