MODEL 1
REMARK minimizedAffinity -4.01156282
REMARK minimizedRMSD -1
REMARK  1 active torsions:
REMARK  status: ('A' for Active; 'I' for Inactive)
REMARK    1  A    between atoms: N_2  and  C1_3 
ROOT
ATOM      1  C1  UNL d   1      -0.440  -0.061   0.121  0.00  0.00     0.143 A 
ATOM      2  C2  UNL d   1      -1.459  -0.630   0.893  0.00  0.00    -0.057 A 
ATOM      3  C3  UNL d   1      -1.482  -2.002   1.168  0.00  0.00     0.033 A 
ATOM      4  C4  UNL d   1      -0.499  -2.838   0.649  0.00  0.00    -0.042 A 
ATOM      5  C5  UNL d   1       0.510  -2.299  -0.142  0.00  0.00     0.033 A 
ATOM      6  C6  UNL d   1       0.531  -0.926  -0.408  0.00  0.00    -0.057 A 
ENDROOT
BRANCH   1   7
ATOM      7  N   UNL d   1      -0.417   1.280  -0.270  0.00  0.00    -0.732 N 
ATOM      8  C   UNL d   1       0.579   2.185   0.262  0.00  0.00     0.284 C 
ATOM      9  H3  UNL d   1      -0.597   1.398  -1.264  0.00  0.00     0.395 HD
ENDBRANCH   1   7
TORSDOF 1
ENDMDL
