MODEL 1
REMARK minimizedAffinity -3.69272089
REMARK minimizedRMSD -1
REMARK  1 active torsions:
REMARK  status: ('A' for Active; 'I' for Inactive)
REMARK    1  A    between atoms: N_2  and  C1_3 
ROOT
ATOM      1  C1  UNL d   1       0.215  -0.739  -0.409  0.00  0.00     0.143 A 
ATOM      2  C2  UNL d   1       1.213  -1.697  -0.621  0.00  0.00    -0.057 A 
ATOM      3  C3  UNL d   1       1.186  -2.932   0.038  0.00  0.00     0.033 A 
ATOM      4  C4  UNL d   1       0.174  -3.219   0.948  0.00  0.00    -0.042 A 
ATOM      5  C5  UNL d   1      -0.814  -2.273   1.194  0.00  0.00     0.033 A 
ATOM      6  C6  UNL d   1      -0.786  -1.044   0.527  0.00  0.00    -0.057 A 
ENDROOT
BRANCH   1   7
ATOM      7  N   UNL d   1       0.239   0.544  -0.960  0.00  0.00    -0.732 N 
ATOM      8  C   UNL d   1      -0.643   1.577  -0.460  0.00  0.00     0.284 C 
ATOM      9  H3  UNL d   1       1.185   0.865  -1.157  0.00  0.00     0.395 HD
ENDBRANCH   1   7
TORSDOF 1
ENDMDL
