MODEL 1
REMARK minimizedAffinity -3.56669521
REMARK minimizedRMSD -1
REMARK  1 active torsions:
REMARK  status: ('A' for Active; 'I' for Inactive)
REMARK    1  A    between atoms: N_2  and  C1_3 
ROOT
ATOM      1  C1  UNL d   1      -0.188   0.128   0.071  0.00  0.00     0.143 A 
ATOM      2  C2  UNL d   1      -0.798  -0.150   1.299  0.00  0.00    -0.057 A 
ATOM      3  C3  UNL d   1      -0.939  -1.466   1.758  0.00  0.00     0.033 A 
ATOM      4  C4  UNL d   1      -0.498  -2.531   0.980  0.00  0.00    -0.042 A 
ATOM      5  C5  UNL d   1       0.088  -2.280  -0.255  0.00  0.00     0.033 A 
ATOM      6  C6  UNL d   1       0.232  -0.964  -0.705  0.00  0.00    -0.057 A 
ENDROOT
BRANCH   1   7
ATOM      7  N   UNL d   1      -0.107   1.407  -0.485  0.00  0.00    -0.732 N 
ATOM      8  C   UNL d   1       0.704   2.431   0.137  0.00  0.00     0.284 C 
ATOM      9  H3  UNL d   1      -0.043   1.385  -1.501  0.00  0.00     0.395 HD
ENDBRANCH   1   7
TORSDOF 1
ENDMDL
