MODEL 1
REMARK minimizedAffinity -2.87922764
REMARK minimizedRMSD -1
REMARK  1 active torsions:
REMARK  status: ('A' for Active; 'I' for Inactive)
REMARK    1  A    between atoms: N_2  and  C1_3 
ROOT
ATOM      1  C1  UNL d   1       0.302   1.541  -0.257  0.00  0.00     0.143 A 
ATOM      2  C2  UNL d   1       0.013   1.026  -1.525  0.00  0.00    -0.057 A 
ATOM      3  C3  UNL d   1      -0.073  -0.354  -1.747  0.00  0.00     0.033 A 
ATOM      4  C4  UNL d   1       0.158  -1.247  -0.706  0.00  0.00    -0.042 A 
ATOM      5  C5  UNL d   1       0.471  -0.759   0.558  0.00  0.00     0.033 A 
ATOM      6  C6  UNL d   1       0.549   0.620   0.774  0.00  0.00    -0.057 A 
ENDROOT
BRANCH   1   7
ATOM      7  N   UNL d   1       0.498   2.899   0.006  0.00  0.00    -0.732 N 
ATOM      8  C   UNL d   1       1.810   3.399   0.358  0.00  0.00     0.284 C 
ATOM      9  H3  UNL d   1      -0.017   3.497  -0.636  0.00  0.00     0.395 HD
ENDBRANCH   1   7
TORSDOF 1
ENDMDL
