MODEL 1
REMARK minimizedAffinity -3.67210817
REMARK minimizedRMSD -1
REMARK  1 active torsions:
REMARK  status: ('A' for Active; 'I' for Inactive)
REMARK    1  A    between atoms: N_2  and  C1_3 
ROOT
ATOM      1  C1  UNL d   1      -0.078   1.256  -0.069  0.00  0.00     0.143 A 
ATOM      2  C2  UNL d   1       0.651   0.187  -0.600  0.00  0.00    -0.057 A 
ATOM      3  C3  UNL d   1       0.351  -1.138  -0.259  0.00  0.00     0.033 A 
ATOM      4  C4  UNL d   1      -0.668  -1.415   0.646  0.00  0.00    -0.042 A 
ATOM      5  C5  UNL d   1      -1.390  -0.367   1.206  0.00  0.00     0.033 A 
ATOM      6  C6  UNL d   1      -1.090   0.953   0.856  0.00  0.00    -0.057 A 
ENDROOT
BRANCH   1   7
ATOM      7  N   UNL d   1       0.235   2.599  -0.293  0.00  0.00    -0.732 N 
ATOM      8  C   UNL d   1       1.562   3.103  -0.013  0.00  0.00     0.284 C 
ATOM      9  H3  UNL d   1      -0.172   2.954  -1.155  0.00  0.00     0.395 HD
ENDBRANCH   1   7
TORSDOF 1
ENDMDL
