MODEL 1
REMARK minimizedAffinity -4.02442884
REMARK minimizedRMSD -1
REMARK  1 active torsions:
REMARK  status: ('A' for Active; 'I' for Inactive)
REMARK    1  A    between atoms: N_2  and  C1_3 
ROOT
ATOM      1  C1  UNL d   1       0.165   0.241   0.233  0.00  0.00     0.143 A 
ATOM      2  C2  UNL d   1      -0.008  -0.905  -0.550  0.00  0.00    -0.057 A 
ATOM      3  C3  UNL d   1      -0.468  -2.104   0.009  0.00  0.00     0.033 A 
ATOM      4  C4  UNL d   1      -0.737  -2.184   1.371  0.00  0.00    -0.042 A 
ATOM      5  C5  UNL d   1      -0.548  -1.064   2.173  0.00  0.00     0.033 A 
ATOM      6  C6  UNL d   1      -0.095   0.131   1.608  0.00  0.00    -0.057 A 
ENDROOT
BRANCH   1   7
ATOM      7  N   UNL d   1       0.713   1.434  -0.246  0.00  0.00    -0.732 N 
ATOM      8  C   UNL d   1       0.895   2.567   0.636  0.00  0.00     0.284 C 
ATOM      9  H3  UNL d   1       1.489   1.276  -0.885  0.00  0.00     0.395 HD
ENDBRANCH   1   7
TORSDOF 1
ENDMDL
