MODEL 1
REMARK minimizedAffinity -4.27363491
REMARK minimizedRMSD -1
REMARK  1 active torsions:
REMARK  status: ('A' for Active; 'I' for Inactive)
REMARK    1  A    between atoms: N_2  and  C1_3 
ROOT
ATOM      1  C1  UNL d   1      -0.216   0.410  -0.256  0.00  0.00     0.143 A 
ATOM      2  C2  UNL d   1       0.505  -0.746  -0.575  0.00  0.00    -0.057 A 
ATOM      3  C3  UNL d   1       0.271  -1.955   0.092  0.00  0.00     0.033 A 
ATOM      4  C4  UNL d   1      -0.670  -2.021   1.115  0.00  0.00    -0.042 A 
ATOM      5  C5  UNL d   1      -1.380  -0.879   1.466  0.00  0.00     0.033 A 
ATOM      6  C6  UNL d   1      -1.147   0.324   0.791  0.00  0.00    -0.057 A 
ENDROOT
BRANCH   1   7
ATOM      7  N   UNL d   1       0.039   1.664  -0.816  0.00  0.00    -0.732 N 
ATOM      8  C   UNL d   1       0.824   2.646  -0.098  0.00  0.00     0.284 C 
ATOM      9  H3  UNL d   1       0.248   1.611  -1.810  0.00  0.00     0.395 HD
ENDBRANCH   1   7
TORSDOF 1
ENDMDL
