MODEL 1
REMARK minimizedAffinity -0.565268397
REMARK minimizedRMSD -1
REMARK  1 active torsions:
REMARK  status: ('A' for Active; 'I' for Inactive)
REMARK    1  A    between atoms: C3_4  and  O_7 
ROOT
ATOM      1  C   UNL d   1       5.071   1.172   3.734  0.00  0.00    -0.033 A 
ATOM      2  C1  UNL d   1       5.996   1.993   4.381  0.00  0.00     0.039 A 
ATOM      3  C2  UNL d   1       5.996   3.370   4.144  0.00  0.00    -0.080 A 
ATOM      4  C3  UNL d   1       5.065   3.911   3.262  0.00  0.00     0.150 A 
ATOM      5  C4  UNL d   1       4.137   3.099   2.617  0.00  0.00    -0.007 A 
ATOM      6  C5  UNL d   1       4.141   1.725   2.854  0.00  0.00     0.039 A 
ENDROOT
BRANCH   4   7
ATOM      7  O   UNL d   1       5.028   5.247   2.996  0.00  0.00    -0.526 OA
ATOM      8  H5  UNL d   1       5.745   5.679   3.490  0.00  0.00     0.418 HD
ENDBRANCH   4   7
TORSDOF 1
ENDMDL
