MODEL 1
REMARK minimizedAffinity -1.33603263
REMARK minimizedRMSD -1
REMARK  1 active torsions:
REMARK  status: ('A' for Active; 'I' for Inactive)
REMARK    1  A    between atoms: C3_4  and  O_7 
ROOT
ATOM      1  C   UNL d   1       5.954  -0.754   4.850  0.00  0.00    -0.033 A 
ATOM      2  C1  UNL d   1       5.946  -0.160   3.586  0.00  0.00     0.039 A 
ATOM      3  C2  UNL d   1       5.962   1.231   3.467  0.00  0.00    -0.080 A 
ATOM      4  C3  UNL d   1       5.987   2.016   4.617  0.00  0.00     0.150 A 
ATOM      5  C4  UNL d   1       5.999   1.430   5.878  0.00  0.00    -0.007 A 
ATOM      6  C5  UNL d   1       5.982   0.041   5.996  0.00  0.00     0.039 A 
ENDROOT
BRANCH   4   7
ATOM      7  O   UNL d   1       5.998   3.377   4.550  0.00  0.00    -0.526 OA
ATOM      8  H5  UNL d   1       5.958   3.640   3.616  0.00  0.00     0.418 HD
ENDBRANCH   4   7
TORSDOF 1
ENDMDL
