MODEL 1
REMARK minimizedAffinity -3.08043742
REMARK minimizedRMSD -1
REMARK  1 active torsions:
REMARK  status: ('A' for Active; 'I' for Inactive)
REMARK    1  A    between atoms: C3_4  and  O_7 
ROOT
ATOM      1  C   UNL d   1       5.808   3.453   2.874  0.00  0.00    -0.033 A 
ATOM      2  C1  UNL d   1       5.999   3.863   4.195  0.00  0.00     0.039 A 
ATOM      3  C2  UNL d   1       5.993   2.923   5.227  0.00  0.00    -0.080 A 
ATOM      4  C3  UNL d   1       5.795   1.579   4.926  0.00  0.00     0.150 A 
ATOM      5  C4  UNL d   1       5.608   1.162   3.612  0.00  0.00    -0.007 A 
ATOM      6  C5  UNL d   1       5.614   2.102   2.583  0.00  0.00     0.039 A 
ENDROOT
BRANCH   4   7
ATOM      7  O   UNL d   1       5.776   0.626   5.901  0.00  0.00    -0.526 OA
ATOM      8  H5  UNL d   1       5.890   1.063   6.761  0.00  0.00     0.418 HD
ENDBRANCH   4   7
TORSDOF 1
ENDMDL
