MODEL 1
REMARK minimizedAffinity -1.63071942
REMARK minimizedRMSD -1
REMARK  1 active torsions:
REMARK  status: ('A' for Active; 'I' for Inactive)
REMARK    1  A    between atoms: C3_4  and  O_7 
ROOT
ATOM      1  C   UNL d   1       5.973   2.288   2.973  0.00  0.00    -0.033 A 
ATOM      2  C1  UNL d   1       5.635   2.777   4.236  0.00  0.00     0.039 A 
ATOM      3  C2  UNL d   1       5.316   1.891   5.267  0.00  0.00    -0.080 A 
ATOM      4  C3  UNL d   1       5.341   0.521   5.023  0.00  0.00     0.150 A 
ATOM      5  C4  UNL d   1       5.681   0.027   3.768  0.00  0.00    -0.007 A 
ATOM      6  C5  UNL d   1       5.998   0.913   2.739  0.00  0.00     0.039 A 
ENDROOT
BRANCH   4   7
ATOM      7  O   UNL d   1       5.033  -0.382   5.996  0.00  0.00    -0.526 OA
ATOM      8  H5  UNL d   1       4.790   0.104   6.802  0.00  0.00     0.418 HD
ENDBRANCH   4   7
TORSDOF 1
ENDMDL
