MODEL 1
REMARK minimizedAffinity -0.520611346
REMARK minimizedRMSD -1
REMARK  1 active torsions:
REMARK  status: ('A' for Active; 'I' for Inactive)
REMARK    1  A    between atoms: C3_4  and  O_7 
ROOT
ATOM      1  C   UNL d   1       5.973   6.000   2.720  0.00  0.00    -0.033 A 
ATOM      2  C1  UNL d   1       5.993   4.814   1.983  0.00  0.00     0.039 A 
ATOM      3  C2  UNL d   1       6.000   3.582   2.640  0.00  0.00    -0.080 A 
ATOM      4  C3  UNL d   1       5.986   3.549   4.031  0.00  0.00     0.150 A 
ATOM      5  C4  UNL d   1       5.962   4.726   4.772  0.00  0.00    -0.007 A 
ATOM      6  C5  UNL d   1       5.956   5.956   4.114  0.00  0.00     0.039 A 
ENDROOT
BRANCH   4   7
ATOM      7  O   UNL d   1       5.997   2.370   4.716  0.00  0.00    -0.526 OA
ATOM      8  H5  UNL d   1       6.042   1.642   4.075  0.00  0.00     0.418 HD
ENDBRANCH   4   7
TORSDOF 1
ENDMDL
