MODEL 1
REMARK minimizedAffinity -1.70232761
REMARK minimizedRMSD -1
REMARK  1 active torsions:
REMARK  status: ('A' for Active; 'I' for Inactive)
REMARK    1  A    between atoms: C3_4  and  O_7 
ROOT
ATOM      1  C   UNL d   1       5.997   1.950   4.896  0.00  0.00    -0.033 A 
ATOM      2  C1  UNL d   1       6.000   2.245   3.532  0.00  0.00     0.039 A 
ATOM      3  C2  UNL d   1       5.995   3.574   3.103  0.00  0.00    -0.080 A 
ATOM      4  C3  UNL d   1       5.989   4.597   4.047  0.00  0.00     0.150 A 
ATOM      5  C4  UNL d   1       5.990   4.310   5.408  0.00  0.00    -0.007 A 
ATOM      6  C5  UNL d   1       5.993   2.983   5.835  0.00  0.00     0.039 A 
ENDROOT
BRANCH   4   7
ATOM      7  O   UNL d   1       5.980   5.909   3.677  0.00  0.00    -0.526 OA
ATOM      8  H5  UNL d   1       5.951   5.954   2.707  0.00  0.00     0.418 HD
ENDBRANCH   4   7
TORSDOF 1
ENDMDL
