MODEL 1
REMARK minimizedAffinity -2.23135185
REMARK minimizedRMSD -1
REMARK  1 active torsions:
REMARK  status: ('A' for Active; 'I' for Inactive)
REMARK    1  A    between atoms: C3_4  and  O_7 
ROOT
ATOM      1  C   UNL d   1       5.129   3.538   2.816  0.00  0.00    -0.033 A 
ATOM      2  C1  UNL d   1       5.998   2.506   2.456  0.00  0.00     0.039 A 
ATOM      3  C2  UNL d   1       5.965   1.292   3.145  0.00  0.00    -0.080 A 
ATOM      4  C3  UNL d   1       5.061   1.123   4.190  0.00  0.00     0.150 A 
ATOM      5  C4  UNL d   1       4.190   2.146   4.551  0.00  0.00    -0.007 A 
ATOM      6  C5  UNL d   1       4.224   3.358   3.862  0.00  0.00     0.039 A 
ENDROOT
BRANCH   4   7
ATOM      7  O   UNL d   1       4.996  -0.042   4.895  0.00  0.00    -0.526 OA
ATOM      8  H5  UNL d   1       5.675  -0.647   4.553  0.00  0.00     0.418 HD
ENDBRANCH   4   7
TORSDOF 1
ENDMDL
