MODEL 1
REMARK minimizedAffinity -1.88733602
REMARK minimizedRMSD -1
REMARK  1 active torsions:
REMARK  status: ('A' for Active; 'I' for Inactive)
REMARK    1  A    between atoms: C3_4  and  O_7 
ROOT
ATOM      1  C   UNL d   1       5.278   2.572   2.929  0.00  0.00    -0.033 A 
ATOM      2  C1  UNL d   1       6.000   1.399   2.700  0.00  0.00     0.039 A 
ATOM      3  C2  UNL d   1       6.000   0.379   3.654  0.00  0.00    -0.080 A 
ATOM      4  C3  UNL d   1       5.273   0.544   4.830  0.00  0.00     0.150 A 
ATOM      5  C4  UNL d   1       4.548   1.708   5.063  0.00  0.00    -0.007 A 
ATOM      6  C5  UNL d   1       4.551   2.726   4.110  0.00  0.00     0.039 A 
ENDROOT
BRANCH   4   7
ATOM      7  O   UNL d   1       5.247  -0.421   5.792  0.00  0.00    -0.526 OA
ATOM      8  H5  UNL d   1       5.816  -1.156   5.507  0.00  0.00     0.418 HD
ENDBRANCH   4   7
TORSDOF 1
ENDMDL
