MODEL 1
REMARK minimizedAffinity -0.68673557
REMARK minimizedRMSD -1
REMARK  1 active torsions:
REMARK  status: ('A' for Active; 'I' for Inactive)
REMARK    1  A    between atoms: C3_4  and  O_7 
ROOT
ATOM      1  C   UNL d   1       5.991   5.915   3.991  0.00  0.00    -0.033 A 
ATOM      2  C1  UNL d   1       5.998   5.503   5.325  0.00  0.00     0.039 A 
ATOM      3  C2  UNL d   1       5.999   4.142   5.637  0.00  0.00    -0.080 A 
ATOM      4  C3  UNL d   1       5.993   3.205   4.608  0.00  0.00     0.150 A 
ATOM      5  C4  UNL d   1       5.990   3.609   3.276  0.00  0.00    -0.007 A 
ATOM      6  C5  UNL d   1       5.988   4.968   2.967  0.00  0.00     0.039 A 
ENDROOT
BRANCH   4   7
ATOM      7  O   UNL d   1       5.989   1.866   4.863  0.00  0.00    -0.526 OA
ATOM      8  H5  UNL d   1       5.963   1.736   5.826  0.00  0.00     0.418 HD
ENDBRANCH   4   7
TORSDOF 1
ENDMDL
