MODEL 1
REMARK minimizedAffinity -1.117957
REMARK minimizedRMSD -1
REMARK  1 active torsions:
REMARK  status: ('A' for Active; 'I' for Inactive)
REMARK    1  A    between atoms: C3_4  and  O_7 
ROOT
ATOM      1  C   UNL d   1       5.992   0.956   5.403  0.00  0.00    -0.033 A 
ATOM      2  C1  UNL d   1       5.996   0.818   4.013  0.00  0.00     0.039 A 
ATOM      3  C2  UNL d   1       6.000   1.952   3.198  0.00  0.00    -0.080 A 
ATOM      4  C3  UNL d   1       6.000   3.215   3.783  0.00  0.00     0.150 A 
ATOM      5  C4  UNL d   1       5.999   3.359   5.166  0.00  0.00    -0.007 A 
ATOM      6  C5  UNL d   1       5.995   2.227   5.979  0.00  0.00     0.039 A 
ENDROOT
BRANCH   4   7
ATOM      7  O   UNL d   1       5.999   4.350   3.028  0.00  0.00    -0.526 OA
ATOM      8  H5  UNL d   1       5.970   4.096   2.090  0.00  0.00     0.418 HD
ENDBRANCH   4   7
TORSDOF 1
ENDMDL
