MODEL 1
REMARK minimizedAffinity 1.5578382
REMARK minimizedRMSD -1
REMARK  1 active torsions:
REMARK  status: ('A' for Active; 'I' for Inactive)
REMARK    1  A    between atoms: C3_4  and  O_7 
ROOT
ATOM      1  C   UNL d   1       6.000  -1.861   4.524  0.00  0.00    -0.033 A 
ATOM      2  C1  UNL d   1       6.000  -1.466   3.185  0.00  0.00     0.039 A 
ATOM      3  C2  UNL d   1       5.993  -0.109   2.855  0.00  0.00    -0.080 A 
ATOM      4  C3  UNL d   1       5.988   0.841   3.872  0.00  0.00     0.150 A 
ATOM      5  C4  UNL d   1       5.992   0.455   5.209  0.00  0.00    -0.007 A 
ATOM      6  C5  UNL d   1       5.997  -0.900   5.536  0.00  0.00     0.039 A 
ENDROOT
BRANCH   4   7
ATOM      7  O   UNL d   1       5.977   2.177   3.600  0.00  0.00    -0.526 OA
ATOM      8  H5  UNL d   1       5.946   2.294   2.636  0.00  0.00     0.418 HD
ENDBRANCH   4   7
TORSDOF 1
ENDMDL
