MODEL 1
REMARK minimizedAffinity -2.59221411
REMARK minimizedRMSD -1
REMARK  1 active torsions:
REMARK  status: ('A' for Active; 'I' for Inactive)
REMARK    1  A    between atoms: C3_4  and  O_7 
ROOT
ATOM      1  C   UNL d   1       5.955   2.013   4.290  0.00  0.00    -0.033 A 
ATOM      2  C1  UNL d   1       5.983   1.033   3.296  0.00  0.00     0.039 A 
ATOM      3  C2  UNL d   1       5.992  -0.318   3.646  0.00  0.00    -0.080 A 
ATOM      4  C3  UNL d   1       5.972  -0.676   4.991  0.00  0.00     0.150 A 
ATOM      5  C4  UNL d   1       5.941   0.295   5.986  0.00  0.00    -0.007 A 
ATOM      6  C5  UNL d   1       5.932   1.644   5.635  0.00  0.00     0.039 A 
ENDROOT
BRANCH   4   7
ATOM      7  O   UNL d   1       5.985  -1.982   5.381  0.00  0.00    -0.526 OA
ATOM      8  H5  UNL d   1       6.037  -2.540   4.587  0.00  0.00     0.418 HD
ENDBRANCH   4   7
TORSDOF 1
ENDMDL
