MODEL 1
REMARK minimizedAffinity -2.34811306
REMARK minimizedRMSD -1
REMARK  1 active torsions:
REMARK  status: ('A' for Active; 'I' for Inactive)
REMARK    1  A    between atoms: C3_4  and  O_7 
ROOT
ATOM      1  C   UNL d   1       5.987   2.372   5.114  0.00  0.00    -0.033 A 
ATOM      2  C1  UNL d   1       5.992   2.652   3.746  0.00  0.00     0.039 A 
ATOM      3  C2  UNL d   1       5.984   1.609   2.818  0.00  0.00    -0.080 A 
ATOM      4  C3  UNL d   1       5.969   0.293   3.269  0.00  0.00     0.150 A 
ATOM      5  C4  UNL d   1       5.960   0.006   4.630  0.00  0.00    -0.007 A 
ATOM      6  C5  UNL d   1       5.969   1.049   5.556  0.00  0.00     0.039 A 
ENDROOT
BRANCH   4   7
ATOM      7  O   UNL d   1       5.965  -0.759   2.401  0.00  0.00    -0.526 OA
ATOM      8  H5  UNL d   1       6.002  -0.409   1.495  0.00  0.00     0.418 HD
ENDBRANCH   4   7
TORSDOF 1
ENDMDL
