MODEL 1
REMARK minimizedAffinity 2.1610508
REMARK minimizedRMSD -1
REMARK  1 active torsions:
REMARK  status: ('A' for Active; 'I' for Inactive)
REMARK    1  A    between atoms: C3_4  and  O_7 
ROOT
ATOM      1  C   UNL d   1       5.928   3.832   4.843  0.00  0.00    -0.033 A 
ATOM      2  C1  UNL d   1       5.973   3.077   3.670  0.00  0.00     0.039 A 
ATOM      3  C2  UNL d   1       5.999   3.714   2.428  0.00  0.00    -0.080 A 
ATOM      4  C3  UNL d   1       5.980   5.105   2.373  0.00  0.00     0.150 A 
ATOM      5  C4  UNL d   1       5.938   5.864   3.538  0.00  0.00    -0.007 A 
ATOM      6  C5  UNL d   1       5.911   5.226   4.777  0.00  0.00     0.039 A 
ENDROOT
BRANCH   4   7
ATOM      7  O   UNL d   1       5.999   5.771   1.184  0.00  0.00    -0.526 OA
ATOM      8  H5  UNL d   1       5.998   5.118   0.465  0.00  0.00     0.418 HD
ENDBRANCH   4   7
TORSDOF 1
ENDMDL
