MODEL 1
REMARK minimizedAffinity -0.16965954
REMARK minimizedRMSD -1
REMARK  1 active torsions:
REMARK  status: ('A' for Active; 'I' for Inactive)
REMARK    1  A    between atoms: C3_4  and  O_7 
ROOT
ATOM      1  C   UNL d   1       5.995   4.172   1.975  0.00  0.00    -0.033 A 
ATOM      2  C1  UNL d   1       5.999   5.540   2.255  0.00  0.00     0.039 A 
ATOM      3  C2  UNL d   1       5.999   5.984   3.578  0.00  0.00    -0.080 A 
ATOM      4  C3  UNL d   1       5.996   5.051   4.612  0.00  0.00     0.150 A 
ATOM      5  C4  UNL d   1       5.995   3.686   4.340  0.00  0.00    -0.007 A 
ATOM      6  C5  UNL d   1       5.995   3.245   3.018  0.00  0.00     0.039 A 
ENDROOT
BRANCH   4   7
ATOM      7  O   UNL d   1       5.991   5.436   5.919  0.00  0.00    -0.526 OA
ATOM      8  H5  UNL d   1       5.962   6.407   5.954  0.00  0.00     0.418 HD
ENDBRANCH   4   7
TORSDOF 1
ENDMDL
