MODEL 1
REMARK minimizedAffinity -1.03714621
REMARK minimizedRMSD -1
REMARK  1 active torsions:
REMARK  status: ('A' for Active; 'I' for Inactive)
REMARK    1  A    between atoms: C3_4  and  O_7 
ROOT
ATOM      1  C   UNL d   1       5.986   0.905   4.384  0.00  0.00    -0.033 A 
ATOM      2  C1  UNL d   1       5.981   1.917   5.345  0.00  0.00     0.039 A 
ATOM      3  C2  UNL d   1       5.984   3.257   4.952  0.00  0.00    -0.080 A 
ATOM      4  C3  UNL d   1       5.991   3.570   3.595  0.00  0.00     0.150 A 
ATOM      5  C4  UNL d   1       5.992   2.567   2.632  0.00  0.00    -0.007 A 
ATOM      6  C5  UNL d   1       5.990   1.230   3.027  0.00  0.00     0.039 A 
ENDROOT
BRANCH   4   7
ATOM      7  O   UNL d   1       5.999   4.863   3.163  0.00  0.00    -0.526 OA
ATOM      8  H5  UNL d   1       6.026   5.447   3.939  0.00  0.00     0.418 HD
ENDBRANCH   4   7
TORSDOF 1
ENDMDL
