MODEL 1
REMARK minimizedAffinity -2.17490983
REMARK minimizedRMSD -1
REMARK  1 active torsions:
REMARK  status: ('A' for Active; 'I' for Inactive)
REMARK    1  A    between atoms: C3_4  and  O_7 
ROOT
ATOM      1  C   UNL d   1       5.255   4.123   2.360  0.00  0.00    -0.033 A 
ATOM      2  C1  UNL d   1       6.000   2.996   2.010  0.00  0.00     0.039 A 
ATOM      3  C2  UNL d   1       5.998   1.871   2.836  0.00  0.00    -0.080 A 
ATOM      4  C3  UNL d   1       5.248   1.885   4.009  0.00  0.00     0.150 A 
ATOM      5  C4  UNL d   1       4.500   3.004   4.362  0.00  0.00    -0.007 A 
ATOM      6  C5  UNL d   1       4.503   4.126   3.536  0.00  0.00     0.039 A 
ENDROOT
BRANCH   4   7
ATOM      7  O   UNL d   1       5.219   0.813   4.850  0.00  0.00    -0.526 OA
ATOM      8  H5  UNL d   1       5.804   0.125   4.492  0.00  0.00     0.418 HD
ENDBRANCH   4   7
TORSDOF 1
ENDMDL
