MODEL 1
REMARK minimizedAffinity -0.757839739
REMARK minimizedRMSD -1
REMARK  0 active torsions:
REMARK  status: ('A' for Active; 'I' for Inactive)
ROOT
ATOM      1  C   UNL d   1      -0.718   0.668   1.936  0.00  0.00     0.023 A 
ATOM      2  C1  UNL d   1      -1.881   0.437   1.201  0.00  0.00     0.003 A 
ATOM      3  C2  UNL d   1      -1.797   0.009  -0.126  0.00  0.00     0.048 A 
ATOM      4  C3  UNL d   1      -0.547  -0.186  -0.711  0.00  0.00     0.023 A 
ATOM      5  C4  UNL d   1       0.620   0.043   0.020  0.00  0.00     0.048 A 
ATOM      6  C5  UNL d   1       0.531   0.472   1.346  0.00  0.00     0.003 A 
ATOM      7  I   UNL d   1      -0.419  -0.823  -2.685  0.00  0.00    -0.146 I 
ENDROOT
TORSDOF 0
ENDMDL
