MODEL 1
REMARK minimizedAffinity -1.48638666
REMARK minimizedRMSD -1
REMARK  0 active torsions:
REMARK  status: ('A' for Active; 'I' for Inactive)
ROOT
ATOM      1  C   UNL d   1      -0.760   0.479   3.141  0.00  0.00     0.023 A 
ATOM      2  C1  UNL d   1      -1.817   0.365   2.237  0.00  0.00     0.003 A 
ATOM      3  C2  UNL d   1      -1.607   0.620   0.880  0.00  0.00     0.048 A 
ATOM      4  C3  UNL d   1      -0.338   0.988   0.434  0.00  0.00     0.023 A 
ATOM      5  C4  UNL d   1       0.722   1.102   1.335  0.00  0.00     0.048 A 
ATOM      6  C5  UNL d   1       0.507   0.847   2.691  0.00  0.00     0.003 A 
ATOM      7  I   UNL d   1      -0.023   1.368  -1.585  0.00  0.00    -0.146 I 
ENDROOT
TORSDOF 0
ENDMDL
