MODEL 1
REMARK minimizedAffinity -3.76650476
REMARK minimizedRMSD -1
REMARK  0 active torsions:
REMARK  status: ('A' for Active; 'I' for Inactive)
ROOT
ATOM      1  C   UNL d   1      -0.174  -0.552  -4.443  0.00  0.00     0.023 A 
ATOM      2  C1  UNL d   1      -0.650  -1.539  -3.580  0.00  0.00     0.003 A 
ATOM      3  C2  UNL d   1      -0.457  -1.416  -2.202  0.00  0.00     0.048 A 
ATOM      4  C3  UNL d   1       0.213  -0.304  -1.694  0.00  0.00     0.023 A 
ATOM      5  C4  UNL d   1       0.690   0.687  -2.554  0.00  0.00     0.048 A 
ATOM      6  C5  UNL d   1       0.495   0.560  -3.931  0.00  0.00     0.003 A 
ATOM      7  I   UNL d   1       0.502  -0.119   0.355  0.00  0.00    -0.146 I 
ENDROOT
TORSDOF 0
ENDMDL
