MODEL 1
REMARK minimizedAffinity 5.89927721
REMARK minimizedRMSD -1
REMARK  0 active torsions:
REMARK  status: ('A' for Active; 'I' for Inactive)
ROOT
ATOM      1  C   UNL d   1       4.678   0.608  -3.223  0.00  0.00     0.023 A 
ATOM      2  C1  UNL d   1       3.704   1.597  -3.086  0.00  0.00     0.003 A 
ATOM      3  C2  UNL d   1       2.398   1.358  -3.520  0.00  0.00     0.048 A 
ATOM      4  C3  UNL d   1       2.073   0.127  -4.088  0.00  0.00     0.023 A 
ATOM      5  C4  UNL d   1       3.044  -0.866  -4.227  0.00  0.00     0.048 A 
ATOM      6  C5  UNL d   1       4.349  -0.622  -3.792  0.00  0.00     0.003 A 
ATOM      7  I   UNL d   1       0.131  -0.232  -4.735  0.00  0.00    -0.146 I 
ENDROOT
TORSDOF 0
ENDMDL
