MODEL 1
REMARK minimizedAffinity -5.69651175
REMARK minimizedRMSD -1
REMARK  0 active torsions:
REMARK  status: ('A' for Active; 'I' for Inactive)
ROOT
ATOM      1  C   UNL d   1      -3.126   4.548  -1.613  0.00  0.00     0.020 A 
ATOM      2  C1  UNL d   1      -3.096   5.791  -0.981  0.00  0.00     0.020 A 
ATOM      3  C2  UNL d   1      -2.256   5.997   0.115  0.00  0.00     0.034 A 
ATOM      4  C3  UNL d   1      -1.442   4.959   0.584  0.00  0.00     0.017 A 
ATOM      5  C4  UNL d   1      -1.473   3.712  -0.051  0.00  0.00     0.017 A 
ATOM      6  C5  UNL d   1      -2.316   3.511  -1.148  0.00  0.00     0.034 A 
ATOM      7 Cl   UNL d   1      -0.498   2.383   0.470  0.00  0.00    -0.070 Cl
ATOM      8 Cl1  UNL d   1      -0.428   5.285   1.944  0.00  0.00    -0.070 Cl
ENDROOT
TORSDOF 0
ENDMDL
