MODEL 1
REMARK minimizedAffinity -2.22343183
REMARK minimizedRMSD -1
REMARK  0 active torsions:
REMARK  status: ('A' for Active; 'I' for Inactive)
ROOT
ATOM      1  C   UNL d   1      -0.039   1.869  -1.523  0.00  0.00     0.020 A 
ATOM      2  C1  UNL d   1       0.705   2.477  -0.512  0.00  0.00     0.020 A 
ATOM      3  C2  UNL d   1       1.017   1.765   0.648  0.00  0.00     0.034 A 
ATOM      4  C3  UNL d   1       0.586   0.443   0.801  0.00  0.00     0.017 A 
ATOM      5  C4  UNL d   1      -0.160  -0.166  -0.215  0.00  0.00     0.017 A 
ATOM      6  C5  UNL d   1      -0.470   0.550  -1.375  0.00  0.00     0.034 A 
ATOM      7 Cl   UNL d   1      -0.727  -1.795  -0.099  0.00  0.00    -0.070 Cl
ATOM      8 Cl1  UNL d   1       1.009  -0.377   2.262  0.00  0.00    -0.070 Cl
ENDROOT
TORSDOF 0
ENDMDL
