MODEL 1
REMARK minimizedAffinity -4.5005312
REMARK minimizedRMSD -1
REMARK  0 active torsions:
REMARK  status: ('A' for Active; 'I' for Inactive)
ROOT
ATOM      1  C   UNL d   1      -0.337  -0.541  -0.817  0.00  0.00     0.020 A 
ATOM      2  C1  UNL d   1      -1.372  -0.375   0.102  0.00  0.00     0.020 A 
ATOM      3  C2  UNL d   1      -1.816   0.908   0.430  0.00  0.00     0.034 A 
ATOM      4  C3  UNL d   1      -1.224   2.030  -0.163  0.00  0.00     0.017 A 
ATOM      5  C4  UNL d   1      -0.185   1.862  -1.085  0.00  0.00     0.017 A 
ATOM      6  C5  UNL d   1       0.255   0.575  -1.410  0.00  0.00     0.034 A 
ATOM      7 Cl   UNL d   1       0.593   3.198  -1.858  0.00  0.00    -0.070 Cl
ATOM      8 Cl1  UNL d   1      -1.823   3.587   0.289  0.00  0.00    -0.070 Cl
ENDROOT
TORSDOF 0
ENDMDL
