MODEL 1
REMARK minimizedAffinity -0.103149094
REMARK minimizedRMSD -1
REMARK  0 active torsions:
REMARK  status: ('A' for Active; 'I' for Inactive)
ROOT
ATOM      1  C   UNL d   1      -0.942   4.169   2.073  0.00  0.00     0.020 A 
ATOM      2  C1  UNL d   1       0.016   5.131   2.392  0.00  0.00     0.020 A 
ATOM      3  C2  UNL d   1       1.320   5.005   1.908  0.00  0.00     0.034 A 
ATOM      4  C3  UNL d   1       1.670   3.914   1.103  0.00  0.00     0.017 A 
ATOM      5  C4  UNL d   1       0.708   2.949   0.784  0.00  0.00     0.017 A 
ATOM      6  C5  UNL d   1      -0.597   3.081   1.271  0.00  0.00     0.034 A 
ATOM      7 Cl   UNL d   1       1.064   1.576  -0.203  0.00  0.00    -0.070 Cl
ATOM      8 Cl1  UNL d   1       3.301   3.822   0.540  0.00  0.00    -0.070 Cl
ENDROOT
TORSDOF 0
ENDMDL
