MODEL 1
REMARK minimizedAffinity -4.26808071
REMARK minimizedRMSD -1
REMARK  0 active torsions:
REMARK  status: ('A' for Active; 'I' for Inactive)
ROOT
ATOM      1  C   UNL d   1      -1.087   1.611   0.658  0.00  0.00     0.020 A 
ATOM      2  C1  UNL d   1      -0.618   2.044  -0.582  0.00  0.00     0.020 A 
ATOM      3  C2  UNL d   1      -0.145   1.116  -1.512  0.00  0.00     0.034 A 
ATOM      4  C3  UNL d   1      -0.139  -0.249  -1.204  0.00  0.00     0.017 A 
ATOM      5  C4  UNL d   1      -0.610  -0.683   0.041  0.00  0.00     0.017 A 
ATOM      6  C5  UNL d   1      -1.083   0.251   0.968  0.00  0.00     0.034 A 
ATOM      7 Cl   UNL d   1      -0.635  -2.351   0.493  0.00  0.00    -0.070 Cl
ATOM      8 Cl1  UNL d   1       0.460  -1.341  -2.402  0.00  0.00    -0.070 Cl
ENDROOT
TORSDOF 0
ENDMDL
