MODEL 1
REMARK minimizedAffinity -4.18558025
REMARK minimizedRMSD -1
REMARK  0 active torsions:
REMARK  status: ('A' for Active; 'I' for Inactive)
ROOT
ATOM      1  C   UNL d   1      -1.325  -1.007   0.325  0.00  0.00     0.020 A 
ATOM      2  C1  UNL d   1      -0.420  -1.173  -0.723  0.00  0.00     0.020 A 
ATOM      3  C2  UNL d   1       0.200  -0.059  -1.293  0.00  0.00     0.034 A 
ATOM      4  C3  UNL d   1      -0.084   1.226  -0.816  0.00  0.00     0.017 A 
ATOM      5  C4  UNL d   1      -0.992   1.392   0.236  0.00  0.00     0.017 A 
ATOM      6  C5  UNL d   1      -1.610   0.273   0.803  0.00  0.00     0.034 A 
ATOM      7 Cl   UNL d   1      -1.393   2.945   0.879  0.00  0.00    -0.070 Cl
ATOM      8 Cl1  UNL d   1       0.720   2.558  -1.567  0.00  0.00    -0.070 Cl
ENDROOT
TORSDOF 0
ENDMDL
