MODEL 1
REMARK minimizedAffinity -2.23539257
REMARK minimizedRMSD -1
REMARK  0 active torsions:
REMARK  status: ('A' for Active; 'I' for Inactive)
ROOT
ATOM      1  C   UNL d   1      -0.539   1.021  -1.207  0.00  0.00     0.020 A 
ATOM      2  C1  UNL d   1       0.033  -0.129  -1.749  0.00  0.00     0.020 A 
ATOM      3  C2  UNL d   1      -0.101  -1.353  -1.090  0.00  0.00     0.034 A 
ATOM      4  C3  UNL d   1      -0.809  -1.430   0.115  0.00  0.00     0.017 A 
ATOM      5  C4  UNL d   1      -1.382  -0.275   0.659  0.00  0.00     0.017 A 
ATOM      6  C5  UNL d   1      -1.245   0.948  -0.006  0.00  0.00     0.034 A 
ATOM      7 Cl   UNL d   1      -2.270  -0.290   2.142  0.00  0.00    -0.070 Cl
ATOM      8 Cl1  UNL d   1      -0.936  -2.976   0.875  0.00  0.00    -0.070 Cl
ENDROOT
TORSDOF 0
ENDMDL
