MODEL 1
REMARK minimizedAffinity -3.66618681
REMARK minimizedRMSD -1
REMARK  0 active torsions:
REMARK  status: ('A' for Active; 'I' for Inactive)
ROOT
ATOM      1  C   UNL d   1      -0.181  -0.470   0.571  0.00  0.00     0.020 A 
ATOM      2  C1  UNL d   1      -1.499  -0.138   0.882  0.00  0.00     0.020 A 
ATOM      3  C2  UNL d   1      -1.890   1.202   0.926  0.00  0.00     0.034 A 
ATOM      4  C3  UNL d   1      -0.961   2.215   0.661  0.00  0.00     0.017 A 
ATOM      5  C4  UNL d   1       0.362   1.881   0.350  0.00  0.00     0.017 A 
ATOM      6  C5  UNL d   1       0.747   0.538   0.306  0.00  0.00     0.034 A 
ATOM      7 Cl   UNL d   1       1.564   3.076   0.010  0.00  0.00    -0.070 Cl
ATOM      8 Cl1  UNL d   1      -1.514   3.850   0.734  0.00  0.00    -0.070 Cl
ENDROOT
TORSDOF 0
ENDMDL
