MODEL 1
REMARK minimizedAffinity -2.24746966
REMARK minimizedRMSD -1
REMARK  0 active torsions:
REMARK  status: ('A' for Active; 'I' for Inactive)
ROOT
ATOM      1  C   UNL d   1       3.765   4.183  -0.068  0.00  0.00     0.020 A 
ATOM      2  C1  UNL d   1       2.572   4.504  -0.716  0.00  0.00     0.020 A 
ATOM      3  C2  UNL d   1       1.669   3.495  -1.055  0.00  0.00     0.034 A 
ATOM      4  C3  UNL d   1       1.956   2.160  -0.747  0.00  0.00     0.017 A 
ATOM      5  C4  UNL d   1       3.152   1.839  -0.096  0.00  0.00     0.017 A 
ATOM      6  C5  UNL d   1       4.054   2.854   0.241  0.00  0.00     0.034 A 
ATOM      7 Cl   UNL d   1       3.576   0.215   0.317  0.00  0.00    -0.070 Cl
ATOM      8 Cl1  UNL d   1       0.792   0.964  -1.196  0.00  0.00    -0.070 Cl
ENDROOT
TORSDOF 0
ENDMDL
