MODEL 1
REMARK minimizedAffinity -3.90086889
REMARK minimizedRMSD -1
REMARK  0 active torsions:
REMARK  status: ('A' for Active; 'I' for Inactive)
ROOT
ATOM      1  C   UNL d   1      -1.509   1.026   0.569  0.00  0.00     0.020 A 
ATOM      2  C1  UNL d   1      -0.910   1.570  -0.566  0.00  0.00     0.020 A 
ATOM      3  C2  UNL d   1      -0.120   0.766  -1.391  0.00  0.00     0.034 A 
ATOM      4  C3  UNL d   1       0.073  -0.585  -1.083  0.00  0.00     0.017 A 
ATOM      5  C4  UNL d   1      -0.529  -1.130   0.057  0.00  0.00     0.017 A 
ATOM      6  C5  UNL d   1      -1.319  -0.321   0.880  0.00  0.00     0.034 A 
ATOM      7 Cl   UNL d   1      -0.337  -2.789   0.503  0.00  0.00    -0.070 Cl
ATOM      8 Cl1  UNL d   1       1.062  -1.519  -2.148  0.00  0.00    -0.070 Cl
ENDROOT
TORSDOF 0
ENDMDL
