MODEL 1
REMARK minimizedAffinity -3.83830428
REMARK minimizedRMSD -1
REMARK  0 active torsions:
REMARK  status: ('A' for Active; 'I' for Inactive)
ROOT
ATOM      1  C   UNL d   1      -1.422   5.012   1.174  0.00  0.00     0.020 A 
ATOM      2  C1  UNL d   1      -0.314   5.592   1.790  0.00  0.00     0.020 A 
ATOM      3  C2  UNL d   1       0.937   4.981   1.694  0.00  0.00     0.034 A 
ATOM      4  C3  UNL d   1       1.084   3.785   0.981  0.00  0.00     0.017 A 
ATOM      5  C4  UNL d   1      -0.028   3.204   0.362  0.00  0.00     0.017 A 
ATOM      6  C5  UNL d   1      -1.279   3.820   0.461  0.00  0.00     0.034 A 
ATOM      7 Cl   UNL d   1       0.075   1.731  -0.535  0.00  0.00    -0.070 Cl
ATOM      8 Cl1  UNL d   1       2.662   3.085   0.904  0.00  0.00    -0.070 Cl
ENDROOT
TORSDOF 0
ENDMDL
