MODEL 1
REMARK minimizedAffinity -2.96385098
REMARK minimizedRMSD -1
REMARK  0 active torsions:
REMARK  status: ('A' for Active; 'I' for Inactive)
ROOT
ATOM      1  C   UNL d   1       0.425   0.810  -1.708  0.00  0.00     0.020 A 
ATOM      2  C1  UNL d   1       0.173  -0.490  -1.271  0.00  0.00     0.020 A 
ATOM      3  C2  UNL d   1      -0.754  -0.716  -0.251  0.00  0.00     0.034 A 
ATOM      4  C3  UNL d   1      -1.433   0.360   0.334  0.00  0.00     0.017 A 
ATOM      5  C4  UNL d   1      -1.179   1.664  -0.106  0.00  0.00     0.017 A 
ATOM      6  C5  UNL d   1      -0.249   1.884  -1.127  0.00  0.00     0.034 A 
ATOM      7 Cl   UNL d   1      -1.977   3.041   0.567  0.00  0.00    -0.070 Cl
ATOM      8 Cl1  UNL d   1      -2.566   0.007   1.589  0.00  0.00    -0.070 Cl
ENDROOT
TORSDOF 0
ENDMDL
