MODEL 1
REMARK minimizedAffinity -4.97350311
REMARK minimizedRMSD -1
REMARK  0 active torsions:
REMARK  status: ('A' for Active; 'I' for Inactive)
ROOT
ATOM      1  C   UNL d   1      -0.419  -1.071  -0.786  0.00  0.00     0.020 A 
ATOM      2  C1  UNL d   1      -1.281  -0.821   0.282  0.00  0.00     0.020 A 
ATOM      3  C2  UNL d   1      -1.508   0.490   0.704  0.00  0.00     0.034 A 
ATOM      4  C3  UNL d   1      -0.873   1.558   0.058  0.00  0.00     0.017 A 
ATOM      5  C4  UNL d   1      -0.009   1.306  -1.014  0.00  0.00     0.017 A 
ATOM      6  C5  UNL d   1       0.215  -0.009  -1.432  0.00  0.00     0.034 A 
ATOM      7 Cl   UNL d   1       0.810   2.571  -1.860  0.00  0.00    -0.070 Cl
ATOM      8 Cl1  UNL d   1      -1.201   3.154   0.632  0.00  0.00    -0.070 Cl
ENDROOT
TORSDOF 0
ENDMDL
