MODEL 1
REMARK minimizedAffinity -1.92527819
REMARK minimizedRMSD -1
REMARK  0 active torsions:
REMARK  status: ('A' for Active; 'I' for Inactive)
ROOT
ATOM      1  C   UNL d   1       0.283  -1.239  -0.868  0.00  0.00     0.020 A 
ATOM      2  C1  UNL d   1       0.517  -0.121  -1.667  0.00  0.00     0.020 A 
ATOM      3  C2  UNL d   1      -0.083   1.100  -1.352  0.00  0.00     0.034 A 
ATOM      4  C3  UNL d   1      -0.920   1.206  -0.235  0.00  0.00     0.017 A 
ATOM      5  C4  UNL d   1      -1.154   0.082   0.567  0.00  0.00     0.017 A 
ATOM      6  C5  UNL d   1      -0.550  -1.138   0.247  0.00  0.00     0.034 A 
ATOM      7 Cl   UNL d   1      -2.174   0.135   1.961  0.00  0.00    -0.070 Cl
ATOM      8 Cl1  UNL d   1      -1.628   2.747   0.096  0.00  0.00    -0.070 Cl
ENDROOT
TORSDOF 0
ENDMDL
