MODEL 1
REMARK minimizedAffinity -4.5116992
REMARK minimizedRMSD -1
REMARK  0 active torsions:
REMARK  status: ('A' for Active; 'I' for Inactive)
ROOT
ATOM      1  C   UNL d   1      -0.387   5.143   2.195  0.00  0.00     0.020 A 
ATOM      2  C1  UNL d   1      -1.390   4.551   1.429  0.00  0.00     0.020 A 
ATOM      3  C2  UNL d   1      -1.055   3.672   0.398  0.00  0.00     0.034 A 
ATOM      4  C3  UNL d   1       0.288   3.381   0.129  0.00  0.00     0.017 A 
ATOM      5  C4  UNL d   1       1.295   3.976   0.898  0.00  0.00     0.017 A 
ATOM      6  C5  UNL d   1       0.953   4.856   1.930  0.00  0.00     0.034 A 
ATOM      7 Cl   UNL d   1       2.973   3.666   0.627  0.00  0.00    -0.070 Cl
ATOM      8 Cl1  UNL d   1       0.630   2.284  -1.161  0.00  0.00    -0.070 Cl
ENDROOT
TORSDOF 0
ENDMDL
