MODEL 1
REMARK minimizedAffinity -3.18138933
REMARK minimizedRMSD -1
REMARK  0 active torsions:
REMARK  status: ('A' for Active; 'I' for Inactive)
ROOT
ATOM      1  C   UNL d   1      -0.119   0.084  -2.066  0.00  0.00     0.020 A 
ATOM      2  C1  UNL d   1      -0.744   1.163  -1.442  0.00  0.00     0.020 A 
ATOM      3  C2  UNL d   1      -1.236   1.029  -0.142  0.00  0.00     0.034 A 
ATOM      4  C3  UNL d   1      -1.105  -0.187   0.538  0.00  0.00     0.017 A 
ATOM      5  C4  UNL d   1      -0.477  -1.270  -0.089  0.00  0.00     0.017 A 
ATOM      6  C5  UNL d   1       0.015  -1.130  -1.390  0.00  0.00     0.034 A 
ATOM      7 Cl   UNL d   1      -0.277  -2.801   0.687  0.00  0.00    -0.070 Cl
ATOM      8 Cl1  UNL d   1      -1.736  -0.283   2.144  0.00  0.00    -0.070 Cl
ENDROOT
TORSDOF 0
ENDMDL
