MODEL 1
REMARK minimizedAffinity -2.56555939
REMARK minimizedRMSD -1
REMARK  0 active torsions:
REMARK  status: ('A' for Active; 'I' for Inactive)
ROOT
ATOM      1  C   UNL d   1      -0.092   1.626   0.399  0.00  0.00     0.020 A 
ATOM      2  C1  UNL d   1       0.147   1.611  -0.975  0.00  0.00     0.020 A 
ATOM      3  C2  UNL d   1      -0.046   0.436  -1.704  0.00  0.00     0.034 A 
ATOM      4  C3  UNL d   1      -0.480  -0.729  -1.061  0.00  0.00     0.017 A 
ATOM      5  C4  UNL d   1      -0.719  -0.713   0.318  0.00  0.00     0.017 A 
ATOM      6  C5  UNL d   1      -0.524   0.466   1.044  0.00  0.00     0.034 A 
ATOM      7 Cl   UNL d   1      -1.256  -2.110   1.182  0.00  0.00    -0.070 Cl
ATOM      8 Cl1  UNL d   1      -0.698  -2.146  -2.025  0.00  0.00    -0.070 Cl
ENDROOT
TORSDOF 0
ENDMDL
