MODEL 1
REMARK minimizedAffinity -3.22705865
REMARK minimizedRMSD -1
REMARK  0 active torsions:
REMARK  status: ('A' for Active; 'I' for Inactive)
ROOT
ATOM      1  C   UNL d   1       1.615   4.270  -0.539  0.00  0.00     0.023 A 
ATOM      2  C1  UNL d   1       1.665   3.703  -1.812  0.00  0.00     0.003 A 
ATOM      3  C2  UNL d   1       1.478   2.328  -1.973  0.00  0.00     0.048 A 
ATOM      4  C3  UNL d   1       1.240   1.527  -0.857  0.00  0.00     0.023 A 
ATOM      5  C4  UNL d   1       1.188   2.091   0.419  0.00  0.00     0.048 A 
ATOM      6  C5  UNL d   1       1.377   3.465   0.576  0.00  0.00     0.003 A 
ATOM      7  I   UNL d   1       0.961  -0.519  -1.094  0.00  0.00    -0.146 I 
ENDROOT
TORSDOF 0
ENDMDL
