MODEL 1
REMARK minimizedAffinity -3.83385849
REMARK minimizedRMSD -1
REMARK  0 active torsions:
REMARK  status: ('A' for Active; 'I' for Inactive)
ROOT
ATOM      1  C   UNL d   1       1.013   2.178  -0.855  0.00  0.00     0.023 A 
ATOM      2  C1  UNL d   1       1.071   1.517  -2.083  0.00  0.00     0.003 A 
ATOM      3  C2  UNL d   1       1.172   0.125  -2.124  0.00  0.00     0.048 A 
ATOM      4  C3  UNL d   1       1.213  -0.600  -0.933  0.00  0.00     0.023 A 
ATOM      5  C4  UNL d   1       1.155   0.056   0.297  0.00  0.00     0.048 A 
ATOM      6  C5  UNL d   1       1.055   1.448   0.333  0.00  0.00     0.003 A 
ATOM      7  I   UNL d   1       1.363  -2.672  -0.992  0.00  0.00    -0.146 I 
ENDROOT
TORSDOF 0
ENDMDL
