MODEL 1
REMARK minimizedAffinity -3.39821386
REMARK minimizedRMSD -1
REMARK  0 active torsions:
REMARK  status: ('A' for Active; 'I' for Inactive)
ROOT
ATOM      1  C   UNL d   1       1.137   0.754  -0.251  0.00  0.00     0.023 A 
ATOM      2  C1  UNL d   1       1.291   1.297  -1.526  0.00  0.00     0.003 A 
ATOM      3  C2  UNL d   1       1.446   2.676  -1.686  0.00  0.00     0.048 A 
ATOM      4  C3  UNL d   1       1.447   3.506  -0.565  0.00  0.00     0.023 A 
ATOM      5  C4  UNL d   1       1.294   2.966   0.713  0.00  0.00     0.048 A 
ATOM      6  C5  UNL d   1       1.138   1.588   0.868  0.00  0.00     0.003 A 
ATOM      7  I   UNL d   1       1.677   5.558  -0.799  0.00  0.00    -0.146 I 
ENDROOT
TORSDOF 0
ENDMDL
