MODEL 1
REMARK minimizedAffinity -0.25774166
REMARK minimizedRMSD -1
REMARK  0 active torsions:
REMARK  status: ('A' for Active; 'I' for Inactive)
ROOT
ATOM      1  C   UNL d   1       0.484   1.045  -0.354  0.00  0.00     0.023 A 
ATOM      2  C1  UNL d   1       0.582   1.919   0.728  0.00  0.00     0.003 A 
ATOM      3  C2  UNL d   1       1.006   3.235   0.528  0.00  0.00     0.048 A 
ATOM      4  C3  UNL d   1       1.330   3.669  -0.756  0.00  0.00     0.023 A 
ATOM      5  C4  UNL d   1       1.233   2.798  -1.843  0.00  0.00     0.048 A 
ATOM      6  C5  UNL d   1       0.809   1.483  -1.638  0.00  0.00     0.003 A 
ATOM      7  I   UNL d   1       1.960   5.627  -1.056  0.00  0.00    -0.146 I 
ENDROOT
TORSDOF 0
ENDMDL
