MODEL 1
REMARK minimizedAffinity 0.233262241
REMARK minimizedRMSD -1
REMARK  0 active torsions:
REMARK  status: ('A' for Active; 'I' for Inactive)
ROOT
ATOM      1  C   UNL d   1       1.069   3.786  -0.790  0.00  0.00     0.023 A 
ATOM      2  C1  UNL d   1       1.486   3.030  -1.886  0.00  0.00     0.003 A 
ATOM      3  C2  UNL d   1       1.578   1.640  -1.782  0.00  0.00     0.048 A 
ATOM      4  C3  UNL d   1       1.251   1.013  -0.581  0.00  0.00     0.023 A 
ATOM      5  C4  UNL d   1       0.833   1.766   0.518  0.00  0.00     0.048 A 
ATOM      6  C5  UNL d   1       0.743   3.155   0.410  0.00  0.00     0.003 A 
ATOM      7  I   UNL d   1       1.387  -1.055  -0.424  0.00  0.00    -0.146 I 
ENDROOT
TORSDOF 0
ENDMDL
