MODEL 1
REMARK minimizedAffinity 3.53629589
REMARK minimizedRMSD -1
REMARK  0 active torsions:
REMARK  status: ('A' for Active; 'I' for Inactive)
ROOT
ATOM      1  C   UNL d   1       0.864   1.095  -0.726  0.00  0.00     0.023 A 
ATOM      2  C1  UNL d   1       1.186   1.575  -1.996  0.00  0.00     0.003 A 
ATOM      3  C2  UNL d   1       1.530   2.917  -2.171  0.00  0.00     0.048 A 
ATOM      4  C3  UNL d   1       1.550   3.774  -1.071  0.00  0.00     0.023 A 
ATOM      5  C4  UNL d   1       1.229   3.299   0.202  0.00  0.00     0.048 A 
ATOM      6  C5  UNL d   1       0.885   1.956   0.371  0.00  0.00     0.003 A 
ATOM      7  I   UNL d   1       2.061   5.772  -1.328  0.00  0.00    -0.146 I 
ENDROOT
TORSDOF 0
ENDMDL
