MODEL 1
REMARK minimizedAffinity -1.61331713
REMARK minimizedRMSD -1
REMARK  0 active torsions:
REMARK  status: ('A' for Active; 'I' for Inactive)
ROOT
ATOM      1  C   UNL d   1       1.270   3.630  -0.525  0.00  0.00     0.023 A 
ATOM      2  C1  UNL d   1       1.102   2.845   0.616  0.00  0.00     0.003 A 
ATOM      3  C2  UNL d   1       0.990   1.458   0.501  0.00  0.00     0.048 A 
ATOM      4  C3  UNL d   1       1.048   0.862  -0.759  0.00  0.00     0.023 A 
ATOM      5  C4  UNL d   1       1.217   1.643  -1.903  0.00  0.00     0.048 A 
ATOM      6  C5  UNL d   1       1.328   3.030  -1.783  0.00  0.00     0.003 A 
ATOM      7  I   UNL d   1       0.883  -1.202  -0.933  0.00  0.00    -0.146 I 
ENDROOT
TORSDOF 0
ENDMDL
