MODEL 1
REMARK minimizedAffinity 3.10370493
REMARK minimizedRMSD -1
REMARK  0 active torsions:
REMARK  status: ('A' for Active; 'I' for Inactive)
ROOT
ATOM      1  C   UNL d   1       0.319  -3.829  -0.978  0.00  0.00     0.023 A 
ATOM      2  C1  UNL d   1       1.201  -3.218  -0.087  0.00  0.00     0.003 A 
ATOM      3  C2  UNL d   1       1.522  -1.867  -0.236  0.00  0.00     0.048 A 
ATOM      4  C3  UNL d   1       0.956  -1.133  -1.277  0.00  0.00     0.023 A 
ATOM      5  C4  UNL d   1       0.072  -1.740  -2.171  0.00  0.00     0.048 A 
ATOM      6  C5  UNL d   1      -0.245  -3.091  -2.019  0.00  0.00     0.003 A 
ATOM      7  I   UNL d   1       1.431   0.878  -1.501  0.00  0.00    -0.146 I 
ENDROOT
TORSDOF 0
ENDMDL
