MODEL 1
REMARK minimizedAffinity -2.15699434
REMARK minimizedRMSD -1
REMARK  0 active torsions:
REMARK  status: ('A' for Active; 'I' for Inactive)
ROOT
ATOM      1  C   UNL d   1       1.124  -0.359  -0.578  0.00  0.00     0.023 A 
ATOM      2  C1  UNL d   1       1.037   0.587   0.444  0.00  0.00     0.003 A 
ATOM      3  C2  UNL d   1       1.202   1.943   0.158  0.00  0.00     0.048 A 
ATOM      4  C3  UNL d   1       1.452   2.348  -1.152  0.00  0.00     0.023 A 
ATOM      5  C4  UNL d   1       1.540   1.406  -2.178  0.00  0.00     0.048 A 
ATOM      6  C5  UNL d   1       1.375   0.051  -1.887  0.00  0.00     0.003 A 
ATOM      7  I   UNL d   1       1.698   4.367  -1.580  0.00  0.00    -0.146 I 
ENDROOT
TORSDOF 0
ENDMDL
