MODEL 1
REMARK minimizedAffinity -1.76865053
REMARK minimizedRMSD -1
REMARK  0 active torsions:
REMARK  status: ('A' for Active; 'I' for Inactive)
ROOT
ATOM      1  C   UNL d   1       0.769   0.621  -0.391  0.00  0.00     0.023 A 
ATOM      2  C1  UNL d   1       0.896   1.108  -1.692  0.00  0.00     0.003 A 
ATOM      3  C2  UNL d   1       1.303   2.426  -1.909  0.00  0.00     0.048 A 
ATOM      4  C3  UNL d   1       1.583   3.251  -0.820  0.00  0.00     0.023 A 
ATOM      5  C4  UNL d   1       1.458   2.768   0.483  0.00  0.00     0.048 A 
ATOM      6  C5  UNL d   1       1.050   1.450   0.695  0.00  0.00     0.003 A 
ATOM      7  I   UNL d   1       2.190   5.213  -1.141  0.00  0.00    -0.146 I 
ENDROOT
TORSDOF 0
ENDMDL
