MODEL 1
REMARK minimizedAffinity 1.08296692
REMARK minimizedRMSD -1
REMARK  0 active torsions:
REMARK  status: ('A' for Active; 'I' for Inactive)
ROOT
ATOM      1  C   UNL d   1       1.368   1.365  -0.192  0.00  0.00     0.023 A 
ATOM      2  C1  UNL d   1       1.473   2.340   0.800  0.00  0.00     0.003 A 
ATOM      3  C2  UNL d   1       1.753   3.663   0.453  0.00  0.00     0.048 A 
ATOM      4  C3  UNL d   1       1.925   4.005  -0.888  0.00  0.00     0.023 A 
ATOM      5  C4  UNL d   1       1.820   3.033  -1.884  0.00  0.00     0.048 A 
ATOM      6  C5  UNL d   1       1.541   1.711  -1.532  0.00  0.00     0.003 A 
ATOM      7  I   UNL d   1       2.342   5.974  -1.407  0.00  0.00    -0.146 I 
ENDROOT
TORSDOF 0
ENDMDL
