MODEL 1
REMARK minimizedAffinity -4.19948006
REMARK minimizedRMSD -1
REMARK  0 active torsions:
REMARK  status: ('A' for Active; 'I' for Inactive)
ROOT
ATOM      1  C   UNL d   1       0.947   3.192   0.314  0.00  0.00     0.023 A 
ATOM      2  C1  UNL d   1       1.319   2.986  -1.015  0.00  0.00     0.003 A 
ATOM      3  C2  UNL d   1       1.485   1.688  -1.502  0.00  0.00     0.048 A 
ATOM      4  C3  UNL d   1       1.275   0.600  -0.655  0.00  0.00     0.023 A 
ATOM      5  C4  UNL d   1       0.901   0.801   0.675  0.00  0.00     0.048 A 
ATOM      6  C5  UNL d   1       0.738   2.101   1.157  0.00  0.00     0.003 A 
ATOM      7  I   UNL d   1       1.520  -1.333  -1.377  0.00  0.00    -0.146 I 
ENDROOT
TORSDOF 0
ENDMDL
