MODEL 1
REMARK minimizedAffinity -3.01030159
REMARK minimizedRMSD -1
REMARK  0 active torsions:
REMARK  status: ('A' for Active; 'I' for Inactive)
ROOT
ATOM      1  C   UNL d   1       0.786   3.272   0.114  0.00  0.00     0.023 A 
ATOM      2  C1  UNL d   1       1.188   2.962  -1.186  0.00  0.00     0.003 A 
ATOM      3  C2  UNL d   1       1.459   1.639  -1.537  0.00  0.00     0.048 A 
ATOM      4  C3  UNL d   1       1.326   0.629  -0.585  0.00  0.00     0.023 A 
ATOM      5  C4  UNL d   1       0.924   0.933   0.717  0.00  0.00     0.048 A 
ATOM      6  C5  UNL d   1       0.654   2.259   1.064  0.00  0.00     0.003 A 
ATOM      7  I   UNL d   1       1.730  -1.342  -1.106  0.00  0.00    -0.146 I 
ENDROOT
TORSDOF 0
ENDMDL
