MODEL 1
REMARK minimizedAffinity 0.712652266
REMARK minimizedRMSD -1
REMARK  0 active torsions:
REMARK  status: ('A' for Active; 'I' for Inactive)
ROOT
ATOM      1  N1  IND d   1      -0.539  -1.743   3.582  0.00  0.00    -0.196 N 
ATOM      2  C2  IND d   1      -1.366  -0.707   3.248  0.00  0.00     0.054 A 
ATOM      3  C3  IND d   1      -0.961  -0.136   2.091  0.00  0.00    -0.031 A 
ATOM      4  C4  IND d   1       0.971  -0.804   0.526  0.00  0.00     0.051 A 
ATOM      5  C5  IND d   1       2.028  -1.665   0.426  0.00  0.00    -0.031 A 
ATOM      6  C6  IND d   1       2.287  -2.616   1.391  0.00  0.00     0.015 A 
ATOM      7  C7  IND d   1       1.488  -2.751   2.492  0.00  0.00    -0.016 A 
ATOM      8  C8  IND d   1       0.418  -1.874   2.600  0.00  0.00    -0.047 A 
ATOM      9  C9  IND d   1       0.175  -0.879   1.645  0.00  0.00    -0.096 A 
ATOM     10  HN1 IND d   1      -0.606  -2.231   4.286  0.00  0.00     0.298 HD
ENDROOT
TORSDOF 0
ENDMDL
