MODEL 1
REMARK minimizedAffinity 3.318151
REMARK minimizedRMSD -1
REMARK  0 active torsions:
REMARK  status: ('A' for Active; 'I' for Inactive)
ROOT
ATOM      1  N1  IND d   1      -0.987  -2.489   3.155  0.00  0.00    -0.196 N 
ATOM      2  C2  IND d   1      -0.722  -1.149   3.198  0.00  0.00     0.054 A 
ATOM      3  C3  IND d   1       0.500  -0.894   2.678  0.00  0.00    -0.031 A 
ATOM      4  C4  IND d   1       2.190  -2.512   1.603  0.00  0.00     0.051 A 
ATOM      5  C5  IND d   1       2.409  -3.840   1.366  0.00  0.00    -0.031 A 
ATOM      6  C6  IND d   1       1.487  -4.805   1.718  0.00  0.00     0.015 A 
ATOM      7  C7  IND d   1       0.302  -4.475   2.312  0.00  0.00    -0.016 A 
ATOM      8  C8  IND d   1       0.079  -3.128   2.561  0.00  0.00    -0.047 A 
ATOM      9  C9  IND d   1       1.029  -2.148   2.244  0.00  0.00    -0.096 A 
ATOM     10  HN1 IND d   1      -1.700  -2.869   3.449  0.00  0.00     0.298 HD
ENDROOT
TORSDOF 0
ENDMDL
