MODEL 1
REMARK minimizedAffinity 8.97596836
REMARK minimizedRMSD -1
REMARK  0 active torsions:
REMARK  status: ('A' for Active; 'I' for Inactive)
ROOT
ATOM      1  N1  IND d   1      -0.059  -2.220   3.302  0.00  0.00    -0.196 N 
ATOM      2  C2  IND d   1      -0.614  -0.984   3.123  0.00  0.00     0.054 A 
ATOM      3  C3  IND d   1       0.011  -0.329   2.118  0.00  0.00    -0.031 A 
ATOM      4  C4  IND d   1       1.900  -1.134   0.566  0.00  0.00     0.051 A 
ATOM      5  C5  IND d   1       2.758  -2.179   0.366  0.00  0.00    -0.031 A 
ATOM      6  C6  IND d   1       2.718  -3.315   1.149  0.00  0.00     0.015 A 
ATOM      7  C7  IND d   1       1.808  -3.454   2.157  0.00  0.00    -0.016 A 
ATOM      8  C8  IND d   1       0.939  -2.392   2.368  0.00  0.00    -0.047 A 
ATOM      9  C9  IND d   1       1.003  -1.219   1.605  0.00  0.00    -0.096 A 
ATOM     10  HN1 IND d   1      -0.293  -2.794   3.898  0.00  0.00     0.298 HD
ENDROOT
TORSDOF 0
ENDMDL
