MODEL 1
REMARK minimizedAffinity -0.551162124
REMARK minimizedRMSD -1
REMARK  0 active torsions:
REMARK  status: ('A' for Active; 'I' for Inactive)
ROOT
ATOM      1  N1  IND d   1       2.416   5.998  -5.982  0.00  0.00    -0.196 N 
ATOM      2  C2  IND d   1       1.480   5.023  -5.779  0.00  0.00     0.054 A 
ATOM      3  C3  IND d   1       2.082   3.834  -5.551  0.00  0.00    -0.031 A 
ATOM      4  C4  IND d   1       4.589   3.278  -5.366  0.00  0.00     0.051 A 
ATOM      5  C5  IND d   1       5.829   3.833  -5.513  0.00  0.00    -0.031 A 
ATOM      6  C6  IND d   1       5.998   5.166  -5.827  0.00  0.00     0.015 A 
ATOM      7  C7  IND d   1       4.929   6.000  -5.996  0.00  0.00    -0.016 A 
ATOM      8  C8  IND d   1       3.668   5.438  -5.855  0.00  0.00    -0.047 A 
ATOM      9  C9  IND d   1       3.490   4.076  -5.578  0.00  0.00    -0.096 A 
ATOM     10  HN1 IND d   1       2.251   6.823  -6.160  0.00  0.00     0.298 HD
ENDROOT
TORSDOF 0
ENDMDL
