MODEL 1
REMARK minimizedAffinity 5.08687449
REMARK minimizedRMSD -1
REMARK  0 active torsions:
REMARK  status: ('A' for Active; 'I' for Inactive)
ROOT
ATOM      1  N1  IND d   1       0.066  -0.853   3.421  0.00  0.00    -0.196 N 
ATOM      2  C2  IND d   1       1.202  -0.158   3.112  0.00  0.00     0.054 A 
ATOM      3  C3  IND d   1       1.925  -0.826   2.186  0.00  0.00    -0.031 A 
ATOM      4  C4  IND d   1       1.384  -3.026   0.963  0.00  0.00     0.051 A 
ATOM      5  C5  IND d   1       0.475  -4.046   0.934  0.00  0.00    -0.031 A 
ATOM      6  C6  IND d   1      -0.640  -4.054   1.747  0.00  0.00     0.015 A 
ATOM      7  C7  IND d   1      -0.895  -3.030   2.615  0.00  0.00    -0.016 A 
ATOM      8  C8  IND d   1       0.029  -1.995   2.652  0.00  0.00    -0.047 A 
ATOM      9  C9  IND d   1       1.184  -2.003   1.860  0.00  0.00    -0.096 A 
ATOM     10  HN1 IND d   1      -0.525  -0.616   3.998  0.00  0.00     0.298 HD
ENDROOT
TORSDOF 0
ENDMDL
