MODEL 1
REMARK minimizedAffinity -3.57890677
REMARK minimizedRMSD -1
REMARK  0 active torsions:
REMARK  status: ('A' for Active; 'I' for Inactive)
ROOT
ATOM      1  N1  IND d   1      -3.095   5.999   4.218  0.00  0.00    -0.196 N 
ATOM      2  C2  IND d   1      -1.850   5.607   4.626  0.00  0.00     0.054 A 
ATOM      3  C3  IND d   1      -1.889   4.344   5.107  0.00  0.00    -0.031 A 
ATOM      4  C4  IND d   1      -3.866   2.699   5.226  0.00  0.00     0.051 A 
ATOM      5  C5  IND d   1      -5.213   2.616   5.005  0.00  0.00    -0.031 A 
ATOM      6  C6  IND d   1      -5.936   3.676   4.498  0.00  0.00     0.015 A 
ATOM      7  C7  IND d   1      -5.335   4.861   4.181  0.00  0.00    -0.016 A 
ATOM      8  C8  IND d   1      -3.969   4.952   4.410  0.00  0.00    -0.047 A 
ATOM      9  C9  IND d   1      -3.238   3.894   4.964  0.00  0.00    -0.096 A 
ATOM     10  HN1 IND d   1      -3.297   6.770   3.895  0.00  0.00     0.298 HD
ENDROOT
TORSDOF 0
ENDMDL
