MODEL 1
REMARK minimizedAffinity 5.14778852
REMARK minimizedRMSD -1
REMARK  0 active torsions:
REMARK  status: ('A' for Active; 'I' for Inactive)
ROOT
ATOM      1  N1  IND d   1       0.178  -1.859   2.339  0.00  0.00    -0.196 N 
ATOM      2  C2  IND d   1       0.551  -1.036   3.365  0.00  0.00     0.054 A 
ATOM      3  C3  IND d   1       1.766  -0.498   3.117  0.00  0.00    -0.031 A 
ATOM      4  C4  IND d   1       3.276  -0.749   1.047  0.00  0.00     0.051 A 
ATOM      5  C5  IND d   1       3.378  -1.426  -0.136  0.00  0.00    -0.031 A 
ATOM      6  C6  IND d   1       2.398  -2.297  -0.564  0.00  0.00     0.015 A 
ATOM      7  C7  IND d   1       1.268  -2.517   0.173  0.00  0.00    -0.016 A 
ATOM      8  C8  IND d   1       1.164  -1.836   1.378  0.00  0.00    -0.047 A 
ATOM      9  C9  IND d   1       2.175  -0.983   1.838  0.00  0.00    -0.096 A 
ATOM     10  HN1 IND d   1      -0.550  -2.314   2.301  0.00  0.00     0.298 HD
ENDROOT
TORSDOF 0
ENDMDL
