MODEL 1
REMARK minimizedAffinity 10.5116453
REMARK minimizedRMSD -1
REMARK  0 active torsions:
REMARK  status: ('A' for Active; 'I' for Inactive)
ROOT
ATOM      1  N1  IND d   1      -2.929   3.430  -2.575  0.00  0.00    -0.196 N 
ATOM      2  C2  IND d   1      -2.723   2.098  -2.347  0.00  0.00     0.054 A 
ATOM      3  C3  IND d   1      -3.578   1.357  -3.087  0.00  0.00    -0.031 A 
ATOM      4  C4  IND d   1      -5.330   2.117  -4.813  0.00  0.00     0.051 A 
ATOM      5  C5  IND d   1      -5.909   3.239  -5.338  0.00  0.00    -0.031 A 
ATOM      6  C6  IND d   1      -5.514   4.507  -4.963  0.00  0.00     0.015 A 
ATOM      7  C7  IND d   1      -4.514   4.701  -4.053  0.00  0.00    -0.016 A 
ATOM      8  C8  IND d   1      -3.928   3.565  -3.513  0.00  0.00    -0.047 A 
ATOM      9  C9  IND d   1      -4.353   2.276  -3.858  0.00  0.00    -0.096 A 
ATOM     10  HN1 IND d   1      -2.505   4.075  -2.196  0.00  0.00     0.298 HD
ENDROOT
TORSDOF 0
ENDMDL
