MODEL 1
REMARK minimizedAffinity 9.60585117
REMARK minimizedRMSD -1
REMARK  0 active torsions:
REMARK  status: ('A' for Active; 'I' for Inactive)
ROOT
ATOM      1  N1  IND d   1       0.556  -2.678   0.174  0.00  0.00    -0.196 N 
ATOM      2  C2  IND d   1       1.880  -2.659  -0.165  0.00  0.00     0.054 A 
ATOM      3  C3  IND d   1       2.561  -1.816   0.643  0.00  0.00    -0.031 A 
ATOM      4  C4  IND d   1       1.722  -0.441   2.651  0.00  0.00     0.051 A 
ATOM      5  C5  IND d   1       0.582  -0.104   3.325  0.00  0.00    -0.031 A 
ATOM      6  C6  IND d   1      -0.650  -0.619   2.977  0.00  0.00     0.015 A 
ATOM      7  C7  IND d   1      -0.786  -1.505   1.945  0.00  0.00    -0.016 A 
ATOM      8  C8  IND d   1       0.369  -1.844   1.255  0.00  0.00    -0.047 A 
ATOM      9  C9  IND d   1       1.615  -1.291   1.576  0.00  0.00    -0.096 A 
ATOM     10  HN1 IND d   1      -0.057  -3.133  -0.221  0.00  0.00     0.298 HD
ENDROOT
TORSDOF 0
ENDMDL
