MODEL 1
REMARK minimizedAffinity 12.3798265
REMARK minimizedRMSD -1
REMARK  0 active torsions:
REMARK  status: ('A' for Active; 'I' for Inactive)
ROOT
ATOM      1  N1  IND d   1      -0.948  -4.694   1.727  0.00  0.00    -0.196 N 
ATOM      2  C2  IND d   1      -0.158  -5.461   0.916  0.00  0.00     0.054 A 
ATOM      3  C3  IND d   1       0.903  -4.746   0.479  0.00  0.00    -0.031 A 
ATOM      4  C4  IND d   1       1.595  -2.333   1.050  0.00  0.00     0.051 A 
ATOM      5  C5  IND d   1       1.170  -1.220   1.720  0.00  0.00    -0.031 A 
ATOM      6  C6  IND d   1      -0.005  -1.210   2.444  0.00  0.00     0.015 A 
ATOM      7  C7  IND d   1      -0.797  -2.320   2.534  0.00  0.00    -0.016 A 
ATOM      8  C8  IND d   1      -0.372  -3.449   1.849  0.00  0.00    -0.047 A 
ATOM      9  C9  IND d   1       0.798  -3.453   1.078  0.00  0.00    -0.096 A 
ATOM     10  HN1 IND d   1      -1.681  -4.948   2.098  0.00  0.00     0.298 HD
ENDROOT
TORSDOF 0
ENDMDL
