MODEL 1
REMARK minimizedAffinity 1.1392889
REMARK minimizedRMSD -1
REMARK  1 active torsions:
REMARK  status: ('A' for Active; 'I' for Inactive)
REMARK    1  A    between atoms: C1_2  and  C2_3 
ROOT
ATOM      1  C2  UNL d   1      -1.992   2.220  -3.819  0.00  0.00    -0.081 A 
ATOM      2  C3  UNL d   1      -1.848   1.541  -5.035  0.00  0.00     0.006 A 
ATOM      3  C4  UNL d   1      -2.821   0.633  -5.459  0.00  0.00     0.002 A 
ATOM      4  C5  UNL d   1      -3.958   0.396  -4.679  0.00  0.00    -0.080 A 
ATOM      5  C6  UNL d   1      -5.025  -0.553  -5.137  0.00  0.00     0.076 C 
ATOM      6  C7  UNL d   1      -4.093   1.060  -3.456  0.00  0.00     0.002 A 
ATOM      7  C8  UNL d   1      -3.120   1.967  -3.031  0.00  0.00     0.006 A 
ENDROOT
BRANCH   1   8
ATOM      8  C1  UNL d   1      -0.975   3.247  -3.389  0.00  0.00     0.054 C 
ATOM      9  C   UNL d   1       0.351   3.048  -4.110  0.00  0.00     0.018 C 
ENDBRANCH   1   8
TORSDOF 1
ENDMDL
