MODEL 1
REMARK minimizedAffinity 2.8192842
REMARK minimizedRMSD -1
REMARK  1 active torsions:
REMARK  status: ('A' for Active; 'I' for Inactive)
REMARK    1  A    between atoms: C1_2  and  C2_3 
ROOT
ATOM      1  C2  UNL d   1       0.955  -0.787   0.800  0.00  0.00    -0.081 A 
ATOM      2  C3  UNL d   1       1.176  -2.150   1.034  0.00  0.00     0.006 A 
ATOM      3  C4  UNL d   1       0.387  -2.848   1.951  0.00  0.00     0.002 A 
ATOM      4  C5  UNL d   1      -0.640  -2.198   2.643  0.00  0.00    -0.080 A 
ATOM      5  C6  UNL d   1      -1.514  -2.944   3.608  0.00  0.00     0.076 C 
ATOM      6  C7  UNL d   1      -0.850  -0.833   2.423  0.00  0.00     0.002 A 
ATOM      7  C8  UNL d   1      -0.061  -0.134   1.507  0.00  0.00     0.006 A 
ENDROOT
BRANCH   1   8
ATOM      8  C1  UNL d   1       1.761  -0.046  -0.236  0.00  0.00     0.054 C 
ATOM      9  C   UNL d   1       3.109   0.391   0.321  0.00  0.00     0.018 C 
ENDBRANCH   1   8
TORSDOF 1
ENDMDL
