MODEL 1
REMARK minimizedAffinity -3.21177149
REMARK minimizedRMSD -1
REMARK  1 active torsions:
REMARK  status: ('A' for Active; 'I' for Inactive)
REMARK    1  A    between atoms: C1_2  and  C2_3 
ROOT
ATOM      1  C2  UNL d   1       0.816  -2.286   2.118  0.00  0.00    -0.081 A 
ATOM      2  C3  UNL d   1      -0.170  -2.384   3.107  0.00  0.00     0.006 A 
ATOM      3  C4  UNL d   1      -1.316  -1.587   3.047  0.00  0.00     0.002 A 
ATOM      4  C5  UNL d   1      -1.499  -0.686   1.993  0.00  0.00    -0.080 A 
ATOM      5  C6  UNL d   1      -2.738   0.153   1.900  0.00  0.00     0.076 C 
ATOM      6  C7  UNL d   1      -0.506  -0.575   1.014  0.00  0.00     0.002 A 
ATOM      7  C8  UNL d   1       0.640  -1.371   1.074  0.00  0.00     0.006 A 
ENDROOT
BRANCH   1   8
ATOM      8  C1  UNL d   1       2.022  -3.190   2.145  0.00  0.00     0.054 C 
ATOM      9  C   UNL d   1       1.843  -4.380   1.215  0.00  0.00     0.018 C 
ENDBRANCH   1   8
TORSDOF 1
ENDMDL
