MODEL 1
REMARK minimizedAffinity 0.300914973
REMARK minimizedRMSD -1
REMARK  1 active torsions:
REMARK  status: ('A' for Active; 'I' for Inactive)
REMARK    1  A    between atoms: C1_2  and  C2_3 
ROOT
ATOM      1  C2  UNL d   1      -0.680  -0.977   2.034  0.00  0.00    -0.081 A 
ATOM      2  C3  UNL d   1       0.065  -1.326   0.901  0.00  0.00     0.006 A 
ATOM      3  C4  UNL d   1       0.880  -2.460   0.911  0.00  0.00     0.002 A 
ATOM      4  C5  UNL d   1       0.958  -3.268   2.050  0.00  0.00    -0.080 A 
ATOM      5  C6  UNL d   1       1.806  -4.505   2.064  0.00  0.00     0.076 C 
ATOM      6  C7  UNL d   1       0.227  -2.911   3.188  0.00  0.00     0.002 A 
ATOM      7  C8  UNL d   1      -0.588  -1.776   3.179  0.00  0.00     0.006 A 
ENDROOT
BRANCH   1   8
ATOM      8  C1  UNL d   1      -1.611   0.208   2.005  0.00  0.00     0.054 C 
ATOM      9  C   UNL d   1      -2.875  -0.099   1.215  0.00  0.00     0.018 C 
ENDBRANCH   1   8
TORSDOF 1
ENDMDL
