MODEL 1
REMARK minimizedAffinity -1.995713
REMARK minimizedRMSD -1
REMARK  1 active torsions:
REMARK  status: ('A' for Active; 'I' for Inactive)
REMARK    1  A    between atoms: C1_2  and  C2_3 
ROOT
ATOM      1  C2  UNL d   1       0.475  -2.093   1.433  0.00  0.00    -0.081 A 
ATOM      2  C3  UNL d   1      -0.645  -1.446   1.972  0.00  0.00     0.006 A 
ATOM      3  C4  UNL d   1      -1.042  -0.197   1.489  0.00  0.00     0.002 A 
ATOM      4  C5  UNL d   1      -0.332   0.423   0.455  0.00  0.00    -0.080 A 
ATOM      5  C6  UNL d   1      -0.765   1.750  -0.093  0.00  0.00     0.076 C 
ATOM      6  C7  UNL d   1       0.797  -0.215  -0.071  0.00  0.00     0.002 A 
ATOM      7  C8  UNL d   1       1.195  -1.464   0.411  0.00  0.00     0.006 A 
ENDROOT
BRANCH   1   8
ATOM      8  C1  UNL d   1       0.867  -3.469   1.907  0.00  0.00     0.054 C 
ATOM      9  C   UNL d   1       1.945  -4.073   1.019  0.00  0.00     0.018 C 
ENDBRANCH   1   8
TORSDOF 1
ENDMDL
