MODEL 1
REMARK minimizedAffinity 17.4349499
REMARK minimizedRMSD -1
REMARK  0 active torsions:
REMARK  status: ('A' for Active; 'I' for Inactive)
ROOT
ATOM      1  C   UNL d   1      -0.946  -3.178   0.853  0.00  0.00    -0.002 A 
ATOM      2  C1  UNL d   1      -0.569  -4.222   0.020  0.00  0.00     0.010 A 
ATOM      3  C2  UNL d   1      -0.735  -4.122  -1.362  0.00  0.00     0.041 A 
ATOM      4  C3  UNL d   1      -1.290  -2.944  -1.899  0.00  0.00    -0.075 A 
ATOM      5  S   UNL d   1      -1.587  -2.599  -3.562  0.00  0.00     0.015 SA
ATOM      6  C4  UNL d   1      -2.220  -1.057  -3.206  0.00  0.00     0.022 A 
ATOM      7  C5  UNL d   1      -2.213  -0.796  -1.856  0.00  0.00     0.026 A 
ATOM      8  C6  UNL d   1      -1.677  -1.879  -1.081  0.00  0.00    -0.082 A 
ATOM      9  C7  UNL d   1      -1.496  -2.011   0.317  0.00  0.00     0.045 A 
ENDROOT
TORSDOF 0
ENDMDL
