MODEL 1
REMARK minimizedAffinity 21.1901646
REMARK minimizedRMSD -1
REMARK  0 active torsions:
REMARK  status: ('A' for Active; 'I' for Inactive)
ROOT
ATOM      1  C   UNL d   1      -2.272   2.885  -4.085  0.00  0.00    -0.002 A 
ATOM      2  C1  UNL d   1      -2.984   2.029  -4.912  0.00  0.00     0.010 A 
ATOM      3  C2  UNL d   1      -4.153   2.459  -5.544  0.00  0.00     0.041 A 
ATOM      4  C3  UNL d   1      -4.596   3.779  -5.330  0.00  0.00    -0.075 A 
ATOM      5  S   UNL d   1      -5.999   4.526  -5.999  0.00  0.00     0.015 SA
ATOM      6  C4  UNL d   1      -5.685   6.000  -5.203  0.00  0.00     0.022 A 
ATOM      7  C5  UNL d   1      -4.543   5.942  -4.441  0.00  0.00     0.026 A 
ATOM      8  C6  UNL d   1      -3.896   4.661  -4.502  0.00  0.00    -0.082 A 
ATOM      9  C7  UNL d   1      -2.716   4.194  -3.875  0.00  0.00     0.045 A 
ENDROOT
TORSDOF 0
ENDMDL
