MODEL 1
REMARK minimizedAffinity 15.5578918
REMARK minimizedRMSD -1
REMARK  0 active torsions:
REMARK  status: ('A' for Active; 'I' for Inactive)
ROOT
ATOM      1  C   UNL d   1       4.706   5.193  -0.309  0.00  0.00    -0.002 A 
ATOM      2  C1  UNL d   1       4.250   3.901  -0.527  0.00  0.00     0.010 A 
ATOM      3  C2  UNL d   1       4.054   3.027   0.545  0.00  0.00     0.041 A 
ATOM      4  C3  UNL d   1       4.325   3.479   1.851  0.00  0.00    -0.075 A 
ATOM      5  S   UNL d   1       4.157   2.585   3.316  0.00  0.00     0.015 SA
ATOM      6  C4  UNL d   1       4.685   3.898   4.265  0.00  0.00     0.022 A 
ATOM      7  C5  UNL d   1       4.987   4.999   3.500  0.00  0.00     0.026 A 
ATOM      8  C6  UNL d   1       4.784   4.776   2.096  0.00  0.00    -0.082 A 
ATOM      9  C7  UNL d   1       4.974   5.638   0.989  0.00  0.00     0.045 A 
ENDROOT
TORSDOF 0
ENDMDL
