MODEL 1
REMARK minimizedAffinity 5.94824076
REMARK minimizedRMSD -1
REMARK  0 active torsions:
REMARK  status: ('A' for Active; 'I' for Inactive)
ROOT
ATOM      1  C   UNL d   1      -4.991   5.431   5.777  0.00  0.00    -0.002 A 
ATOM      2  C1  UNL d   1      -3.614   5.254   5.793  0.00  0.00     0.010 A 
ATOM      3  C2  UNL d   1      -3.064   3.972   5.858  0.00  0.00     0.041 A 
ATOM      4  C3  UNL d   1      -3.929   2.861   5.904  0.00  0.00    -0.075 A 
ATOM      5  S   UNL d   1      -3.481   1.198   5.985  0.00  0.00     0.015 SA
ATOM      6  C4  UNL d   1      -5.106   0.684   5.999  0.00  0.00     0.022 A 
ATOM      7  C5  UNL d   1      -5.982   1.742   5.945  0.00  0.00     0.026 A 
ATOM      8  C6  UNL d   1      -5.318   3.014   5.888  0.00  0.00    -0.082 A 
ATOM      9  C7  UNL d   1      -5.845   4.326   5.823  0.00  0.00     0.045 A 
ENDROOT
TORSDOF 0
ENDMDL
