MODEL 1
REMARK minimizedAffinity 13.3741779
REMARK minimizedRMSD -1
REMARK  0 active torsions:
REMARK  status: ('A' for Active; 'I' for Inactive)
ROOT
ATOM      1  C   UNL d   1      -1.147  -1.915  -0.822  0.00  0.00    -0.002 A 
ATOM      2  C1  UNL d   1      -1.830  -1.596   0.343  0.00  0.00     0.010 A 
ATOM      3  C2  UNL d   1      -1.850  -2.485   1.420  0.00  0.00     0.041 A 
ATOM      4  C3  UNL d   1      -1.165  -3.711   1.305  0.00  0.00    -0.075 A 
ATOM      5  S   UNL d   1      -1.051  -4.954   2.494  0.00  0.00     0.015 SA
ATOM      6  C4  UNL d   1      -0.093  -5.936   1.484  0.00  0.00     0.022 A 
ATOM      7  C5  UNL d   1       0.144  -5.346   0.265  0.00  0.00     0.026 A 
ATOM      8  C6  UNL d   1      -0.469  -4.053   0.142  0.00  0.00    -0.082 A 
ATOM      9  C7  UNL d   1      -0.468  -3.131  -0.932  0.00  0.00     0.045 A 
ENDROOT
TORSDOF 0
ENDMDL
