MODEL 1
REMARK minimizedAffinity 16.7868748
REMARK minimizedRMSD -1
REMARK  0 active torsions:
REMARK  status: ('A' for Active; 'I' for Inactive)
ROOT
ATOM      1  C   UNL d   1      -3.324  -2.413   0.781  0.00  0.00    -0.002 A 
ATOM      2  C1  UNL d   1      -2.089  -2.949   0.446  0.00  0.00     0.010 A 
ATOM      3  C2  UNL d   1      -1.357  -2.431  -0.624  0.00  0.00     0.041 A 
ATOM      4  C3  UNL d   1      -1.892  -1.354  -1.358  0.00  0.00    -0.075 A 
ATOM      5  S   UNL d   1      -1.174  -0.557  -2.708  0.00  0.00     0.015 SA
ATOM      6  C4  UNL d   1      -2.490   0.514  -2.870  0.00  0.00     0.022 A 
ATOM      7  C5  UNL d   1      -3.462   0.283  -1.926  0.00  0.00     0.026 A 
ATOM      8  C6  UNL d   1      -3.134  -0.797  -1.039  0.00  0.00    -0.082 A 
ATOM      9  C7  UNL d   1      -3.852  -1.345   0.051  0.00  0.00     0.045 A 
ENDROOT
TORSDOF 0
ENDMDL
