MODEL 1
REMARK minimizedAffinity 14.6105366
REMARK minimizedRMSD -1
REMARK  0 active torsions:
REMARK  status: ('A' for Active; 'I' for Inactive)
ROOT
ATOM      1  C   UNL d   1      -1.501  -0.716   5.907  0.00  0.00    -0.002 A 
ATOM      2  C1  UNL d   1      -2.543  -1.632   5.893  0.00  0.00     0.010 A 
ATOM      3  C2  UNL d   1      -3.870  -1.199   5.912  0.00  0.00     0.041 A 
ATOM      4  C3  UNL d   1      -4.134   0.185   5.943  0.00  0.00    -0.075 A 
ATOM      5  S   UNL d   1      -5.681   0.947   5.969  0.00  0.00     0.015 SA
ATOM      6  C4  UNL d   1      -4.994   2.507   5.999  0.00  0.00     0.022 A 
ATOM      7  C5  UNL d   1      -3.620   2.465   5.990  0.00  0.00     0.026 A 
ATOM      8  C6  UNL d   1      -3.102   1.127   5.957  0.00  0.00    -0.082 A 
ATOM      9  C7  UNL d   1      -1.767   0.655   5.938  0.00  0.00     0.045 A 
ENDROOT
TORSDOF 0
ENDMDL
