MODEL 1
REMARK minimizedAffinity 14.3058405
REMARK minimizedRMSD -1
REMARK  0 active torsions:
REMARK  status: ('A' for Active; 'I' for Inactive)
ROOT
ATOM      1  C   UNL d   1      -0.434  -5.351   0.464  0.00  0.00    -0.002 A 
ATOM      2  C1  UNL d   1      -0.405  -6.000  -0.762  0.00  0.00     0.010 A 
ATOM      3  C2  UNL d   1      -0.669  -5.300  -1.942  0.00  0.00     0.041 A 
ATOM      4  C3  UNL d   1      -0.963  -3.925  -1.867  0.00  0.00    -0.075 A 
ATOM      5  S   UNL d   1      -1.317  -2.865  -3.180  0.00  0.00     0.015 SA
ATOM      6  C4  UNL d   1      -1.514  -1.526  -2.143  0.00  0.00     0.022 A 
ATOM      7  C5  UNL d   1      -1.319  -1.862  -0.825  0.00  0.00     0.026 A 
ATOM      8  C6  UNL d   1      -0.997  -3.249  -0.644  0.00  0.00    -0.082 A 
ATOM      9  C7  UNL d   1      -0.727  -3.987   0.534  0.00  0.00     0.045 A 
ENDROOT
TORSDOF 0
ENDMDL
