MODEL 1
REMARK minimizedAffinity 10.5867758
REMARK minimizedRMSD -1
REMARK  0 active torsions:
REMARK  status: ('A' for Active; 'I' for Inactive)
ROOT
ATOM      1  C   UNL d   1      -1.725  -2.829   1.254  0.00  0.00    -0.002 A 
ATOM      2  C1  UNL d   1      -0.836  -3.622   0.542  0.00  0.00     0.010 A 
ATOM      3  C2  UNL d   1      -0.613  -3.395  -0.817  0.00  0.00     0.041 A 
ATOM      4  C3  UNL d   1      -1.303  -2.345  -1.455  0.00  0.00    -0.075 A 
ATOM      5  S   UNL d   1      -1.187  -1.880  -3.111  0.00  0.00     0.015 SA
ATOM      6  C4  UNL d   1      -2.313  -0.617  -2.913  0.00  0.00     0.022 A 
ATOM      7  C5  UNL d   1      -2.777  -0.537  -1.621  0.00  0.00     0.026 A 
ATOM      8  C6  UNL d   1      -2.202  -1.532  -0.760  0.00  0.00    -0.082 A 
ATOM      9  C7  UNL d   1      -2.407  -1.788   0.617  0.00  0.00     0.045 A 
ENDROOT
TORSDOF 0
ENDMDL
