MODEL 1
REMARK minimizedAffinity 14.6022043
REMARK minimizedRMSD -1
REMARK  0 active torsions:
REMARK  status: ('A' for Active; 'I' for Inactive)
ROOT
ATOM      1  C   UNL d   1       0.810   3.020  -5.330  0.00  0.00    -0.002 A 
ATOM      2  C1  UNL d   1       0.739   2.262  -4.170  0.00  0.00     0.010 A 
ATOM      3  C2  UNL d   1      -0.497   1.869  -3.653  0.00  0.00     0.041 A 
ATOM      4  C3  UNL d   1      -1.672   2.253  -4.329  0.00  0.00    -0.075 A 
ATOM      5  S   UNL d   1      -3.296   1.886  -3.881  0.00  0.00     0.015 SA
ATOM      6  C4  UNL d   1      -3.934   2.726  -5.220  0.00  0.00     0.022 A 
ATOM      7  C5  UNL d   1      -2.946   3.280  -6.000  0.00  0.00     0.026 A 
ATOM      8  C6  UNL d   1      -1.626   3.015  -5.499  0.00  0.00    -0.082 A 
ATOM      9  C7  UNL d   1      -0.358   3.399  -5.998  0.00  0.00     0.045 A 
ENDROOT
TORSDOF 0
ENDMDL
