MODEL 1
REMARK minimizedAffinity 21.7942066
REMARK minimizedRMSD -1
REMARK  0 active torsions:
REMARK  status: ('A' for Active; 'I' for Inactive)
ROOT
ATOM      1  C   UNL d   1       1.322   0.636  -2.519  0.00  0.00    -0.002 A 
ATOM      2  C1  UNL d   1       1.447  -0.354  -1.554  0.00  0.00     0.010 A 
ATOM      3  C2  UNL d   1       2.135  -0.103  -0.365  0.00  0.00     0.041 A 
ATOM      4  C3  UNL d   1       2.700   1.171  -0.160  0.00  0.00    -0.075 A 
ATOM      5  S   UNL d   1       3.586   1.705   1.219  0.00  0.00     0.015 SA
ATOM      6  C4  UNL d   1       3.818   3.260   0.560  0.00  0.00     0.022 A 
ATOM      7  C5  UNL d   1       3.241   3.385  -0.681  0.00  0.00     0.026 A 
ATOM      8  C6  UNL d   1       2.586   2.184  -1.116  0.00  0.00    -0.082 A 
ATOM      9  C7  UNL d   1       1.883   1.899  -2.311  0.00  0.00     0.045 A 
ENDROOT
TORSDOF 0
ENDMDL
