MODEL 1
REMARK minimizedAffinity 17.2675781
REMARK minimizedRMSD -1
REMARK  0 active torsions:
REMARK  status: ('A' for Active; 'I' for Inactive)
ROOT
ATOM      1  C   UNL d   1      -3.373  -2.330   5.122  0.00  0.00    -0.002 A 
ATOM      2  C1  UNL d   1      -4.755  -2.267   5.235  0.00  0.00     0.010 A 
ATOM      3  C2  UNL d   1      -5.390  -1.054   5.507  0.00  0.00     0.041 A 
ATOM      4  C3  UNL d   1      -4.607   0.107   5.663  0.00  0.00    -0.075 A 
ATOM      5  S   UNL d   1      -5.167   1.702   5.999  0.00  0.00     0.015 SA
ATOM      6  C4  UNL d   1      -3.586   2.338   6.000  0.00  0.00     0.022 A 
ATOM      7  C5  UNL d   1      -2.641   1.370   5.752  0.00  0.00     0.026 A 
ATOM      8  C6  UNL d   1      -3.214   0.069   5.553  0.00  0.00    -0.082 A 
ATOM      9  C7  UNL d   1      -2.599  -1.177   5.277  0.00  0.00     0.045 A 
ENDROOT
TORSDOF 0
ENDMDL
