MODEL 1
REMARK minimizedAffinity 17.3177586
REMARK minimizedRMSD -1
REMARK  0 active torsions:
REMARK  status: ('A' for Active; 'I' for Inactive)
ROOT
ATOM      1  C   UNL d   1      -5.499   5.998  -4.495  0.00  0.00    -0.002 A 
ATOM      2  C1  UNL d   1      -5.988   5.279  -5.577  0.00  0.00     0.010 A 
ATOM      3  C2  UNL d   1      -5.352   4.110  -5.998  0.00  0.00     0.041 A 
ATOM      4  C3  UNL d   1      -4.206   3.670  -5.307  0.00  0.00    -0.075 A 
ATOM      5  S   UNL d   1      -3.264   2.266  -5.644  0.00  0.00     0.015 SA
ATOM      6  C4  UNL d   1      -2.190   2.587  -4.360  0.00  0.00     0.022 A 
ATOM      7  C5  UNL d   1      -2.528   3.733  -3.680  0.00  0.00     0.026 A 
ATOM      8  C6  UNL d   1      -3.695   4.376  -4.214  0.00  0.00    -0.082 A 
ATOM      9  C7  UNL d   1      -4.362   5.558  -3.812  0.00  0.00     0.045 A 
ENDROOT
TORSDOF 0
ENDMDL
