MODEL 1
REMARK minimizedAffinity -1.54720879
REMARK minimizedRMSD -1
REMARK  0 active torsions:
REMARK  status: ('A' for Active; 'I' for Inactive)
ROOT
ATOM      1  C   UNL d   1       2.595  -0.824   0.859  0.00  0.00     0.077 C 
ATOM      2  C1  UNL d   1       1.174  -0.386   0.669  0.00  0.00    -0.074 A 
ATOM      3  C2  UNL d   1       0.157  -1.321   0.447  0.00  0.00    -0.005 A 
ATOM      4  C3  UNL d   1      -1.162  -0.899   0.281  0.00  0.00     0.006 A 
ATOM      5  C4  UNL d   1      -1.478   0.459   0.337  0.00  0.00    -0.005 A 
ATOM      6  C5  UNL d   1      -0.475   1.408   0.559  0.00  0.00    -0.074 A 
ATOM      7  C6  UNL d   1      -0.799   2.870   0.632  0.00  0.00     0.077 C 
ATOM      8  C7  UNL d   1       0.847   0.976   0.732  0.00  0.00    -0.001 A 
ENDROOT
TORSDOF 0
ENDMDL
