MODEL 1
REMARK minimizedAffinity -1.81404757
REMARK minimizedRMSD -1
REMARK  0 active torsions:
REMARK  status: ('A' for Active; 'I' for Inactive)
ROOT
ATOM      1  C   UNL d   1      -3.372  -4.368  -1.255  0.00  0.00     0.077 C 
ATOM      2  C1  UNL d   1      -2.043  -3.715  -1.496  0.00  0.00    -0.074 A 
ATOM      3  C2  UNL d   1      -1.435  -3.765  -2.754  0.00  0.00    -0.005 A 
ATOM      4  C3  UNL d   1      -0.204  -3.145  -2.965  0.00  0.00     0.006 A 
ATOM      5  C4  UNL d   1       0.431  -2.470  -1.922  0.00  0.00    -0.005 A 
ATOM      6  C5  UNL d   1      -0.162  -2.409  -0.657  0.00  0.00    -0.074 A 
ATOM      7  C6  UNL d   1       0.503  -1.680   0.473  0.00  0.00     0.077 C 
ATOM      8  C7  UNL d   1      -1.403  -3.029  -0.454  0.00  0.00    -0.001 A 
ENDROOT
TORSDOF 0
ENDMDL
