MODEL 1
REMARK minimizedAffinity -4.12198687
REMARK minimizedRMSD -1
REMARK  0 active torsions:
REMARK  status: ('A' for Active; 'I' for Inactive)
ROOT
ATOM      1  C   UNL d   1       2.703  -0.681   0.746  0.00  0.00     0.077 C 
ATOM      2  C1  UNL d   1       1.407   0.032   0.495  0.00  0.00    -0.074 A 
ATOM      3  C2  UNL d   1       0.185  -0.641   0.592  0.00  0.00    -0.005 A 
ATOM      4  C3  UNL d   1      -1.012   0.038   0.365  0.00  0.00     0.006 A 
ATOM      5  C4  UNL d   1      -0.999   1.395   0.039  0.00  0.00    -0.005 A 
ATOM      6  C5  UNL d   1       0.213   2.085  -0.062  0.00  0.00    -0.074 A 
ATOM      7  C6  UNL d   1       0.244   3.546  -0.401  0.00  0.00     0.077 C 
ATOM      8  C7  UNL d   1       1.412   1.397   0.175  0.00  0.00    -0.001 A 
ENDROOT
TORSDOF 0
ENDMDL
