MODEL 1
REMARK minimizedAffinity -5.28909779
REMARK minimizedRMSD -1
REMARK  0 active torsions:
REMARK  status: ('A' for Active; 'I' for Inactive)
ROOT
ATOM      1  C   UNL d   1      -2.605   0.007   1.505  0.00  0.00     0.077 C 
ATOM      2  C1  UNL d   1      -1.257   0.378   0.964  0.00  0.00    -0.074 A 
ATOM      3  C2  UNL d   1      -0.257  -0.587   0.801  0.00  0.00    -0.005 A 
ATOM      4  C3  UNL d   1       0.989  -0.229   0.288  0.00  0.00     0.006 A 
ATOM      5  C4  UNL d   1       1.249   1.096  -0.067  0.00  0.00    -0.005 A 
ATOM      6  C5  UNL d   1       0.262   2.074   0.089  0.00  0.00    -0.074 A 
ATOM      7  C6  UNL d   1       0.521   3.501  -0.296  0.00  0.00     0.077 C 
ATOM      8  C7  UNL d   1      -0.991   1.705   0.599  0.00  0.00    -0.001 A 
ENDROOT
TORSDOF 0
ENDMDL
