MODEL 1
REMARK minimizedAffinity -4.29312468
REMARK minimizedRMSD -1
REMARK  0 active torsions:
REMARK  status: ('A' for Active; 'I' for Inactive)
ROOT
ATOM      1  C   UNL d   1      -0.847  -3.018  -2.687  0.00  0.00     0.077 C 
ATOM      2  C1  UNL d   1      -0.299  -2.184  -1.568  0.00  0.00    -0.074 A 
ATOM      3  C2  UNL d   1       0.419  -2.769  -0.520  0.00  0.00    -0.005 A 
ATOM      4  C3  UNL d   1       0.930  -1.979   0.510  0.00  0.00     0.006 A 
ATOM      5  C4  UNL d   1       0.729  -0.598   0.502  0.00  0.00    -0.005 A 
ATOM      6  C5  UNL d   1       0.014   0.005  -0.538  0.00  0.00    -0.074 A 
ATOM      7  C6  UNL d   1      -0.203   1.489  -0.567  0.00  0.00     0.077 C 
ATOM      8  C7  UNL d   1      -0.491  -0.795  -1.572  0.00  0.00    -0.001 A 
ENDROOT
TORSDOF 0
ENDMDL
