MODEL 1
REMARK minimizedAffinity -2.11990476
REMARK minimizedRMSD -1
REMARK  0 active torsions:
REMARK  status: ('A' for Active; 'I' for Inactive)
ROOT
ATOM      1  C   UNL d   1       3.466   0.722   0.661  0.00  0.00     0.077 C 
ATOM      2  C1  UNL d   1       1.974   0.874   0.657  0.00  0.00    -0.074 A 
ATOM      3  C2  UNL d   1       1.142  -0.203   0.335  0.00  0.00    -0.005 A 
ATOM      4  C3  UNL d   1      -0.244  -0.049   0.344  0.00  0.00     0.006 A 
ATOM      5  C4  UNL d   1      -0.812   1.182   0.676  0.00  0.00    -0.005 A 
ATOM      6  C5  UNL d   1       0.004   2.270   1.001  0.00  0.00    -0.074 A 
ATOM      7  C6  UNL d   1      -0.590   3.597   1.369  0.00  0.00     0.077 C 
ATOM      8  C7  UNL d   1       1.396   2.105   0.996  0.00  0.00    -0.001 A 
ENDROOT
TORSDOF 0
ENDMDL
