MODEL 1
REMARK minimizedAffinity -0.452223808
REMARK minimizedRMSD -1
REMARK  0 active torsions:
REMARK  status: ('A' for Active; 'I' for Inactive)
ROOT
ATOM      1  C   UNL d   1      -0.180  -1.722  -0.371  0.00  0.00     0.077 C 
ATOM      2  C1  UNL d   1       0.238  -0.286  -0.266  0.00  0.00    -0.074 A 
ATOM      3  C2  UNL d   1      -0.712   0.729  -0.108  0.00  0.00    -0.005 A 
ATOM      4  C3  UNL d   1      -0.307   2.060  -0.002  0.00  0.00     0.006 A 
ATOM      5  C4  UNL d   1       1.048   2.389  -0.053  0.00  0.00    -0.005 A 
ATOM      6  C5  UNL d   1       2.011   1.387  -0.210  0.00  0.00    -0.074 A 
ATOM      7  C6  UNL d   1       3.472   1.722  -0.257  0.00  0.00     0.077 C 
ATOM      8  C7  UNL d   1       1.598   0.052  -0.309  0.00  0.00    -0.001 A 
ENDROOT
TORSDOF 0
ENDMDL
