MODEL 1
REMARK minimizedAffinity -4.82498026
REMARK minimizedRMSD -1
REMARK  0 active torsions:
REMARK  status: ('A' for Active; 'I' for Inactive)
ROOT
ATOM      1  C   UNL d   1       0.738   3.776   0.294  0.00  0.00     0.077 C 
ATOM      2  C1  UNL d   1       0.504   2.297   0.376  0.00  0.00    -0.074 A 
ATOM      3  C2  UNL d   1       1.558   1.392   0.211  0.00  0.00    -0.005 A 
ATOM      4  C3  UNL d   1       1.327   0.020   0.300  0.00  0.00     0.006 A 
ATOM      5  C4  UNL d   1       0.042  -0.462   0.554  0.00  0.00    -0.005 A 
ATOM      6  C5  UNL d   1      -1.024   0.428   0.722  0.00  0.00    -0.074 A 
ATOM      7  C6  UNL d   1      -2.409  -0.072   1.005  0.00  0.00     0.077 C 
ATOM      8  C7  UNL d   1      -0.782   1.806   0.639  0.00  0.00    -0.001 A 
ENDROOT
TORSDOF 0
ENDMDL
