MODEL 1
REMARK minimizedAffinity -0.115635052
REMARK minimizedRMSD -1
REMARK  0 active torsions:
REMARK  status: ('A' for Active; 'I' for Inactive)
ROOT
ATOM      1  C   UNL d   1      -0.889   3.149   2.165  0.00  0.00     0.077 C 
ATOM      2  C1  UNL d   1      -0.272   2.247   1.137  0.00  0.00    -0.074 A 
ATOM      3  C2  UNL d   1       0.736   2.711   0.286  0.00  0.00    -0.005 A 
ATOM      4  C3  UNL d   1       1.307   1.858  -0.658  0.00  0.00     0.006 A 
ATOM      5  C4  UNL d   1       0.876   0.535  -0.761  0.00  0.00    -0.005 A 
ATOM      6  C5  UNL d   1      -0.130   0.053   0.082  0.00  0.00    -0.074 A 
ATOM      7  C6  UNL d   1      -0.598  -1.369  -0.009  0.00  0.00     0.077 C 
ATOM      8  C7  UNL d   1      -0.694   0.915   1.033  0.00  0.00    -0.001 A 
ENDROOT
TORSDOF 0
ENDMDL
