MODEL 1
REMARK minimizedAffinity -6.27812243
REMARK minimizedRMSD -1
REMARK  0 active torsions:
REMARK  status: ('A' for Active; 'I' for Inactive)
ROOT
ATOM      1  C   UNL d   1       2.965   2.616   1.127  0.00  0.00     0.077 C 
ATOM      2  C1  UNL d   1       1.628   2.110   0.674  0.00  0.00    -0.074 A 
ATOM      3  C2  UNL d   1       0.647   2.991   0.208  0.00  0.00    -0.005 A 
ATOM      4  C3  UNL d   1      -0.589   2.505  -0.219  0.00  0.00     0.006 A 
ATOM      5  C4  UNL d   1      -0.855   1.135  -0.185  0.00  0.00    -0.005 A 
ATOM      6  C5  UNL d   1       0.114   0.239   0.276  0.00  0.00    -0.074 A 
ATOM      7  C6  UNL d   1      -0.152  -1.236   0.310  0.00  0.00     0.077 C 
ATOM      8  C7  UNL d   1       1.356   0.735   0.697  0.00  0.00    -0.001 A 
ENDROOT
TORSDOF 0
ENDMDL
