MODEL 1
REMARK minimizedAffinity -1.99756372
REMARK minimizedRMSD -1
REMARK  0 active torsions:
REMARK  status: ('A' for Active; 'I' for Inactive)
ROOT
ATOM      1  C   UNL d   1      -0.954  -0.632   0.377  0.00  0.00     0.077 C 
ATOM      2  C1  UNL d   1       0.356   0.099   0.373  0.00  0.00    -0.074 A 
ATOM      3  C2  UNL d   1       1.568  -0.597   0.419  0.00  0.00    -0.005 A 
ATOM      4  C3  UNL d   1       2.778   0.096   0.404  0.00  0.00     0.006 A 
ATOM      5  C4  UNL d   1       2.789   1.490   0.344  0.00  0.00    -0.005 A 
ATOM      6  C5  UNL d   1       1.587   2.203   0.296  0.00  0.00    -0.074 A 
ATOM      7  C6  UNL d   1       1.581   3.701   0.220  0.00  0.00     0.077 C 
ATOM      8  C7  UNL d   1       0.375   1.499   0.304  0.00  0.00    -0.001 A 
ENDROOT
TORSDOF 0
ENDMDL
