MODEL 1
REMARK minimizedAffinity -4.59650517
REMARK minimizedRMSD -1
REMARK  0 active torsions:
REMARK  status: ('A' for Active; 'I' for Inactive)
ROOT
ATOM      1  C   UNL d   1       1.537  -1.121   0.381  0.00  0.00     0.077 C 
ATOM      2  C1  UNL d   1       0.718   0.126   0.233  0.00  0.00    -0.074 A 
ATOM      3  C2  UNL d   1       1.285   1.305  -0.262  0.00  0.00    -0.005 A 
ATOM      4  C3  UNL d   1       0.508   2.454  -0.403  0.00  0.00     0.006 A 
ATOM      5  C4  UNL d   1      -0.842   2.438  -0.051  0.00  0.00    -0.005 A 
ATOM      6  C5  UNL d   1      -1.427   1.269   0.446  0.00  0.00    -0.074 A 
ATOM      7  C6  UNL d   1      -2.879   1.231   0.820  0.00  0.00     0.077 C 
ATOM      8  C7  UNL d   1      -0.641   0.116   0.578  0.00  0.00    -0.001 A 
ENDROOT
TORSDOF 0
ENDMDL
