MODEL 1
REMARK minimizedAffinity -4.28824615
REMARK minimizedRMSD -1
REMARK  0 active torsions:
REMARK  status: ('A' for Active; 'I' for Inactive)
ROOT
ATOM      1  C   UNL d   1      -0.455  -1.291   0.019  0.00  0.00     0.077 C 
ATOM      2  C1  UNL d   1      -0.133   0.158   0.233  0.00  0.00    -0.074 A 
ATOM      3  C2  UNL d   1      -1.090   1.039   0.747  0.00  0.00    -0.005 A 
ATOM      4  C3  UNL d   1      -0.773   2.382   0.950  0.00  0.00     0.006 A 
ATOM      5  C4  UNL d   1       0.502   2.857   0.641  0.00  0.00    -0.005 A 
ATOM      6  C5  UNL d   1       1.472   1.991   0.127  0.00  0.00    -0.074 A 
ATOM      7  C6  UNL d   1       2.850   2.483  -0.201  0.00  0.00     0.077 C 
ATOM      8  C7  UNL d   1       1.148   0.641  -0.068  0.00  0.00    -0.001 A 
ENDROOT
TORSDOF 0
ENDMDL
