MODEL 1
REMARK minimizedAffinity -4.51422644
REMARK minimizedRMSD -1
REMARK  0 active torsions:
REMARK  status: ('A' for Active; 'I' for Inactive)
ROOT
ATOM      1  C   UNL d   1       0.325   3.409  -0.351  0.00  0.00     0.077 C 
ATOM      2  C1  UNL d   1      -0.268   2.106   0.093  0.00  0.00    -0.074 A 
ATOM      3  C2  UNL d   1      -1.420   2.073   0.885  0.00  0.00    -0.005 A 
ATOM      4  C3  UNL d   1      -1.965   0.852   1.283  0.00  0.00     0.006 A 
ATOM      5  C4  UNL d   1      -1.365  -0.346   0.894  0.00  0.00    -0.005 A 
ATOM      6  C5  UNL d   1      -0.213  -0.333   0.101  0.00  0.00    -0.074 A 
ATOM      7  C6  UNL d   1       0.439  -1.611  -0.334  0.00  0.00     0.077 C 
ATOM      8  C7  UNL d   1       0.325   0.898  -0.300  0.00  0.00    -0.001 A 
ENDROOT
TORSDOF 0
ENDMDL
