MODEL 1
REMARK minimizedAffinity -3.28805876
REMARK minimizedRMSD -1
REMARK  0 active torsions:
REMARK  status: ('A' for Active; 'I' for Inactive)
ROOT
ATOM      1  C   UNL d   1       1.052   3.475  -0.346  0.00  0.00     0.077 C 
ATOM      2  C1  UNL d   1       0.419   2.175   0.055  0.00  0.00    -0.074 A 
ATOM      3  C2  UNL d   1      -0.954   2.093   0.308  0.00  0.00    -0.005 A 
ATOM      4  C3  UNL d   1      -1.530   0.875   0.671  0.00  0.00     0.006 A 
ATOM      5  C4  UNL d   1      -0.740  -0.270   0.784  0.00  0.00    -0.005 A 
ATOM      6  C5  UNL d   1       0.635  -0.206   0.535  0.00  0.00    -0.074 A 
ATOM      7  C6  UNL d   1       1.496  -1.429   0.643  0.00  0.00     0.077 C 
ATOM      8  C7  UNL d   1       1.205   1.019   0.164  0.00  0.00    -0.001 A 
ENDROOT
TORSDOF 0
ENDMDL
