MODEL 1
REMARK minimizedAffinity -4.54004622
REMARK minimizedRMSD -1
REMARK  0 active torsions:
REMARK  status: ('A' for Active; 'I' for Inactive)
ROOT
ATOM      1  C   UNL d   1       2.998  -0.741   0.774  0.00  0.00     0.077 C 
ATOM      2  C1  UNL d   1       1.667  -0.053   0.704  0.00  0.00    -0.074 A 
ATOM      3  C2  UNL d   1       0.484  -0.749   0.971  0.00  0.00    -0.005 A 
ATOM      4  C3  UNL d   1      -0.746  -0.094   0.911  0.00  0.00     0.006 A 
ATOM      5  C4  UNL d   1      -0.805   1.262   0.584  0.00  0.00    -0.005 A 
ATOM      6  C5  UNL d   1       0.368   1.974   0.315  0.00  0.00    -0.074 A 
ATOM      7  C6  UNL d   1       0.323   3.433  -0.027  0.00  0.00     0.077 C 
ATOM      8  C7  UNL d   1       1.600   1.310   0.384  0.00  0.00    -0.001 A 
ENDROOT
TORSDOF 0
ENDMDL
