MODEL 1
REMARK minimizedAffinity 2.07608914
REMARK minimizedRMSD -1
REMARK  1 active torsions:
REMARK  status: ('A' for Active; 'I' for Inactive)
REMARK    1  A    between atoms: C1_2  and  C2_3 
ROOT
ATOM      1  C2  UNL d   1      -4.819   2.491   0.731  0.00  0.00    -0.081 A 
ATOM      2  C3  UNL d   1      -5.955   2.761   1.503  0.00  0.00     0.006 A 
ATOM      3  C4  UNL d   1      -5.999   3.889   2.326  0.00  0.00     0.002 A 
ATOM      4  C5  UNL d   1      -4.913   4.769   2.384  0.00  0.00    -0.080 A 
ATOM      5  C6  UNL d   1      -4.960   6.000   3.240  0.00  0.00     0.076 C 
ATOM      6  C7  UNL d   1      -3.771   4.490   1.626  0.00  0.00     0.002 A 
ATOM      7  C8  UNL d   1      -3.726   3.362   0.804  0.00  0.00     0.006 A 
ENDROOT
BRANCH   1   8
ATOM      8  C1  UNL d   1      -4.792   1.311  -0.206  0.00  0.00     0.054 C 
ATOM      9  C   UNL d   1      -5.691   0.188   0.292  0.00  0.00     0.018 C 
ENDBRANCH   1   8
TORSDOF 1
ENDMDL
