MODEL 1
REMARK minimizedAffinity 4.27364635
REMARK minimizedRMSD -1
REMARK  1 active torsions:
REMARK  status: ('A' for Active; 'I' for Inactive)
REMARK    1  A    between atoms: C1_2  and  C2_3 
ROOT
ATOM      1  C2  UNL d   1       2.346   0.827   0.680  0.00  0.00    -0.081 A 
ATOM      2  C3  UNL d   1       2.908  -0.249  -0.018  0.00  0.00     0.006 A 
ATOM      3  C4  UNL d   1       4.082  -0.080  -0.755  0.00  0.00     0.002 A 
ATOM      4  C5  UNL d   1       4.719   1.165  -0.799  0.00  0.00    -0.080 A 
ATOM      5  C6  UNL d   1       5.997   1.353  -1.562  0.00  0.00     0.076 C 
ATOM      6  C7  UNL d   1       4.148   2.244  -0.116  0.00  0.00     0.002 A 
ATOM      7  C8  UNL d   1       2.974   2.076   0.620  0.00  0.00     0.006 A 
ENDROOT
BRANCH   1   8
ATOM      8  C1  UNL d   1       1.115   0.632   1.528  0.00  0.00     0.054 C 
ATOM      9  C   UNL d   1       1.306   1.212   2.922  0.00  0.00     0.018 C 
ENDBRANCH   1   8
TORSDOF 1
ENDMDL
