MODEL 1
REMARK minimizedAffinity -0.286442071
REMARK minimizedRMSD -1
REMARK  1 active torsions:
REMARK  status: ('A' for Active; 'I' for Inactive)
REMARK    1  A    between atoms: C1_2  and  C2_3 
ROOT
ATOM      1  C2  UNL d   1      -4.188   2.558  -3.309  0.00  0.00    -0.081 A 
ATOM      2  C3  UNL d   1      -3.533   1.919  -4.369  0.00  0.00     0.006 A 
ATOM      3  C4  UNL d   1      -4.110   0.811  -4.994  0.00  0.00     0.002 A 
ATOM      4  C5  UNL d   1      -5.354   0.327  -4.573  0.00  0.00    -0.080 A 
ATOM      5  C6  UNL d   1      -5.998  -0.843  -5.255  0.00  0.00     0.076 C 
ATOM      6  C7  UNL d   1      -6.000   0.954  -3.502  0.00  0.00     0.002 A 
ATOM      7  C8  UNL d   1      -5.423   2.062  -2.877  0.00  0.00     0.006 A 
ENDROOT
BRANCH   1   8
ATOM      8  C1  UNL d   1      -3.598   3.792  -2.676  0.00  0.00     0.054 C 
ATOM      9  C   UNL d   1      -4.395   4.221  -1.453  0.00  0.00     0.018 C 
ENDBRANCH   1   8
TORSDOF 1
ENDMDL
