MODEL 1
REMARK minimizedAffinity 3.92775846
REMARK minimizedRMSD -1
REMARK  1 active torsions:
REMARK  status: ('A' for Active; 'I' for Inactive)
REMARK    1  A    between atoms: C1_2  and  C2_3 
ROOT
ATOM      1  C2  UNL d   1      -3.766   0.718  -3.471  0.00  0.00    -0.081 A 
ATOM      2  C3  UNL d   1      -3.461  -0.278  -2.535  0.00  0.00     0.006 A 
ATOM      3  C4  UNL d   1      -4.075  -0.282  -1.280  0.00  0.00     0.002 A 
ATOM      4  C5  UNL d   1      -5.009   0.703  -0.943  0.00  0.00    -0.080 A 
ATOM      5  C6  UNL d   1      -5.698   0.693   0.389  0.00  0.00     0.076 C 
ATOM      6  C7  UNL d   1      -5.300   1.709  -1.872  0.00  0.00     0.002 A 
ATOM      7  C8  UNL d   1      -4.686   1.714  -3.126  0.00  0.00     0.006 A 
ENDROOT
BRANCH   1   8
ATOM      8  C1  UNL d   1      -3.154   0.689  -4.848  0.00  0.00     0.054 C 
ATOM      9  C   UNL d   1      -4.225   0.677  -5.929  0.00  0.00     0.018 C 
ENDBRANCH   1   8
TORSDOF 1
ENDMDL
