MODEL 1
REMARK minimizedAffinity 9.99800968
REMARK minimizedRMSD -1
REMARK  1 active torsions:
REMARK  status: ('A' for Active; 'I' for Inactive)
REMARK    1  A    between atoms: C1_2  and  C2_3 
ROOT
ATOM      1  C2  UNL d   1      -2.716   0.189  -4.251  0.00  0.00    -0.081 A 
ATOM      2  C3  UNL d   1      -3.971   0.078  -4.863  0.00  0.00     0.006 A 
ATOM      3  C4  UNL d   1      -4.961   1.034  -4.628  0.00  0.00     0.002 A 
ATOM      4  C5  UNL d   1      -4.711   2.122  -3.784  0.00  0.00    -0.080 A 
ATOM      5  C6  UNL d   1      -5.755   3.172  -3.547  0.00  0.00     0.076 C 
ATOM      6  C7  UNL d   1      -3.464   2.224  -3.158  0.00  0.00     0.002 A 
ATOM      7  C8  UNL d   1      -2.474   1.267  -3.392  0.00  0.00     0.006 A 
ENDROOT
BRANCH   1   8
ATOM      8  C1  UNL d   1      -1.625  -0.806  -4.553  0.00  0.00     0.054 C 
ATOM      9  C   UNL d   1      -0.796  -1.111  -3.313  0.00  0.00     0.018 C 
ENDBRANCH   1   8
TORSDOF 1
ENDMDL
