MODEL 1
REMARK minimizedAffinity 1.84797442
REMARK minimizedRMSD -1
REMARK  1 active torsions:
REMARK  status: ('A' for Active; 'I' for Inactive)
REMARK    1  A    between atoms: C1_2  and  C2_3 
ROOT
ATOM      1  C2  UNL d   1      -3.755   2.831  -3.422  0.00  0.00    -0.081 A 
ATOM      2  C3  UNL d   1      -3.128   1.804  -4.137  0.00  0.00     0.006 A 
ATOM      3  C4  UNL d   1      -3.840   0.659  -4.503  0.00  0.00     0.002 A 
ATOM      4  C5  UNL d   1      -5.192   0.526  -4.167  0.00  0.00    -0.080 A 
ATOM      5  C6  UNL d   1      -5.976  -0.684  -4.580  0.00  0.00     0.076 C 
ATOM      6  C7  UNL d   1      -5.813   1.545  -3.437  0.00  0.00     0.002 A 
ATOM      7  C8  UNL d   1      -5.102   2.689  -3.070  0.00  0.00     0.006 A 
ENDROOT
BRANCH   1   8
ATOM      8  C1  UNL d   1      -3.007   4.095  -3.082  0.00  0.00     0.054 C 
ATOM      9  C   UNL d   1      -2.557   4.827  -4.338  0.00  0.00     0.018 C 
ENDBRANCH   1   8
TORSDOF 1
ENDMDL
