MODEL 1
REMARK minimizedAffinity 12.0254631
REMARK minimizedRMSD -1
REMARK  1 active torsions:
REMARK  status: ('A' for Active; 'I' for Inactive)
REMARK    1  A    between atoms: C1_2  and  C2_3 
ROOT
ATOM      1  C2  UNL d   1      -2.293  -4.880  -2.410  0.00  0.00    -0.081 A 
ATOM      2  C3  UNL d   1      -2.155  -4.018  -3.505  0.00  0.00     0.006 A 
ATOM      3  C4  UNL d   1      -2.994  -4.145  -4.615  0.00  0.00     0.002 A 
ATOM      4  C5  UNL d   1      -3.989  -5.128  -4.645  0.00  0.00    -0.080 A 
ATOM      5  C6  UNL d   1      -4.915  -5.255  -5.818  0.00  0.00     0.076 C 
ATOM      6  C7  UNL d   1      -4.115  -6.000  -3.558  0.00  0.00     0.002 A 
ATOM      7  C8  UNL d   1      -3.276  -5.874  -2.448  0.00  0.00     0.006 A 
ENDROOT
BRANCH   1   8
ATOM      8  C1  UNL d   1      -1.433  -4.704  -1.184  0.00  0.00     0.054 C 
ATOM      9  C   UNL d   1      -1.330  -5.999  -0.391  0.00  0.00     0.018 C 
ENDBRANCH   1   8
TORSDOF 1
ENDMDL
