MODEL 1
REMARK minimizedAffinity 0.533118546
REMARK minimizedRMSD -1
REMARK  0 active torsions:
REMARK  status: ('A' for Active; 'I' for Inactive)
ROOT
ATOM      1  N1  IND d   1       4.340   5.984  -2.003  0.00  0.00    -0.196 N 
ATOM      2  C2  IND d   1       5.241   5.309  -1.227  0.00  0.00     0.054 A 
ATOM      3  C3  IND d   1       5.999   4.490  -1.991  0.00  0.00    -0.031 A 
ATOM      4  C4  IND d   1       6.000   4.174  -4.546  0.00  0.00     0.051 A 
ATOM      5  C5  IND d   1       5.330   4.546  -5.677  0.00  0.00    -0.031 A 
ATOM      6  C6  IND d   1       4.277   5.437  -5.642  0.00  0.00     0.015 A 
ATOM      7  C7  IND d   1       3.859   5.999  -4.469  0.00  0.00    -0.016 A 
ATOM      8  C8  IND d   1       4.532   5.618  -3.317  0.00  0.00    -0.047 A 
ATOM      9  C9  IND d   1       5.574   4.683  -3.341  0.00  0.00    -0.096 A 
ATOM     10  HN1 IND d   1       3.751   6.542  -1.717  0.00  0.00     0.298 HD
ENDROOT
TORSDOF 0
ENDMDL
