MODEL 1
REMARK minimizedAffinity 9.62677383
REMARK minimizedRMSD -1
REMARK  0 active torsions:
REMARK  status: ('A' for Active; 'I' for Inactive)
ROOT
ATOM      1  N1  IND d   1       5.999   3.799  -4.127  0.00  0.00    -0.196 N 
ATOM      2  C2  IND d   1       5.009   3.329  -4.944  0.00  0.00     0.054 A 
ATOM      3  C3  IND d   1       3.802   3.763  -4.517  0.00  0.00    -0.031 A 
ATOM      4  C4  IND d   1       3.227   5.334  -2.560  0.00  0.00     0.051 A 
ATOM      5  C5  IND d   1       3.794   5.992  -1.504  0.00  0.00    -0.031 A 
ATOM      6  C6  IND d   1       5.152   5.953  -1.266  0.00  0.00     0.015 A 
ATOM      7  C7  IND d   1       6.000   5.262  -2.084  0.00  0.00    -0.016 A 
ATOM      8  C8  IND d   1       5.427   4.587  -3.153  0.00  0.00    -0.047 A 
ATOM      9  C9  IND d   1       4.044   4.588  -3.376  0.00  0.00    -0.096 A 
ATOM     10  HN1 IND d   1       6.839   3.630  -4.208  0.00  0.00     0.298 HD
ENDROOT
TORSDOF 0
ENDMDL
