MODEL 1
REMARK minimizedAffinity 8.5205822
REMARK minimizedRMSD -1
REMARK  0 active torsions:
REMARK  status: ('A' for Active; 'I' for Inactive)
ROOT
ATOM      1  N1  IND d   1       4.714   4.356  -0.943  0.00  0.00    -0.196 N 
ATOM      2  C2  IND d   1       5.996   4.513  -1.391  0.00  0.00     0.054 A 
ATOM      3  C3  IND d   1       5.999   5.087  -2.615  0.00  0.00    -0.031 A 
ATOM      4  C4  IND d   1       4.024   5.946  -4.025  0.00  0.00     0.051 A 
ATOM      5  C5  IND d   1       2.658   5.991  -4.051  0.00  0.00    -0.031 A 
ATOM      6  C6  IND d   1       1.892   5.486  -3.020  0.00  0.00     0.015 A 
ATOM      7  C7  IND d   1       2.467   4.924  -1.915  0.00  0.00    -0.016 A 
ATOM      8  C8  IND d   1       3.853   4.870  -1.888  0.00  0.00    -0.047 A 
ATOM      9  C9  IND d   1       4.634   5.343  -2.951  0.00  0.00    -0.096 A 
ATOM     10  HN1 IND d   1       4.483   3.997  -0.197  0.00  0.00     0.298 HD
ENDROOT
TORSDOF 0
ENDMDL
