MODEL 1
REMARK minimizedAffinity 7.03997517
REMARK minimizedRMSD -1
REMARK  0 active torsions:
REMARK  status: ('A' for Active; 'I' for Inactive)
ROOT
ATOM      1  N1  IND d   1       2.783   4.780  -3.752  0.00  0.00    -0.196 N 
ATOM      2  C2  IND d   1       3.165   5.402  -4.909  0.00  0.00     0.054 A 
ATOM      3  C3  IND d   1       4.366   6.000  -4.747  0.00  0.00    -0.031 A 
ATOM      4  C4  IND d   1       5.931   6.000  -2.703  0.00  0.00     0.051 A 
ATOM      5  C5  IND d   1       6.000   5.597  -1.399  0.00  0.00    -0.031 A 
ATOM      6  C6  IND d   1       4.980   4.884  -0.801  0.00  0.00     0.015 A 
ATOM      7  C7  IND d   1       3.854   4.537  -1.492  0.00  0.00    -0.016 A 
ATOM      8  C8  IND d   1       3.778   4.950  -2.815  0.00  0.00    -0.047 A 
ATOM      9  C9  IND d   1       4.791   5.711  -3.414  0.00  0.00    -0.096 A 
ATOM     10  HN1 IND d   1       2.046   4.354  -3.631  0.00  0.00     0.298 HD
ENDROOT
TORSDOF 0
ENDMDL
