MODEL 1
REMARK minimizedAffinity 6.8742857
REMARK minimizedRMSD -1
REMARK  0 active torsions:
REMARK  status: ('A' for Active; 'I' for Inactive)
ROOT
ATOM      1  N1  IND d   1       2.697  -4.368   3.666  0.00  0.00    -0.196 N 
ATOM      2  C2  IND d   1       2.665  -3.006   3.552  0.00  0.00     0.054 A 
ATOM      3  C3  IND d   1       3.680  -2.452   4.252  0.00  0.00    -0.031 A 
ATOM      4  C4  IND d   1       5.570  -3.594   5.576  0.00  0.00     0.051 A 
ATOM      5  C5  IND d   1       6.000  -4.821   5.998  0.00  0.00    -0.031 A 
ATOM      6  C6  IND d   1       5.339  -5.983   5.655  0.00  0.00     0.015 A 
ATOM      7  C7  IND d   1       4.225  -5.962   4.865  0.00  0.00    -0.016 A 
ATOM      8  C8  IND d   1       3.782  -4.718   4.440  0.00  0.00    -0.047 A 
ATOM      9  C9  IND d   1       4.423  -3.532   4.819  0.00  0.00    -0.096 A 
ATOM     10  HN1 IND d   1       2.134  -4.914   3.314  0.00  0.00     0.298 HD
ENDROOT
TORSDOF 0
ENDMDL
