MODEL 1
REMARK minimizedAffinity -0.182547927
REMARK minimizedRMSD -1
REMARK  0 active torsions:
REMARK  status: ('A' for Active; 'I' for Inactive)
ROOT
ATOM      1  N1  IND d   1       3.925   5.137  -5.391  0.00  0.00    -0.196 N 
ATOM      2  C2  IND d   1       5.120   5.482  -5.959  0.00  0.00     0.054 A 
ATOM      3  C3  IND d   1       6.000   5.865  -5.007  0.00  0.00    -0.031 A 
ATOM      4  C4  IND d   1       5.725   5.907  -2.448  0.00  0.00     0.051 A 
ATOM      5  C5  IND d   1       4.800   5.715  -1.460  0.00  0.00    -0.031 A 
ATOM      6  C6  IND d   1       3.511   5.310  -1.738  0.00  0.00     0.015 A 
ATOM      7  C7  IND d   1       3.100   5.069  -3.019  0.00  0.00    -0.016 A 
ATOM      8  C8  IND d   1       4.035   5.270  -4.025  0.00  0.00    -0.047 A 
ATOM      9  C9  IND d   1       5.332   5.722  -3.752  0.00  0.00    -0.096 A 
ATOM     10  HN1 IND d   1       3.224   4.880  -5.816  0.00  0.00     0.298 HD
ENDROOT
TORSDOF 0
ENDMDL
