MODEL 1
REMARK minimizedAffinity -4.40479565
REMARK minimizedRMSD -1
REMARK  0 active torsions:
REMARK  status: ('A' for Active; 'I' for Inactive)
ROOT
ATOM      1  N1  IND d   1       3.790   3.358  -5.293  0.00  0.00    -0.196 N 
ATOM      2  C2  IND d   1       4.967   3.139  -5.953  0.00  0.00     0.054 A 
ATOM      3  C3  IND d   1       5.999   3.675  -5.264  0.00  0.00    -0.031 A 
ATOM      4  C4  IND d   1       5.999   4.865  -2.982  0.00  0.00     0.051 A 
ATOM      5  C5  IND d   1       5.159   5.333  -2.011  0.00  0.00    -0.031 A 
ATOM      6  C6  IND d   1       3.792   5.161  -2.085  0.00  0.00     0.015 A 
ATOM      7  C7  IND d   1       3.213   4.501  -3.131  0.00  0.00    -0.016 A 
ATOM      8  C8  IND d   1       4.062   4.031  -4.122  0.00  0.00    -0.047 A 
ATOM      9  C9  IND d   1       5.446   4.240  -4.074  0.00  0.00    -0.096 A 
ATOM     10  HN1 IND d   1       3.010   3.116  -5.564  0.00  0.00     0.298 HD
ENDROOT
TORSDOF 0
ENDMDL
