MODEL 1
REMARK minimizedAffinity -1.13471806
REMARK minimizedRMSD -1
REMARK  0 active torsions:
REMARK  status: ('A' for Active; 'I' for Inactive)
ROOT
ATOM      1  N1  IND d   1       3.370   4.678  -1.123  0.00  0.00    -0.196 N 
ATOM      2  C2  IND d   1       2.222   4.102  -1.588  0.00  0.00     0.054 A 
ATOM      3  C3  IND d   1       2.253   4.013  -2.937  0.00  0.00    -0.031 A 
ATOM      4  C4  IND d   1       4.130   4.659  -4.575  0.00  0.00     0.051 A 
ATOM      5  C5  IND d   1       5.358   5.258  -4.625  0.00  0.00    -0.031 A 
ATOM      6  C6  IND d   1       6.000   5.701  -3.486  0.00  0.00     0.015 A 
ATOM      7  C7  IND d   1       5.440   5.550  -2.249  0.00  0.00    -0.016 A 
ATOM      8  C8  IND d   1       4.191   4.949  -2.196  0.00  0.00    -0.047 A 
ATOM      9  C9  IND d   1       3.516   4.536  -3.352  0.00  0.00    -0.096 A 
ATOM     10  HN1 IND d   1       3.550   4.844  -0.298  0.00  0.00     0.298 HD
ENDROOT
TORSDOF 0
ENDMDL
