MODEL 1
REMARK minimizedAffinity 11.1049395
REMARK minimizedRMSD -1
REMARK  0 active torsions:
REMARK  status: ('A' for Active; 'I' for Inactive)
ROOT
ATOM      1  N1  IND d   1       3.093  -1.524  -2.124  0.00  0.00    -0.196 N 
ATOM      2  C2  IND d   1       4.051  -1.891  -3.027  0.00  0.00     0.054 A 
ATOM      3  C3  IND d   1       3.486  -2.513  -4.086  0.00  0.00    -0.031 A 
ATOM      4  C4  IND d   1       1.000  -2.947  -4.592  0.00  0.00     0.051 A 
ATOM      5  C5  IND d   1      -0.248  -2.827  -4.046  0.00  0.00    -0.031 A 
ATOM      6  C6  IND d   1      -0.449  -2.252  -2.808  0.00  0.00     0.015 A 
ATOM      7  C7  IND d   1       0.592  -1.764  -2.071  0.00  0.00    -0.016 A 
ATOM      8  C8  IND d   1       1.861  -1.891  -2.619  0.00  0.00    -0.047 A 
ATOM      9  C9  IND d   1       2.076  -2.511  -3.856  0.00  0.00    -0.096 A 
ATOM     10  HN1 IND d   1       3.236  -1.131  -1.373  0.00  0.00     0.298 HD
ENDROOT
TORSDOF 0
ENDMDL
