MODEL 1
REMARK minimizedAffinity 5.15678644
REMARK minimizedRMSD -1
REMARK  0 active torsions:
REMARK  status: ('A' for Active; 'I' for Inactive)
ROOT
ATOM      1  N1  IND d   1       4.977   4.277  -1.563  0.00  0.00    -0.196 N 
ATOM      2  C2  IND d   1       5.979   5.203  -1.477  0.00  0.00     0.054 A 
ATOM      3  C3  IND d   1       5.990   5.988  -2.577  0.00  0.00    -0.031 A 
ATOM      4  C4  IND d   1       4.390   5.999  -4.594  0.00  0.00     0.051 A 
ATOM      5  C5  IND d   1       3.339   5.316  -5.140  0.00  0.00    -0.031 A 
ATOM      6  C6  IND d   1       2.768   4.231  -4.507  0.00  0.00     0.015 A 
ATOM      7  C7  IND d   1       3.220   3.795  -3.294  0.00  0.00    -0.016 A 
ATOM      8  C8  IND d   1       4.291   4.482  -2.740  0.00  0.00    -0.047 A 
ATOM      9  C9  IND d   1       4.903   5.557  -3.398  0.00  0.00    -0.096 A 
ATOM     10  HN1 IND d   1       4.804   3.669  -0.980  0.00  0.00     0.298 HD
ENDROOT
TORSDOF 0
ENDMDL
