MODEL 1
REMARK minimizedAffinity 1.18953633
REMARK minimizedRMSD -1
REMARK  0 active torsions:
REMARK  status: ('A' for Active; 'I' for Inactive)
ROOT
ATOM      1  N1  IND d   1       2.985   5.199  -2.960  0.00  0.00    -0.196 N 
ATOM      2  C2  IND d   1       2.220   5.976  -3.785  0.00  0.00     0.054 A 
ATOM      3  C3  IND d   1       2.743   5.995  -5.032  0.00  0.00    -0.031 A 
ATOM      4  C4  IND d   1       4.790   4.744  -5.966  0.00  0.00     0.051 A 
ATOM      5  C5  IND d   1       5.828   3.942  -5.584  0.00  0.00    -0.031 A 
ATOM      6  C6  IND d   1       5.974   3.507  -4.282  0.00  0.00     0.015 A 
ATOM      7  C7  IND d   1       5.075   3.850  -3.312  0.00  0.00    -0.016 A 
ATOM      8  C8  IND d   1       4.023   4.670  -3.695  0.00  0.00    -0.047 A 
ATOM      9  C9  IND d   1       3.894   5.150  -5.005  0.00  0.00    -0.096 A 
ATOM     10  HN1 IND d   1       2.841   5.064  -2.123  0.00  0.00     0.298 HD
ENDROOT
TORSDOF 0
ENDMDL
