MODEL 1
REMARK minimizedAffinity -2.29193616
REMARK minimizedRMSD -1
REMARK  0 active torsions:
REMARK  status: ('A' for Active; 'I' for Inactive)
ROOT
ATOM      1  N1  IND d   1       5.979   3.927  -1.952  0.00  0.00    -0.196 N 
ATOM      2  C2  IND d   1       5.835   5.244  -1.615  0.00  0.00     0.054 A 
ATOM      3  C3  IND d   1       5.683   6.000  -2.726  0.00  0.00    -0.031 A 
ATOM      4  C4  IND d   1       5.539   5.273  -5.191  0.00  0.00     0.051 A 
ATOM      5  C5  IND d   1       5.653   4.177  -5.999  0.00  0.00    -0.031 A 
ATOM      6  C6  IND d   1       5.884   2.915  -5.489  0.00  0.00     0.015 A 
ATOM      7  C7  IND d   1       5.998   2.701  -4.145  0.00  0.00    -0.016 A 
ATOM      8  C8  IND d   1       5.889   3.813  -3.322  0.00  0.00    -0.047 A 
ATOM      9  C9  IND d   1       5.698   5.101  -3.836  0.00  0.00    -0.096 A 
ATOM     10  HN1 IND d   1       6.104   3.279  -1.400  0.00  0.00     0.298 HD
ENDROOT
TORSDOF 0
ENDMDL
