MODEL 1
REMARK minimizedAffinity 0.462043554
REMARK minimizedRMSD -1
REMARK  0 active torsions:
REMARK  status: ('A' for Active; 'I' for Inactive)
ROOT
ATOM      1  N1  IND d   1       5.996   2.409  -4.638  0.00  0.00    -0.196 N 
ATOM      2  C2  IND d   1       5.966   2.828  -5.939  0.00  0.00     0.054 A 
ATOM      3  C3  IND d   1       5.919   4.178  -5.998  0.00  0.00    -0.031 A 
ATOM      4  C4  IND d   1       5.986   5.902  -4.087  0.00  0.00     0.051 A 
ATOM      5  C5  IND d   1       5.977   6.000  -2.724  0.00  0.00    -0.031 A 
ATOM      6  C6  IND d   1       5.976   4.884  -1.913  0.00  0.00     0.015 A 
ATOM      7  C7  IND d   1       5.996   3.622  -2.437  0.00  0.00    -0.016 A 
ATOM      8  C8  IND d   1       5.999   3.519  -3.821  0.00  0.00    -0.047 A 
ATOM      9  C9  IND d   1       5.956   4.647  -4.649  0.00  0.00    -0.096 A 
ATOM     10  HN1 IND d   1       6.010   1.591  -4.374  0.00  0.00     0.298 HD
ENDROOT
TORSDOF 0
ENDMDL
