MODEL 1
REMARK minimizedAffinity -1.49768078
REMARK minimizedRMSD -1
REMARK  0 active torsions:
REMARK  status: ('A' for Active; 'I' for Inactive)
ROOT
ATOM      1  N1  IND d   1       3.999   3.822  -5.174  0.00  0.00    -0.196 N 
ATOM      2  C2  IND d   1       5.076   3.990  -6.000  0.00  0.00     0.054 A 
ATOM      3  C3  IND d   1       5.999   4.783  -5.413  0.00  0.00    -0.031 A 
ATOM      4  C4  IND d   1       5.997   5.834  -3.063  0.00  0.00     0.051 A 
ATOM      5  C5  IND d   1       5.212   5.994  -1.955  0.00  0.00    -0.031 A 
ATOM      6  C6  IND d   1       3.959   5.424  -1.861  0.00  0.00     0.015 A 
ATOM      7  C7  IND d   1       3.446   4.661  -2.871  0.00  0.00    -0.016 A 
ATOM      8  C8  IND d   1       4.237   4.502  -4.000  0.00  0.00    -0.047 A 
ATOM      9  C9  IND d   1       5.492   5.113  -4.119  0.00  0.00    -0.096 A 
ATOM     10  HN1 IND d   1       3.292   3.369  -5.358  0.00  0.00     0.298 HD
ENDROOT
TORSDOF 0
ENDMDL
