MODEL 1
REMARK minimizedAffinity 3.55104685
REMARK minimizedRMSD -1
REMARK  0 active torsions:
REMARK  status: ('A' for Active; 'I' for Inactive)
ROOT
ATOM      1  N1  IND d   1       5.990   4.159  -2.059  0.00  0.00    -0.196 N 
ATOM      2  C2  IND d   1       5.986   5.482  -2.407  0.00  0.00     0.054 A 
ATOM      3  C3  IND d   1       5.999   5.614  -3.752  0.00  0.00    -0.031 A 
ATOM      4  C4  IND d   1       5.926   3.798  -5.576  0.00  0.00     0.051 A 
ATOM      5  C5  IND d   1       5.957   2.443  -5.748  0.00  0.00    -0.031 A 
ATOM      6  C6  IND d   1       5.999   1.573  -4.678  0.00  0.00     0.015 A 
ATOM      7  C7  IND d   1       6.000   2.027  -3.389  0.00  0.00    -0.016 A 
ATOM      8  C8  IND d   1       5.975   3.403  -3.211  0.00  0.00    -0.047 A 
ATOM      9  C9  IND d   1       5.976   4.292  -4.294  0.00  0.00    -0.096 A 
ATOM     10  HN1 IND d   1       6.000   3.852  -1.257  0.00  0.00     0.298 HD
ENDROOT
TORSDOF 0
ENDMDL
