MODEL 1
REMARK minimizedAffinity -3.90361357
REMARK minimizedRMSD -1
REMARK  1 active torsions:
REMARK  status: ('A' for Active; 'I' for Inactive)
REMARK    1  A    between atoms: C1_2  and  C2_3 
ROOT
ATOM      1  C2  UNL d   1       0.328   0.159   0.109  0.00  0.00    -0.077 A 
ATOM      2  C3  UNL d   1       1.394   1.069   0.104  0.00  0.00     0.002 A 
ATOM      3  C4  UNL d   1       2.685   0.647   0.426  0.00  0.00     0.002 A 
ATOM      4  C5  UNL d   1       2.923  -0.687   0.752  0.00  0.00    -0.004 A 
ATOM      5  C6  UNL d   1       1.869  -1.599   0.762  0.00  0.00     0.002 A 
ATOM      6  C7  UNL d   1       0.577  -1.179   0.442  0.00  0.00     0.002 A 
ENDROOT
BRANCH   1   7
ATOM      7  C1  UNL d   1      -1.057   0.602  -0.286  0.00  0.00     0.055 C 
ATOM      8  C   UNL d   1      -1.568  -0.183  -1.485  0.00  0.00     0.019 C 
ENDBRANCH   1   7
TORSDOF 1
ENDMDL
