MODEL 1
REMARK minimizedAffinity -4.16739893
REMARK minimizedRMSD -1
REMARK  1 active torsions:
REMARK  status: ('A' for Active; 'I' for Inactive)
REMARK    1  A    between atoms: C1_2  and  C2_3 
ROOT
ATOM      1  C2  UNL d   1      -2.444  -0.375  -1.214  0.00  0.00    -0.077 A 
ATOM      2  C3  UNL d   1      -2.463  -1.635  -1.829  0.00  0.00     0.002 A 
ATOM      3  C4  UNL d   1      -3.143  -1.822  -3.034  0.00  0.00     0.002 A 
ATOM      4  C5  UNL d   1      -3.805  -0.754  -3.635  0.00  0.00    -0.004 A 
ATOM      5  C6  UNL d   1      -3.794   0.502  -3.030  0.00  0.00     0.002 A 
ATOM      6  C7  UNL d   1      -3.115   0.691  -1.825  0.00  0.00     0.002 A 
ENDROOT
BRANCH   1   7
ATOM      7  C1  UNL d   1      -1.670  -0.160   0.060  0.00  0.00     0.055 C 
ATOM      8  C   UNL d   1      -0.390  -0.983   0.076  0.00  0.00     0.019 C 
ENDBRANCH   1   7
TORSDOF 1
ENDMDL
