MODEL 1
REMARK minimizedAffinity -4.59499979
REMARK minimizedRMSD -1
REMARK  1 active torsions:
REMARK  status: ('A' for Active; 'I' for Inactive)
REMARK    1  A    between atoms: C1_2  and  C2_3 
ROOT
ATOM      1  C2  UNL d   1      -0.064   0.175  -0.579  0.00  0.00    -0.077 A 
ATOM      2  C3  UNL d   1      -0.166   0.747  -1.855  0.00  0.00     0.002 A 
ATOM      3  C4  UNL d   1      -1.401   0.811  -2.504  0.00  0.00     0.002 A 
ATOM      4  C5  UNL d   1      -2.543   0.310  -1.883  0.00  0.00    -0.004 A 
ATOM      5  C6  UNL d   1      -2.452  -0.262  -0.615  0.00  0.00     0.002 A 
ATOM      6  C7  UNL d   1      -1.218  -0.328   0.035  0.00  0.00     0.002 A 
ENDROOT
BRANCH   1   7
ATOM      7  C1  UNL d   1       1.257   0.149   0.143  0.00  0.00     0.055 C 
ATOM      8  C   UNL d   1       1.438  -1.146   0.922  0.00  0.00     0.019 C 
ENDBRANCH   1   7
TORSDOF 1
ENDMDL
