MODEL 1
REMARK minimizedAffinity 0.0845620334
REMARK minimizedRMSD -1
REMARK  0 active torsions:
REMARK  status: ('A' for Active; 'I' for Inactive)
ROOT
ATOM      1  C   UNL d   1      -0.986   0.860  -1.561  0.00  0.00    -0.002 A 
ATOM      2  C1  UNL d   1      -2.166   0.864  -0.831  0.00  0.00     0.010 A 
ATOM      3  C2  UNL d   1      -2.152   0.612   0.543  0.00  0.00     0.041 A 
ATOM      4  C3  UNL d   1      -0.920   0.357   1.176  0.00  0.00    -0.075 A 
ATOM      5  S   UNL d   1      -0.660   0.024   2.848  0.00  0.00     0.015 SA
ATOM      6  C4  UNL d   1       1.024  -0.129   2.632  0.00  0.00     0.022 A 
ATOM      7  C5  UNL d   1       1.396   0.065   1.323  0.00  0.00     0.026 A 
ATOM      8  C6  UNL d   1       0.282   0.349   0.462  0.00  0.00    -0.082 A 
ATOM      9  C7  UNL d   1       0.235   0.607  -0.929  0.00  0.00     0.045 A 
ENDROOT
TORSDOF 0
ENDMDL
