MODEL 1
REMARK minimizedAffinity 0.342809856
REMARK minimizedRMSD -1
REMARK  0 active torsions:
REMARK  status: ('A' for Active; 'I' for Inactive)
ROOT
ATOM      1  C   UNL d   1       0.827  -0.135   2.627  0.00  0.00    -0.002 A 
ATOM      2  C1  UNL d   1       1.833   0.293   1.773  0.00  0.00     0.010 A 
ATOM      3  C2  UNL d   1       1.534   0.710   0.475  0.00  0.00     0.041 A 
ATOM      4  C3  UNL d   1       0.192   0.693   0.046  0.00  0.00    -0.075 A 
ATOM      5  S   UNL d   1      -0.412   1.161  -1.499  0.00  0.00     0.015 SA
ATOM      6  C4  UNL d   1      -2.020   0.805  -1.062  0.00  0.00     0.022 A 
ATOM      7  C5  UNL d   1      -2.113   0.339   0.228  0.00  0.00     0.026 A 
ATOM      8  C6  UNL d   1      -0.840   0.268   0.888  0.00  0.00    -0.082 A 
ATOM      9  C7  UNL d   1      -0.503  -0.151   2.198  0.00  0.00     0.045 A 
ENDROOT
TORSDOF 0
ENDMDL
