MODEL 1
REMARK minimizedAffinity -3.73911834
REMARK minimizedRMSD -1
REMARK  0 active torsions:
REMARK  status: ('A' for Active; 'I' for Inactive)
ROOT
ATOM      1  C   UNL d   1      -0.978  -0.751   3.042  0.00  0.00    -0.002 A 
ATOM      2  C1  UNL d   1       0.351  -0.634   2.661  0.00  0.00     0.010 A 
ATOM      3  C2  UNL d   1       0.687  -0.260   1.358  0.00  0.00     0.041 A 
ATOM      4  C3  UNL d   1      -0.346  -0.000   0.436  0.00  0.00    -0.075 A 
ATOM      5  S   UNL d   1      -0.174   0.474  -1.213  0.00  0.00     0.015 SA
ATOM      6  C4  UNL d   1      -1.860   0.533  -1.450  0.00  0.00     0.022 A 
ATOM      7  C5  UNL d   1      -2.554   0.202  -0.310  0.00  0.00     0.026 A 
ATOM      8  C6  UNL d   1      -1.693  -0.110   0.796  0.00  0.00    -0.082 A 
ATOM      9  C7  UNL d   1      -2.000  -0.492   2.124  0.00  0.00     0.045 A 
ENDROOT
TORSDOF 0
ENDMDL
