MODEL 1
REMARK minimizedAffinity -4.22881985
REMARK minimizedRMSD -1
REMARK  0 active torsions:
REMARK  status: ('A' for Active; 'I' for Inactive)
ROOT
ATOM      1  C   UNL d   1      -1.881  -0.022   3.391  0.00  0.00    -0.002 A 
ATOM      2  C1  UNL d   1      -2.829   0.417   2.478  0.00  0.00     0.010 A 
ATOM      3  C2  UNL d   1      -2.496   0.581   1.132  0.00  0.00     0.041 A 
ATOM      4  C3  UNL d   1      -1.182   0.292   0.714  0.00  0.00    -0.075 A 
ATOM      5  S   UNL d   1      -0.548   0.419  -0.884  0.00  0.00     0.015 SA
ATOM      6  C4  UNL d   1       0.997  -0.107  -0.392  0.00  0.00     0.022 A 
ATOM      7  C5  UNL d   1       1.045  -0.377   0.955  0.00  0.00     0.026 A 
ATOM      8  C6  UNL d   1      -0.210  -0.152   1.615  0.00  0.00    -0.082 A 
ATOM      9  C7  UNL d   1      -0.578  -0.307   2.973  0.00  0.00     0.045 A 
ENDROOT
TORSDOF 0
ENDMDL
