MODEL 1
REMARK minimizedAffinity -0.403336853
REMARK minimizedRMSD -1
REMARK  0 active torsions:
REMARK  status: ('A' for Active; 'I' for Inactive)
ROOT
ATOM      1  C   UNL d   1       0.051   0.300   0.816  0.00  0.00    -0.002 A 
ATOM      2  C1  UNL d   1       1.093   1.148   0.468  0.00  0.00     0.010 A 
ATOM      3  C2  UNL d   1       1.638   1.113  -0.817  0.00  0.00     0.041 A 
ATOM      4  C3  UNL d   1       1.112   0.205  -1.756  0.00  0.00    -0.075 A 
ATOM      5  S   UNL d   1       1.620  -0.014  -3.389  0.00  0.00     0.015 SA
ATOM      6  C4  UNL d   1       0.465  -1.236  -3.664  0.00  0.00     0.022 A 
ATOM      7  C5  UNL d   1      -0.299  -1.485  -2.547  0.00  0.00     0.026 A 
ATOM      8  C6  UNL d   1       0.061  -0.658  -1.430  0.00  0.00    -0.082 A 
ATOM      9  C7  UNL d   1      -0.469  -0.599  -0.119  0.00  0.00     0.045 A 
ENDROOT
TORSDOF 0
ENDMDL
