MODEL 1
REMARK minimizedAffinity -2.00699973
REMARK minimizedRMSD -1
REMARK  0 active torsions:
REMARK  status: ('A' for Active; 'I' for Inactive)
ROOT
ATOM      1  C   UNL d   1      -2.160   1.027  -1.144  0.00  0.00    -0.002 A 
ATOM      2  C1  UNL d   1      -2.745   0.701   0.072  0.00  0.00     0.010 A 
ATOM      3  C2  UNL d   1      -1.955   0.453   1.196  0.00  0.00     0.041 A 
ATOM      4  C3  UNL d   1      -0.554   0.540   1.078  0.00  0.00    -0.075 A 
ATOM      5  S   UNL d   1       0.613   0.279   2.320  0.00  0.00     0.015 SA
ATOM      6  C4  UNL d   1       1.915   0.595   1.267  0.00  0.00     0.022 A 
ATOM      7  C5  UNL d   1       1.488   0.894  -0.006  0.00  0.00     0.026 A 
ATOM      8  C6  UNL d   1       0.058   0.868  -0.136  0.00  0.00    -0.082 A 
ATOM      9  C7  UNL d   1      -0.770   1.112  -1.257  0.00  0.00     0.045 A 
ENDROOT
TORSDOF 0
ENDMDL
