MODEL 1
REMARK minimizedAffinity -2.31553817
REMARK minimizedRMSD -1
REMARK  0 active torsions:
REMARK  status: ('A' for Active; 'I' for Inactive)
ROOT
ATOM      1  C   UNL d   1      -2.151  -1.170   1.284  0.00  0.00    -0.002 A 
ATOM      2  C1  UNL d   1      -1.951  -0.869   2.623  0.00  0.00     0.010 A 
ATOM      3  C2  UNL d   1      -0.795  -0.205   3.038  0.00  0.00     0.041 A 
ATOM      4  C3  UNL d   1       0.166   0.157   2.073  0.00  0.00    -0.075 A 
ATOM      5  S   UNL d   1       1.657   0.977   2.348  0.00  0.00     0.015 SA
ATOM      6  C4  UNL d   1       2.063   0.949   0.693  0.00  0.00     0.022 A 
ATOM      7  C5  UNL d   1       1.096   0.333  -0.065  0.00  0.00     0.026 A 
ATOM      8  C6  UNL d   1      -0.014  -0.134   0.717  0.00  0.00    -0.082 A 
ATOM      9  C7  UNL d   1      -1.196  -0.809   0.329  0.00  0.00     0.045 A 
ENDROOT
TORSDOF 0
ENDMDL
