MODEL 1
REMARK minimizedAffinity 0.351995051
REMARK minimizedRMSD -1
REMARK  0 active torsions:
REMARK  status: ('A' for Active; 'I' for Inactive)
ROOT
ATOM      1  C   UNL d   1      -0.653  -0.177   3.165  0.00  0.00    -0.002 A 
ATOM      2  C1  UNL d   1       0.168   0.650   2.412  0.00  0.00     0.010 A 
ATOM      3  C2  UNL d   1       0.565   0.277   1.127  0.00  0.00     0.041 A 
ATOM      4  C3  UNL d   1       0.117  -0.952   0.604  0.00  0.00    -0.075 A 
ATOM      5  S   UNL d   1       0.474  -1.615  -0.947  0.00  0.00     0.015 SA
ATOM      6  C4  UNL d   1      -0.456  -3.011  -0.647  0.00  0.00     0.022 A 
ATOM      7  C5  UNL d   1      -1.032  -2.989   0.601  0.00  0.00     0.026 A 
ATOM      8  C6  UNL d   1      -0.712  -1.801   1.343  0.00  0.00    -0.082 A 
ATOM      9  C7  UNL d   1      -1.096  -1.396   2.644  0.00  0.00     0.045 A 
ENDROOT
TORSDOF 0
ENDMDL
