MODEL 1
REMARK minimizedAffinity 0.470992416
REMARK minimizedRMSD -1
REMARK  0 active torsions:
REMARK  status: ('A' for Active; 'I' for Inactive)
ROOT
ATOM      1  C   UNL d   1      -2.637   0.681   0.672  0.00  0.00    -0.002 A 
ATOM      2  C1  UNL d   1      -2.148   0.613  -0.625  0.00  0.00     0.010 A 
ATOM      3  C2  UNL d   1      -0.802   0.330  -0.863  0.00  0.00     0.041 A 
ATOM      4  C3  UNL d   1       0.053   0.113   0.235  0.00  0.00    -0.075 A 
ATOM      5  S   UNL d   1       1.738  -0.249   0.185  0.00  0.00     0.015 SA
ATOM      6  C4  UNL d   1       1.849  -0.323   1.884  0.00  0.00     0.022 A 
ATOM      7  C5  UNL d   1       0.640  -0.079   2.491  0.00  0.00     0.026 A 
ATOM      8  C6  UNL d   1      -0.415   0.176   1.550  0.00  0.00    -0.082 A 
ATOM      9  C7  UNL d   1      -1.785   0.465   1.759  0.00  0.00     0.045 A 
ENDROOT
TORSDOF 0
ENDMDL
