MODEL 1
REMARK minimizedAffinity -1.19833875
REMARK minimizedRMSD -1
REMARK  0 active torsions:
REMARK  status: ('A' for Active; 'I' for Inactive)
ROOT
ATOM      1  C   UNL d   1       1.903  -2.060  -3.353  0.00  0.00    -0.002 A 
ATOM      2  C1  UNL d   1       0.562  -1.919  -3.683  0.00  0.00     0.010 A 
ATOM      3  C2  UNL d   1      -0.307  -1.224  -2.841  0.00  0.00     0.041 A 
ATOM      4  C3  UNL d   1       0.198  -0.666  -1.650  0.00  0.00    -0.075 A 
ATOM      5  S   UNL d   1      -0.681   0.228  -0.466  0.00  0.00     0.015 SA
ATOM      6  C4  UNL d   1       0.702   0.445   0.505  0.00  0.00     0.022 A 
ATOM      7  C5  UNL d   1       1.816  -0.145  -0.044  0.00  0.00     0.026 A 
ATOM      8  C6  UNL d   1       1.544  -0.794  -1.296  0.00  0.00    -0.082 A 
ATOM      9  C7  UNL d   1       2.400  -1.505  -2.171  0.00  0.00     0.045 A 
ENDROOT
TORSDOF 0
ENDMDL
