MODEL 1
REMARK minimizedAffinity 2.08496308
REMARK minimizedRMSD -1
REMARK  0 active torsions:
REMARK  status: ('A' for Active; 'I' for Inactive)
ROOT
ATOM      1  C   UNL d   1      -1.353   0.575   2.014  0.00  0.00    -0.002 A 
ATOM      2  C1  UNL d   1      -0.084   0.427   2.557  0.00  0.00     0.010 A 
ATOM      3  C2  UNL d   1       1.001   0.092   1.744  0.00  0.00     0.041 A 
ATOM      4  C3  UNL d   1       0.788  -0.090   0.363  0.00  0.00    -0.075 A 
ATOM      5  S   UNL d   1       1.967  -0.502  -0.825  0.00  0.00     0.015 SA
ATOM      6  C4  UNL d   1       0.815  -0.489  -2.081  0.00  0.00     0.022 A 
ATOM      7  C5  UNL d   1      -0.444  -0.180  -1.622  0.00  0.00     0.026 A 
ATOM      8  C6  UNL d   1      -0.480   0.055  -0.206  0.00  0.00    -0.082 A 
ATOM      9  C7  UNL d   1      -1.560   0.394   0.644  0.00  0.00     0.045 A 
ENDROOT
TORSDOF 0
ENDMDL
