MODEL 1
REMARK minimizedAffinity 6.33701658
REMARK minimizedRMSD -1
REMARK  0 active torsions:
REMARK  status: ('A' for Active; 'I' for Inactive)
ROOT
ATOM      1  C   UNL d   1       5.270   5.437  -5.733  0.00  0.00     0.078 C 
ATOM      2  C1  UNL d   1       3.823   5.046  -5.704  0.00  0.00    -0.077 A 
ATOM      3  C2  UNL d   1       3.435   3.735  -5.402  0.00  0.00    -0.001 A 
ATOM      4  C3  UNL d   1       2.085   3.383  -5.388  0.00  0.00     0.003 A 
ATOM      5  C4  UNL d   1       1.110   4.337  -5.676  0.00  0.00    -0.005 A 
ATOM      6  C5  UNL d   1       1.486   5.644  -5.980  0.00  0.00     0.003 A 
ATOM      7  C6  UNL d   1       2.836   5.997  -5.995  0.00  0.00    -0.001 A 
ENDROOT
TORSDOF 0
ENDMDL
