MODEL 1
REMARK minimizedAffinity 0.841988921
REMARK minimizedRMSD -1
REMARK  0 active torsions:
REMARK  status: ('A' for Active; 'I' for Inactive)
ROOT
ATOM      1  C   UNL d   1      -0.407  -1.434   3.061  0.00  0.00     0.078 C 
ATOM      2  C1  UNL d   1       0.501  -2.289   2.228  0.00  0.00    -0.077 A 
ATOM      3  C2  UNL d   1       0.317  -3.675   2.151  0.00  0.00    -0.001 A 
ATOM      4  C3  UNL d   1       1.176  -4.459   1.379  0.00  0.00     0.003 A 
ATOM      5  C4  UNL d   1       2.225  -3.866   0.679  0.00  0.00    -0.005 A 
ATOM      6  C5  UNL d   1       2.417  -2.488   0.751  0.00  0.00     0.003 A 
ATOM      7  C6  UNL d   1       1.559  -1.702   1.522  0.00  0.00    -0.001 A 
ENDROOT
TORSDOF 0
ENDMDL
