MODEL 1
REMARK minimizedAffinity 5.20841169
REMARK minimizedRMSD -1
REMARK  0 active torsions:
REMARK  status: ('A' for Active; 'I' for Inactive)
ROOT
ATOM      1  C   UNL d   1      -5.999   2.222   2.318  0.00  0.00     0.078 C 
ATOM      2  C1  UNL d   1      -5.306   1.871   3.601  0.00  0.00    -0.077 A 
ATOM      3  C2  UNL d   1      -3.971   2.231   3.822  0.00  0.00    -0.001 A 
ATOM      4  C3  UNL d   1      -3.336   1.889   5.017  0.00  0.00     0.003 A 
ATOM      5  C4  UNL d   1      -4.028   1.184   6.000  0.00  0.00    -0.005 A 
ATOM      6  C5  UNL d   1      -5.356   0.819   5.788  0.00  0.00     0.003 A 
ATOM      7  C6  UNL d   1      -5.992   1.160   4.594  0.00  0.00    -0.001 A 
ENDROOT
TORSDOF 0
ENDMDL
