MODEL 1
REMARK minimizedAffinity 5.9973588
REMARK minimizedRMSD -1
REMARK  0 active torsions:
REMARK  status: ('A' for Active; 'I' for Inactive)
ROOT
ATOM      1  C   UNL d   1       1.902  -0.354   3.773  0.00  0.00     0.078 C 
ATOM      2  C1  UNL d   1       1.781  -1.217   2.552  0.00  0.00    -0.077 A 
ATOM      3  C2  UNL d   1       2.911  -1.798   1.964  0.00  0.00    -0.001 A 
ATOM      4  C3  UNL d   1       2.785  -2.591   0.823  0.00  0.00     0.003 A 
ATOM      5  C4  UNL d   1       1.530  -2.810   0.259  0.00  0.00    -0.005 A 
ATOM      6  C5  UNL d   1       0.399  -2.235   0.836  0.00  0.00     0.003 A 
ATOM      7  C6  UNL d   1       0.524  -1.441   1.977  0.00  0.00    -0.001 A 
ENDROOT
TORSDOF 0
ENDMDL
