MODEL 1
REMARK minimizedAffinity 3.35074735
REMARK minimizedRMSD -1
REMARK  0 active torsions:
REMARK  status: ('A' for Active; 'I' for Inactive)
ROOT
ATOM      1  C   UNL d   1      -0.183  -0.854   2.680  0.00  0.00     0.078 C 
ATOM      2  C1  UNL d   1       0.938  -1.617   2.040  0.00  0.00    -0.077 A 
ATOM      3  C2  UNL d   1       0.840  -2.069   0.718  0.00  0.00    -0.001 A 
ATOM      4  C3  UNL d   1       1.888  -2.786   0.138  0.00  0.00     0.003 A 
ATOM      5  C4  UNL d   1       3.041  -3.058   0.872  0.00  0.00    -0.005 A 
ATOM      6  C5  UNL d   1       3.147  -2.614   2.189  0.00  0.00     0.003 A 
ATOM      7  C6  UNL d   1       2.100  -1.896   2.771  0.00  0.00    -0.001 A 
ENDROOT
TORSDOF 0
ENDMDL
