MODEL 1
REMARK minimizedAffinity 7.06977272
REMARK minimizedRMSD -1
REMARK  0 active torsions:
REMARK  status: ('A' for Active; 'I' for Inactive)
ROOT
ATOM      1  C   UNL d   1      -6.000   1.093  -4.582  0.00  0.00     0.078 C 
ATOM      2  C1  UNL d   1      -5.569  -0.117  -3.808  0.00  0.00    -0.077 A 
ATOM      3  C2  UNL d   1      -5.999  -1.398  -4.173  0.00  0.00    -0.001 A 
ATOM      4  C3  UNL d   1      -5.598  -2.514  -3.437  0.00  0.00     0.003 A 
ATOM      5  C4  UNL d   1      -4.765  -2.360  -2.331  0.00  0.00    -0.005 A 
ATOM      6  C5  UNL d   1      -4.333  -1.089  -1.958  0.00  0.00     0.003 A 
ATOM      7  C6  UNL d   1      -4.734   0.029  -2.693  0.00  0.00    -0.001 A 
ENDROOT
TORSDOF 0
ENDMDL
