MODEL 1
REMARK minimizedAffinity 7.92060566
REMARK minimizedRMSD -1
REMARK  0 active torsions:
REMARK  status: ('A' for Active; 'I' for Inactive)
ROOT
ATOM      1  C   UNL d   1      -0.310  -1.594  -0.670  0.00  0.00     0.078 C 
ATOM      2  C1  UNL d   1       0.988  -1.857   0.035  0.00  0.00    -0.077 A 
ATOM      3  C2  UNL d   1       1.452  -0.997   1.037  0.00  0.00    -0.001 A 
ATOM      4  C3  UNL d   1       2.666  -1.248   1.677  0.00  0.00     0.003 A 
ATOM      5  C4  UNL d   1       3.427  -2.360   1.321  0.00  0.00    -0.005 A 
ATOM      6  C5  UNL d   1       2.975  -3.220   0.323  0.00  0.00     0.003 A 
ATOM      7  C6  UNL d   1       1.761  -2.970  -0.318  0.00  0.00    -0.001 A 
ENDROOT
TORSDOF 0
ENDMDL
