MODEL 1
REMARK minimizedAffinity 2.09057164
REMARK minimizedRMSD -1
REMARK  0 active torsions:
REMARK  status: ('A' for Active; 'I' for Inactive)
ROOT
ATOM      1  C   UNL d   1      -0.780   2.274   1.313  0.00  0.00     0.077 C 
ATOM      2  C1  UNL d   1      -1.786   1.471   2.083  0.00  0.00    -0.074 A 
ATOM      3  C2  UNL d   1      -1.711   0.075   2.126  0.00  0.00    -0.005 A 
ATOM      4  C3  UNL d   1      -2.648  -0.657   2.854  0.00  0.00     0.006 A 
ATOM      5  C4  UNL d   1      -3.667  -0.003   3.547  0.00  0.00    -0.005 A 
ATOM      6  C5  UNL d   1      -3.757   1.393   3.517  0.00  0.00    -0.074 A 
ATOM      7  C6  UNL d   1      -4.841   2.112   4.263  0.00  0.00     0.077 C 
ATOM      8  C7  UNL d   1      -2.808   2.122   2.788  0.00  0.00    -0.001 A 
ENDROOT
TORSDOF 0
ENDMDL
