MODEL 1
REMARK minimizedAffinity 0.29546836
REMARK minimizedRMSD -1
REMARK  0 active torsions:
REMARK  status: ('A' for Active; 'I' for Inactive)
ROOT
ATOM      1  C   UNL d   1       1.195   2.615   0.983  0.00  0.00     0.077 C 
ATOM      2  C1  UNL d   1       0.030   1.730   1.315  0.00  0.00    -0.074 A 
ATOM      3  C2  UNL d   1       0.059   0.363   1.020  0.00  0.00    -0.005 A 
ATOM      4  C3  UNL d   1      -1.027  -0.449   1.343  0.00  0.00     0.006 A 
ATOM      5  C4  UNL d   1      -2.152   0.096   1.964  0.00  0.00    -0.005 A 
ATOM      6  C5  UNL d   1      -2.199   1.460   2.267  0.00  0.00    -0.074 A 
ATOM      7  C6  UNL d   1      -3.396   2.060   2.943  0.00  0.00     0.077 C 
ATOM      8  C7  UNL d   1      -1.100   2.268   1.946  0.00  0.00    -0.001 A 
ENDROOT
TORSDOF 0
ENDMDL
