MODEL 1
REMARK minimizedAffinity -5.418015
REMARK minimizedRMSD -1
REMARK  0 active torsions:
REMARK  status: ('A' for Active; 'I' for Inactive)
ROOT
ATOM      1  C   UNL d   1       0.419   3.390   1.155  0.00  0.00     0.077 C 
ATOM      2  C1  UNL d   1      -0.002   1.954   1.258  0.00  0.00    -0.074 A 
ATOM      3  C2  UNL d   1       0.772   0.935   0.693  0.00  0.00    -0.005 A 
ATOM      4  C3  UNL d   1       0.373  -0.396   0.806  0.00  0.00     0.006 A 
ATOM      5  C4  UNL d   1      -0.803  -0.723   1.482  0.00  0.00    -0.005 A 
ATOM      6  C5  UNL d   1      -1.590   0.282   2.054  0.00  0.00    -0.074 A 
ATOM      7  C6  UNL d   1      -2.851  -0.052   2.794  0.00  0.00     0.077 C 
ATOM      8  C7  UNL d   1      -1.178   1.617   1.943  0.00  0.00    -0.001 A 
ENDROOT
TORSDOF 0
ENDMDL
