MODEL 1
REMARK minimizedAffinity 6.94174862
REMARK minimizedRMSD -1
REMARK  0 active torsions:
REMARK  status: ('A' for Active; 'I' for Inactive)
ROOT
ATOM      1  C   UNL d   1      -3.520  -0.247   2.801  0.00  0.00     0.077 C 
ATOM      2  C1  UNL d   1      -2.497   0.764   2.376  0.00  0.00    -0.074 A 
ATOM      3  C2  UNL d   1      -2.667   2.122   2.662  0.00  0.00    -0.005 A 
ATOM      4  C3  UNL d   1      -1.702   3.050   2.269  0.00  0.00     0.006 A 
ATOM      5  C4  UNL d   1      -0.560   2.630   1.586  0.00  0.00    -0.005 A 
ATOM      6  C5  UNL d   1      -0.373   1.275   1.292  0.00  0.00    -0.074 A 
ATOM      7  C6  UNL d   1       0.854   0.805   0.568  0.00  0.00     0.077 C 
ATOM      8  C7  UNL d   1      -1.343   0.348   1.697  0.00  0.00    -0.001 A 
ENDROOT
TORSDOF 0
ENDMDL
