MODEL 1
REMARK minimizedAffinity 6.05493641
REMARK minimizedRMSD -1
REMARK  0 active torsions:
REMARK  status: ('A' for Active; 'I' for Inactive)
ROOT
ATOM      1  C   UNL d   1      -2.022   2.663   2.263  0.00  0.00     0.077 C 
ATOM      2  C1  UNL d   1      -3.078   1.866   2.968  0.00  0.00    -0.074 A 
ATOM      3  C2  UNL d   1      -3.229   0.497   2.722  0.00  0.00    -0.005 A 
ATOM      4  C3  UNL d   1      -4.211  -0.233   3.393  0.00  0.00     0.006 A 
ATOM      5  C4  UNL d   1      -5.049   0.396   4.313  0.00  0.00    -0.005 A 
ATOM      6  C5  UNL d   1      -4.913   1.764   4.572  0.00  0.00    -0.074 A 
ATOM      7  C6  UNL d   1      -5.799   2.454   5.565  0.00  0.00     0.077 C 
ATOM      8  C7  UNL d   1      -3.920   2.489   3.900  0.00  0.00    -0.001 A 
ENDROOT
TORSDOF 0
ENDMDL
