MODEL 1
REMARK minimizedAffinity 1.13476634
REMARK minimizedRMSD -1
REMARK  0 active torsions:
REMARK  status: ('A' for Active; 'I' for Inactive)
ROOT
ATOM      1  C   UNL d   1      -2.398   2.516   2.933  0.00  0.00     0.077 C 
ATOM      2  C1  UNL d   1      -1.447   1.639   2.174  0.00  0.00    -0.074 A 
ATOM      3  C2  UNL d   1      -1.309   0.284   2.491  0.00  0.00    -0.005 A 
ATOM      4  C3  UNL d   1      -0.428  -0.522   1.770  0.00  0.00     0.006 A 
ATOM      5  C4  UNL d   1       0.324   0.019   0.727  0.00  0.00    -0.005 A 
ATOM      6  C5  UNL d   1       0.199   1.372   0.394  0.00  0.00    -0.074 A 
ATOM      7  C6  UNL d   1       0.993   1.967  -0.731  0.00  0.00     0.077 C 
ATOM      8  C7  UNL d   1      -0.694   2.173   1.119  0.00  0.00    -0.001 A 
ENDROOT
TORSDOF 0
ENDMDL
