MODEL 1
REMARK minimizedAffinity 0.751459956
REMARK minimizedRMSD -1
REMARK  0 active torsions:
REMARK  status: ('A' for Active; 'I' for Inactive)
ROOT
ATOM      1  C   UNL d   1      -0.765  -1.738   2.500  0.00  0.00     0.077 C 
ATOM      2  C1  UNL d   1      -0.536  -0.355   1.967  0.00  0.00    -0.074 A 
ATOM      3  C2  UNL d   1       0.600  -0.056   1.208  0.00  0.00    -0.005 A 
ATOM      4  C3  UNL d   1       0.794   1.233   0.711  0.00  0.00     0.006 A 
ATOM      5  C4  UNL d   1      -0.144   2.234   0.968  0.00  0.00    -0.005 A 
ATOM      6  C5  UNL d   1      -1.286   1.953   1.724  0.00  0.00    -0.074 A 
ATOM      7  C6  UNL d   1      -2.309   3.015   2.000  0.00  0.00     0.077 C 
ATOM      8  C7  UNL d   1      -1.478   0.654   2.214  0.00  0.00    -0.001 A 
ENDROOT
TORSDOF 0
ENDMDL
