MODEL 1
REMARK minimizedAffinity -6.28828382
REMARK minimizedRMSD -1
REMARK  0 active torsions:
REMARK  status: ('A' for Active; 'I' for Inactive)
ROOT
ATOM      1  C   UNL d   1      -2.606  -1.109   1.398  0.00  0.00     0.077 C 
ATOM      2  C1  UNL d   1      -1.640   0.038   1.373  0.00  0.00    -0.074 A 
ATOM      3  C2  UNL d   1      -2.056   1.335   1.691  0.00  0.00    -0.005 A 
ATOM      4  C3  UNL d   1      -1.145   2.391   1.673  0.00  0.00     0.006 A 
ATOM      5  C4  UNL d   1       0.190   2.161   1.336  0.00  0.00    -0.005 A 
ATOM      6  C5  UNL d   1       0.624   0.871   1.015  0.00  0.00    -0.074 A 
ATOM      7  C6  UNL d   1       2.057   0.605   0.660  0.00  0.00     0.077 C 
ATOM      8  C7  UNL d   1      -0.296  -0.186   1.043  0.00  0.00    -0.001 A 
ENDROOT
TORSDOF 0
ENDMDL
