MODEL 1
REMARK minimizedAffinity 5.7236104
REMARK minimizedRMSD -1
REMARK  0 active torsions:
REMARK  status: ('A' for Active; 'I' for Inactive)
ROOT
ATOM      1  C   UNL d   1      -3.711  -2.959  -4.786  0.00  0.00     0.077 C 
ATOM      2  C1  UNL d   1      -3.791  -2.787  -3.298  0.00  0.00    -0.074 A 
ATOM      3  C2  UNL d   1      -3.758  -1.514  -2.719  0.00  0.00    -0.005 A 
ATOM      4  C3  UNL d   1      -3.843  -1.369  -1.334  0.00  0.00     0.006 A 
ATOM      5  C4  UNL d   1      -3.961  -2.493  -0.516  0.00  0.00    -0.005 A 
ATOM      6  C5  UNL d   1      -3.996  -3.774  -1.077  0.00  0.00    -0.074 A 
ATOM      7  C6  UNL d   1      -4.133  -4.992  -0.213  0.00  0.00     0.077 C 
ATOM      8  C7  UNL d   1      -3.918  -3.911  -2.470  0.00  0.00    -0.001 A 
ENDROOT
TORSDOF 0
ENDMDL
