MODEL 1
REMARK minimizedAffinity -1.30012298
REMARK minimizedRMSD -1
REMARK  0 active torsions:
REMARK  status: ('A' for Active; 'I' for Inactive)
ROOT
ATOM      1  C   UNL d   1      -2.243  -0.811   1.754  0.00  0.00     0.077 C 
ATOM      2  C1  UNL d   1      -1.078   0.096   1.491  0.00  0.00    -0.074 A 
ATOM      3  C2  UNL d   1      -1.061   1.405   1.983  0.00  0.00    -0.005 A 
ATOM      4  C3  UNL d   1       0.034   2.234   1.739  0.00  0.00     0.006 A 
ATOM      5  C4  UNL d   1       1.121   1.763   1.002  0.00  0.00    -0.005 A 
ATOM      6  C5  UNL d   1       1.123   0.457   0.503  0.00  0.00    -0.074 A 
ATOM      7  C6  UNL d   1       2.287  -0.068  -0.283  0.00  0.00     0.077 C 
ATOM      8  C7  UNL d   1       0.022  -0.372   0.758  0.00  0.00    -0.001 A 
ENDROOT
TORSDOF 0
ENDMDL
