MODEL 1
REMARK minimizedAffinity -3.13575912
REMARK minimizedRMSD -1
REMARK  0 active torsions:
REMARK  status: ('A' for Active; 'I' for Inactive)
ROOT
ATOM      1  C   UNL d   1       1.733   3.419   0.369  0.00  0.00     0.077 C 
ATOM      2  C1  UNL d   1       0.522   2.655   0.818  0.00  0.00    -0.074 A 
ATOM      3  C2  UNL d   1      -0.717   3.288   0.954  0.00  0.00    -0.005 A 
ATOM      4  C3  UNL d   1      -1.836   2.562   1.363  0.00  0.00     0.006 A 
ATOM      5  C4  UNL d   1      -1.727   1.199   1.640  0.00  0.00    -0.005 A 
ATOM      6  C5  UNL d   1      -0.495   0.549   1.509  0.00  0.00    -0.074 A 
ATOM      7  C6  UNL d   1      -0.363  -0.918   1.793  0.00  0.00     0.077 C 
ATOM      8  C7  UNL d   1       0.623   1.283   1.091  0.00  0.00    -0.001 A 
ENDROOT
TORSDOF 0
ENDMDL
