MODEL 1
REMARK minimizedAffinity -4.1723218
REMARK minimizedRMSD -1
REMARK  0 active torsions:
REMARK  status: ('A' for Active; 'I' for Inactive)
ROOT
ATOM      1  C   UNL d   1       2.380   1.075  -0.082  0.00  0.00     0.077 C 
ATOM      2  C1  UNL d   1       1.093   0.745   0.615  0.00  0.00    -0.074 A 
ATOM      3  C2  UNL d   1       0.705  -0.584   0.815  0.00  0.00    -0.005 A 
ATOM      4  C3  UNL d   1      -0.490  -0.876   1.473  0.00  0.00     0.006 A 
ATOM      5  C4  UNL d   1      -1.307   0.156   1.936  0.00  0.00    -0.005 A 
ATOM      6  C5  UNL d   1      -0.935   1.491   1.746  0.00  0.00    -0.074 A 
ATOM      7  C6  UNL d   1      -1.797   2.612   2.246  0.00  0.00     0.077 C 
ATOM      8  C7  UNL d   1       0.271   1.776   1.090  0.00  0.00    -0.001 A 
ENDROOT
TORSDOF 0
ENDMDL
