MODEL 1
REMARK minimizedAffinity -1.71465814
REMARK minimizedRMSD -1
REMARK  0 active torsions:
REMARK  status: ('A' for Active; 'I' for Inactive)
ROOT
ATOM      1  C   UNL d   1      -0.054  -1.062   0.430  0.00  0.00     0.077 C 
ATOM      2  C1  UNL d   1      -0.609   0.165   1.091  0.00  0.00    -0.074 A 
ATOM      3  C2  UNL d   1       0.101   1.370   1.079  0.00  0.00    -0.005 A 
ATOM      4  C3  UNL d   1      -0.432   2.506   1.690  0.00  0.00     0.006 A 
ATOM      5  C4  UNL d   1      -1.677   2.448   2.316  0.00  0.00    -0.005 A 
ATOM      6  C5  UNL d   1      -2.402   1.252   2.337  0.00  0.00    -0.074 A 
ATOM      7  C6  UNL d   1      -3.746   1.175   2.998  0.00  0.00     0.077 C 
ATOM      8  C7  UNL d   1      -1.863   0.117   1.716  0.00  0.00    -0.001 A 
ENDROOT
TORSDOF 0
ENDMDL
