MODEL 1
REMARK minimizedAffinity 1.95703661
REMARK minimizedRMSD -1
REMARK  0 active torsions:
REMARK  status: ('A' for Active; 'I' for Inactive)
ROOT
ATOM      1  C   UNL d   1      -2.446   2.642   1.889  0.00  0.00     0.077 C 
ATOM      2  C1  UNL d   1      -1.299   1.768   1.475  0.00  0.00    -0.074 A 
ATOM      3  C2  UNL d   1      -0.359   2.213   0.539  0.00  0.00    -0.005 A 
ATOM      4  C3  UNL d   1       0.708   1.393   0.171  0.00  0.00     0.006 A 
ATOM      5  C4  UNL d   1       0.844   0.123   0.732  0.00  0.00    -0.005 A 
ATOM      6  C5  UNL d   1      -0.086  -0.338   1.670  0.00  0.00    -0.074 A 
ATOM      7  C6  UNL d   1       0.052  -1.697   2.290  0.00  0.00     0.077 C 
ATOM      8  C7  UNL d   1      -1.151   0.494   2.040  0.00  0.00    -0.001 A 
ENDROOT
TORSDOF 0
ENDMDL
