MODEL 1
REMARK minimizedAffinity 3.027071
REMARK minimizedRMSD -1
REMARK  0 active torsions:
REMARK  status: ('A' for Active; 'I' for Inactive)
ROOT
ATOM      1  C   UNL d   1      -2.285  -2.632  -4.205  0.00  0.00     0.077 C 
ATOM      2  C1  UNL d   1      -2.929  -3.002  -2.902  0.00  0.00    -0.074 A 
ATOM      3  C2  UNL d   1      -3.769  -2.105  -2.235  0.00  0.00    -0.005 A 
ATOM      4  C3  UNL d   1      -4.368  -2.467  -1.029  0.00  0.00     0.006 A 
ATOM      5  C4  UNL d   1      -4.133  -3.727  -0.478  0.00  0.00    -0.005 A 
ATOM      6  C5  UNL d   1      -3.296  -4.638  -1.131  0.00  0.00    -0.074 A 
ATOM      7  C6  UNL d   1      -3.041  -6.000  -0.557  0.00  0.00     0.077 C 
ATOM      8  C7  UNL d   1      -2.704  -4.269  -2.346  0.00  0.00    -0.001 A 
ENDROOT
TORSDOF 0
ENDMDL
