MODEL 1
REMARK minimizedAffinity -2.93259525
REMARK minimizedRMSD -1
REMARK  0 active torsions:
REMARK  status: ('A' for Active; 'I' for Inactive)
ROOT
ATOM      1  C   UNL d   1      -3.577   1.701   2.758  0.00  0.00     0.077 C 
ATOM      2  C1  UNL d   1      -2.230   1.400   2.172  0.00  0.00    -0.074 A 
ATOM      3  C2  UNL d   1      -1.332   2.427   1.867  0.00  0.00    -0.005 A 
ATOM      4  C3  UNL d   1      -0.079   2.131   1.331  0.00  0.00     0.006 A 
ATOM      5  C4  UNL d   1       0.287   0.805   1.094  0.00  0.00    -0.005 A 
ATOM      6  C5  UNL d   1      -0.597  -0.236   1.393  0.00  0.00    -0.074 A 
ATOM      7  C6  UNL d   1      -0.215  -1.666   1.153  0.00  0.00     0.077 C 
ATOM      8  C7  UNL d   1      -1.852   0.070   1.938  0.00  0.00    -0.001 A 
ENDROOT
TORSDOF 0
ENDMDL
