MODEL 1
REMARK minimizedAffinity -1.20552301
REMARK minimizedRMSD -1
REMARK  0 active torsions:
REMARK  status: ('A' for Active; 'I' for Inactive)
ROOT
ATOM      1  C   UNL d   1       2.103  -0.209   1.626  0.00  0.00     0.077 C 
ATOM      2  C1  UNL d   1       0.657   0.187   1.669  0.00  0.00    -0.074 A 
ATOM      3  C2  UNL d   1      -0.346  -0.774   1.827  0.00  0.00    -0.005 A 
ATOM      4  C3  UNL d   1      -1.687  -0.391   1.874  0.00  0.00     0.006 A 
ATOM      5  C4  UNL d   1      -2.036   0.956   1.763  0.00  0.00    -0.005 A 
ATOM      6  C5  UNL d   1      -1.047   1.931   1.605  0.00  0.00    -0.074 A 
ATOM      7  C6  UNL d   1      -1.405   3.383   1.494  0.00  0.00     0.077 C 
ATOM      8  C7  UNL d   1       0.298   1.538   1.566  0.00  0.00    -0.001 A 
ENDROOT
TORSDOF 0
ENDMDL
