MODEL 1
REMARK minimizedAffinity -4.13338757
REMARK minimizedRMSD -1
REMARK  2 active torsions:
REMARK  status: ('A' for Active; 'I' for Inactive)
REMARK    1  A    between atoms: C2'_3  and  C1'_4 
REMARK    2  A    between atoms: C1'_4  and  C1_5 
ROOT
ATOM      1  C1  I4B d   1       0.437  -0.652  -0.459  0.00  0.00    -0.075 A 
ATOM      2  C2  I4B d   1       0.324   0.342  -1.399  0.00  0.00     0.003 A 
ATOM      3  C3  I4B d   1       0.050   1.672  -1.000  0.00  0.00     0.002 A 
ATOM      4  C4  I4B d   1      -0.153   1.954   0.335  0.00  0.00    -0.004 A 
ATOM      5  C5  I4B d   1      -0.016   0.949   1.289  0.00  0.00     0.002 A 
ATOM      6  C6  I4B d   1       0.293  -0.360   0.892  0.00  0.00     0.003 A 
ENDROOT
BRANCH   1   7
ATOM      7  C1' I4B d   1       0.694  -2.053  -0.917  0.00  0.00     0.060 C 
BRANCH   7   8
ATOM      8  C2' I4B d   1      -0.641  -2.759  -1.031  0.00  0.00    -0.013 C 
ATOM      9  C4' I4B d   1      -1.073  -2.881  -2.469  0.00  0.00     0.013 C 
ATOM     10  C3' I4B d   1      -0.507  -4.108  -0.390  0.00  0.00     0.013 C 
ENDBRANCH   7   8
ENDBRANCH   1   7
TORSDOF 2
ENDMDL
