MODEL 1
REMARK minimizedAffinity -2.04825163
REMARK minimizedRMSD -1
REMARK  2 active torsions:
REMARK  status: ('A' for Active; 'I' for Inactive)
REMARK    1  A    between atoms: C2'_3  and  C1'_4 
REMARK    2  A    between atoms: C1'_4  and  C1_5 
ROOT
ATOM      1  C1  I4B d   1      -0.249  -1.258  -0.337  0.00  0.00    -0.075 A 
ATOM      2  C2  I4B d   1       0.911  -1.891  -0.706  0.00  0.00     0.003 A 
ATOM      3  C3  I4B d   1       0.894  -3.262  -1.060  0.00  0.00     0.002 A 
ATOM      4  C4  I4B d   1      -0.288  -3.970  -0.982  0.00  0.00    -0.004 A 
ATOM      5  C5  I4B d   1      -1.468  -3.321  -0.629  0.00  0.00     0.002 A 
ATOM      6  C6  I4B d   1      -1.451  -1.954  -0.317  0.00  0.00     0.003 A 
ENDROOT
BRANCH   1   7
ATOM      7  C1' I4B d   1      -0.189   0.182   0.062  0.00  0.00     0.060 C 
BRANCH   7   8
ATOM      8  C2' I4B d   1      -0.106   0.245   1.573  0.00  0.00    -0.013 C 
ATOM      9  C4' I4B d   1       1.326   0.289   2.039  0.00  0.00     0.013 C 
ATOM     10  C3' I4B d   1      -0.861   1.458   2.028  0.00  0.00     0.013 C 
ENDBRANCH   7   8
ENDBRANCH   1   7
TORSDOF 2
ENDMDL
