MODEL 1
REMARK minimizedAffinity -4.52892494
REMARK minimizedRMSD -1
REMARK  2 active torsions:
REMARK  status: ('A' for Active; 'I' for Inactive)
REMARK    1  A    between atoms: C2'_3  and  C1'_4 
REMARK    2  A    between atoms: C1'_4  and  C1_5 
ROOT
ATOM      1  C1  I4B d   1       0.166  -1.184   0.282  0.00  0.00    -0.075 A 
ATOM      2  C2  I4B d   1       0.967  -0.105   0.561  0.00  0.00     0.003 A 
ATOM      3  C3  I4B d   1       0.526   0.897   1.459  0.00  0.00     0.002 A 
ATOM      4  C4  I4B d   1      -0.734   0.806   2.013  0.00  0.00    -0.004 A 
ATOM      5  C5  I4B d   1      -1.536  -0.300   1.747  0.00  0.00     0.002 A 
ATOM      6  C6  I4B d   1      -1.078  -1.308   0.885  0.00  0.00     0.003 A 
ENDROOT
BRANCH   1   7
ATOM      7  C1' I4B d   1       0.649  -2.206  -0.697  0.00  0.00     0.060 C 
BRANCH   7   8
ATOM      8  C2' I4B d   1      -0.287  -3.395  -0.631  0.00  0.00    -0.013 C 
ATOM      9  C4' I4B d   1      -0.812  -3.753  -1.996  0.00  0.00     0.013 C 
ATOM     10  C3' I4B d   1       0.463  -4.542  -0.021  0.00  0.00     0.013 C 
ENDBRANCH   7   8
ENDBRANCH   1   7
TORSDOF 2
ENDMDL
