MODEL 1
REMARK minimizedAffinity -3.72776985
REMARK minimizedRMSD -1
REMARK  2 active torsions:
REMARK  status: ('A' for Active; 'I' for Inactive)
REMARK    1  A    between atoms: C2'_3  and  C1'_4 
REMARK    2  A    between atoms: C1'_4  and  C1_5 
ROOT
ATOM      1  C1  I4B d   1       0.363  -0.021  -0.563  0.00  0.00    -0.075 A 
ATOM      2  C2  I4B d   1       0.623  -0.400   0.730  0.00  0.00     0.003 A 
ATOM      3  C3  I4B d   1       0.343   0.481   1.802  0.00  0.00     0.002 A 
ATOM      4  C4  I4B d   1      -0.147   1.743   1.534  0.00  0.00    -0.004 A 
ATOM      5  C5  I4B d   1      -0.432   2.118   0.224  0.00  0.00     0.002 A 
ATOM      6  C6  I4B d   1      -0.187   1.226  -0.830  0.00  0.00     0.003 A 
ENDROOT
BRANCH   1   7
ATOM      7  C1' I4B d   1       0.702  -0.964  -1.673  0.00  0.00     0.060 C 
BRANCH   7   8
ATOM      8  C2' I4B d   1       0.136  -2.324  -1.319  0.00  0.00    -0.013 C 
ATOM      9  C4' I4B d   1      -0.892  -2.766  -2.327  0.00  0.00     0.013 C 
ATOM     10  C3' I4B d   1       1.277  -3.296  -1.248  0.00  0.00     0.013 C 
ENDBRANCH   7   8
ENDBRANCH   1   7
TORSDOF 2
ENDMDL
