MODEL 1
REMARK minimizedAffinity 2.33713293
REMARK minimizedRMSD -1
REMARK  2 active torsions:
REMARK  status: ('A' for Active; 'I' for Inactive)
REMARK    1  A    between atoms: C2'_3  and  C1'_4 
REMARK    2  A    between atoms: C1'_4  and  C1_5 
ROOT
ATOM      1  C1  I4B d   1       0.609   2.702   1.739  0.00  0.00    -0.075 A 
ATOM      2  C2  I4B d   1       1.160   2.511   2.982  0.00  0.00     0.003 A 
ATOM      3  C3  I4B d   1       2.173   3.381   3.453  0.00  0.00     0.002 A 
ATOM      4  C4  I4B d   1       2.637   4.390   2.635  0.00  0.00    -0.004 A 
ATOM      5  C5  I4B d   1       2.062   4.596   1.384  0.00  0.00     0.002 A 
ATOM      6  C6  I4B d   1       1.033   3.754   0.938  0.00  0.00     0.003 A 
ENDROOT
BRANCH   1   7
ATOM      7  C1' I4B d   1      -0.435   1.744   1.259  0.00  0.00     0.060 C 
BRANCH   7   8
ATOM      8  C2' I4B d   1       0.226   0.773   0.302  0.00  0.00    -0.013 C 
ATOM      9  C4' I4B d   1       0.744  -0.440   1.028  0.00  0.00     0.013 C 
ATOM     10  C3' I4B d   1      -0.783   0.391  -0.740  0.00  0.00     0.013 C 
ENDBRANCH   7   8
ENDBRANCH   1   7
TORSDOF 2
ENDMDL
