MODEL 1
REMARK minimizedAffinity 1.21872854
REMARK minimizedRMSD -1
REMARK  1 active torsions:
REMARK  status: ('A' for Active; 'I' for Inactive)
REMARK    1  A    between atoms: C1_2  and  C2_3 
ROOT
ATOM      1  C2  UNL d   1       0.131   0.260   0.540  0.00  0.00    -0.076 A 
ATOM      2  C3  UNL d   1       1.090  -0.753   0.369  0.00  0.00     0.004 A 
ATOM      3  C4  UNL d   1       0.942  -1.993   0.987  0.00  0.00    -0.003 A 
ATOM      4  C5  UNL d   1      -0.168  -2.241   1.787  0.00  0.00     0.000 A 
ATOM      5  C6  UNL d   1      -1.139  -1.254   1.953  0.00  0.00     0.000 A 
ATOM      6  C7  UNL d   1      -1.013  -0.004   1.324  0.00  0.00    -0.073 A 
ATOM      7  C8  UNL d   1      -2.087   1.026   1.543  0.00  0.00     0.078 C 
ENDROOT
BRANCH   1   8
ATOM      8  C1  UNL d   1       0.358   1.594  -0.134  0.00  0.00     0.053 C 
ATOM      9  C   UNL d   1       0.709   1.451  -1.607  0.00  0.00     0.018 C 
ENDBRANCH   1   8
TORSDOF 1
ENDMDL
