MODEL 1
REMARK minimizedAffinity -1.47422636
REMARK minimizedRMSD -1
REMARK  1 active torsions:
REMARK  status: ('A' for Active; 'I' for Inactive)
REMARK    1  A    between atoms: C1_2  and  C2_3 
ROOT
ATOM      1  C2  UNL d   1       0.030  -1.224   1.264  0.00  0.00    -0.076 A 
ATOM      2  C3  UNL d   1       1.413  -1.190   1.018  0.00  0.00     0.004 A 
ATOM      3  C4  UNL d   1       1.969  -0.229   0.176  0.00  0.00    -0.003 A 
ATOM      4  C5  UNL d   1       1.150   0.715  -0.433  0.00  0.00     0.000 A 
ATOM      5  C6  UNL d   1      -0.223   0.707  -0.187  0.00  0.00     0.000 A 
ATOM      6  C7  UNL d   1      -0.797  -0.245   0.672  0.00  0.00    -0.073 A 
ATOM      7  C8  UNL d   1      -2.284  -0.211   0.897  0.00  0.00     0.078 C 
ENDROOT
BRANCH   1   8
ATOM      8  C1  UNL d   1      -0.520  -2.307   2.165  0.00  0.00     0.053 C 
ATOM      9  C   UNL d   1       0.317  -2.501   3.420  0.00  0.00     0.018 C 
ENDBRANCH   1   8
TORSDOF 1
ENDMDL
