MODEL 1
REMARK minimizedAffinity -6.01468039
REMARK minimizedRMSD -1
REMARK  1 active torsions:
REMARK  status: ('A' for Active; 'I' for Inactive)
REMARK    1  A    between atoms: C1_2  and  C2_3 
ROOT
ATOM      1  C2  UNL d   1       0.408  -0.418  -1.053  0.00  0.00    -0.076 A 
ATOM      2  C3  UNL d   1       0.413  -1.753  -1.493  0.00  0.00     0.004 A 
ATOM      3  C4  UNL d   1       0.022  -2.790  -0.647  0.00  0.00    -0.003 A 
ATOM      4  C5  UNL d   1      -0.382  -2.507   0.654  0.00  0.00     0.000 A 
ATOM      5  C6  UNL d   1      -0.410  -1.187   1.102  0.00  0.00     0.000 A 
ATOM      6  C7  UNL d   1      -0.035  -0.129   0.256  0.00  0.00    -0.073 A 
ATOM      7  C8  UNL d   1      -0.079   1.275   0.793  0.00  0.00     0.078 C 
ENDROOT
BRANCH   1   8
ATOM      8  C1  UNL d   1       0.868   0.661  -2.006  0.00  0.00     0.053 C 
ATOM      9  C   UNL d   1       2.083   0.240  -2.819  0.00  0.00     0.018 C 
ENDBRANCH   1   8
TORSDOF 1
ENDMDL
