MODEL 1
REMARK minimizedAffinity -4.37748194
REMARK minimizedRMSD -1
REMARK  1 active torsions:
REMARK  status: ('A' for Active; 'I' for Inactive)
REMARK    1  A    between atoms: C1_2  and  C2_3 
ROOT
ATOM      1  C2  UNL d   1      -0.173   0.505   0.750  0.00  0.00    -0.076 A 
ATOM      2  C3  UNL d   1       0.555  -0.695   0.663  0.00  0.00     0.004 A 
ATOM      3  C4  UNL d   1       0.060  -1.875   1.215  0.00  0.00    -0.003 A 
ATOM      4  C5  UNL d   1      -1.170  -1.875   1.864  0.00  0.00     0.000 A 
ATOM      5  C6  UNL d   1      -1.913  -0.698   1.944  0.00  0.00     0.000 A 
ATOM      6  C7  UNL d   1      -1.436   0.497   1.378  0.00  0.00    -0.073 A 
ATOM      7  C8  UNL d   1      -2.277   1.739   1.500  0.00  0.00     0.078 C 
ENDROOT
BRANCH   1   8
ATOM      8  C1  UNL d   1       0.426   1.760   0.156  0.00  0.00     0.053 C 
ATOM      9  C   UNL d   1       1.125   1.500  -1.170  0.00  0.00     0.018 C 
ENDBRANCH   1   8
TORSDOF 1
ENDMDL
