MODEL 1
REMARK minimizedAffinity -4.19369745
REMARK minimizedRMSD -1
REMARK  1 active torsions:
REMARK  status: ('A' for Active; 'I' for Inactive)
REMARK    1  A    between atoms: C1_2  and  C2_3 
ROOT
ATOM      1  C2  UNL d   1       0.178  -0.528   0.256  0.00  0.00    -0.076 A 
ATOM      2  C3  UNL d   1      -1.111  -0.374   0.794  0.00  0.00     0.004 A 
ATOM      3  C4  UNL d   1      -1.693  -1.381   1.561  0.00  0.00    -0.003 A 
ATOM      4  C5  UNL d   1      -0.995  -2.558   1.804  0.00  0.00     0.000 A 
ATOM      5  C6  UNL d   1       0.292  -2.722   1.293  0.00  0.00     0.000 A 
ATOM      6  C7  UNL d   1       0.900  -1.710   0.531  0.00  0.00    -0.073 A 
ATOM      7  C8  UNL d   1       2.288  -1.941  -0.001  0.00  0.00     0.078 C 
ENDROOT
BRANCH   1   8
ATOM      8  C1  UNL d   1       0.748   0.587  -0.592  0.00  0.00     0.053 C 
ATOM      9  C   UNL d   1       0.125   0.641  -1.979  0.00  0.00     0.018 C 
ENDBRANCH   1   8
TORSDOF 1
ENDMDL
