MODEL 1
REMARK minimizedAffinity -5.26744127
REMARK minimizedRMSD -1
REMARK  1 active torsions:
REMARK  status: ('A' for Active; 'I' for Inactive)
REMARK    1  A    between atoms: C1_2  and  C2_3 
ROOT
ATOM      1  C2  UNL d   1       0.545  -2.072   1.353  0.00  0.00    -0.076 A 
ATOM      2  C3  UNL d   1       1.581  -1.152   1.115  0.00  0.00     0.004 A 
ATOM      3  C4  UNL d   1       1.394  -0.066   0.261  0.00  0.00    -0.003 A 
ATOM      4  C5  UNL d   1       0.168   0.118  -0.368  0.00  0.00     0.000 A 
ATOM      5  C6  UNL d   1      -0.876  -0.775  -0.130  0.00  0.00     0.000 A 
ATOM      6  C7  UNL d   1      -0.710  -1.866   0.740  0.00  0.00    -0.073 A 
ATOM      7  C8  UNL d   1      -1.868  -2.801   0.956  0.00  0.00     0.078 C 
ENDROOT
BRANCH   1   8
ATOM      8  C1  UNL d   1       0.814  -3.246   2.267  0.00  0.00     0.053 C 
ATOM      9  C   UNL d   1       0.615  -2.899   3.734  0.00  0.00     0.018 C 
ENDBRANCH   1   8
TORSDOF 1
ENDMDL
