MODEL 1
REMARK minimizedAffinity -3.99660921
REMARK minimizedRMSD -1
REMARK  1 active torsions:
REMARK  status: ('A' for Active; 'I' for Inactive)
REMARK    1  A    between atoms: C1_2  and  C2_3 
ROOT
ATOM      1  C2  UNL d   1       0.792   1.154  -1.431  0.00  0.00    -0.076 A 
ATOM      2  C3  UNL d   1      -0.226   0.384  -2.020  0.00  0.00     0.004 A 
ATOM      3  C4  UNL d   1      -0.407   0.369  -3.402  0.00  0.00    -0.003 A 
ATOM      4  C5  UNL d   1       0.428   1.124  -4.218  0.00  0.00     0.000 A 
ATOM      5  C6  UNL d   1       1.454   1.880  -3.653  0.00  0.00     0.000 A 
ATOM      6  C7  UNL d   1       1.660   1.894  -2.263  0.00  0.00    -0.073 A 
ATOM      7  C8  UNL d   1       2.779   2.732  -1.706  0.00  0.00     0.078 C 
ENDROOT
BRANCH   1   8
ATOM      8  C1  UNL d   1       0.923   1.153   0.075  0.00  0.00     0.053 C 
ATOM      9  C   UNL d   1       0.951  -0.253   0.656  0.00  0.00     0.018 C 
ENDBRANCH   1   8
TORSDOF 1
ENDMDL
