MODEL 1
REMARK minimizedAffinity -1.54512799
REMARK minimizedRMSD -1
REMARK  1 active torsions:
REMARK  status: ('A' for Active; 'I' for Inactive)
REMARK    1  A    between atoms: C1_2  and  C2_3 
ROOT
ATOM      1  C2  UNL d   1      -0.645  -0.374   0.842  0.00  0.00    -0.076 A 
ATOM      2  C3  UNL d   1      -0.520  -1.474   1.708  0.00  0.00     0.004 A 
ATOM      3  C4  UNL d   1       0.316  -2.544   1.394  0.00  0.00    -0.003 A 
ATOM      4  C5  UNL d   1       1.042  -2.531   0.208  0.00  0.00     0.000 A 
ATOM      5  C6  UNL d   1       0.944  -1.439  -0.655  0.00  0.00     0.000 A 
ATOM      6  C7  UNL d   1       0.118  -0.346  -0.345  0.00  0.00    -0.073 A 
ATOM      7  C8  UNL d   1       0.046   0.802  -1.315  0.00  0.00     0.078 C 
ENDROOT
BRANCH   1   8
ATOM      8  C1  UNL d   1      -1.588   0.744   1.223  0.00  0.00     0.053 C 
ATOM      9  C   UNL d   1      -2.594   0.323   2.283  0.00  0.00     0.018 C 
ENDBRANCH   1   8
TORSDOF 1
ENDMDL
