MODEL 1
REMARK minimizedAffinity -2.12118721
REMARK minimizedRMSD -1
REMARK  1 active torsions:
REMARK  status: ('A' for Active; 'I' for Inactive)
REMARK    1  A    between atoms: C1_2  and  C2_3 
ROOT
ATOM      1  C2  UNL d   1       0.395   0.605  -1.671  0.00  0.00    -0.076 A 
ATOM      2  C3  UNL d   1       0.505  -0.733  -2.088  0.00  0.00     0.004 A 
ATOM      3  C4  UNL d   1       0.538  -1.773  -1.161  0.00  0.00    -0.003 A 
ATOM      4  C5  UNL d   1       0.461  -1.493   0.198  0.00  0.00     0.000 A 
ATOM      5  C6  UNL d   1       0.334  -0.173   0.630  0.00  0.00     0.000 A 
ATOM      6  C7  UNL d   1       0.283   0.887  -0.292  0.00  0.00    -0.073 A 
ATOM      7  C8  UNL d   1       0.151   2.291   0.229  0.00  0.00     0.078 C 
ENDROOT
BRANCH   1   8
ATOM      8  C1  UNL d   1       0.391   1.694  -2.720  0.00  0.00     0.053 C 
ATOM      9  C   UNL d   1       1.560   1.575  -3.686  0.00  0.00     0.018 C 
ENDBRANCH   1   8
TORSDOF 1
ENDMDL
