MODEL 1
REMARK minimizedAffinity -2.67401981
REMARK minimizedRMSD -1
REMARK  1 active torsions:
REMARK  status: ('A' for Active; 'I' for Inactive)
REMARK    1  A    between atoms: C1_2  and  C2_3 
ROOT
ATOM      1  C2  UNL d   1       0.863   0.360  -0.201  0.00  0.00    -0.076 A 
ATOM      2  C3  UNL d   1       2.016  -0.102   0.458  0.00  0.00     0.004 A 
ATOM      3  C4  UNL d   1       2.129  -1.432   0.859  0.00  0.00    -0.003 A 
ATOM      4  C5  UNL d   1       1.091  -2.323   0.606  0.00  0.00     0.000 A 
ATOM      5  C6  UNL d   1      -0.052  -1.886  -0.062  0.00  0.00     0.000 A 
ATOM      6  C7  UNL d   1      -0.175  -0.552  -0.487  0.00  0.00    -0.073 A 
ATOM      7  C8  UNL d   1      -1.433  -0.134  -1.198  0.00  0.00     0.078 C 
ENDROOT
BRANCH   1   8
ATOM      8  C1  UNL d   1       0.786   1.820  -0.587  0.00  0.00     0.053 C 
ATOM      9  C   UNL d   1       1.225   2.067  -2.022  0.00  0.00     0.018 C 
ENDBRANCH   1   8
TORSDOF 1
ENDMDL
