MODEL 1
REMARK minimizedAffinity -1.39178228
REMARK minimizedRMSD -1
REMARK  1 active torsions:
REMARK  status: ('A' for Active; 'I' for Inactive)
REMARK    1  A    between atoms: C1_2  and  C2_3 
ROOT
ATOM      1  C2  UNL d   1       0.876   0.707  -1.123  0.00  0.00    -0.076 A 
ATOM      2  C3  UNL d   1       1.042  -0.619  -1.560  0.00  0.00     0.004 A 
ATOM      3  C4  UNL d   1       0.652  -1.692  -0.760  0.00  0.00    -0.003 A 
ATOM      4  C5  UNL d   1       0.088  -1.457   0.489  0.00  0.00     0.000 A 
ATOM      5  C6  UNL d   1      -0.101  -0.148   0.931  0.00  0.00     0.000 A 
ATOM      6  C7  UNL d   1       0.272   0.946   0.131  0.00  0.00    -0.073 A 
ATOM      7  C8  UNL d   1       0.051   2.336   0.660  0.00  0.00     0.078 C 
ENDROOT
BRANCH   1   8
ATOM      8  C1  UNL d   1       1.342   1.830  -2.021  0.00  0.00     0.053 C 
ATOM      9  C   UNL d   1       2.842   1.791  -2.270  0.00  0.00     0.018 C 
ENDBRANCH   1   8
TORSDOF 1
ENDMDL
