MODEL 1
REMARK minimizedAffinity -4.7513442
REMARK minimizedRMSD -1
REMARK  1 active torsions:
REMARK  status: ('A' for Active; 'I' for Inactive)
REMARK    1  A    between atoms: C1_2  and  C2_3 
ROOT
ATOM      1  C2  UNL d   1      -0.251  -1.214   0.514  0.00  0.00    -0.076 A 
ATOM      2  C3  UNL d   1      -1.254  -0.269   0.791  0.00  0.00     0.004 A 
ATOM      3  C4  UNL d   1      -1.145   1.045   0.341  0.00  0.00    -0.003 A 
ATOM      4  C5  UNL d   1      -0.031   1.436  -0.394  0.00  0.00     0.000 A 
ATOM      5  C6  UNL d   1       0.965   0.508  -0.693  0.00  0.00     0.000 A 
ATOM      6  C7  UNL d   1       0.863  -0.826  -0.261  0.00  0.00    -0.073 A 
ATOM      7  C8  UNL d   1       1.970  -1.784  -0.607  0.00  0.00     0.078 C 
ENDROOT
BRANCH   1   8
ATOM      8  C1  UNL d   1      -0.411  -2.619   1.051  0.00  0.00     0.053 C 
ATOM      9  C   UNL d   1       0.078  -2.753   2.485  0.00  0.00     0.018 C 
ENDBRANCH   1   8
TORSDOF 1
ENDMDL
