MODEL 1
REMARK minimizedAffinity -1.53210652
REMARK minimizedRMSD -1
REMARK  1 active torsions:
REMARK  status: ('A' for Active; 'I' for Inactive)
REMARK    1  A    between atoms: C1_2  and  C2_3 
ROOT
ATOM      1  C2  UNL d   1       0.801  -0.145  -1.046  0.00  0.00    -0.076 A 
ATOM      2  C3  UNL d   1       1.118  -1.468  -1.398  0.00  0.00     0.004 A 
ATOM      3  C4  UNL d   1       1.034  -2.499  -0.464  0.00  0.00    -0.003 A 
ATOM      4  C5  UNL d   1       0.630  -2.224   0.838  0.00  0.00     0.000 A 
ATOM      5  C6  UNL d   1       0.294  -0.920   1.200  0.00  0.00     0.000 A 
ATOM      6  C7  UNL d   1       0.358   0.129   0.266  0.00  0.00    -0.073 A 
ATOM      7  C8  UNL d   1      -0.010   1.517   0.713  0.00  0.00     0.078 C 
ENDROOT
BRANCH   1   8
ATOM      8  C1  UNL d   1       0.937   0.936  -2.094  0.00  0.00     0.053 C 
ATOM      9  C   UNL d   1       2.123   1.852  -1.836  0.00  0.00     0.018 C 
ENDBRANCH   1   8
TORSDOF 1
ENDMDL
