MODEL 1
REMARK minimizedAffinity -2.78459406
REMARK minimizedRMSD -1
REMARK  1 active torsions:
REMARK  status: ('A' for Active; 'I' for Inactive)
REMARK    1  A    between atoms: C1_2  and  C2_3 
ROOT
ATOM      1  C2  UNL d   1       0.543  -0.132  -0.639  0.00  0.00    -0.076 A 
ATOM      2  C3  UNL d   1       0.817  -0.854  -1.813  0.00  0.00     0.004 A 
ATOM      3  C4  UNL d   1       1.378  -0.229  -2.925  0.00  0.00    -0.003 A 
ATOM      4  C5  UNL d   1       1.676   1.128  -2.881  0.00  0.00     0.000 A 
ATOM      5  C6  UNL d   1       1.427   1.857  -1.718  0.00  0.00     0.000 A 
ATOM      6  C7  UNL d   1       0.877   1.239  -0.582  0.00  0.00    -0.073 A 
ATOM      7  C8  UNL d   1       0.624   2.074   0.643  0.00  0.00     0.078 C 
ENDROOT
BRANCH   1   8
ATOM      8  C1  UNL d   1      -0.091  -0.857   0.527  0.00  0.00     0.053 C 
ATOM      9  C   UNL d   1       0.784  -1.980   1.060  0.00  0.00     0.018 C 
ENDBRANCH   1   8
TORSDOF 1
ENDMDL
