MODEL 1
REMARK minimizedAffinity 14.3962307
REMARK minimizedRMSD -1
REMARK  3 active torsions:
REMARK  status: ('A' for Active; 'I' for Inactive)
REMARK    1  A    between atoms: C3'_2  and  C2'_3 
REMARK    2  A    between atoms: C2'_3  and  C1'_4 
REMARK    3  A    between atoms: C1'_4  and  C1_5 
ROOT
ATOM      1  C1  N4B d   1       0.877   0.342   3.901  0.00  0.00    -0.075 A 
ATOM      2  C2  N4B d   1       0.847  -1.070   3.863  0.00  0.00     0.002 A 
ATOM      3  C3  N4B d   1       0.283  -1.716   2.791  0.00  0.00     0.002 A 
ATOM      4  C4  N4B d   1      -0.271  -0.975   1.757  0.00  0.00    -0.004 A 
ATOM      5  C5  N4B d   1      -0.215   0.388   1.789  0.00  0.00     0.002 A 
ATOM      6  C6  N4B d   1       0.352   1.050   2.859  0.00  0.00     0.002 A 
ENDROOT
BRANCH   1   7
ATOM      7  C1' N4B d   1       1.406   1.093   5.092  0.00  0.00     0.057 C 
BRANCH   7   8
ATOM      8  C2' N4B d   1       0.240   1.490   5.992  0.00  0.00     0.009 C 
BRANCH   8   9
ATOM      9  C3' N4B d   1      -0.022   2.986   5.956  0.00  0.00     0.004 C 
ATOM     10  C4' N4B d   1      -1.484   3.320   5.960  0.00  0.00     0.003 C 
ENDBRANCH   8   9
ENDBRANCH   7   8
ENDBRANCH   1   7
TORSDOF 3
ENDMDL
